# generated using pymatgen
data_Zn4H12C24O13
_symmetry_space_group_name_H-M   'P 1'
_cell_length_a   18.42016625
_cell_length_b   18.42016459
_cell_length_c   18.42016990
_cell_angle_alpha   60.00003374
_cell_angle_beta   60.00005245
_cell_angle_gamma   60.00005455
_symmetry_Int_Tables_number   1
_chemical_formula_structural   Zn4H12C24O13
_chemical_formula_sum   'Zn8 H24 C48 O26'
_cell_volume   4419.42886587
_cell_formula_units_Z   2
loop_
 _symmetry_equiv_pos_site_id
 _symmetry_equiv_pos_as_xyz
  1  'x, y, z'
loop_
 _atom_site_type_symbol
 _atom_site_label
 _atom_site_symmetry_multiplicity
 _atom_site_fract_x
 _atom_site_fract_y
 _atom_site_fract_z
 _atom_site_occupancy
  Zn  Zn0  1  0.70648470  0.70648353  0.88054944  1
  Zn  Zn1  1  0.70648401  0.88054960  0.70648376  1
  Zn  Zn2  1  0.88055015  0.70648343  0.70648380  1
  Zn  Zn3  1  0.70648435  0.70648213  0.70648242  1
  Zn  Zn4  1  0.29351778  0.29351563  0.11944948  1
  Zn  Zn5  1  0.29351707  0.11944926  0.29351582  1
  Zn  Zn6  1  0.29351868  0.29351649  0.29351650  1
  Zn  Zn7  1  0.11945341  0.29351465  0.29351512  1
  H  H8  1  0.54830800  0.83515545  0.06822822  1
  H  H9  1  0.54830839  0.06822826  0.83515510  1
  H  H10  1  0.06822939  0.54830713  0.54830681  1
  H  H11  1  0.83515644  0.54830691  0.54830704  1
  H  H12  1  0.54830859  0.54830849  0.83515513  1
  H  H13  1  0.54830809  0.54830818  0.06822820  1
  H  H14  1  0.06822862  0.83515590  0.54830750  1
  H  H15  1  0.83515564  0.06822934  0.54830767  1
  H  H16  1  0.54830811  0.06822805  0.54830825  1
  H  H17  1  0.54830790  0.83515525  0.54830830  1
  H  H18  1  0.06822887  0.54830762  0.83515632  1
  H  H19  1  0.83515649  0.54830708  0.06822895  1
  H  H20  1  0.45169277  0.16484417  0.93177070  1
  H  H21  1  0.45169207  0.93177105  0.16484382  1
  H  H22  1  0.16484478  0.45169208  0.45169122  1
  H  H23  1  0.93177214  0.45169109  0.45169211  1
  H  H24  1  0.93177186  0.45169196  0.16484459  1
  H  H25  1  0.16484500  0.45169218  0.93177130  1
  H  H26  1  0.45169220  0.16484371  0.45169261  1
  H  H27  1  0.45169230  0.93177122  0.45169266  1
  H  H28  1  0.16484413  0.93177146  0.45169191  1
  H  H29  1  0.93177170  0.16484436  0.45169209  1
  H  H30  1  0.45169258  0.45169262  0.16484378  1
  H  H31  1  0.45169307  0.45169293  0.93177072  1
  C  C32  1  0.61101057  0.88898931  0.88898891  1
  C  C33  1  0.88899152  0.61101053  0.61100980  1
  C  C34  1  0.61101136  0.61101126  0.88899022  1
  C  C35  1  0.88898952  0.88898953  0.61100982  1
  C  C36  1  0.61101067  0.88899056  0.61101107  1
  C  C37  1  0.88898999  0.61101001  0.88898964  1
  C  C38  1  0.38899042  0.11101054  0.11100934  1
  C  C39  1  0.11101055  0.38898823  0.38898845  1
  C  C40  1  0.11101227  0.38898893  0.11100995  1
  C  C41  1  0.38898997  0.11100894  0.38898918  1
  C  C42  1  0.11101210  0.11100986  0.38898910  1
  C  C43  1  0.38899035  0.38898930  0.11100870  1
  C  C44  1  0.55363939  0.94635966  0.94635986  1
  C  C45  1  0.94636005  0.55363969  0.55363885  1
  C  C46  1  0.55364068  0.55364056  0.94635917  1
  C  C47  1  0.94636033  0.94636037  0.55363954  1
  C  C48  1  0.55363992  0.94635920  0.55364075  1
  C  C49  1  0.94636066  0.55363912  0.94636062  1
  C  C50  1  0.44636075  0.05363934  0.05363905  1
  C  C51  1  0.05364085  0.44635898  0.44635941  1
  C  C52  1  0.05364061  0.44635992  0.05364030  1
  C  C53  1  0.44636018  0.05363975  0.44636016  1
  C  C54  1  0.05363999  0.05363989  0.44636005  1
  C  C55  1  0.44636080  0.44636086  0.05363975  1
  C  C56  1  0.52668789  0.90739655  0.03922625  1
  C  C57  1  0.52668871  0.03922645  0.90739573  1
  C  C58  1  0.03922769  0.52668755  0.52668714  1
  C  C59  1  0.90739845  0.52668775  0.52668739  1
  C  C60  1  0.52668935  0.52668923  0.90739709  1
  C  C61  1  0.52668876  0.52668884  0.03922622  1
  C  C62  1  0.03922623  0.90739791  0.52668783  1
  C  C63  1  0.90739763  0.03922695  0.52668802  1
  C  C64  1  0.52668853  0.03922635  0.52668858  1
  C  C65  1  0.52668875  0.90739620  0.52668930  1
  C  C66  1  0.03922707  0.52668793  0.90739695  1
  C  C67  1  0.90739734  0.52668783  0.03922700  1
  C  C68  1  0.47331170  0.09260299  0.96077267  1
  C  C69  1  0.47331196  0.96077309  0.09260252  1
  C  C70  1  0.09260384  0.47331123  0.47331020  1
  C  C71  1  0.96077461  0.47331035  0.47331111  1
  C  C72  1  0.96077442  0.47331134  0.09260330  1
  C  C73  1  0.09260416  0.47331143  0.96077325  1
  C  C74  1  0.47331199  0.09260231  0.47331228  1
  C  C75  1  0.47331189  0.96077292  0.47331234  1
  C  C76  1  0.09260331  0.96077393  0.47331156  1
  C  C77  1  0.96077408  0.09260342  0.47331109  1
  C  C78  1  0.47331213  0.47331219  0.09260183  1
  C  C79  1  0.47331272  0.47331258  0.96077270  1
  O  O80  1  0.75000062  0.74999949  0.74999969  1
  O  O81  1  0.25000271  0.24999944  0.24999923  1
  O  O82  1  0.63316702  0.80498066  0.92868436  1
  O  O83  1  0.63316708  0.92868422  0.80498101  1
  O  O84  1  0.92868408  0.63316688  0.63316671  1
  O  O85  1  0.80498058  0.63316682  0.63316667  1
  O  O86  1  0.63316861  0.63316745  0.80497966  1
  O  O87  1  0.63316784  0.63316773  0.92868368  1
  O  O88  1  0.92868442  0.80498097  0.63316672  1
  O  O89  1  0.80498097  0.92868444  0.63316669  1
  O  O90  1  0.63316679  0.92868397  0.63316797  1
  O  O91  1  0.63316889  0.80497935  0.63316730  1
  O  O92  1  0.92868478  0.63316646  0.80498107  1
  O  O93  1  0.80498083  0.63316700  0.92868506  1
  O  O94  1  0.36683429  0.19501842  0.07131456  1
  O  O95  1  0.36683401  0.07131464  0.19501858  1
  O  O96  1  0.19502119  0.36683162  0.36683158  1
  O  O97  1  0.07131737  0.36683126  0.36683154  1
  O  O98  1  0.07131672  0.36683173  0.19501984  1
  O  O99  1  0.19501958  0.36683335  0.07131519  1
  O  O100  1  0.36683369  0.19501883  0.36683295  1
  O  O101  1  0.36683363  0.07131530  0.36683294  1
  O  O102  1  0.19502011  0.07131442  0.36683289  1
  O  O103  1  0.07131698  0.19501928  0.36683220  1
  O  O104  1  0.36683364  0.36683257  0.19501926  1
  O  O105  1  0.36683387  0.36683283  0.07131524  1
