# generated using pymatgen
data_Zn2H20C25N8
_symmetry_space_group_name_H-M   'P 1'
_cell_length_a   14.87600000
_cell_length_b   15.22930000
_cell_length_c   23.64960000
_cell_angle_alpha   89.28390000
_cell_angle_beta   89.76820000
_cell_angle_gamma   80.25310000
_symmetry_Int_Tables_number   1
_chemical_formula_structural   Zn2H20C25N8
_chemical_formula_sum   'Zn8 H80 C100 N32'
_cell_volume   5280.08029342
_cell_formula_units_Z   4
loop_
 _symmetry_equiv_pos_site_id
 _symmetry_equiv_pos_as_xyz
  1  'x, y, z'
loop_
 _atom_site_type_symbol
 _atom_site_label
 _atom_site_symmetry_multiplicity
 _atom_site_fract_x
 _atom_site_fract_y
 _atom_site_fract_z
 _atom_site_occupancy
  Zn  Zn0  1  0.44369000  0.42267000  0.41379000  1.0
  Zn  Zn1  1  0.61177000  0.53555000  0.42033000  1.0
  Zn  Zn2  1  0.92428000  0.92016000  0.92201000  1.0
  Zn  Zn3  1  0.06074000  0.06999000  0.92435000  1.0
  Zn  Zn4  1  0.59316000  0.56371000  0.56083000  1.0
  Zn  Zn5  1  0.44809000  0.42622000  0.55596000  1.0
  Zn  Zn6  1  0.05211000  0.06824000  0.06329000  1.0
  Zn  Zn7  1  0.92587000  0.91447000  0.05991000  1.0
  H  H8  1  0.54564000  0.24404000  0.36191000  1.0
  H  H9  1  0.51805000  0.68533000  0.32340000  1.0
  H  H10  1  0.97016000  0.84245000  0.79257000  1.0
  H  H11  1  0.92442000  0.23043000  0.87295000  1.0
  H  H12  1  0.43253000  0.91833000  0.50668000  1.0
  H  H13  1  0.39358000  0.05532000  0.44566000  1.0
  H  H14  1  0.09644000  0.43667000  0.03447000  1.0
  H  H15  1  0.12328000  0.57493000  0.04282000  1.0
  H  H16  1  0.65731000  0.16374000  0.68937000  1.0
  H  H17  1  0.33241000  0.82238000  0.64854000  1.0
  H  H18  1  0.20835000  0.72070000  0.14574000  1.0
  H  H19  1  0.77063000  0.32304000  0.15509000  1.0
  H  H20  1  0.33794000  0.77823000  0.33109000  1.0
  H  H21  1  0.68900000  0.13145000  0.31109000  1.0
  H  H22  1  0.79198000  0.33011000  0.83555000  1.0
  H  H23  1  0.10859000  0.72556000  0.77960000  1.0
  H  H24  1  0.73686000  0.40614000  0.74683000  1.0
  H  H25  1  0.22416000  0.61300000  0.73540000  1.0
  H  H26  1  0.21770000  0.89212000  0.28786000  1.0
  H  H27  1  0.74203000  0.06405000  0.21986000  1.0
  H  H28  1  0.12508000  0.66072000  0.56765000  1.0
  H  H29  1  0.96106000  0.65729000  0.57438000  1.0
  H  H30  1  0.56436000  0.87771000  0.08484000  1.0
  H  H31  1  0.39809000  0.89738000  0.08626000  1.0
  H  H32  1  0.95627000  0.59774000  0.39684000  1.0
  H  H33  1  0.12089000  0.59577000  0.39094000  1.0
  H  H34  1  0.39664000  0.85722000  0.90617000  1.0
  H  H35  1  0.56347000  0.83598000  0.90495000  1.0
  H  H36  1  0.74015000  0.44767000  0.64214000  1.0
  H  H37  1  0.30726000  0.51445000  0.66205000  1.0
  H  H38  1  0.17481000  0.00810000  0.17756000  1.0
  H  H39  1  0.74762000  0.02179000  0.11503000  1.0
  H  H40  1  0.83366000  0.53220000  0.41078000  1.0
  H  H41  1  0.28859000  0.58993000  0.38940000  1.0
  H  H42  1  0.24008000  0.92437000  0.90386000  1.0
  H  H43  1  0.71325000  0.87328000  0.90081000  1.0
  H  H44  1  0.47060000  0.20675000  0.56053000  1.0
  H  H45  1  0.44234000  0.74645000  0.55735000  1.0
  H  H46  1  0.08415000  0.74912000  0.08366000  1.0
  H  H47  1  0.09547000  0.27233000  0.08622000  1.0
  H  H48  1  0.79442000  0.64802000  0.57700000  1.0
  H  H49  1  0.26731000  0.56307000  0.57097000  1.0
  H  H50  1  0.24174000  0.93493000  0.08687000  1.0
  H  H51  1  0.72479000  0.85160000  0.08326000  1.0
  H  H52  1  0.55153000  0.26219000  0.62714000  1.0
  H  H53  1  0.48102000  0.71408000  0.64795000  1.0
  H  H54  1  0.02261000  0.79141000  0.16711000  1.0
  H  H55  1  0.91244000  0.23005000  0.10607000  1.0
  H  H56  1  0.62088000  0.91757000  0.45302000  1.0
  H  H57  1  0.58537000  0.07692000  0.48433000  1.0
  H  H58  1  0.20593000  0.41486000  0.92366000  1.0
  H  H59  1  0.18004000  0.57368000  0.91779000  1.0
  H  H60  1  0.32545000  0.59463000  0.13279000  1.0
  H  H61  1  0.41174000  0.56222000  0.18470000  1.0
  H  H62  1  0.30451000  0.52831000  0.19186000  1.0
  H  H63  1  0.71227000  0.45079000  0.20381000  1.0
  H  H64  1  0.65613000  0.44826000  0.27040000  1.0
  H  H65  1  0.77627000  0.43869000  0.26717000  1.0
  H  H66  1  0.68168000  0.03547000  0.73976000  1.0
  H  H67  1  0.76879000  0.01903000  0.79234000  1.0
  H  H68  1  0.65330000  0.05308000  0.81210000  1.0
  H  H69  1  0.23955000  0.96996000  0.64483000  1.0
  H  H70  1  0.14679000  0.00033000  0.69247000  1.0
  H  H71  1  0.26041000  0.99511000  0.71593000  1.0
  H  H72  1  0.40244000  0.19676000  0.35025000  1.0
  H  H73  1  0.28859000  0.21255000  0.37521000  1.0
  H  H74  1  0.33706000  0.30614000  0.35338000  1.0
  H  H75  1  0.58229000  0.81836000  0.36678000  1.0
  H  H76  1  0.68291000  0.78004000  0.40609000  1.0
  H  H77  1  0.63744000  0.70469000  0.36305000  1.0
  H  H78  1  0.13019000  0.71107000  0.86758000  1.0
  H  H79  1  0.04887000  0.64344000  0.88694000  1.0
  H  H80  1  0.01219000  0.75398000  0.86059000  1.0
  H  H81  1  0.10084000  0.33718000  0.87559000  1.0
  H  H82  1  0.20838000  0.26623000  0.87668000  1.0
  H  H83  1  0.10856000  0.22148000  0.86123000  1.0
  H  H84  1  0.75900000  0.40428000  0.36330000  1.0
  H  H85  1  0.34316000  0.49176000  0.29416000  1.0
  H  H86  1  0.18053000  0.00442000  0.80720000  1.0
  H  H87  1  0.74047000  0.04041000  0.89214000  1.0
  C  C88  1  0.59071000  0.29153000  0.37004000  1.0
  C  C89  1  0.48533000  0.62699000  0.32238000  1.0
  C  C90  1  0.01448000  0.88901000  0.80428000  1.0
  C  C91  1  0.88901000  0.17591000  0.88428000  1.0
  C  C92  1  0.66198000  0.33454000  0.65706000  1.0
  C  C93  1  0.36276000  0.64319000  0.66619000  1.0
  C  C94  1  0.12886000  0.87511000  0.18675000  1.0
  C  C95  1  0.80628000  0.14671000  0.13022000  1.0
  C  C96  1  0.85333000  0.60317000  0.49176000  1.0
  C  C97  1  0.23649000  0.59693000  0.47955000  1.0
  C  C98  1  0.28397000  0.91148000  0.99559000  1.0
  C  C99  1  0.67611000  0.85879000  0.99275000  1.0
  C  C100  1  0.42334000  0.18461000  0.47273000  1.0
  C  C101  1  0.51283000  0.79308000  0.48107000  1.0
  C  C102  1  0.09596000  0.69713000  0.99480000  1.0
  C  C103  1  0.12281000  0.30838000  0.99582000  1.0
  C  C104  1  0.55266000  0.94517000  0.46850000  1.0
  C  C105  1  0.53005000  0.04115000  0.47319000  1.0
  C  C106  1  0.17048000  0.44964000  0.95960000  1.0
  C  C107  1  0.16297000  0.54582000  0.95839000  1.0
  C  C108  1  0.49581000  0.88903000  0.48535000  1.0
  C  C109  1  0.44611000  0.08924000  0.46346000  1.0
  C  C110  1  0.13096000  0.40143000  0.99828000  1.0
  C  C111  1  0.13137000  0.60307000  0.00060000  1.0
  C  C112  1  0.68618000  0.20126000  0.72173000  1.0
  C  C113  1  0.28491000  0.80081000  0.67898000  1.0
  C  C114  1  0.23537000  0.73226000  0.18735000  1.0
  C  C115  1  0.75421000  0.28038000  0.18979000  1.0
  C  C116  1  0.30379000  0.66780000  0.21045000  1.0
  C  C117  1  0.72547000  0.31984000  0.24126000  1.0
  C  C118  1  0.71542000  0.15703000  0.77231000  1.0
  C  C119  1  0.21970000  0.86602000  0.70397000  1.0
  C  C120  1  0.34048000  0.68427000  0.26353000  1.0
  C  C121  1  0.70309000  0.26517000  0.28644000  1.0
  C  C122  1  0.75756000  0.20267000  0.81398000  1.0
  C  C123  1  0.15703000  0.83911000  0.74291000  1.0
  C  C124  1  0.30985000  0.76629000  0.28987000  1.0
  C  C125  1  0.70680000  0.17379000  0.27667000  1.0
  C  C126  1  0.76302000  0.29286000  0.80318000  1.0
  C  C127  1  0.15794000  0.74714000  0.75079000  1.0
  C  C128  1  0.73271000  0.33581000  0.75286000  1.0
  C  C129  1  0.22324000  0.68340000  0.72584000  1.0
  C  C130  1  0.24211000  0.83007000  0.26588000  1.0
  C  C131  1  0.73574000  0.13587000  0.22514000  1.0
  C  C132  1  0.68676000  0.41051000  0.63082000  1.0
  C  C133  1  0.36087000  0.55336000  0.65378000  1.0
  C  C134  1  0.12641000  0.96382000  0.16919000  1.0
  C  C135  1  0.79786000  0.06440000  0.10648000  1.0
  C  C136  1  0.69496000  0.29006000  0.71014000  1.0
  C  C137  1  0.29091000  0.70919000  0.69078000  1.0
  C  C138  1  0.20211000  0.81294000  0.21447000  1.0
  C  C139  1  0.76221000  0.18854000  0.18085000  1.0
  C  C140  1  0.08850000  0.64603000  0.52995000  1.0
  C  C141  1  0.99535000  0.64462000  0.53369000  1.0
  C  C142  1  0.52832000  0.87200000  0.04532000  1.0
  C  C143  1  0.43362000  0.88345000  0.04610000  1.0
  C  C144  1  0.94615000  0.62207000  0.48692000  1.0
  C  C145  1  0.13718000  0.62351000  0.47949000  1.0
  C  C146  1  0.38295000  0.88226000  0.99600000  1.0
  C  C147  1  0.57792000  0.85808000  0.99446000  1.0
  C  C148  1  0.99288000  0.61087000  0.43485000  1.0
  C  C149  1  0.08604000  0.61103000  0.43122000  1.0
  C  C150  1  0.43284000  0.86179000  0.94578000  1.0
  C  C151  1  0.52767000  0.85000000  0.94505000  1.0
  C  C152  1  0.80910000  0.55822000  0.45160000  1.0
  C  C153  1  0.29762000  0.57579000  0.43432000  1.0
  C  C154  1  0.22623000  0.93364000  0.94867000  1.0
  C  C155  1  0.73121000  0.86884000  0.94537000  1.0
  C  C156  1  0.44204000  0.23272000  0.52030000  1.0
  C  C157  1  0.48315000  0.73282000  0.51939000  1.0
  C  C158  1  0.07084000  0.75775000  0.03874000  1.0
  C  C159  1  0.10212000  0.25547000  0.04170000  1.0
  C  C160  1  0.78961000  0.61664000  0.53639000  1.0
  C  C161  1  0.28778000  0.56251000  0.52700000  1.0
  C  C162  1  0.22712000  0.93969000  0.04195000  1.0
  C  C163  1  0.73686000  0.85857000  0.03822000  1.0
  C  C164  1  0.38432000  0.25103000  0.43398000  1.0
  C  C165  1  0.56345000  0.73785000  0.44012000  1.0
  C  C166  1  0.06039000  0.74508000  0.94572000  1.0
  C  C167  1  0.12243000  0.25181000  0.94867000  1.0
  C  C168  1  0.59182000  0.31497000  0.62236000  1.0
  C  C169  1  0.44842000  0.65561000  0.64552000  1.0
  C  C170  1  0.04964000  0.85309000  0.16268000  1.0
  C  C171  1  0.88087000  0.17132000  0.10109000  1.0
  C  C172  1  0.69860000  0.37417000  0.36995000  1.0
  C  C173  1  0.39654000  0.52834000  0.30639000  1.0
  C  C174  1  0.12110000  0.97205000  0.81114000  1.0
  C  C175  1  0.79585000  0.07840000  0.89272000  1.0
  C  C176  1  0.66954000  0.30456000  0.34048000  1.0
  C  C177  1  0.40579000  0.61647000  0.29335000  1.0
  C  C178  1  0.09805000  0.90071000  0.78007000  1.0
  C  C179  1  0.80621000  0.15681000  0.86289000  1.0
  C  C180  1  0.33824000  0.58407000  0.17825000  1.0
  C  C181  1  0.71681000  0.41954000  0.24600000  1.0
  C  C182  1  0.70437000  0.06111000  0.77945000  1.0
  C  C183  1  0.21633000  0.96281000  0.68851000  1.0
  C  C184  1  0.35174000  0.24118000  0.37520000  1.0
  C  C185  1  0.61865000  0.76158000  0.39128000  1.0
  C  C186  1  0.06272000  0.71210000  0.88701000  1.0
  C  C187  1  0.13579000  0.27003000  0.88745000  1.0
  N  N188  1  0.57177000  0.35181000  0.41183000  1.0
  N  N189  1  0.52035000  0.55167000  0.35066000  1.0
  N  N190  1  0.99143000  0.94561000  0.84735000  1.0
  N  N191  1  0.92577000  0.11248000  0.92159000  1.0
  N  N192  1  0.63405000  0.43448000  0.58494000  1.0
  N  N193  1  0.43719000  0.51649000  0.62625000  1.0
  N  N194  1  0.05334000  0.99110000  0.13570000  1.0
  N  N195  1  0.86414000  0.04118000  0.06767000  1.0
  N  N196  1  0.72657000  0.54670000  0.47030000  1.0
  N  N197  1  0.37793000  0.53019000  0.45382000  1.0
  N  N198  1  0.14299000  0.97356000  0.96623000  1.0
  N  N199  1  0.81681000  0.87442000  0.96148000  1.0
  N  N200  1  0.41686000  0.32078000  0.51108000  1.0
  N  N201  1  0.51415000  0.64800000  0.50356000  1.0
  N  N202  1  0.02395000  0.83462000  0.01794000  1.0
  N  N203  1  0.09153000  0.17442000  0.02408000  1.0
  N  N204  1  0.71387000  0.58341000  0.52297000  1.0
  N  N205  1  0.37120000  0.52208000  0.51097000  1.0
  N  N206  1  0.14372000  0.97723000  0.02357000  1.0
  N  N207  1  0.82041000  0.86785000  0.01946000  1.0
  N  N208  1  0.38220000  0.33247000  0.45682000  1.0
  N  N209  1  0.55990000  0.65270000  0.45382000  1.0
  N  N210  1  0.01751000  0.82685000  0.96062000  1.0
  N  N211  1  0.10322000  0.17244000  0.96636000  1.0
  N  N212  1  0.57513000  0.37547000  0.57977000  1.0
  N  N213  1  0.49212000  0.58049000  0.62147000  1.0
  N  N214  1  0.00506000  0.92177000  0.13188000  1.0
  N  N215  1  0.91596000  0.10691000  0.06451000  1.0
  N  N216  1  0.63916000  0.40276000  0.41189000  1.0
  N  N217  1  0.46420000  0.49016000  0.34107000  1.0
  N  N218  1  0.05814000  0.99790000  0.85130000  1.0
  N  N219  1  0.86836000  0.05182000  0.92707000  1.0
