# generated using pymatgen
data_ZnH26C14(N2O5)2
_symmetry_space_group_name_H-M   'P 1'
_cell_length_a   7.34662000
_cell_length_b   11.59320000
_cell_length_c   13.06080000
_cell_angle_alpha   89.99990000
_cell_angle_beta   102.67600000
_cell_angle_gamma   89.99940000
_symmetry_Int_Tables_number   1
_chemical_formula_structural   ZnH26C14(N2O5)2
_chemical_formula_sum   'Zn2 H52 C28 N8 O20'
_cell_volume   1085.28623122
_cell_formula_units_Z   2
loop_
 _symmetry_equiv_pos_site_id
 _symmetry_equiv_pos_as_xyz
  1  'x, y, z'
loop_
 _atom_site_type_symbol
 _atom_site_label
 _atom_site_symmetry_multiplicity
 _atom_site_fract_x
 _atom_site_fract_y
 _atom_site_fract_z
 _atom_site_occupancy
  Zn  Zn0  1  0.00000000  0.00000000  0.50000000  1.0
  Zn  Zn1  1  0.00000000  0.50000000  0.00000000  1.0
  H  H2  1  0.62489000  0.93990000  0.41837000  1.0
  H  H3  1  0.37512000  0.43990000  0.08163000  1.0
  H  H4  1  0.37511000  0.06010000  0.58163000  1.0
  H  H5  1  0.62488000  0.56011000  0.91837000  1.0
  H  H6  1  0.66350000  0.05787000  0.48022000  1.0
  H  H7  1  0.33651000  0.55787000  0.01979000  1.0
  H  H8  1  0.33651000  0.94213000  0.51978000  1.0
  H  H9  1  0.66349000  0.44213000  0.98022000  1.0
  H  H10  1  0.11108000  0.23103000  0.69874000  1.0
  H  H11  1  0.88891000  0.73102000  0.80126000  1.0
  H  H12  1  0.88892000  0.76898000  0.30126000  1.0
  H  H13  1  0.11108000  0.26898000  0.19874000  1.0
  H  H14  1  0.71048000  0.37373000  0.78686000  1.0
  H  H15  1  0.28950000  0.87373000  0.71313000  1.0
  H  H16  1  0.28953000  0.62626000  0.21314000  1.0
  H  H17  1  0.71049000  0.12627000  0.28687000  1.0
  H  H18  1  0.65229000  0.13055000  0.79374000  1.0
  H  H19  1  0.34770000  0.63055000  0.70627000  1.0
  H  H20  1  0.34771000  0.86945000  0.20627000  1.0
  H  H21  1  0.65229000  0.36946000  0.29373000  1.0
  H  H22  1  0.82243000  0.20254000  0.89126000  1.0
  H  H23  1  0.17756000  0.70254000  0.60874000  1.0
  H  H24  1  0.17758000  0.79746000  0.10874000  1.0
  H  H25  1  0.82242000  0.29747000  0.39126000  1.0
  H  H26  1  0.88741000  0.08031000  0.82600000  1.0
  H  H27  1  0.11258000  0.58031000  0.67400000  1.0
  H  H28  1  0.11259000  0.91969000  0.17400000  1.0
  H  H29  1  0.88741000  0.41969000  0.32600000  1.0
  H  H30  1  0.64354000  0.94347000  0.65485000  1.0
  H  H31  1  0.35645000  0.44348000  0.84514000  1.0
  H  H32  1  0.35644000  0.05652000  0.34514000  1.0
  H  H33  1  0.64355000  0.55653000  0.15485000  1.0
  H  H34  1  0.61635000  0.81385000  0.72394000  1.0
  H  H35  1  0.38364000  0.31386000  0.77605000  1.0
  H  H36  1  0.38364000  0.18614000  0.27605000  1.0
  H  H37  1  0.61637000  0.68615000  0.22394000  1.0
  H  H38  1  0.58747000  0.81349000  0.58440000  1.0
  H  H39  1  0.41254000  0.31350000  0.91559000  1.0
  H  H40  1  0.41254000  0.18650000  0.41558000  1.0
  H  H41  1  0.58747000  0.68651000  0.08440000  1.0
  H  H42  1  0.47797000  0.51821000  0.59439000  1.0
  H  H43  1  0.52203000  0.01820000  0.90561000  1.0
  H  H44  1  0.52203000  0.48179000  0.40563000  1.0
  H  H45  1  0.47797000  0.98180000  0.09439000  1.0
  H  H46  1  0.69361000  0.58965000  0.60346000  1.0
  H  H47  1  0.30640000  0.08965000  0.89655000  1.0
  H  H48  1  0.30639000  0.41035000  0.39657000  1.0
  H  H49  1  0.69360000  0.91036000  0.10345000  1.0
  H  H50  1  0.62167000  0.54758000  0.72071000  1.0
  H  H51  1  0.37833000  0.04758000  0.77929000  1.0
  H  H52  1  0.37833000  0.45241000  0.27931000  1.0
  H  H53  1  0.62167000  0.95243000  0.22071000  1.0
  C  C54  1  0.80740000  0.16129000  0.62659000  1.0
  C  C55  1  0.19263000  0.66129000  0.87342000  1.0
  C  C56  1  0.19264000  0.83871000  0.37342000  1.0
  C  C57  1  0.80737000  0.33871000  0.12658000  1.0
  C  C58  1  0.84320000  0.23428000  0.72936000  1.0
  C  C59  1  0.15680000  0.73429000  0.77063000  1.0
  C  C60  1  0.15681000  0.76571000  0.27063000  1.0
  C  C61  1  0.84319000  0.26572000  0.22936000  1.0
  C  C62  1  0.79830000  0.15731000  0.81591000  1.0
  C  C63  1  0.20171000  0.65732000  0.68409000  1.0
  C  C64  1  0.20172000  0.84269000  0.18409000  1.0
  C  C65  1  0.79828000  0.34269000  0.31591000  1.0
  C  C66  1  0.87171000  0.82791000  0.66666667  1.0
  C  C67  1  0.12829000  0.32792000  0.83335000  1.0
  C  C68  1  0.12829000  0.17209000  0.33333333  1.0
  C  C69  1  0.87172000  0.67209000  0.16665000  1.0
  C  C70  1  0.66789000  0.85015000  0.65813000  1.0
  C  C71  1  0.33211000  0.35016000  0.84186000  1.0
  C  C72  1  0.33211000  0.14984000  0.34186000  1.0
  C  C73  1  0.66789000  0.64985000  0.15813000  1.0
  C  C74  1  0.71940000  0.40923000  0.63409000  1.0
  C  C75  1  0.28060000  0.90923000  0.86591000  1.0
  C  C76  1  0.28060000  0.59077000  0.36591000  1.0
  C  C77  1  0.71940000  0.09077000  0.13409000  1.0
  C  C78  1  0.62273000  0.52308000  0.63977000  1.0
  C  C79  1  0.37727000  0.02308000  0.86023000  1.0
  C  C80  1  0.37727000  0.47692000  0.36024000  1.0
  C  C81  1  0.62273000  0.97693000  0.13977000  1.0
  N  N82  1  0.04200000  0.26419000  0.75175000  1.0
  N  N83  1  0.95800000  0.76419000  0.74825000  1.0
  N  N84  1  0.95800000  0.73581000  0.24825000  1.0
  N  N85  1  0.04200000  0.23582000  0.25175000  1.0
  N  N86  1  0.72912000  0.33769000  0.71846000  1.0
  N  N87  1  0.27087000  0.83769000  0.78154000  1.0
  N  N88  1  0.27088000  0.66231000  0.28155000  1.0
  N  N89  1  0.72912000  0.16231000  0.21846000  1.0
  O  O90  1  0.95546000  0.12395000  0.60218000  1.0
  O  O91  1  0.04454000  0.62394000  0.89782000  1.0
  O  O92  1  0.04454000  0.87605000  0.39782000  1.0
  O  O93  1  0.95545000  0.37606000  0.10218000  1.0
  O  O94  1  0.64163000  0.13510000  0.58236000  1.0
  O  O95  1  0.35838000  0.63512000  0.91765000  1.0
  O  O96  1  0.35838000  0.86488000  0.41765000  1.0
  O  O97  1  0.64161000  0.36488000  0.08235000  1.0
  O  O98  1  0.95917000  0.86565000  0.60104000  1.0
  O  O99  1  0.04083000  0.36565000  0.89896000  1.0
  O  O100  1  0.04083000  0.13436000  0.39896000  1.0
  O  O101  1  0.95918000  0.63436000  0.10104000  1.0
  O  O102  1  0.78199000  0.38087000  0.55703000  1.0
  O  O103  1  0.21800000  0.88088000  0.94297000  1.0
  O  O104  1  0.21799000  0.61913000  0.44297000  1.0
  O  O105  1  0.78199000  0.11913000  0.05703000  1.0
  O  O106  1  0.70247000  0.00937000  0.42389000  1.0
  O  O107  1  0.29754000  0.50937000  0.07611000  1.0
  O  O108  1  0.29753000  0.99063000  0.57611000  1.0
  O  O109  1  0.70246000  0.49063000  0.92389000  1.0
