# generated using pymatgen
data_CdH45C50SN4O11
_symmetry_space_group_name_H-M   'P 1'
_cell_length_a   10.07410000
_cell_length_b   11.84770000
_cell_length_c   20.77040000
_cell_angle_alpha   84.34880000
_cell_angle_beta   88.39280000
_cell_angle_gamma   81.37610000
_symmetry_Int_Tables_number   1
_chemical_formula_structural   CdH45C50SN4O11
_chemical_formula_sum   'Cd2 H90 C100 S2 N8 O22'
_cell_volume   2438.88629400
_cell_formula_units_Z   2
loop_
 _symmetry_equiv_pos_site_id
 _symmetry_equiv_pos_as_xyz
  1  'x, y, z'
loop_
 _atom_site_type_symbol
 _atom_site_label
 _atom_site_symmetry_multiplicity
 _atom_site_fract_x
 _atom_site_fract_y
 _atom_site_fract_z
 _atom_site_occupancy
  Cd  Cd0  1  0.44524000  0.28736000  0.16487000  1.0
  Cd  Cd1  1  0.55631000  0.71721000  0.83454000  1.0
  H  H2  1  0.44826000  0.13751000  0.50871000  1.0
  H  H3  1  0.50720000  0.21160000  0.39613000  1.0
  H  H4  1  0.05924000  0.09583000  0.44356000  1.0
  H  H5  1  0.20857000  0.96979000  0.55018000  1.0
  H  H6  1  0.11508000  0.10416000  0.56596000  1.0
  H  H7  1  0.28840000  0.07245000  0.58480000  1.0
  H  H8  1  0.92408000  0.16916000  0.37257000  1.0
  H  H9  1  0.00617000  0.03672000  0.34510000  1.0
  H  H10  1  0.71529000  0.11197000  0.33031000  1.0
  H  H11  1  0.70784000  0.08608000  0.24771000  1.0
  H  H12  1  0.77891000  0.61094000  0.40375000  1.0
  H  H13  1  0.53210000  0.66090000  0.40788000  1.0
  H  H14  1  0.56416000  0.99757000  0.31497000  1.0
  H  H15  1  0.32458000  0.80203000  0.36080000  1.0
  H  H16  1  0.34675000  0.94795000  0.34007000  1.0
  H  H17  1  0.35853000  0.88820000  0.42115000  1.0
  H  H18  1  0.04807000  0.15851000  0.20027000  1.0
  H  H19  1  0.02063000  0.01413000  0.22637000  1.0
  H  H20  1  0.11331000  0.03896000  0.10930000  1.0
  H  H21  1  0.99641000  0.18549000  0.91745000  1.0
  H  H22  1  0.77106000  0.26139000  0.96097000  1.0
  H  H23  1  0.28515000  0.10270000  0.00518000  1.0
  H  H24  1  0.21204000  0.07224000  0.93265000  1.0
  H  H25  1  0.23140000  0.96827000  0.00087000  1.0
  H  H26  1  0.04469000  0.41496000  0.28141000  1.0
  H  H27  1  0.13687000  0.58826000  0.23614000  1.0
  H  H28  1  0.74019000  0.75544000  0.18355000  1.0
  H  H29  1  0.64653000  0.58059000  0.22873000  1.0
  H  H30  1  0.59578000  0.23424000  0.58987000  1.0
  H  H31  1  0.62982000  0.09564000  0.63237000  1.0
  H  H32  1  0.68819000  0.21554000  0.66194000  1.0
  H  H33  1  0.43004000  0.04044000  0.67975000  1.0
  H  H34  1  0.28469000  0.43122000  0.74621000  1.0
  H  H35  1  0.49120000  0.39282000  0.68127000  1.0
  H  H36  1  0.30461000  0.92046000  0.76479000  1.0
  H  H37  1  0.27607000  0.94587000  0.67996000  1.0
  H  H38  1  0.96835000  0.99904000  0.79115000  1.0
  H  H39  1  0.95641000  0.84997000  0.80460000  1.0
  H  H40  1  0.87763000  0.94034000  0.90719000  1.0
  H  H41  1  0.98607000  0.70093000  0.07346000  1.0
  H  H42  1  0.21727000  0.65839000  0.02877000  1.0
  H  H43  1  0.76591000  0.94426000  0.03650000  1.0
  H  H44  1  0.76242000  0.79806000  0.06544000  1.0
  H  H45  1  0.70033000  0.85227000  0.98712000  1.0
  H  H46  1  0.02129000  0.83500000  0.22825000  1.0
  H  H47  1  0.93293000  0.85338000  0.15422000  1.0
  H  H48  1  0.09798000  0.77471000  0.15898000  1.0
  H  H49  1  0.65545000  0.55597000  0.61652000  1.0
  H  H50  1  0.75026000  0.43646000  0.58321000  1.0
  H  H51  1  0.71340000  0.56952000  0.53491000  1.0
  H  H52  1  0.99658000  0.01770000  0.67012000  1.0
  H  H53  1  0.06927000  0.89299000  0.63302000  1.0
  H  H54  1  0.50302000  0.81949000  0.60673000  1.0
  H  H55  1  0.55357000  0.91643000  0.49842000  1.0
  H  H56  1  0.92547000  0.98451000  0.57062000  1.0
  H  H57  1  0.79909000  0.10756000  0.47270000  1.0
  H  H58  1  0.68642000  0.03614000  0.43292000  1.0
  H  H59  1  0.85843000  0.97702000  0.43918000  1.0
  H  H60  1  0.11235000  0.72659000  0.55479000  1.0
  H  H61  1  0.90947000  0.65920000  0.51500000  1.0
  H  H62  1  0.85445000  0.48102000  0.70240000  1.0
  H  H63  1  0.05460000  0.54849000  0.74242000  1.0
  H  H64  1  0.87665000  0.67215000  0.83527000  1.0
  H  H65  1  0.06433000  0.55310000  0.89739000  1.0
  H  H66  1  0.77312000  0.47763000  0.04677000  1.0
  H  H67  1  0.59935000  0.60510000  0.97857000  1.0
  H  H68  1  0.94135000  0.46317000  0.11059000  1.0
  H  H69  1  0.13891000  0.36757000  0.17475000  1.0
  H  H70  1  0.37044000  0.31079000  0.01070000  1.0
  H  H71  1  0.17776000  0.39603000  0.93757000  1.0
  H  H72  1  0.36369000  0.52100000  0.86172000  1.0
  H  H73  1  0.37333000  0.30802000  0.87846000  1.0
  H  H74  1  0.79221000  0.27934000  0.81979000  1.0
  H  H75  1  0.76282000  0.49213000  0.80489000  1.0
  H  H76  1  0.44903000  0.13750000  0.93587000  1.0
  H  H77  1  0.44824000  0.92702000  0.93164000  1.0
  H  H78  1  0.72819000  0.91399000  0.78214000  1.0
  H  H79  1  0.73662000  0.12312000  0.77783000  1.0
  H  H80  1  0.27782000  0.09121000  0.22881000  1.0
  H  H81  1  0.26457000  0.88297000  0.23449000  1.0
  H  H82  1  0.53547000  0.86575000  0.06939000  1.0
  H  H83  1  0.53571000  0.07633000  0.07040000  1.0
  H  H84  1  0.36647000  0.70456000  0.25989000  1.0
  H  H85  1  0.38288000  0.49158000  0.26063000  1.0
  H  H86  1  0.47163000  0.50328000  0.06492000  1.0
  H  H87  1  0.44858000  0.71571000  0.05333000  1.0
  H  H88  1  0.22379000  0.74274000  0.78316000  1.0
  H  H89  1  0.78016000  0.27081000  0.20896000  1.0
  H  H90  1  0.09741000  0.62679000  0.39612000  1.0
  H  H91  1  0.06597000  0.14523000  0.77794000  1.0
  C  C92  1  0.24916000  0.11234000  0.48317000  1.0
  C  C93  1  0.37535000  0.14581000  0.47006000  1.0
  C  C94  1  0.40833000  0.18725000  0.40744000  1.0
  C  C95  1  0.31625000  0.19978000  0.35720000  1.0
  C  C96  1  0.18773000  0.16822000  0.37047000  1.0
  C  C97  1  0.15645000  0.12345000  0.43303000  1.0
  C  C98  1  0.21330000  0.06215000  0.54951000  1.0
  C  C99  1  0.35910000  0.23936000  0.29049000  1.0
  C  C100  1  0.98038000  0.12980000  0.33256000  1.0
  C  C101  1  0.89117000  0.14682000  0.27310000  1.0
  C  C102  1  0.77435000  0.07765000  0.28938000  1.0
  C  C103  1  0.75196000  0.88453000  0.33196000  1.0
  C  C104  1  0.81516000  0.77552000  0.35925000  1.0
  C  C105  1  0.73183000  0.69611000  0.38489000  1.0
  C  C106  1  0.59316000  0.72410000  0.38672000  1.0
  C  C107  1  0.53149000  0.83413000  0.36297000  1.0
  C  C108  1  0.61168000  0.91253000  0.33436000  1.0
  C  C109  1  0.38286000  0.86950000  0.37089000  1.0
  C  C110  1  0.96241000  0.74522000  0.36344000  1.0
  C  C111  1  0.97204000  0.10296000  0.21437000  1.0
  C  C112  1  0.91363000  0.13337000  0.10075000  1.0
  C  C113  1  0.03984000  0.09016000  0.07659000  1.0
  C  C114  1  0.07117000  0.10840000  0.01066000  1.0
  C  C115  1  0.97360000  0.17058000  0.96893000  1.0
  C  C116  1  0.84766000  0.21308000  0.99304000  1.0
  C  C117  1  0.81544000  0.19739000  0.05903000  1.0
  C  C118  1  0.67914000  0.24754000  0.08210000  1.0
  C  C119  1  0.20700000  0.06043000  0.98567000  1.0
  C  C120  1  0.83894000  0.48881000  0.25827000  1.0
  C  C121  1  0.97751000  0.48960000  0.26033000  1.0
  C  C122  1  0.02899000  0.58719000  0.23444000  1.0
  C  C123  1  0.94537000  0.68493000  0.20707000  1.0
  C  C124  1  0.80743000  0.68046000  0.20421000  1.0
  C  C125  1  0.75388000  0.58320000  0.22966000  1.0
  C  C126  1  0.60403000  0.18725000  0.63840000  1.0
  C  C127  1  0.47556000  0.21308000  0.67625000  1.0
  C  C128  1  0.39566000  0.12708000  0.69268000  1.0
  C  C129  1  0.27317000  0.15238000  0.72523000  1.0
  C  C130  1  0.23358000  0.26149000  0.74778000  1.0
  C  C131  1  0.31523000  0.34611000  0.73071000  1.0
  C  C132  1  0.43225000  0.32376000  0.69450000  1.0
  C  C133  1  0.22989000  0.95534000  0.72790000  1.0
  C  C134  1  0.11516000  0.29119000  0.79046000  1.0
  C  C135  1  0.10998000  0.88854000  0.73509000  1.0
  C  C136  1  0.02692000  0.91231000  0.79670000  1.0
  C  C137  1  0.07892000  0.84851000  0.90734000  1.0
  C  C138  1  0.95054000  0.87619000  0.93353000  1.0
  C  C139  1  0.91596000  0.82426000  0.99386000  1.0
  C  C140  1  0.01275000  0.74449000  0.02734000  1.0
  C  C141  1  0.14215000  0.71977000  0.00210000  1.0
  C  C142  1  0.17728000  0.77011000  0.94146000  1.0
  C  C143  1  0.31587000  0.74077000  0.91423000  1.0
  C  C144  1  0.77854000  0.85606000  0.02236000  1.0
  C  C145  1  0.00225000  0.79276000  0.18529000  1.0
  C  C146  1  0.73996000  0.53021000  0.58378000  1.0
  C  C147  1  0.01809000  0.92310000  0.67688000  1.0
  C  C148  1  0.68755000  0.84140000  0.64907000  1.0
  C  C149  1  0.59731000  0.85369000  0.59786000  1.0
  C  C150  1  0.62517000  0.90861000  0.53758000  1.0
  C  C151  1  0.74336000  0.95706000  0.52773000  1.0
  C  C152  1  0.83452000  0.94539000  0.57846000  1.0
  C  C153  1  0.80925000  0.88676000  0.63828000  1.0
  C  C154  1  0.77319000  0.02303000  0.46486000  1.0
  C  C155  1  0.64700000  0.78694000  0.71330000  1.0
  C  C156  1  0.05540000  0.67217000  0.58661000  1.0
  C  C157  1  0.94150000  0.63414000  0.56474000  1.0
  C  C158  1  0.86684000  0.56608000  0.60600000  1.0
  C  C159  1  0.91152000  0.53401000  0.66961000  1.0
  C  C160  1  0.02386000  0.57180000  0.69240000  1.0
  C  C161  1  0.09483000  0.64202000  0.65065000  1.0
  C  C162  1  0.85977000  0.62926000  0.88309000  1.0
  C  C163  1  0.96300000  0.56088000  0.91756000  1.0
  C  C164  1  0.93513000  0.50554000  0.97811000  1.0
  C  C165  1  0.80169000  0.52060000  0.00078000  1.0
  C  C166  1  0.70446000  0.59057000  0.96339000  1.0
  C  C167  1  0.04409000  0.43994000  0.01796000  1.0
  C  C168  1  0.03269000  0.42839000  0.08563000  1.0
  C  C169  1  0.14252000  0.37619000  0.12202000  1.0
  C  C170  1  0.27173000  0.34387000  0.02983000  1.0
  C  C171  1  0.16601000  0.39332000  0.99000000  1.0
  C  C172  1  0.45666000  0.46342000  0.85409000  1.0
  C  C173  1  0.46345000  0.34502000  0.86393000  1.0
  C  C174  1  0.58404000  0.27483000  0.85092000  1.0
  C  C175  1  0.69438000  0.32848000  0.82931000  1.0
  C  C176  1  0.67894000  0.44753000  0.82117000  1.0
  C  C177  1  0.59070000  0.14925000  0.85588000  1.0
  C  C178  1  0.51070000  0.09154000  0.90020000  1.0
  C  C179  1  0.51055000  0.97446000  0.89846000  1.0
  C  C180  1  0.66681000  0.96666000  0.81519000  1.0
  C  C181  1  0.67262000  0.08326000  0.81362000  1.0
  C  C182  1  0.33432000  0.03796000  0.19446000  1.0
  C  C183  1  0.32760000  0.92119000  0.19756000  1.0
  C  C184  1  0.40272000  0.85484000  0.15313000  1.0
  C  C185  1  0.47653000  0.91221000  0.10566000  1.0
  C  C186  1  0.47783000  0.02926000  0.10609000  1.0
  C  C187  1  0.40834000  0.72931000  0.15651000  1.0
  C  C188  1  0.38766000  0.66415000  0.21507000  1.0
  C  C189  1  0.39802000  0.54546000  0.21624000  1.0
  C  C190  1  0.44824000  0.55190000  0.10692000  1.0
  C  C191  1  0.43837000  0.67065000  0.10117000  1.0
  S  S192  1  0.23351000  0.69645000  0.68058000  1.0
  S  S193  1  0.76851000  0.36917000  0.29595000  1.0
  N  N194  1  0.56243000  0.51412000  0.83308000  1.0
  N  N195  1  0.58562000  0.91269000  0.85601000  1.0
  N  N196  1  0.40961000  0.09135000  0.15034000  1.0
  N  N197  1  0.42857000  0.49017000  0.16318000  1.0
  N  N198  1  0.26079000  0.33673000  0.09475000  1.0
  N  N199  1  0.73268000  0.64456000  0.90575000  1.0
  N  N200  1  0.16686000  0.76602000  0.74157000  1.0
  N  N201  1  0.83326000  0.26623000  0.25174000  1.0
  O  O202  1  0.04866000  0.80305000  0.34217000  1.0
  O  O203  1  0.99918000  0.64006000  0.39707000  1.0
  O  O204  1  0.83188000  0.95987000  0.30562000  1.0
  O  O205  1  0.10128000  0.17873000  0.31963000  1.0
  O  O206  1  0.87670000  0.10880000  0.16375000  1.0
  O  O207  1  0.66746000  0.27834000  0.14026000  1.0
  O  O208  1  0.58080000  0.25765000  0.04450000  1.0
  O  O209  1  0.47462000  0.19439000  0.27089000  1.0
  O  O210  1  0.28062000  0.31302000  0.25517000  1.0
  O  O211  1  0.11724000  0.90146000  0.84948000  1.0
  O  O212  1  0.32852000  0.72448000  0.85381000  1.0
  O  O213  1  0.41557000  0.73315000  0.95083000  1.0
  O  O214  1  0.18416000  0.07473000  0.73592000  1.0
  O  O215  1  0.02717000  0.21413000  0.79993000  1.0
  O  O216  1  0.09434000  0.37949000  0.81793000  1.0
  O  O217  1  0.89642000  0.87589000  0.68881000  1.0
  O  O218  1  0.52255000  0.80787000  0.72908000  1.0
  O  O219  1  0.73392000  0.72614000  0.75061000  1.0
  O  O220  1  0.81940000  0.34294000  0.36108000  1.0
  O  O221  1  0.62485000  0.39620000  0.28705000  1.0
  O  O222  1  0.32803000  0.60324000  0.71038000  1.0
  O  O223  1  0.27886000  0.77307000  0.62835000  1.0
