# generated using pymatgen
data_CuH8C6(N2Cl)2
_symmetry_space_group_name_H-M   'P 1'
_cell_length_a   3.82767000
_cell_length_b   8.84313000
_cell_length_c   13.66570000
_cell_angle_alpha   85.63850000
_cell_angle_beta   86.15730000
_cell_angle_gamma   78.02830000
_symmetry_Int_Tables_number   1
_chemical_formula_structural   CuH8C6(N2Cl)2
_chemical_formula_sum   'Cu2 H16 C12 N8 Cl4'
_cell_volume   450.57043030
_cell_formula_units_Z   2
loop_
 _symmetry_equiv_pos_site_id
 _symmetry_equiv_pos_as_xyz
  1  'x, y, z'
loop_
 _atom_site_type_symbol
 _atom_site_label
 _atom_site_symmetry_multiplicity
 _atom_site_fract_x
 _atom_site_fract_y
 _atom_site_fract_z
 _atom_site_occupancy
  Cu  Cu0  1  0.48590000  0.49829000  0.24990000  1.0
  Cu  Cu1  1  0.51207000  0.50205000  0.74990000  1.0
  H  H2  1  0.04797000  0.84933000  0.23464000  1.0
  H  H3  1  0.95362000  0.15166000  0.76586000  1.0
  H  H4  1  0.69835000  0.59565000  0.43840000  1.0
  H  H5  1  0.30156000  0.40265000  0.56147000  1.0
  H  H6  1  0.47385000  0.84731000  0.52201000  1.0
  H  H7  1  0.52773000  0.15036000  0.47880000  1.0
  H  H8  1  0.03319000  0.03750000  0.38832000  1.0
  H  H9  1  0.96963000  0.96194000  0.61297000  1.0
  H  H10  1  0.80734000  0.40248000  0.05365000  1.0
  H  H11  1  0.18985000  0.59855000  0.94580000  1.0
  H  H12  1  0.38557000  0.14437000  0.27216000  1.0
  H  H13  1  0.61509000  0.85559000  0.72739000  1.0
  H  H14  1  0.57838000  0.95527000  0.11721000  1.0
  H  H15  1  0.42215000  0.04517000  0.88204000  1.0
  H  H16  1  0.84878000  0.14735000  0.97313000  1.0
  H  H17  1  0.14927000  0.85390000  0.02615000  1.0
  C  C18  1  0.18452000  0.82580000  0.30272000  1.0
  C  C19  1  0.81689000  0.17441000  0.69776000  1.0
  C  C20  1  0.39267000  0.82695000  0.45061000  1.0
  C  C21  1  0.60847000  0.17152000  0.55009000  1.0
  C  C22  1  0.17695000  0.91914000  0.38193000  1.0
  C  C23  1  0.82507000  0.08026000  0.61893000  1.0
  C  C24  1  0.50687000  0.16859000  0.20045000  1.0
  C  C25  1  0.49275000  0.83173000  0.79901000  1.0
  C  C26  1  0.60437000  0.07461000  0.12070000  1.0
  C  C27  1  0.39521000  0.92594000  0.87864000  1.0
  C  C28  1  0.74094000  0.16767000  0.04734000  1.0
  C  C29  1  0.25730000  0.83328000  0.95199000  1.0
  N  N30  1  0.39172000  0.68615000  0.32242000  1.0
  N  N31  1  0.60851000  0.31371000  0.67773000  1.0
  N  N32  1  0.51295000  0.68843000  0.41241000  1.0
  N  N33  1  0.48711000  0.31031000  0.58785000  1.0
  N  N34  1  0.57967000  0.30964000  0.17711000  1.0
  N  N35  1  0.41880000  0.69092000  0.82243000  1.0
  N  N36  1  0.72077000  0.30635000  0.08395000  1.0
  N  N37  1  0.27689000  0.69458000  0.91549000  1.0
  Cl  Cl38  1  0.11479000  0.39050000  0.36955000  1.0
  Cl  Cl39  1  0.88868000  0.60915000  0.63106000  1.0
  Cl  Cl40  1  0.83881000  0.61823000  0.13201000  1.0
  Cl  Cl41  1  0.15896000  0.38270000  0.86798000  1.0
