# generated using pymatgen
data_AlH5C12I2O5
_symmetry_space_group_name_H-M   'P 1'
_cell_length_a   6.68958000
_cell_length_b   20.54850000
_cell_length_c   23.49250000
_cell_angle_alpha   102.64200000
_cell_angle_beta   89.99970000
_cell_angle_gamma   89.99830000
_symmetry_Int_Tables_number   1
_chemical_formula_structural   AlH5C12I2O5
_chemical_formula_sum   'Al4 H20 C48 I8 O20'
_cell_volume   3151.00945232
_cell_formula_units_Z   4
loop_
 _symmetry_equiv_pos_site_id
 _symmetry_equiv_pos_as_xyz
  1  'x, y, z'
loop_
 _atom_site_type_symbol
 _atom_site_label
 _atom_site_symmetry_multiplicity
 _atom_site_fract_x
 _atom_site_fract_y
 _atom_site_fract_z
 _atom_site_occupancy
  Al  Al0  1  0.70596000  0.24847000  0.74938000  1.0
  Al  Al1  1  0.29403000  0.75152000  0.25061000  1.0
  Al  Al2  1  0.20597000  0.25152000  0.75061000  1.0
  Al  Al3  1  0.79404000  0.74847000  0.24938000  1.0
  H  H4  1  0.75958000  0.59546000  0.34335000  1.0
  H  H5  1  0.24041000  0.40455000  0.65665000  1.0
  H  H6  1  0.25957000  0.90455000  0.15665000  1.0
  H  H7  1  0.74042000  0.09545000  0.84335000  1.0
  H  H8  1  0.81787000  0.46150000  0.46963000  1.0
  H  H9  1  0.18211000  0.53851000  0.53038000  1.0
  H  H10  1  0.31788000  0.03852000  0.03038000  1.0
  H  H11  1  0.68211000  0.96150000  0.96963000  1.0
  H  H12  1  0.66510000  0.32165000  0.60097000  1.0
  H  H13  1  0.33487000  0.67837000  0.39904000  1.0
  H  H14  1  0.16512000  0.17837000  0.89903000  1.0
  H  H15  1  0.83489000  0.82165000  0.10097000  1.0
  H  H16  1  0.22789000  0.47281000  0.58213000  1.0
  H  H17  1  0.77209000  0.52720000  0.41787000  1.0
  H  H18  1  0.72790000  0.02720000  0.91788000  1.0
  H  H19  1  0.27209000  0.97281000  0.08213000  1.0
  H  H20  1  0.46178000  0.33726000  0.77235000  1.0
  H  H21  1  0.53821000  0.66273000  0.22766000  1.0
  H  H22  1  0.96180000  0.16274000  0.72766000  1.0
  H  H23  1  0.03819000  0.83726000  0.27234000  1.0
  C  C24  1  0.45408000  0.17940000  0.81986000  1.0
  C  C25  1  0.54591000  0.82059000  0.18013000  1.0
  C  C26  1  0.95408000  0.32059000  0.68014000  1.0
  C  C27  1  0.04592000  0.67940000  0.31986000  1.0
  C  C28  1  0.45349000  0.16350000  0.66151000  1.0
  C  C29  1  0.54651000  0.83649000  0.33848000  1.0
  C  C30  1  0.95348000  0.33649000  0.83848000  1.0
  C  C31  1  0.04653000  0.66350000  0.16151000  1.0
  C  C32  1  0.05149000  0.61478000  0.10721000  1.0
  C  C33  1  0.94853000  0.38521000  0.89279000  1.0
  C  C34  1  0.55146000  0.88521000  0.39279000  1.0
  C  C35  1  0.44856000  0.11478000  0.60722000  1.0
  C  C36  1  0.06132000  0.52712000  0.00822000  1.0
  C  C37  1  0.93867000  0.47286000  0.99178000  1.0
  C  C38  1  0.56137000  0.97284000  0.49178000  1.0
  C  C39  1  0.43874000  0.02711000  0.50823000  1.0
  C  C40  1  0.94601000  0.42674000  0.93877000  1.0
  C  C41  1  0.05398000  0.57325000  0.06122000  1.0
  C  C42  1  0.44609000  0.07324000  0.56124000  1.0
  C  C43  1  0.55401000  0.92672000  0.43877000  1.0
  C  C44  1  0.04827000  0.64014000  0.36611000  1.0
  C  C45  1  0.95171000  0.35986000  0.63388000  1.0
  C  C46  1  0.54827000  0.85986000  0.13388000  1.0
  C  C47  1  0.45172000  0.14014000  0.86611000  1.0
  C  C48  1  0.88846000  0.59803000  0.37212000  1.0
  C  C49  1  0.11153000  0.40197000  0.62788000  1.0
  C  C50  1  0.38846000  0.90197000  0.12788000  1.0
  C  C51  1  0.61154000  0.09803000  0.87213000  1.0
  C  C52  1  0.89659000  0.56016000  0.41410000  1.0
  C  C53  1  0.10339000  0.43985000  0.58590000  1.0
  C  C54  1  0.39659000  0.93985000  0.08590000  1.0
  C  C55  1  0.60340000  0.06016000  0.91411000  1.0
  C  C56  1  0.05829000  0.56440000  0.45360000  1.0
  C  C57  1  0.94169000  0.43561000  0.54640000  1.0
  C  C58  1  0.55830000  0.93561000  0.04640000  1.0
  C  C59  1  0.44169000  0.06440000  0.95360000  1.0
  C  C60  1  0.21346000  0.60956000  0.44798000  1.0
  C  C61  1  0.78652000  0.39045000  0.55203000  1.0
  C  C62  1  0.71347000  0.89045000  0.05203000  1.0
  C  C63  1  0.28652000  0.10956000  0.94797000  1.0
  C  C64  1  0.21186000  0.64539000  0.40408000  1.0
  C  C65  1  0.78812000  0.35461000  0.59592000  1.0
  C  C66  1  0.71187000  0.85462000  0.09592000  1.0
  C  C67  1  0.28813000  0.14539000  0.90408000  1.0
  C  C68  1  0.06333000  0.52513000  0.49806000  1.0
  C  C69  1  0.93666000  0.47488000  0.50194000  1.0
  C  C70  1  0.56332000  0.97489000  0.00194000  1.0
  C  C71  1  0.43666000  0.02513000  0.99806000  1.0
  I  I72  1  0.71687000  0.45430000  0.05033000  1.0
  I  I73  1  0.28310000  0.54568000  0.94966000  1.0
  I  I74  1  0.21692000  0.04568000  0.44968000  1.0
  I  I75  1  0.78324000  0.95428000  0.55031000  1.0
  I  I76  1  0.45911000  0.62589000  0.50620000  1.0
  I  I77  1  0.54084000  0.37413000  0.49381000  1.0
  I  I78  1  0.95914000  0.87412000  0.99381000  1.0
  I  I79  1  0.04087000  0.12590000  0.00620000  1.0
  O  O80  1  0.28485000  0.18389000  0.68349000  1.0
  O  O81  1  0.71515000  0.81610000  0.31650000  1.0
  O  O82  1  0.78484000  0.31610000  0.81650000  1.0
  O  O83  1  0.21517000  0.68389000  0.18349000  1.0
  O  O84  1  0.62424000  0.19138000  0.79984000  1.0
  O  O85  1  0.37576000  0.80861000  0.20015000  1.0
  O  O86  1  0.12422000  0.30861000  0.70015000  1.0
  O  O87  1  0.87577000  0.69138000  0.29984000  1.0
  O  O88  1  0.62552000  0.18120000  0.68235000  1.0
  O  O89  1  0.37449000  0.81879000  0.31764000  1.0
  O  O90  1  0.12551000  0.31880000  0.81764000  1.0
  O  O91  1  0.87450000  0.68120000  0.18235000  1.0
  O  O92  1  0.78502000  0.30282000  0.69656000  1.0
  O  O93  1  0.21498000  0.69717000  0.30343000  1.0
  O  O94  1  0.28502000  0.19717000  0.80343000  1.0
  O  O95  1  0.71496000  0.80282000  0.19656000  1.0
  O  O96  1  0.45760000  0.29004000  0.75470000  1.0
  O  O97  1  0.54241000  0.70996000  0.24529000  1.0
  O  O98  1  0.95759000  0.20996000  0.74529000  1.0
  O  O99  1  0.04240000  0.79003000  0.25470000  1.0
