# generated using pymatgen
data_LaH7C8O9
_symmetry_space_group_name_H-M   'P 1'
_cell_length_a   7.14735000
_cell_length_b   8.13254000
_cell_length_c   9.38263000
_cell_angle_alpha   67.70030000
_cell_angle_beta   86.35250000
_cell_angle_gamma   83.61790000
_symmetry_Int_Tables_number   1
_chemical_formula_structural   LaH7C8O9
_chemical_formula_sum   'La2 H14 C16 O18'
_cell_volume   501.32464438
_cell_formula_units_Z   2
loop_
 _symmetry_equiv_pos_site_id
 _symmetry_equiv_pos_as_xyz
  1  'x, y, z'
loop_
 _atom_site_type_symbol
 _atom_site_label
 _atom_site_symmetry_multiplicity
 _atom_site_fract_x
 _atom_site_fract_y
 _atom_site_fract_z
 _atom_site_occupancy
  La  La0  1  0.24687000  0.50907000  0.86147000  1.0
  La  La1  1  0.75313000  0.49093000  0.13853000  1.0
  H  H2  1  0.32289000  0.59438000  0.36215000  1.0
  H  H3  1  0.67711000  0.40562000  0.63785000  1.0
  H  H4  1  0.36057000  0.94415000  0.08535000  1.0
  H  H5  1  0.63943000  0.05585000  0.91465000  1.0
  H  H6  1  0.25269000  0.95949000  0.39896000  1.0
  H  H7  1  0.74731000  0.04051000  0.60104000  1.0
  H  H8  1  0.95926000  0.83212000  0.24898000  1.0
  H  H9  1  0.04074000  0.16787000  0.75102000  1.0
  H  H10  1  0.58424000  0.72703000  0.77824000  1.0
  H  H11  1  0.41576000  0.27297000  0.22176000  1.0
  H  H12  1  0.43068000  0.86444000  0.67739000  1.0
  H  H13  1  0.56932000  0.13556000  0.32261000  1.0
  H  H14  1  0.76417000  0.81308000  0.45121000  1.0
  H  H15  1  0.23583000  0.18692000  0.54879000  1.0
  C  C16  1  0.23279000  0.62881000  0.14173000  1.0
  C  C17  1  0.76721000  0.37119000  0.85827000  1.0
  C  C18  1  0.55816000  0.84082000  0.26689000  1.0
  C  C19  1  0.44184000  0.15918000  0.73311000  1.0
  C  C20  1  0.11691000  0.14551000  0.19917000  1.0
  C  C21  1  0.88309000  0.85449000  0.80083000  1.0
  C  C22  1  0.03123000  0.70727000  0.48964000  1.0
  C  C23  1  0.96877000  0.29273000  0.51036000  1.0
  C  C24  1  0.25346000  0.70231000  0.26416000  1.0
  C  C25  1  0.74654000  0.29769000  0.73584000  1.0
  C  C26  1  0.35866000  0.87477000  0.21126000  1.0
  C  C27  1  0.64134000  0.12523000  0.78874000  1.0
  C  C28  1  0.20238000  0.95820000  0.29099000  1.0
  C  C29  1  0.79762000  0.04180000  0.70901000  1.0
  C  C30  1  0.08297000  0.79721000  0.32145000  1.0
  C  C31  1  0.91703000  0.20279000  0.67855000  1.0
  O  O32  1  0.38344000  0.59953000  0.06971000  1.0
  O  O33  1  0.61656000  0.40047000  0.93029000  1.0
  O  O34  1  0.23380000  0.25196000  0.11217000  1.0
  O  O35  1  0.76620000  0.74804000  0.88783000  1.0
  O  O36  1  0.67033000  0.73495000  0.22443000  1.0
  O  O37  1  0.32967000  0.26505000  0.77557000  1.0
  O  O38  1  0.94353000  0.18611000  0.21483000  1.0
  O  O39  1  0.05647000  0.81389000  0.78518000  1.0
  O  O40  1  0.47150000  0.73443000  0.71880000  1.0
  O  O41  1  0.52850000  0.26557000  0.28120000  1.0
  O  O42  1  0.15388000  0.61307000  0.58254000  1.0
  O  O43  1  0.84612000  0.38693000  0.41746000  1.0
  O  O44  1  0.07337000  0.59904000  0.10897000  1.0
  O  O45  1  0.92663000  0.40096000  0.89103000  1.0
  O  O46  1  0.60526000  0.91261000  0.35700000  1.0
  O  O47  1  0.39474000  0.08739000  0.64300000  1.0
  O  O48  1  0.85957000  0.73515000  0.53842000  1.0
  O  O49  1  0.14043000  0.26485000  0.46158000  1.0
