# generated using pymatgen
data_ZnH6C8(NO)6
_symmetry_space_group_name_H-M   'P 1'
_cell_length_a   5.75951000
_cell_length_b   12.21780000
_cell_length_c   17.14110000
_cell_angle_alpha   89.99860000
_cell_angle_beta   89.99960000
_cell_angle_gamma   79.90400000
_symmetry_Int_Tables_number   1
_chemical_formula_structural   ZnH6C8(NO)6
_chemical_formula_sum   'Zn4 H24 C32 N24 O24'
_cell_volume   1187.51679249
_cell_formula_units_Z   4
loop_
 _symmetry_equiv_pos_site_id
 _symmetry_equiv_pos_as_xyz
  1  'x, y, z'
loop_
 _atom_site_type_symbol
 _atom_site_label
 _atom_site_symmetry_multiplicity
 _atom_site_fract_x
 _atom_site_fract_y
 _atom_site_fract_z
 _atom_site_occupancy
  Zn  Zn0  1  0.85516000  0.21406000  0.10463000  1.0
  Zn  Zn1  1  0.64485000  0.28594000  0.60463000  1.0
  Zn  Zn2  1  0.14485000  0.78594000  0.89537000  1.0
  Zn  Zn3  1  0.35514000  0.71407000  0.39537000  1.0
  H  H4  1  0.28691000  0.06140000  0.93925000  1.0
  H  H5  1  0.21312000  0.43860000  0.43925000  1.0
  H  H6  1  0.71307000  0.93861000  0.06075000  1.0
  H  H7  1  0.78688000  0.56141000  0.56075000  1.0
  H  H8  1  0.39257000  0.38867000  0.86614000  1.0
  H  H9  1  0.10739000  0.11134000  0.36614000  1.0
  H  H10  1  0.60742000  0.61133000  0.13385000  1.0
  H  H11  1  0.89264000  0.88866000  0.63386000  1.0
  H  H12  1  0.67905000  0.37739000  0.97824000  1.0
  H  H13  1  0.82090000  0.12262000  0.47824000  1.0
  H  H14  1  0.32094000  0.62261000  0.02175000  1.0
  H  H15  1  0.17911000  0.87738000  0.52176000  1.0
  H  H16  1  0.95296000  0.39206000  0.85310000  1.0
  H  H17  1  0.54703000  0.10793000  0.35311000  1.0
  H  H18  1  0.04703000  0.60793000  0.14690000  1.0
  H  H19  1  0.45298000  0.89206000  0.64689000  1.0
  H  H20  1  0.28056000  0.06131000  0.78008000  1.0
  H  H21  1  0.21946000  0.43869000  0.28007000  1.0
  H  H22  1  0.71945000  0.93870000  0.21992000  1.0
  H  H23  1  0.78056000  0.56130000  0.71993000  1.0
  H  H24  1  0.99554000  0.09210000  0.66705000  1.0
  H  H25  1  0.50451000  0.40788000  0.16704000  1.0
  H  H26  1  0.00449000  0.90790000  0.33295000  1.0
  H  H27  1  0.49550000  0.59211000  0.83296000  1.0
  C  C28  1  0.36890000  0.13519000  0.94391000  1.0
  C  C29  1  0.13113000  0.36481000  0.44391000  1.0
  C  C30  1  0.63109000  0.86482000  0.05610000  1.0
  C  C31  1  0.86887000  0.63520000  0.55609000  1.0
  C  C32  1  0.31392000  0.22527000  0.89167000  1.0
  C  C33  1  0.18608000  0.27473000  0.39167000  1.0
  C  C34  1  0.68608000  0.77473000  0.10833000  1.0
  C  C35  1  0.81393000  0.72527000  0.60833000  1.0
  C  C36  1  0.42511000  0.31583000  0.90373000  1.0
  C  C37  1  0.07486000  0.18419000  0.40372000  1.0
  C  C38  1  0.57488000  0.68418000  0.09627000  1.0
  C  C39  1  0.92516000  0.81581000  0.59628000  1.0
  C  C40  1  0.58304000  0.31020000  0.96567000  1.0
  C  C41  1  0.91694000  0.18980000  0.46567000  1.0
  C  C42  1  0.41696000  0.68979000  0.03433000  1.0
  C  C43  1  0.08309000  0.81020000  0.53433000  1.0
  C  C44  1  0.97359000  0.32104000  0.81353000  1.0
  C  C45  1  0.52642000  0.17895000  0.31354000  1.0
  C  C46  1  0.02641000  0.67896000  0.18646000  1.0
  C  C47  1  0.47358000  0.82105000  0.68646000  1.0
  C  C48  1  0.14680000  0.22593000  0.82682000  1.0
  C  C49  1  0.35322000  0.27407000  0.32683000  1.0
  C  C50  1  0.85321000  0.77407000  0.17318000  1.0
  C  C51  1  0.64680000  0.72594000  0.67318000  1.0
  C  C52  1  0.15391000  0.13846000  0.77467000  1.0
  C  C53  1  0.34613000  0.36152000  0.27467000  1.0
  C  C54  1  0.84610000  0.86154000  0.22532000  1.0
  C  C55  1  0.65390000  0.63847000  0.72533000  1.0
  C  C56  1  0.99755000  0.15486000  0.71188000  1.0
  C  C57  1  0.50249000  0.34512000  0.21188000  1.0
  C  C58  1  0.00246000  0.84514000  0.28812000  1.0
  C  C59  1  0.49752000  0.65487000  0.78812000  1.0
  N  N60  1  0.62686000  0.22158000  0.01252000  1.0
  N  N61  1  0.87314000  0.27842000  0.51252000  1.0
  N  N62  1  0.37315000  0.77841000  0.98748000  1.0
  N  N63  1  0.12686000  0.72158000  0.48748000  1.0
  N  N64  1  0.51946000  0.13391000  0.00293000  1.0
  N  N65  1  0.98055000  0.36608000  0.50293000  1.0
  N  N66  1  0.48053000  0.86609000  0.99708000  1.0
  N  N67  1  0.01943000  0.63392000  0.49707000  1.0
  N  N68  1  0.84346000  0.24933000  0.70189000  1.0
  N  N69  1  0.65657000  0.25065000  0.20189000  1.0
  N  N70  1  0.15654000  0.75067000  0.29811000  1.0
  N  N71  1  0.34344000  0.74934000  0.79811000  1.0
  N  N72  1  0.82563000  0.33244000  0.75345000  1.0
  N  N73  1  0.67438000  0.16754000  0.25346000  1.0
  N  N74  1  0.17437000  0.66755000  0.24654000  1.0
  N  N75  1  0.32562000  0.83245000  0.74654000  1.0
  N  N76  1  0.16914000  0.04841000  0.15726000  1.0
  N  N77  1  0.33086000  0.45156000  0.65726000  1.0
  N  N78  1  0.83085000  0.95158000  0.84275000  1.0
  N  N79  1  0.66914000  0.54845000  0.34274000  1.0
  N  N80  1  0.05434000  0.40544000  0.08147000  1.0
  N  N81  1  0.44562000  0.09457000  0.58146000  1.0
  N  N82  1  0.94563000  0.59457000  0.91853000  1.0
  N  N83  1  0.55437000  0.90544000  0.41854000  1.0
  O  O84  1  0.18748000  0.14097000  0.18723000  1.0
  O  O85  1  0.31254000  0.35900000  0.68723000  1.0
  O  O86  1  0.81251000  0.85903000  0.81277000  1.0
  O  O87  1  0.68746000  0.64101000  0.31278000  1.0
  O  O88  1  0.00490000  0.04942000  0.10396000  1.0
  O  O89  1  0.49508000  0.45057000  0.60396000  1.0
  O  O90  1  0.99510000  0.95057000  0.89604000  1.0
  O  O91  1  0.50492000  0.54943000  0.39604000  1.0
  O  O92  1  0.29449000  0.95942000  0.17583000  1.0
  O  O93  1  0.20550000  0.54055000  0.67585000  1.0
  O  O94  1  0.70549000  0.04057000  0.82417000  1.0
  O  O95  1  0.79451000  0.45946000  0.32416000  1.0
  O  O96  1  0.08703000  0.30326000  0.05605000  1.0
  O  O97  1  0.41297000  0.19674000  0.55603000  1.0
  O  O98  1  0.91298000  0.69674000  0.94396000  1.0
  O  O99  1  0.58699000  0.80328000  0.44397000  1.0
  O  O100  1  0.87554000  0.43964000  0.12229000  1.0
  O  O101  1  0.62439000  0.06037000  0.62230000  1.0
  O  O102  1  0.12443000  0.56036000  0.87770000  1.0
  O  O103  1  0.37560000  0.93966000  0.37771000  1.0
  O  O104  1  0.20383000  0.46427000  0.06448000  1.0
  O  O105  1  0.29614000  0.03574000  0.56447000  1.0
  O  O106  1  0.79611000  0.53575000  0.93550000  1.0
  O  O107  1  0.70390000  0.96426000  0.43552000  1.0
