# generated using pymatgen
data_CuP3H19C14NO10
_symmetry_space_group_name_H-M   'P 1'
_cell_length_a   9.68970000
_cell_length_b   9.83714000
_cell_length_c   10.33100000
_cell_angle_alpha   81.37250000
_cell_angle_beta   71.42230000
_cell_angle_gamma   87.80050000
_symmetry_Int_Tables_number   1
_chemical_formula_structural   CuP3H19C14NO10
_chemical_formula_sum   'Cu2 P6 H38 C28 N2 O20'
_cell_volume   922.81881426
_cell_formula_units_Z   2
loop_
 _symmetry_equiv_pos_site_id
 _symmetry_equiv_pos_as_xyz
  1  'x, y, z'
loop_
 _atom_site_type_symbol
 _atom_site_label
 _atom_site_symmetry_multiplicity
 _atom_site_fract_x
 _atom_site_fract_y
 _atom_site_fract_z
 _atom_site_occupancy
  Cu  Cu0  1  0.27003000  0.84006000  0.01798000  1.0
  Cu  Cu1  1  0.72997000  0.15994000  0.98202000  1.0
  P  P2  1  0.33660000  0.01181000  0.69129000  1.0
  P  P3  1  0.66340000  0.98820000  0.30872000  1.0
  P  P4  1  0.14548000  0.14096000  0.08493000  1.0
  P  P5  1  0.85452000  0.85903000  0.91507000  1.0
  P  P6  1  0.67821000  0.41261000  0.17284000  1.0
  P  P7  1  0.32178000  0.58740000  0.82716000  1.0
  H  H8  1  0.22769000  0.37265000  0.92979000  1.0
  H  H9  1  0.77232000  0.62735000  0.07020000  1.0
  H  H10  1  0.92177000  0.08734000  0.08927000  1.0
  H  H11  1  0.07824000  0.91267000  0.91072000  1.0
  H  H12  1  0.56515000  0.06662000  0.56683000  1.0
  H  H13  1  0.43485000  0.93338000  0.43317000  1.0
  H  H14  1  0.30780000  0.40115000  0.13890000  1.0
  H  H15  1  0.69220000  0.59885000  0.86110000  1.0
  H  H16  1  0.90628000  0.48389000  0.31591000  1.0
  H  H17  1  0.09373000  0.51610000  0.68408000  1.0
  H  H18  1  0.02585000  0.31568000  0.20724000  1.0
  H  H19  1  0.97415000  0.68432000  0.79276000  1.0
  H  H20  1  0.98728000  0.15455000  0.31319000  1.0
  H  H21  1  0.01271000  0.84545000  0.68681000  1.0
  H  H22  1  0.11722000  0.13248000  0.71099000  1.0
  H  H23  1  0.88277000  0.86752000  0.28901000  1.0
  H  H24  1  0.25460000  0.23663000  0.72449000  1.0
  H  H25  1  0.74539000  0.76337000  0.27551000  1.0
  H  H26  1  0.18442000  0.64400000  0.51573000  1.0
  H  H27  1  0.81559000  0.35598000  0.48426000  1.0
  H  H28  1  0.04062000  0.63241000  0.10282000  1.0
  H  H29  1  0.95938000  0.36759000  0.89717000  1.0
  H  H30  1  0.29945000  0.79483000  0.29448000  1.0
  H  H31  1  0.70055000  0.20518000  0.70552000  1.0
  H  H32  1  0.69340000  0.23460000  0.33789000  1.0
  H  H33  1  0.30659000  0.76540000  0.66212000  1.0
  H  H34  1  0.51754000  0.56271000  0.31353000  1.0
  H  H35  1  0.48245000  0.43729000  0.68647000  1.0
  H  H36  1  0.48174000  0.56074000  0.15568000  1.0
  H  H37  1  0.51825000  0.43926000  0.84433000  1.0
  H  H38  1  0.08391000  0.11237000  0.49395000  1.0
  H  H39  1  0.91609000  0.88762000  0.50605000  1.0
  H  H40  1  0.43583000  0.35871000  0.50502000  1.0
  H  H41  1  0.56417000  0.64129000  0.49499000  1.0
  H  H42  1  0.47427000  0.93826000  0.11393000  1.0
  H  H43  1  0.52573000  0.06175000  0.88606000  1.0
  H  H44  1  0.57106000  0.81872000  0.04845000  1.0
  H  H45  1  0.42894000  0.18127000  0.95156000  1.0
  C  C46  1  0.18541000  0.25109000  0.30785000  1.0
  C  C47  1  0.81459000  0.74892000  0.69215000  1.0
  C  C48  1  0.29546000  0.35029000  0.24331000  1.0
  C  C49  1  0.70454000  0.64970000  0.75669000  1.0
  C  C50  1  0.99439000  0.54799000  0.31765000  1.0
  C  C51  1  0.00562000  0.45200000  0.68234000  1.0
  C  C52  1  0.03557000  0.54670000  0.43612000  1.0
  C  C53  1  0.96444000  0.45329000  0.56388000  1.0
  C  C54  1  0.38638000  0.38894000  0.31306000  1.0
  C  C55  1  0.61362000  0.61106000  0.68694000  1.0
  C  C56  1  0.07618000  0.22019000  0.24032000  1.0
  C  C57  1  0.92381000  0.77981000  0.75968000  1.0
  C  C58  1  0.23207000  0.16394000  0.66248000  1.0
  C  C59  1  0.76792000  0.83605000  0.33752000  1.0
  C  C60  1  0.14717000  0.63770000  0.42793000  1.0
  C  C61  1  0.85283000  0.36230000  0.57206000  1.0
  C  C62  1  0.06788000  0.63238000  0.19710000  1.0
  C  C63  1  0.93212000  0.36762000  0.80290000  1.0
  C  C64  1  0.21284000  0.72259000  0.30517000  1.0
  C  C65  1  0.78716000  0.27742000  0.69483000  1.0
  C  C66  1  0.50470000  0.49515000  0.24236000  1.0
  C  C67  1  0.49530000  0.50485000  0.75764000  1.0
  C  C68  1  0.25915000  0.22642000  0.51478000  1.0
  C  C69  1  0.74085000  0.77359000  0.48522000  1.0
  C  C70  1  0.17079000  0.18814000  0.44212000  1.0
  C  C71  1  0.82920000  0.81185000  0.55789000  1.0
  C  C72  1  0.36693000  0.32696000  0.44915000  1.0
  C  C73  1  0.63306000  0.67304000  0.55085000  1.0
  N  N74  1  0.17507000  0.71788000  0.19145000  1.0
  N  N75  1  0.82492000  0.28212000  0.80855000  1.0
  O  O76  1  0.19681000  0.99714000  0.12347000  1.0
  O  O77  1  0.80319000  0.00286000  0.87654000  1.0
  O  O78  1  0.25855000  0.23695000  0.97505000  1.0
  O  O79  1  0.74146000  0.76305000  0.02495000  1.0
  O  O80  1  0.33501000  0.91116000  0.59137000  1.0
  O  O81  1  0.66499000  0.08884000  0.40864000  1.0
  O  O82  1  0.00988000  0.14123000  0.02866000  1.0
  O  O83  1  0.99013000  0.85877000  0.97133000  1.0
  O  O84  1  0.26612000  0.95532000  0.84345000  1.0
  O  O85  1  0.73389000  0.04469000  0.15656000  1.0
  O  O86  1  0.49871000  0.05923000  0.66695000  1.0
  O  O87  1  0.50129000  0.94078000  0.33305000  1.0
  O  O88  1  0.72547000  0.33586000  0.29697000  1.0
  O  O89  1  0.27452000  0.66414000  0.70303000  1.0
  O  O90  1  0.65779000  0.32172000  0.07480000  1.0
  O  O91  1  0.34221000  0.67828000  0.92521000  1.0
  O  O92  1  0.79911000  0.52571000  0.10767000  1.0
  O  O93  1  0.20089000  0.47429000  0.89232000  1.0
  O  O94  1  0.47193000  0.85883000  0.06861000  1.0
  O  O95  1  0.52807000  0.14116000  0.93140000  1.0
