# generated using pymatgen
data_CdH20C22(NO)4
_symmetry_space_group_name_H-M   'P 1'
_cell_length_a   9.89240000
_cell_length_b   10.61930000
_cell_length_c   11.76700000
_cell_angle_alpha   110.78900000
_cell_angle_beta   98.96920000
_cell_angle_gamma   109.50800000
_symmetry_Int_Tables_number   1
_chemical_formula_structural   CdH20C22(NO)4
_chemical_formula_sum   'Cd2 H40 C44 N8 O8'
_cell_volume   1035.14089217
_cell_formula_units_Z   2
loop_
 _symmetry_equiv_pos_site_id
 _symmetry_equiv_pos_as_xyz
  1  'x, y, z'
loop_
 _atom_site_type_symbol
 _atom_site_label
 _atom_site_symmetry_multiplicity
 _atom_site_fract_x
 _atom_site_fract_y
 _atom_site_fract_z
 _atom_site_occupancy
  Cd  Cd0  1  0.54298000  0.67239000  0.91859000  1.0
  Cd  Cd1  1  0.45702000  0.32761000  0.08141000  1.0
  H  H2  1  0.18166000  0.47743000  0.15771000  1.0
  H  H3  1  0.81834000  0.52257000  0.84228000  1.0
  H  H4  1  0.28817000  0.67518000  0.23416000  1.0
  H  H5  1  0.71183000  0.32482000  0.76584000  1.0
  H  H6  1  0.12661000  0.59307000  0.10005000  1.0
  H  H7  1  0.87339000  0.40693000  0.89995000  1.0
  H  H8  1  0.74957000  0.06338000  0.80131000  1.0
  H  H9  1  0.25043000  0.93662000  0.19869000  1.0
  H  H10  1  0.58001000  0.07837000  0.82067000  1.0
  H  H11  1  0.41999000  0.92163000  0.17933000  1.0
  H  H12  1  0.58646000  0.96861000  0.66699000  1.0
  H  H13  1  0.41354000  0.03139000  0.33301000  1.0
  H  H14  1  0.65965000  0.04910000  0.10743000  1.0
  H  H15  1  0.34035000  0.95090000  0.89257000  1.0
  H  H16  1  0.11601000  0.10435000  0.19502000  1.0
  H  H17  1  0.88399000  0.89565000  0.80498000  1.0
  H  H18  1  0.92073000  0.80136000  0.06576000  1.0
  H  H19  1  0.07927000  0.19864000  0.93424000  1.0
  H  H20  1  0.76150000  0.28366000  0.12324000  1.0
  H  H21  1  0.23851000  0.71634000  0.87676000  1.0
  H  H22  1  0.84572000  0.55144000  0.24135000  1.0
  H  H23  1  0.15428000  0.44856000  0.75865000  1.0
  H  H24  1  0.24385000  0.57999000  0.48040000  1.0
  H  H25  1  0.75615000  0.42001000  0.51960000  1.0
  H  H26  1  0.15371000  0.31028000  0.36792000  1.0
  H  H27  1  0.84629000  0.68972000  0.63208000  1.0
  H  H28  1  0.24908000  0.78202000  0.61175000  1.0
  H  H29  1  0.75093000  0.21798000  0.38825000  1.0
  H  H30  1  0.36571000  0.05548000  0.70567000  1.0
  H  H31  1  0.63429000  0.94452000  0.29433000  1.0
  H  H32  1  0.09454000  0.03946000  0.37222000  1.0
  H  H33  1  0.90546000  0.96054000  0.62778000  1.0
  H  H34  1  0.98658000  0.76730000  0.27352000  1.0
  H  H35  1  0.01342000  0.23270000  0.72648000  1.0
  H  H36  1  0.33580000  0.28882000  0.79784000  1.0
  H  H37  1  0.66420000  0.71118000  0.20216000  1.0
  H  H38  1  0.48440000  0.54862000  0.60512000  1.0
  H  H39  1  0.51560000  0.45138000  0.39488000  1.0
  H  H40  1  0.33829000  0.24978000  0.42522000  1.0
  H  H41  1  0.66171000  0.75022000  0.57478000  1.0
  C  C42  1  0.31856000  0.56484000  0.05317000  1.0
  C  C43  1  0.68144000  0.43516000  0.94683000  1.0
  C  C44  1  0.22345000  0.57725000  0.14214000  1.0
  C  C45  1  0.77654000  0.42276000  0.85786000  1.0
  C  C46  1  0.58550000  0.86724000  0.79643000  1.0
  C  C47  1  0.41450000  0.13276000  0.20357000  1.0
  C  C48  1  0.62629000  0.00278000  0.77040000  1.0
  C  C49  1  0.37371000  0.99722000  0.22960000  1.0
  C  C50  1  0.75537000  0.01980000  0.11158000  1.0
  C  C51  1  0.24463000  0.98020000  0.88842000  1.0
  C  C52  1  0.99330000  0.04624000  0.16175000  1.0
  C  C53  1  0.00670000  0.95376000  0.83825000  1.0
  C  C54  1  0.89668000  0.89839000  0.09569000  1.0
  C  C55  1  0.10332000  0.10161000  0.90431000  1.0
  C  C56  1  0.95214000  0.27870000  0.23777000  1.0
  C  C57  1  0.04787000  0.72130000  0.76224000  1.0
  C  C58  1  0.86616000  0.34775000  0.20259000  1.0
  C  C59  1  0.13384000  0.65225000  0.79741000  1.0
  C  C60  1  0.91565000  0.50053000  0.26956000  1.0
  C  C61  1  0.08435000  0.49947000  0.73044000  1.0
  C  C62  1  0.05220000  0.58856000  0.37047000  1.0
  C  C63  1  0.94780000  0.41144000  0.62953000  1.0
  C  C64  1  0.13610000  0.51618000  0.40418000  1.0
  C  C65  1  0.86390000  0.48382000  0.59582000  1.0
  C  C66  1  0.08671000  0.36333000  0.33955000  1.0
  C  C67  1  0.91329000  0.63668000  0.66045000  1.0
  C  C68  1  0.11043000  0.75198000  0.43367000  1.0
  C  C69  1  0.88957000  0.24802000  0.56633000  1.0
  C  C70  1  0.21574000  0.83693000  0.55720000  1.0
  C  C71  1  0.78426000  0.16307000  0.44280000  1.0
  C  C72  1  0.28081000  0.99139000  0.61177000  1.0
  C  C73  1  0.71920000  0.00861000  0.38824000  1.0
  C  C74  1  0.23952000  0.06441000  0.54416000  1.0
  C  C75  1  0.76048000  0.93559000  0.45584000  1.0
  C  C76  1  0.13018000  0.98302000  0.42398000  1.0
  C  C77  1  0.86982000  0.01698000  0.57602000  1.0
  C  C78  1  0.06777000  0.82874000  0.36940000  1.0
  C  C79  1  0.93223000  0.17126000  0.63060000  1.0
  C  C80  1  0.35839000  0.31974000  0.72204000  1.0
  C  C81  1  0.64161000  0.68026000  0.27795000  1.0
  C  C82  1  0.43006000  0.44885000  0.61644000  1.0
  C  C83  1  0.56994000  0.55115000  0.38355000  1.0
  C  C84  1  0.35754000  0.30275000  0.52785000  1.0
  C  C85  1  0.64246000  0.69725000  0.47215000  1.0
  N  N86  1  0.74969000  0.88357000  0.06535000  1.0
  N  N87  1  0.25031000  0.11643000  0.93465000  1.0
  N  N88  1  0.90222000  0.12241000  0.17150000  1.0
  N  N89  1  0.09779000  0.87760000  0.82850000  1.0
  N  N90  1  0.42969000  0.45773000  0.73633000  1.0
  N  N91  1  0.57031000  0.54227000  0.26367000  1.0
  N  N92  1  0.31274000  0.22189000  0.59629000  1.0
  N  N93  1  0.68726000  0.77811000  0.40371000  1.0
  O  O94  1  0.39229000  0.68386000  0.04429000  1.0
  O  O95  1  0.60771000  0.31615000  0.95571000  1.0
  O  O96  1  0.31942000  0.44002000  0.99108000  1.0
  O  O97  1  0.68057000  0.55998000  0.00892000  1.0
  O  O98  1  0.48469000  0.84132000  0.85153000  1.0
  O  O99  1  0.51531000  0.15868000  0.14847000  1.0
  O  O100  1  0.65513000  0.78503000  0.76470000  1.0
  O  O101  1  0.34487000  0.21497000  0.23530000  1.0
