# generated using pymatgen
data_CuH14C23NO5
_symmetry_space_group_name_H-M   'P 1'
_cell_length_a   8.03157000
_cell_length_b   9.91235000
_cell_length_c   12.54170000
_cell_angle_alpha   87.09100000
_cell_angle_beta   75.31120000
_cell_angle_gamma   87.76380000
_symmetry_Int_Tables_number   1
_chemical_formula_structural   CuH14C23NO5
_chemical_formula_sum   'Cu2 H28 C46 N2 O10'
_cell_volume   964.23589565
_cell_formula_units_Z   2
loop_
 _symmetry_equiv_pos_site_id
 _symmetry_equiv_pos_as_xyz
  1  'x, y, z'
loop_
 _atom_site_type_symbol
 _atom_site_label
 _atom_site_symmetry_multiplicity
 _atom_site_fract_x
 _atom_site_fract_y
 _atom_site_fract_z
 _atom_site_occupancy
  Cu  Cu0  1  0.89359000  0.06932000  0.95339000  1.0
  Cu  Cu1  1  0.10641000  0.93070000  0.04660000  1.0
  H  H2  1  0.54829000  0.76335000  0.91226000  1.0
  H  H3  1  0.45171000  0.23666000  0.08774000  1.0
  H  H4  1  0.89999000  0.54663000  0.07109000  1.0
  H  H5  1  0.10000000  0.45338000  0.92891000  1.0
  H  H6  1  0.28468000  0.65469000  0.89626000  1.0
  H  H7  1  0.71531000  0.34532000  0.10375000  1.0
  H  H8  1  0.16194000  0.04874000  0.62086000  1.0
  H  H9  1  0.83806000  0.95127000  0.37915000  1.0
  H  H10  1  0.56382000  0.89037000  0.76585000  1.0
  H  H11  1  0.43618000  0.10964000  0.23416000  1.0
  H  H12  1  0.22549000  0.09858000  0.41686000  1.0
  H  H13  1  0.77452000  0.90142000  0.58314000  1.0
  H  H14  1  0.54542000  0.09487000  0.87732000  1.0
  H  H15  1  0.45458000  0.90512000  0.12269000  1.0
  H  H16  1  0.40885000  0.25945000  0.76292000  1.0
  H  H17  1  0.59114000  0.74054000  0.23709000  1.0
  H  H18  1  0.57060000  0.46603000  0.67791000  1.0
  H  H19  1  0.42940000  0.53396000  0.32209000  1.0
  H  H20  1  0.98617000  0.31928000  0.81648000  1.0
  H  H21  1  0.01383000  0.68072000  0.18352000  1.0
  H  H22  1  0.09880000  0.70755000  0.69073000  1.0
  H  H23  1  0.90120000  0.29243000  0.30929000  1.0
  H  H24  1  0.40454000  0.70385000  0.59218000  1.0
  H  H25  1  0.59546000  0.29613000  0.40783000  1.0
  H  H26  1  0.35128000  0.30473000  0.48335000  1.0
  H  H27  1  0.64870000  0.69527000  0.51662000  1.0
  H  H28  1  0.04610000  0.31150000  0.57955000  1.0
  H  H29  1  0.95388000  0.68851000  0.42042000  1.0
  C  C30  1  0.47687000  0.55942000  0.97129000  1.0
  C  C31  1  0.52312000  0.44059000  0.02872000  1.0
  C  C32  1  0.58623000  0.67103000  0.95189000  1.0
  C  C33  1  0.41377000  0.32898000  0.04811000  1.0
  C  C34  1  0.73570000  0.66615000  0.98784000  1.0
  C  C35  1  0.26430000  0.33386000  0.01216000  1.0
  C  C36  1  0.78210000  0.54779000  0.04344000  1.0
  C  C37  1  0.21790000  0.45222000  0.95656000  1.0
  C  C38  1  0.32128000  0.56271000  0.93704000  1.0
  C  C39  1  0.67871000  0.43730000  0.06296000  1.0
  C  C40  1  0.83926000  0.78988000  0.97851000  1.0
  C  C41  1  0.16077000  0.21013000  0.02149000  1.0
  C  C42  1  0.41165000  0.02047000  0.50507000  1.0
  C  C43  1  0.58835000  0.97954000  0.49494000  1.0
  C  C44  1  0.29573000  0.01506000  0.61073000  1.0
  C  C45  1  0.70427000  0.98494000  0.38927000  1.0
  C  C46  1  0.34970000  0.96927000  0.70301000  1.0
  C  C47  1  0.65030000  0.03073000  0.29699000  1.0
  C  C48  1  0.52358000  0.92600000  0.69252000  1.0
  C  C49  1  0.47642000  0.07400000  0.30748000  1.0
  C  C50  1  0.35986000  0.06749000  0.40908000  1.0
  C  C51  1  0.64015000  0.93252000  0.59092000  1.0
  C  C52  1  0.22420000  0.97221000  0.81410000  1.0
  C  C53  1  0.77582000  0.02778000  0.18590000  1.0
  C  C54  1  0.61253000  0.18390000  0.83577000  1.0
  C  C55  1  0.38747000  0.81610000  0.16423000  1.0
  C  C56  1  0.53727000  0.27589000  0.77293000  1.0
  C  C57  1  0.46273000  0.72410000  0.22707000  1.0
  C  C58  1  0.62663000  0.39029000  0.72505000  1.0
  C  C59  1  0.37337000  0.60969000  0.27495000  1.0
  C  C60  1  0.79160000  0.40595000  0.73876000  1.0
  C  C61  1  0.20840000  0.59404000  0.26123000  1.0
  C  C62  1  0.85887000  0.30953000  0.80240000  1.0
  C  C63  1  0.14113000  0.69047000  0.19760000  1.0
  C  C64  1  0.05356000  0.50938000  0.64274000  1.0
  C  C65  1  0.94643000  0.49062000  0.35725000  1.0
  C  C66  1  0.15605000  0.61939000  0.64500000  1.0
  C  C67  1  0.84395000  0.38059000  0.35500000  1.0
  C  C68  1  0.32965000  0.61561000  0.58887000  1.0
  C  C69  1  0.67034000  0.38438000  0.41113000  1.0
  C  C70  1  0.40745000  0.50242000  0.52991000  1.0
  C  C71  1  0.59254000  0.49757000  0.47008000  1.0
  C  C72  1  0.29989000  0.39370000  0.52932000  1.0
  C  C73  1  0.70010000  0.60630000  0.47067000  1.0
  C  C74  1  0.12603000  0.39636000  0.58382000  1.0
  C  C75  1  0.87395000  0.60363000  0.41616000  1.0
  N  N76  1  0.76975000  0.20168000  0.85087000  1.0
  N  N77  1  0.23026000  0.79832000  0.14913000  1.0
  O  O78  1  0.78317000  0.89816000  0.93837000  1.0
  O  O79  1  0.21684000  0.10185000  0.06162000  1.0
  O  O80  1  0.97308000  0.77833000  0.01612000  1.0
  O  O81  1  0.02694000  0.22167000  0.98386000  1.0
  O  O82  1  0.08083000  0.03313000  0.81683000  1.0
  O  O83  1  0.91918000  0.96687000  0.18317000  1.0
  O  O84  1  0.27154000  0.91680000  0.89613000  1.0
  O  O85  1  0.72847000  0.08320000  0.10386000  1.0
  O  O86  1  0.87981000  0.52140000  0.69476000  1.0
  O  O87  1  0.12019000  0.47860000  0.30524000  1.0
