# generated using pymatgen
data_ZnH26C38(NO2)2
_symmetry_space_group_name_H-M   'P 1'
_cell_length_a   9.08103000
_cell_length_b   9.08082000
_cell_length_c   17.95100000
_cell_angle_alpha   94.09710000
_cell_angle_beta   94.09820000
_cell_angle_gamma   106.22800000
_symmetry_Int_Tables_number   1
_chemical_formula_structural   ZnH26C38(NO2)2
_chemical_formula_sum   'Zn2 H52 C76 N4 O8'
_cell_volume   1411.20977775
_cell_formula_units_Z   2
loop_
 _symmetry_equiv_pos_site_id
 _symmetry_equiv_pos_as_xyz
  1  'x, y, z'
loop_
 _atom_site_type_symbol
 _atom_site_label
 _atom_site_symmetry_multiplicity
 _atom_site_fract_x
 _atom_site_fract_y
 _atom_site_fract_z
 _atom_site_occupancy
  Zn  Zn0  1  0.52713000  0.37676000  0.07484000  1.0
  Zn  Zn1  1  0.37675000  0.52712000  0.57483000  1.0
  H  H2  1  0.30316000  0.67918000  0.06521000  1.0
  H  H3  1  0.67919000  0.30316000  0.56521000  1.0
  H  H4  1  0.36078000  0.68007000  0.43687000  1.0
  H  H5  1  0.68004000  0.36081000  0.93687000  1.0
  H  H6  1  0.56585000  0.19374000  0.20665000  1.0
  H  H7  1  0.19373000  0.56585000  0.70666000  1.0
  H  H8  1  0.18242000  0.65569000  0.32423000  1.0
  H  H9  1  0.65567000  0.18243000  0.82423000  1.0
  H  H10  1  0.74226000  0.23144000  0.32290000  1.0
  H  H11  1  0.23143000  0.74226000  0.82291000  1.0
  H  H12  1  0.91600000  0.86614000  0.07445000  1.0
  H  H13  1  0.86613000  0.91601000  0.57446000  1.0
  H  H14  1  0.15032000  0.40385000  0.20515000  1.0
  H  H15  1  0.40389000  0.15032000  0.70516000  1.0
  H  H16  1  0.55360000  0.58472000  0.79606000  1.0
  H  H17  1  0.58473000  0.55359000  0.29606000  1.0
  H  H18  1  0.19866000  0.54357000  0.94098000  1.0
  H  H19  1  0.54356000  0.19865000  0.44098000  1.0
  H  H20  1  0.74579000  0.81238000  0.92027000  1.0
  H  H21  1  0.81237000  0.74578000  0.42028000  1.0
  H  H22  1  0.81412000  0.60615000  0.13499000  1.0
  H  H23  1  0.60614000  0.81413000  0.63499000  1.0
  H  H24  1  0.71565000  0.88275000  0.21383000  1.0
  H  H25  1  0.88275000  0.71566000  0.71382000  1.0
  H  H26  1  0.16557000  0.84945000  0.12999000  1.0
  H  H27  1  0.84946000  0.16557000  0.62998000  1.0
  H  H28  1  0.99744000  0.66711000  0.24981000  1.0
  H  H29  1  0.66710000  0.99744000  0.74981000  1.0
  H  H30  1  0.84588000  0.31658000  0.43023000  1.0
  H  H31  1  0.31657000  0.84588000  0.93023000  1.0
  H  H32  1  0.03796000  0.42184000  0.81190000  1.0
  H  H33  1  0.42185000  0.03796000  0.31190000  1.0
  H  H34  1  0.07479000  0.99992000  0.45226000  1.0
  H  H35  1  0.99990000  0.07479000  0.95225000  1.0
  H  H36  1  0.36125000  0.35437000  0.33548000  1.0
  H  H37  1  0.35438000  0.36126000  0.83547000  1.0
  H  H38  1  0.98800000  0.27805000  0.05059000  1.0
  H  H39  1  0.27806000  0.98800000  0.55059000  1.0
  H  H40  1  0.59912000  0.89542000  0.08556000  1.0
  H  H41  1  0.89539000  0.59910000  0.58555000  1.0
  H  H42  1  0.73717000  0.08656000  0.00386000  1.0
  H  H43  1  0.08654000  0.73718000  0.50386000  1.0
  H  H44  1  0.04514000  0.34835000  0.53672000  1.0
  H  H45  1  0.34835000  0.04515000  0.03672000  1.0
  H  H46  1  0.60782000  0.41629000  0.69099000  1.0
  H  H47  1  0.41628000  0.60782000  0.19100000  1.0
  H  H48  1  0.85125000  0.34048000  0.69926000  1.0
  H  H49  1  0.34047000  0.85125000  0.19926000  1.0
  H  H50  1  0.31108000  0.21673000  0.44939000  1.0
  H  H51  1  0.21671000  0.31108000  0.94938000  1.0
  H  H52  1  0.88241000  0.91737000  0.33967000  1.0
  H  H53  1  0.91737000  0.88241000  0.83968000  1.0
  C  C54  1  0.19385000  0.68939000  0.04023000  1.0
  C  C55  1  0.68940000  0.19385000  0.54023000  1.0
  C  C56  1  0.24641000  0.59870000  0.43239000  1.0
  C  C57  1  0.59869000  0.24642000  0.93239000  1.0
  C  C58  1  0.61389000  0.61784000  0.97095000  1.0
  C  C59  1  0.61783000  0.61389000  0.47096000  1.0
  C  C60  1  0.66386000  0.29614000  0.21872000  1.0
  C  C61  1  0.29615000  0.66385000  0.71872000  1.0
  C  C62  1  0.76709000  0.60127000  0.86132000  1.0
  C  C63  1  0.60128000  0.76709000  0.36132000  1.0
  C  C64  1  0.14360000  0.58572000  0.36972000  1.0
  C  C65  1  0.58572000  0.14361000  0.86972000  1.0
  C  C66  1  0.76228000  0.31998000  0.28400000  1.0
  C  C67  1  0.31998000  0.76228000  0.78401000  1.0
  C  C68  1  0.91882000  0.07165000  0.20350000  1.0
  C  C69  1  0.07168000  0.91880000  0.70351000  1.0
  C  C70  1  0.99425000  0.18425000  0.15777000  1.0
  C  C71  1  0.18427000  0.99424000  0.65777000  1.0
  C  C72  1  0.14816000  0.21412000  0.27313000  1.0
  C  C73  1  0.21414000  0.14816000  0.77312000  1.0
  C  C74  1  0.88671000  0.45416000  0.29776000  1.0
  C  C75  1  0.45417000  0.88671000  0.79777000  1.0
  C  C76  1  0.99634000  0.47991000  0.36556000  1.0
  C  C77  1  0.47992000  0.99634000  0.86557000  1.0
  C  C78  1  0.90381000  0.55493000  0.86655000  1.0
  C  C79  1  0.55493000  0.90381000  0.36655000  1.0
  C  C80  1  0.97534000  0.79442000  0.04504000  1.0
  C  C81  1  0.79442000  0.97533000  0.54504000  1.0
  C  C82  1  0.14668000  0.28135000  0.19840000  1.0
  C  C83  1  0.28138000  0.14668000  0.69840000  1.0
  C  C84  1  0.65986000  0.55098000  0.79882000  1.0
  C  C85  1  0.55101000  0.65987000  0.29882000  1.0
  C  C86  1  0.13349000  0.61008000  0.97008000  1.0
  C  C87  1  0.61005000  0.13348000  0.47009000  1.0
  C  C88  1  0.99274000  0.62242000  0.93823000  1.0
  C  C89  1  0.62239000  0.99273000  0.43824000  1.0
  C  C90  1  0.75977000  0.69956000  0.93253000  1.0
  C  C91  1  0.69955000  0.75977000  0.43254000  1.0
  C  C92  1  0.01370000  0.09063000  0.27480000  1.0
  C  C93  1  0.09066000  0.01369000  0.77481000  1.0
  C  C94  1  0.80265000  0.52778000  0.17882000  1.0
  C  C95  1  0.52777000  0.80264000  0.67882000  1.0
  C  C96  1  0.27994000  0.26850000  0.15256000  1.0
  C  C97  1  0.26851000  0.27994000  0.65255000  1.0
  C  C98  1  0.77537000  0.96845000  0.17844000  1.0
  C  C99  1  0.96846000  0.77538000  0.67844000  1.0
  C  C100  1  0.91220000  0.71253000  0.97636000  1.0
  C  C101  1  0.71252000  0.91219000  0.47636000  1.0
  C  C102  1  0.11625000  0.78239000  0.07679000  1.0
  C  C103  1  0.78240000  0.11626000  0.57678000  1.0
  C  C104  1  0.90504000  0.55932000  0.24303000  1.0
  C  C105  1  0.55932000  0.90504000  0.74303000  1.0
  C  C106  1  0.95943000  0.39610000  0.42771000  1.0
  C  C107  1  0.39611000  0.95943000  0.92771000  1.0
  C  C108  1  0.93385000  0.45952000  0.80843000  1.0
  C  C109  1  0.45954000  0.93386000  0.30842000  1.0
  C  C110  1  0.09565000  0.05745000  0.40117000  1.0
  C  C111  1  0.05743000  0.09565000  0.90116000  1.0
  C  C112  1  0.25685000  0.25883000  0.33532000  1.0
  C  C113  1  0.25885000  0.25685000  0.83532000  1.0
  C  C114  1  0.92928000  0.19182000  0.08618000  1.0
  C  C115  1  0.19185000  0.92929000  0.58619000  1.0
  C  C116  1  0.70988000  0.97662000  0.10657000  1.0
  C  C117  1  0.97658000  0.70987000  0.60657000  1.0
  C  C118  1  0.78705000  0.08560000  0.06066000  1.0
  C  C119  1  0.08557000  0.78705000  0.56067000  1.0
  C  C120  1  0.06922000  0.41356000  0.48808000  1.0
  C  C121  1  0.41357000  0.06922000  0.98809000  1.0
  C  C122  1  0.69052000  0.45589000  0.74047000  1.0
  C  C123  1  0.45590000  0.69052000  0.24048000  1.0
  C  C124  1  0.82669000  0.41172000  0.74537000  1.0
  C  C125  1  0.41171000  0.82668000  0.24537000  1.0
  C  C126  1  0.22892000  0.18022000  0.39962000  1.0
  C  C127  1  0.18021000  0.22891000  0.89961000  1.0
  C  C128  1  0.98729000  0.01136000  0.33864000  1.0
  C  C129  1  0.01137000  0.98728000  0.83864000  1.0
  N  N130  1  0.68303000  0.39847000  0.16675000  1.0
  N  N131  1  0.39847000  0.68302000  0.66675000  1.0
  N  N132  1  0.21153000  0.51258000  0.49031000  1.0
  N  N133  1  0.51258000  0.21153000  0.99031000  1.0
  O  O134  1  0.64417000  0.56291000  0.03302000  1.0
  O  O135  1  0.56291000  0.64417000  0.53302000  1.0
  O  O136  1  0.32955000  0.15356000  0.15366000  1.0
  O  O137  1  0.15357000  0.32955000  0.65365000  1.0
  O  O138  1  0.33149000  0.38402000  0.11343000  1.0
  O  O139  1  0.38403000  0.33150000  0.61343000  1.0
  O  O140  1  0.48472000  0.60719000  0.93950000  1.0
  O  O141  1  0.60719000  0.48472000  0.43951000  1.0
