# generated using pymatgen
data_Cu2H15C24I2(NO2)3
_symmetry_space_group_name_H-M   'P 1'
_cell_length_a   7.81373000
_cell_length_b   17.80390000
_cell_length_c   29.44340000
_cell_angle_alpha   84.80460000
_cell_angle_beta   89.99980000
_cell_angle_gamma   89.99970000
_symmetry_Int_Tables_number   1
_chemical_formula_structural   Cu2H15C24I2(NO2)3
_chemical_formula_sum   'Cu8 H60 C96 I8 N12 O24'
_cell_volume   4079.18691863
_cell_formula_units_Z   4
loop_
 _symmetry_equiv_pos_site_id
 _symmetry_equiv_pos_as_xyz
  1  'x, y, z'
loop_
 _atom_site_type_symbol
 _atom_site_label
 _atom_site_symmetry_multiplicity
 _atom_site_fract_x
 _atom_site_fract_y
 _atom_site_fract_z
 _atom_site_occupancy
  Cu  Cu0  1  0.80970000  0.23319000  0.48519000  1.0
  Cu  Cu1  1  0.80971000  0.76681000  0.51481000  1.0
  Cu  Cu2  1  0.69784000  0.34778000  0.52066000  1.0
  Cu  Cu3  1  0.69783000  0.65222000  0.47934000  1.0
  Cu  Cu4  1  0.23275000  0.72981000  0.98641000  1.0
  Cu  Cu5  1  0.23274000  0.27019000  0.01359000  1.0
  Cu  Cu6  1  0.12493000  0.84459000  0.02182000  1.0
  Cu  Cu7  1  0.12493000  0.15541000  0.97817000  1.0
  H  H8  1  0.80525000  0.16535000  0.19913000  1.0
  H  H9  1  0.80525000  0.83465000  0.80087000  1.0
  H  H10  1  0.67830000  0.28972000  0.07148000  1.0
  H  H11  1  0.67830000  0.71028000  0.92852000  1.0
  H  H12  1  0.56696000  0.38482000  0.19854000  1.0
  H  H13  1  0.56696000  0.61519000  0.80146000  1.0
  H  H14  1  0.85436000  0.32028000  0.31560000  1.0
  H  H15  1  0.85437000  0.67972000  0.68440000  1.0
  H  H16  1  0.91291000  0.32492000  0.39857000  1.0
  H  H17  1  0.91291000  0.67508000  0.60143000  1.0
  H  H18  1  0.61497000  0.13473000  0.43256000  1.0
  H  H19  1  0.61497000  0.86527000  0.56743000  1.0
  H  H20  1  0.55590000  0.11846000  0.35085000  1.0
  H  H21  1  0.55589000  0.88154000  0.64914000  1.0
  H  H22  1  0.60621000  0.97313000  0.08054000  1.0
  H  H23  1  0.60622000  0.02686000  0.91946000  1.0
  H  H24  1  0.77402000  0.87195000  0.04678000  1.0
  H  H25  1  0.77403000  0.12804000  0.95321000  1.0
  H  H26  1  0.22434000  0.99554000  0.04977000  1.0
  H  H27  1  0.22434000  0.00446000  0.95023000  1.0
  H  H28  1  0.07583000  0.10106000  0.08387000  1.0
  H  H29  1  0.07583000  0.89893000  0.91613000  1.0
  H  H30  1  0.75499000  0.57798000  0.03410000  1.0
  H  H31  1  0.75498000  0.42202000  0.96590000  1.0
  H  H32  1  0.58538000  0.68683000  0.99903000  1.0
  H  H33  1  0.58538000  0.31317000  0.00097000  1.0
  H  H34  1  0.12672000  0.58697000  0.04168000  1.0
  H  H35  1  0.12671000  0.41303000  0.95831000  1.0
  H  H36  1  0.27778000  0.47491000  0.08060000  1.0
  H  H37  1  0.27778000  0.52508000  0.91939000  1.0
  H  H38  1  0.09589000  0.88269000  0.69594000  1.0
  H  H39  1  0.09590000  0.11731000  0.30406000  1.0
  H  H40  1  0.33193000  0.66233000  0.70135000  1.0
  H  H41  1  0.33192000  0.33767000  0.29865000  1.0
  H  H42  1  0.24691000  0.78824000  0.57146000  1.0
  H  H43  1  0.24690000  0.21175000  0.42854000  1.0
  H  H44  1  0.32577000  0.07801000  0.53557000  1.0
  H  H45  1  0.32578000  0.92199000  0.46444000  1.0
  H  H46  1  0.16237000  0.18859000  0.50034000  1.0
  H  H47  1  0.16238000  0.81141000  0.49966000  1.0
  H  H48  1  0.69711000  0.09036000  0.53846000  1.0
  H  H49  1  0.69712000  0.90964000  0.46154000  1.0
  H  H50  1  0.84136000  0.97625000  0.57702000  1.0
  H  H51  1  0.84136000  0.02376000  0.42298000  1.0
  H  H52  1  0.32751000  0.81792000  0.81923000  1.0
  H  H53  1  0.32751000  0.18208000  0.18076000  1.0
  H  H54  1  0.35433000  0.82255000  0.90309000  1.0
  H  H55  1  0.35433000  0.17745000  0.09691000  1.0
  H  H56  1  0.04315000  0.63431000  0.92926000  1.0
  H  H57  1  0.04315000  0.36569000  0.07075000  1.0
  H  H58  1  0.01278000  0.61873000  0.84633000  1.0
  H  H59  1  0.01277000  0.38127000  0.15367000  1.0
  H  H60  1  0.17290000  0.47121000  0.57928000  1.0
  H  H61  1  0.17289000  0.52878000  0.42072000  1.0
  H  H62  1  0.34539000  0.37307000  0.54424000  1.0
  H  H63  1  0.34538000  0.62692000  0.45576000  1.0
  H  H64  1  0.79239000  0.49773000  0.55199000  1.0
  H  H65  1  0.79239000  0.50227000  0.44801000  1.0
  H  H66  1  0.63868000  0.60050000  0.58739000  1.0
  H  H67  1  0.63867000  0.39950000  0.41261000  1.0
  C  C68  1  0.68571000  0.27447000  0.20382000  1.0
  C  C69  1  0.68570000  0.72554000  0.79617000  1.0
  C  C70  1  0.75155000  0.21567000  0.18096000  1.0
  C  C71  1  0.75154000  0.78433000  0.81904000  1.0
  C  C72  1  0.74699000  0.22325000  0.13355000  1.0
  C  C73  1  0.74698000  0.77675000  0.86645000  1.0
  C  C74  1  0.67881000  0.28616000  0.10857000  1.0
  C  C75  1  0.67881000  0.71383000  0.89143000  1.0
  C  C76  1  0.61422000  0.34339000  0.13290000  1.0
  C  C77  1  0.61421000  0.65661000  0.86709000  1.0
  C  C78  1  0.61690000  0.33903000  0.18030000  1.0
  C  C79  1  0.61689000  0.66097000  0.81969000  1.0
  C  C80  1  0.65785000  0.20925000  0.27843000  1.0
  C  C81  1  0.65784000  0.79076000  0.72157000  1.0
  C  C82  1  0.72984000  0.10148000  0.10832000  1.0
  C  C83  1  0.72986000  0.89852000  0.89167000  1.0
  C  C84  1  0.63405000  0.45559000  0.08302000  1.0
  C  C85  1  0.63404000  0.54440000  0.91698000  1.0
  C  C86  1  0.69936000  0.21853000  0.32669000  1.0
  C  C87  1  0.69936000  0.78148000  0.67331000  1.0
  C  C88  1  0.79951000  0.27781000  0.34034000  1.0
  C  C89  1  0.79951000  0.72220000  0.65966000  1.0
  C  C90  1  0.83224000  0.28077000  0.38655000  1.0
  C  C91  1  0.83225000  0.71923000  0.61345000  1.0
  C  C92  1  0.66984000  0.17335000  0.40558000  1.0
  C  C93  1  0.66983000  0.82666000  0.59442000  1.0
  C  C94  1  0.63555000  0.16485000  0.36014000  1.0
  C  C95  1  0.63554000  0.83515000  0.63986000  1.0
  C  C96  1  0.82889000  0.04436000  0.08568000  1.0
  C  C97  1  0.82890000  0.95564000  0.91432000  1.0
  C  C98  1  0.74315000  0.97957000  0.07453000  1.0
  C  C99  1  0.74316000  0.02043000  0.92547000  1.0
  C  C100  1  0.83556000  0.92365000  0.05567000  1.0
  C  C101  1  0.83556000  0.07635000  0.94433000  1.0
  C  C102  1  0.08786000  0.99230000  0.05767000  1.0
  C  C103  1  0.08787000  0.00770000  0.94233000  1.0
  C  C104  1  0.00433000  0.05122000  0.07639000  1.0
  C  C105  1  0.00434000  0.94878000  0.92361000  1.0
  C  C106  1  0.52985000  0.51771000  0.06042000  1.0
  C  C107  1  0.52984000  0.48229000  0.93957000  1.0
  C  C108  1  0.61595000  0.57769000  0.03640000  1.0
  C  C109  1  0.61594000  0.42231000  0.96360000  1.0
  C  C110  1  0.52195000  0.63776000  0.01633000  1.0
  C  C111  1  0.52195000  0.36224000  0.98367000  1.0
  C  C112  1  0.26591000  0.58219000  0.04072000  1.0
  C  C113  1  0.26591000  0.41781000  0.95928000  1.0
  C  C114  1  0.35058000  0.52027000  0.06238000  1.0
  C  C115  1  0.35058000  0.47973000  0.93761000  1.0
  C  C116  1  0.16374000  0.84171000  0.63139000  1.0
  C  C117  1  0.16375000  0.15829000  0.36861000  1.0
  C  C118  1  0.15147000  0.83695000  0.67870000  1.0
  C  C119  1  0.15147000  0.16305000  0.32130000  1.0
  C  C120  1  0.21209000  0.77194000  0.70347000  1.0
  C  C121  1  0.21208000  0.22806000  0.29653000  1.0
  C  C122  1  0.28461000  0.71296000  0.68205000  1.0
  C  C123  1  0.28460000  0.28704000  0.31796000  1.0
  C  C124  1  0.29535000  0.72091000  0.63467000  1.0
  C  C125  1  0.29535000  0.27909000  0.36533000  1.0
  C  C126  1  0.23551000  0.78435000  0.60843000  1.0
  C  C127  1  0.23550000  0.21565000  0.39157000  1.0
  C  C128  1  0.19594000  0.95455000  0.58210000  1.0
  C  C129  1  0.19594000  0.04546000  0.41790000  1.0
  C  C130  1  0.14584000  0.70835000  0.77678000  1.0
  C  C131  1  0.14584000  0.29166000  0.22322000  1.0
  C  C132  1  0.29009000  0.59829000  0.61010000  1.0
  C  C133  1  0.29009000  0.40171000  0.38990000  1.0
  C  C134  1  0.09642000  0.01807000  0.55930000  1.0
  C  C135  1  0.09642000  0.98193000  0.44070000  1.0
  C  C136  1  0.18648000  0.07830000  0.53672000  1.0
  C  C137  1  0.18648000  0.92170000  0.46328000  1.0
  C  C138  1  0.09595000  0.13946000  0.51661000  1.0
  C  C139  1  0.09596000  0.86054000  0.48339000  1.0
  C  C140  1  0.83627000  0.08472000  0.53839000  1.0
  C  C141  1  0.83628000  0.91528000  0.46161000  1.0
  C  C142  1  0.91711000  0.02170000  0.55992000  1.0
  C  C143  1  0.91712000  0.97830000  0.44008000  1.0
  C  C144  1  0.16763000  0.71721000  0.82601000  1.0
  C  C145  1  0.16763000  0.28279000  0.17399000  1.0
  C  C146  1  0.26287000  0.77585000  0.84228000  1.0
  C  C147  1  0.26286000  0.22415000  0.15772000  1.0
  C  C148  1  0.27803000  0.77883000  0.88907000  1.0
  C  C149  1  0.27803000  0.22116000  0.11093000  1.0
  C  C150  1  0.10785000  0.67259000  0.90383000  1.0
  C  C151  1  0.10785000  0.32741000  0.09617000  1.0
  C  C152  1  0.08989000  0.66441000  0.85769000  1.0
  C  C153  1  0.08988000  0.33559000  0.14231000  1.0
  C  C154  1  0.39314000  0.54292000  0.58699000  1.0
  C  C155  1  0.39313000  0.45708000  0.41301000  1.0
  C  C156  1  0.31003000  0.47859000  0.57409000  1.0
  C  C157  1  0.31003000  0.52141000  0.42591000  1.0
  C  C158  1  0.40514000  0.42431000  0.55447000  1.0
  C  C159  1  0.40514000  0.57569000  0.44553000  1.0
  C  C160  1  0.65542000  0.49356000  0.55905000  1.0
  C  C161  1  0.65541000  0.50644000  0.44095000  1.0
  C  C162  1  0.56900000  0.55094000  0.57859000  1.0
  C  C163  1  0.56899000  0.44906000  0.42141000  1.0
  I  I164  1  0.00397000  0.35735000  0.49506000  1.0
  I  I165  1  0.00396000  0.64264000  0.50494000  1.0
  I  I166  1  0.49962000  0.23351000  0.52287000  1.0
  I  I167  1  0.49963000  0.76649000  0.47713000  1.0
  I  I168  1  0.43220000  0.85449000  0.99755000  1.0
  I  I169  1  0.43219000  0.14551000  0.00245000  1.0
  I  I170  1  0.92473000  0.73139000  0.02397000  1.0
  I  I171  1  0.92473000  0.26861000  0.97603000  1.0
  N  N172  1  0.76775000  0.23000000  0.41899000  1.0
  N  N173  1  0.76775000  0.77001000  0.58101000  1.0
  N  N174  1  0.00576000  0.92910000  0.04767000  1.0
  N  N175  1  0.00576000  0.07090000  0.95233000  1.0
  N  N176  1  0.34930000  0.64092000  0.01825000  1.0
  N  N177  1  0.34929000  0.35908000  0.98175000  1.0
  N  N178  1  0.92326000  0.14356000  0.51720000  1.0
  N  N179  1  0.92326000  0.85644000  0.48280000  1.0
  N  N180  1  0.20208000  0.72841000  0.91972000  1.0
  N  N181  1  0.20207000  0.27158000  0.08028000  1.0
  N  N182  1  0.57575000  0.43075000  0.54738000  1.0
  N  N183  1  0.57575000  0.56924000  0.45262000  1.0
  O  O184  1  0.69580000  0.27440000  0.25099000  1.0
  O  O185  1  0.69579000  0.72561000  0.74901000  1.0
  O  O186  1  0.82187000  0.16718000  0.10984000  1.0
  O  O187  1  0.82187000  0.83281000  0.89016000  1.0
  O  O188  1  0.53384000  0.40603000  0.10999000  1.0
  O  O189  1  0.53383000  0.59397000  0.89001000  1.0
  O  O190  1  0.59660000  0.15288000  0.26442000  1.0
  O  O191  1  0.59660000  0.84713000  0.73558000  1.0
  O  O192  1  0.58674000  0.09218000  0.12418000  1.0
  O  O193  1  0.58675000  0.90782000  0.87582000  1.0
  O  O194  1  0.78875000  0.44920000  0.07935000  1.0
  O  O195  1  0.78875000  0.55080000  0.92065000  1.0
  O  O196  1  0.09025000  0.90488000  0.60726000  1.0
  O  O197  1  0.09025000  0.09512000  0.39274000  1.0
  O  O198  1  0.20667000  0.77131000  0.75076000  1.0
  O  O199  1  0.20667000  0.22869000  0.24924000  1.0
  O  O200  1  0.37724000  0.66519000  0.61209000  1.0
  O  O201  1  0.37723000  0.33481000  0.38791000  1.0
  O  O202  1  0.35086000  0.94722000  0.58003000  1.0
  O  O203  1  0.35086000  0.05278000  0.41997000  1.0
  O  O204  1  0.08157000  0.65419000  0.76090000  1.0
  O  O205  1  0.08157000  0.34582000  0.23910000  1.0
  O  O206  1  0.14718000  0.58686000  0.62566000  1.0
  O  O207  1  0.14718000  0.41314000  0.37434000  1.0
