# generated using pymatgen
data_Cd2H8C13N2O9
_symmetry_space_group_name_H-M   'P 1'
_cell_length_a   8.93764000
_cell_length_b   10.71830000
_cell_length_c   15.85870000
_cell_angle_alpha   90.00000000
_cell_angle_beta   90.00000000
_cell_angle_gamma   97.92170000
_symmetry_Int_Tables_number   1
_chemical_formula_structural   Cd2H8C13N2O9
_chemical_formula_sum   'Cd8 H32 C52 N8 O36'
_cell_volume   1504.70763045
_cell_formula_units_Z   4
loop_
 _symmetry_equiv_pos_site_id
 _symmetry_equiv_pos_as_xyz
  1  'x, y, z'
loop_
 _atom_site_type_symbol
 _atom_site_label
 _atom_site_symmetry_multiplicity
 _atom_site_fract_x
 _atom_site_fract_y
 _atom_site_fract_z
 _atom_site_occupancy
  Cd  Cd0  1  0.02555000  0.25716000  0.89318000  1.0
  Cd  Cd1  1  0.47445000  0.24284000  0.39318000  1.0
  Cd  Cd2  1  0.97445000  0.74284000  0.10682000  1.0
  Cd  Cd3  1  0.52555000  0.75716000  0.60682000  1.0
  Cd  Cd4  1  0.27020000  0.49481000  0.03150000  1.0
  Cd  Cd5  1  0.22980000  0.00519000  0.53150000  1.0
  Cd  Cd6  1  0.72980000  0.50519000  0.96850000  1.0
  Cd  Cd7  1  0.77020000  0.99481000  0.46850000  1.0
  H  H8  1  0.00155000  0.19490000  0.66597000  1.0
  H  H9  1  0.49846000  0.30510000  0.16597000  1.0
  H  H10  1  0.99845000  0.80510000  0.33403000  1.0
  H  H11  1  0.50154000  0.69490000  0.83403000  1.0
  H  H12  1  0.12892000  0.17627000  0.10769000  1.0
  H  H13  1  0.37108000  0.32373000  0.60769000  1.0
  H  H14  1  0.87108000  0.82373000  0.89231000  1.0
  H  H15  1  0.62892000  0.67627000  0.39231000  1.0
  H  H16  1  0.88183000  0.29755000  0.37010000  1.0
  H  H17  1  0.61816000  0.20245000  0.87010000  1.0
  H  H18  1  0.11817000  0.70245000  0.62990000  1.0
  H  H19  1  0.38183000  0.79755000  0.12990000  1.0
  H  H20  1  0.20489000  0.09581000  0.24691000  1.0
  H  H21  1  0.29511000  0.40419000  0.74691000  1.0
  H  H22  1  0.79511000  0.90419000  0.75309000  1.0
  H  H23  1  0.70489000  0.59581000  0.25309000  1.0
  H  H24  1  0.80191000  0.37307000  0.23080000  1.0
  H  H25  1  0.69810000  0.12693000  0.73080000  1.0
  H  H26  1  0.19810000  0.62693000  0.76920000  1.0
  H  H27  1  0.30190000  0.87307000  0.26920000  1.0
  H  H28  1  0.74872000  0.14265000  0.98079000  1.0
  H  H29  1  0.75128000  0.35735000  0.48079000  1.0
  H  H30  1  0.25128000  0.85735000  0.01922000  1.0
  H  H31  1  0.24872000  0.64265000  0.51921000  1.0
  H  H32  1  0.37520000  0.92895000  0.84918000  1.0
  H  H33  1  0.12480000  0.57105000  0.34918000  1.0
  H  H34  1  0.62480000  0.07105000  0.15082000  1.0
  H  H35  1  0.87520000  0.42895000  0.65082000  1.0
  H  H36  1  0.83564000  0.03278000  0.96175000  1.0
  H  H37  1  0.66436000  0.46722000  0.46175000  1.0
  H  H38  1  0.16436000  0.96722000  0.03825000  1.0
  H  H39  1  0.33564000  0.53278000  0.53825000  1.0
  C  C40  1  0.19344000  0.06432000  0.80417000  1.0
  C  C41  1  0.30656000  0.43568000  0.30417000  1.0
  C  C42  1  0.80655000  0.93568000  0.19584000  1.0
  C  C43  1  0.69344000  0.56432000  0.69584000  1.0
  C  C44  1  0.07660000  0.14162000  0.70035000  1.0
  C  C45  1  0.42340000  0.35838000  0.20035000  1.0
  C  C46  1  0.92340000  0.85838000  0.29965000  1.0
  C  C47  1  0.57660000  0.64162000  0.79965000  1.0
  C  C48  1  0.23003000  0.03879000  0.89197000  1.0
  C  C49  1  0.26997000  0.46120000  0.39197000  1.0
  C  C50  1  0.76997000  0.96120000  0.10803000  1.0
  C  C51  1  0.73003000  0.53880000  0.60803000  1.0
  C  C52  1  0.92459000  0.33133000  0.07717000  1.0
  C  C53  1  0.57541000  0.16868000  0.57717000  1.0
  C  C54  1  0.07541000  0.66867000  0.92283000  1.0
  C  C55  1  0.42459000  0.83133000  0.42283000  1.0
  C  C56  1  0.07398000  0.20048000  0.16559000  1.0
  C  C57  1  0.42603000  0.29952000  0.66559000  1.0
  C  C58  1  0.92603000  0.79952000  0.83441000  1.0
  C  C59  1  0.57397000  0.70048000  0.33441000  1.0
  C  C60  1  0.96113000  0.27928000  0.16103000  1.0
  C  C61  1  0.53887000  0.22072000  0.66103000  1.0
  C  C62  1  0.03887000  0.72072000  0.83897000  1.0
  C  C63  1  0.46113000  0.77928000  0.33897000  1.0
  C  C64  1  0.24411000  0.01898000  0.72819000  1.0
  C  C65  1  0.25589000  0.48102000  0.22819000  1.0
  C  C66  1  0.75589000  0.98102000  0.27181000  1.0
  C  C67  1  0.74411000  0.51898000  0.77181000  1.0
  C  C68  1  0.04839000  0.19219000  0.31724000  1.0
  C  C69  1  0.45161000  0.30781000  0.81724000  1.0
  C  C70  1  0.95161000  0.80781000  0.68276000  1.0
  C  C71  1  0.54839000  0.69219000  0.18276000  1.0
  C  C72  1  0.93416000  0.26949000  0.31257000  1.0
  C  C73  1  0.56584000  0.23051000  0.81257000  1.0
  C  C74  1  0.06584000  0.73051000  0.68743000  1.0
  C  C75  1  0.43416000  0.76949000  0.18743000  1.0
  C  C76  1  0.11702000  0.15662000  0.24307000  1.0
  C  C77  1  0.38298000  0.34338000  0.74306000  1.0
  C  C78  1  0.88299000  0.84338000  0.75693000  1.0
  C  C79  1  0.61702000  0.65662000  0.25693000  1.0
  C  C80  1  0.88963000  0.31207000  0.23484000  1.0
  C  C81  1  0.61037000  0.18793000  0.73484000  1.0
  C  C82  1  0.11037000  0.68793000  0.76516000  1.0
  C  C83  1  0.38963000  0.81208000  0.26516000  1.0
  C  C84  1  0.35543000  0.93353000  0.71198000  1.0
  C  C85  1  0.14458000  0.56647000  0.21197000  1.0
  C  C86  1  0.64458000  0.06647000  0.28803000  1.0
  C  C87  1  0.85542000  0.43353000  0.78802000  1.0
  C  C88  1  0.09539000  0.14491000  0.40026000  1.0
  C  C89  1  0.40461000  0.35509000  0.90026000  1.0
  C  C90  1  0.90461000  0.85508000  0.59974000  1.0
  C  C91  1  0.59539000  0.64492000  0.09974000  1.0
  N  N92  1  0.08805000  0.14179000  0.78513000  1.0
  N  N93  1  0.41195000  0.35821000  0.28513000  1.0
  N  N94  1  0.91195000  0.85821000  0.21487000  1.0
  N  N95  1  0.58805000  0.64179000  0.71487000  1.0
  N  N96  1  0.16872000  0.06820000  0.66364000  1.0
  N  N97  1  0.33128000  0.43180000  0.16364000  1.0
  N  N98  1  0.83128000  0.93180000  0.33637000  1.0
  N  N99  1  0.66872000  0.56820000  0.83637000  1.0
  O  O100  1  0.03437000  0.34756000  0.02362000  1.0
  O  O101  1  0.46563000  0.15244000  0.52362000  1.0
  O  O102  1  0.96563000  0.65244000  0.97638000  1.0
  O  O103  1  0.53437000  0.84756000  0.47638000  1.0
  O  O104  1  0.32974000  0.96240000  0.90714000  1.0
  O  O105  1  0.17025000  0.53760000  0.40714000  1.0
  O  O106  1  0.67026000  0.03760000  0.09286000  1.0
  O  O107  1  0.82975000  0.46240000  0.59286000  1.0
  O  O108  1  0.16503000  0.08685000  0.95174000  1.0
  O  O109  1  0.33497000  0.41315000  0.45174000  1.0
  O  O110  1  0.83497000  0.91315000  0.04826000  1.0
  O  O111  1  0.66503000  0.58686000  0.54826000  1.0
  O  O112  1  0.79212000  0.35479000  0.06315000  1.0
  O  O113  1  0.70788000  0.14521000  0.56315000  1.0
  O  O114  1  0.20788000  0.64521000  0.93685000  1.0
  O  O115  1  0.29212000  0.85479000  0.43685000  1.0
  O  O116  1  0.42602000  0.89011000  0.77246000  1.0
  O  O117  1  0.07398000  0.60989000  0.27246000  1.0
  O  O118  1  0.57398000  0.10989000  0.22754000  1.0
  O  O119  1  0.92602000  0.39011000  0.72754000  1.0
  O  O120  1  0.37678000  0.90585000  0.63443000  1.0
  O  O121  1  0.12322000  0.59415000  0.13443000  1.0
  O  O122  1  0.62322000  0.09415000  0.36557000  1.0
  O  O123  1  0.87678000  0.40585000  0.86557000  1.0
  O  O124  1  0.23004000  0.11444000  0.40568000  1.0
  O  O125  1  0.26995000  0.38556000  0.90567000  1.0
  O  O126  1  0.76996000  0.88556000  0.59432000  1.0
  O  O127  1  0.73005000  0.61444000  0.09432000  1.0
  O  O128  1  0.00539000  0.13225000  0.46231000  1.0
  O  O129  1  0.49460000  0.36775000  0.96231000  1.0
  O  O130  1  0.99461000  0.86775000  0.53769000  1.0
  O  O131  1  0.50540000  0.63225000  0.03769000  1.0
  O  O132  1  0.81356000  0.11330000  0.93738000  1.0
  O  O133  1  0.68644000  0.38670000  0.43738000  1.0
  O  O134  1  0.18644000  0.88670000  0.06262000  1.0
  O  O135  1  0.31356000  0.61330000  0.56262000  1.0
