# generated using pymatgen
data_CdH18C22(NO)4
_symmetry_space_group_name_H-M   'P 1'
_cell_length_a   13.84610000
_cell_length_b   13.84610000
_cell_length_c   15.59620000
_cell_angle_alpha   90.00000000
_cell_angle_beta   90.00000000
_cell_angle_gamma   90.65800000
_symmetry_Int_Tables_number   1
_chemical_formula_structural   CdH18C22(NO)4
_chemical_formula_sum   'Cd4 H72 C88 N16 O16'
_cell_volume   2989.82028213
_cell_formula_units_Z   4
loop_
 _symmetry_equiv_pos_site_id
 _symmetry_equiv_pos_as_xyz
  1  'x, y, z'
loop_
 _atom_site_type_symbol
 _atom_site_label
 _atom_site_symmetry_multiplicity
 _atom_site_fract_x
 _atom_site_fract_y
 _atom_site_fract_z
 _atom_site_occupancy
  Cd  Cd0  1  0.28489000  0.16709000  0.49358000  1.0
  Cd  Cd1  1  0.83291000  0.71511000  0.50642000  1.0
  Cd  Cd2  1  0.33291000  0.21511000  0.99358000  1.0
  Cd  Cd3  1  0.78489000  0.66709000  0.00642000  1.0
  H  H4  1  0.17929000  0.10029000  0.77557000  1.0
  H  H5  1  0.89971000  0.82071000  0.22443000  1.0
  H  H6  1  0.39971000  0.32071000  0.27557000  1.0
  H  H7  1  0.67929000  0.60029000  0.72443000  1.0
  H  H8  1  0.06956000  0.03226000  0.88919000  1.0
  H  H9  1  0.96774000  0.93043000  0.11081000  1.0
  H  H10  1  0.46774000  0.43044000  0.38919000  1.0
  H  H11  1  0.56956000  0.53226000  0.61081000  1.0
  H  H12  1  0.91754000  0.86704000  0.69615000  1.0
  H  H13  1  0.13296000  0.08246000  0.30385000  1.0
  H  H14  1  0.63295000  0.58246000  0.19615000  1.0
  H  H15  1  0.41754000  0.36705000  0.80385000  1.0
  H  H16  1  0.02657000  0.93481000  0.58362000  1.0
  H  H17  1  0.06519000  0.97343000  0.41638000  1.0
  H  H18  1  0.56519000  0.47343000  0.08362000  1.0
  H  H19  1  0.52657000  0.43481000  0.91638000  1.0
  H  H20  1  0.95439000  0.66611000  0.87473000  1.0
  H  H21  1  0.33390000  0.04561000  0.12527000  1.0
  H  H22  1  0.83390000  0.54561000  0.37473000  1.0
  H  H23  1  0.45439000  0.16611000  0.62527000  1.0
  H  H24  1  0.02457000  0.74798000  0.81014000  1.0
  H  H25  1  0.25203000  0.97543000  0.18986000  1.0
  H  H26  1  0.75202000  0.47543000  0.31014000  1.0
  H  H27  1  0.52457000  0.24798000  0.68986000  1.0
  H  H28  1  0.90503000  0.71479000  0.77867000  1.0
  H  H29  1  0.28521000  0.09498000  0.22133000  1.0
  H  H30  1  0.78521000  0.59497000  0.27867000  1.0
  H  H31  1  0.40502000  0.21479000  0.72133000  1.0
  H  H32  1  0.88080000  0.04085000  0.92284000  1.0
  H  H33  1  0.95915000  0.11920000  0.07716000  1.0
  H  H34  1  0.45915000  0.61920000  0.42285000  1.0
  H  H35  1  0.38080000  0.54085000  0.57716000  1.0
  H  H36  1  0.79306000  0.91080000  0.03713000  1.0
  H  H37  1  0.08921000  0.20694000  0.96287000  1.0
  H  H38  1  0.58921000  0.70694000  0.53713000  1.0
  H  H39  1  0.29306000  0.41079000  0.46287000  1.0
  H  H40  1  0.02361000  0.36323000  0.37485000  1.0
  H  H41  1  0.63677000  0.97639000  0.62515000  1.0
  H  H42  1  0.13677000  0.47639000  0.87485000  1.0
  H  H43  1  0.52361000  0.86323000  0.12515000  1.0
  H  H44  1  0.93697000  0.44568000  0.25439000  1.0
  H  H45  1  0.55431000  0.06303000  0.74560000  1.0
  H  H46  1  0.05431000  0.56303000  0.75439000  1.0
  H  H47  1  0.43697000  0.94568000  0.24561000  1.0
  H  H48  1  0.16390000  0.36428000  0.08037000  1.0
  H  H49  1  0.63572000  0.83610000  0.91963000  1.0
  H  H50  1  0.13572000  0.33610000  0.58037000  1.0
  H  H51  1  0.66390000  0.86428000  0.41963000  1.0
  H  H52  1  0.24719000  0.27832000  0.19975000  1.0
  H  H53  1  0.72168000  0.75281000  0.80025000  1.0
  H  H54  1  0.22168000  0.25281000  0.69975000  1.0
  H  H55  1  0.74719000  0.77832000  0.30025000  1.0
  H  H56  1  0.96434000  0.69276000  0.12848000  1.0
  H  H57  1  0.30724000  0.03566000  0.87152000  1.0
  H  H58  1  0.80724000  0.53566000  0.62848000  1.0
  H  H59  1  0.46434000  0.19276000  0.37152000  1.0
  H  H60  1  0.05614000  0.62076000  0.17580000  1.0
  H  H61  1  0.37924000  0.94386000  0.82420000  1.0
  H  H62  1  0.87924000  0.44386000  0.67580000  1.0
  H  H63  1  0.55614000  0.12076000  0.32420000  1.0
  H  H64  1  0.93572000  0.61586000  0.21504000  1.0
  H  H65  1  0.38414000  0.06428000  0.78496000  1.0
  H  H66  1  0.88413000  0.56428000  0.71504000  1.0
  H  H67  1  0.43572000  0.11586000  0.28496000  1.0
  H  H68  1  0.87233000  0.46490000  0.91404000  1.0
  H  H69  1  0.53510000  0.12768000  0.08596000  1.0
  H  H70  1  0.03510000  0.62767000  0.41404000  1.0
  H  H71  1  0.37232000  0.96490000  0.58596000  1.0
  H  H72  1  0.98728000  0.33474000  0.00468000  1.0
  H  H73  1  0.66526000  0.01272000  0.99531000  1.0
  H  H74  1  0.16526000  0.51272000  0.50469000  1.0
  H  H75  1  0.48728000  0.83474000  0.49531000  1.0
  C  C76  1  0.17622000  0.06414000  0.60713000  1.0
  C  C77  1  0.93586000  0.82379000  0.39287000  1.0
  C  C78  1  0.43586000  0.32378000  0.10713000  1.0
  C  C79  1  0.67622000  0.56414000  0.89287000  1.0
  C  C80  1  0.11031000  0.02104000  0.67329000  1.0
  C  C81  1  0.97896000  0.88969000  0.32671000  1.0
  C  C82  1  0.47896000  0.38969000  0.17329000  1.0
  C  C83  1  0.61031000  0.52105000  0.82671000  1.0
  C  C84  1  0.12178000  0.04913000  0.75919000  1.0
  C  C85  1  0.95087000  0.87822000  0.24081000  1.0
  C  C86  1  0.45087000  0.37822000  0.25919000  1.0
  C  C87  1  0.62178000  0.54914000  0.74081000  1.0
  C  C88  1  0.06071000  0.01190000  0.82206000  1.0
  C  C89  1  0.98810000  0.93929000  0.17794000  1.0
  C  C90  1  0.48810000  0.43929000  0.32206000  1.0
  C  C91  1  0.56071000  0.51190000  0.67794000  1.0
  C  C92  1  0.98791000  0.94607000  0.79871000  1.0
  C  C93  1  0.05393000  0.01209000  0.20129000  1.0
  C  C94  1  0.55393000  0.51209000  0.29871000  1.0
  C  C95  1  0.48791000  0.44608000  0.70129000  1.0
  C  C96  1  0.97525000  0.91765000  0.71339000  1.0
  C  C97  1  0.08236000  0.02475000  0.28661000  1.0
  C  C98  1  0.58235000  0.52475000  0.21339000  1.0
  C  C99  1  0.47525000  0.41765000  0.78661000  1.0
  C  C100  1  0.03663000  0.95559000  0.65056000  1.0
  C  C101  1  0.04441000  0.96337000  0.34944000  1.0
  C  C102  1  0.54441000  0.46337000  0.15056000  1.0
  C  C103  1  0.53663000  0.45559000  0.84944000  1.0
  C  C104  1  0.95183000  0.73061000  0.83412000  1.0
  C  C105  1  0.26939000  0.04817000  0.16588000  1.0
  C  C106  1  0.76939000  0.54817000  0.33412000  1.0
  C  C107  1  0.45183000  0.23061000  0.66588000  1.0
  C  C108  1  0.91280000  0.81230000  0.88448000  1.0
  C  C109  1  0.18770000  0.08720000  0.11552000  1.0
  C  C110  1  0.68770000  0.58720000  0.38448000  1.0
  C  C111  1  0.41280000  0.31230000  0.61552000  1.0
  C  C112  1  0.88061000  0.96274000  0.92632000  1.0
  C  C113  1  0.03726000  0.11938000  0.07367000  1.0
  C  C114  1  0.53726000  0.61939000  0.42633000  1.0
  C  C115  1  0.38061000  0.46275000  0.57367000  1.0
  C  C116  1  0.83847000  0.89817000  0.98175000  1.0
  C  C117  1  0.10182000  0.16153000  0.01825000  1.0
  C  C118  1  0.60183000  0.66153000  0.48175000  1.0
  C  C119  1  0.33847000  0.39818000  0.51825000  1.0
  C  C120  1  0.18840000  0.26354000  0.36647000  1.0
  C  C121  1  0.73647000  0.81159000  0.63353000  1.0
  C  C122  1  0.23646000  0.31160000  0.86647000  1.0
  C  C123  1  0.68840000  0.76353000  0.13353000  1.0
  C  C124  1  0.13950000  0.31490000  0.29432000  1.0
  C  C125  1  0.68510000  0.86050000  0.70568000  1.0
  C  C126  1  0.18510000  0.36050000  0.79432000  1.0
  C  C127  1  0.63950000  0.81490000  0.20568000  1.0
  C  C128  1  0.05315000  0.36379000  0.31011000  1.0
  C  C129  1  0.63621000  0.94685000  0.68989000  1.0
  C  C130  1  0.13621000  0.44685000  0.81011000  1.0
  C  C131  1  0.55315000  0.86378000  0.18989000  1.0
  C  C132  1  0.00580000  0.41035000  0.24354000  1.0
  C  C133  1  0.58965000  0.99419000  0.75646000  1.0
  C  C134  1  0.08965000  0.49420000  0.74354000  1.0
  C  C135  1  0.50581000  0.91035000  0.25646000  1.0
  C  C136  1  0.04622000  0.40967000  0.16128000  1.0
  C  C137  1  0.59033000  0.95378000  0.83872000  1.0
  C  C138  1  0.09033000  0.45378000  0.66128000  1.0
  C  C139  1  0.54622000  0.90967000  0.33872000  1.0
  C  C140  1  0.13313000  0.36292000  0.14478000  1.0
  C  C141  1  0.63708000  0.86687000  0.85522000  1.0
  C  C142  1  0.13708000  0.36687000  0.64478000  1.0
  C  C143  1  0.63313000  0.86292000  0.35522000  1.0
  C  C144  1  0.17911000  0.31482000  0.21160000  1.0
  C  C145  1  0.68519000  0.82089000  0.78840000  1.0
  C  C146  1  0.18518000  0.32089000  0.71160000  1.0
  C  C147  1  0.67911000  0.81481000  0.28840000  1.0
  C  C148  1  0.97981000  0.62217000  0.15674000  1.0
  C  C149  1  0.37783000  0.02019000  0.84326000  1.0
  C  C150  1  0.87783000  0.52019000  0.65674000  1.0
  C  C151  1  0.47981000  0.12217000  0.34326000  1.0
  C  C152  1  0.95857000  0.54597000  0.09207000  1.0
  C  C153  1  0.45403000  0.04143000  0.90792000  1.0
  C  C154  1  0.95403000  0.54144000  0.59208000  1.0
  C  C155  1  0.45857000  0.04597000  0.40792000  1.0
  C  C156  1  0.91019000  0.47283000  0.97453000  1.0
  C  C157  1  0.52717000  0.08981000  0.02547000  1.0
  C  C158  1  0.02717000  0.58981000  0.47453000  1.0
  C  C159  1  0.41019000  0.97283000  0.52547000  1.0
  C  C160  1  0.96570000  0.40805000  0.01809000  1.0
  C  C161  1  0.59195000  0.03430000  0.98191000  1.0
  C  C162  1  0.09195000  0.53430000  0.51809000  1.0
  C  C163  1  0.46570000  0.90805000  0.48191000  1.0
  N  N164  1  0.85932000  0.80544000  0.95547000  1.0
  N  N165  1  0.19456000  0.14068000  0.04453000  1.0
  N  N166  1  0.69456000  0.64068000  0.45548000  1.0
  N  N167  1  0.35932000  0.30544000  0.54453000  1.0
  N  N168  1  0.92713000  0.90790000  0.86474000  1.0
  N  N169  1  0.09210000  0.07287000  0.13526000  1.0
  N  N170  1  0.59210000  0.57287000  0.36474000  1.0
  N  N171  1  0.42713000  0.40790000  0.63526000  1.0
  N  N172  1  0.90665000  0.55794000  0.02080000  1.0
  N  N173  1  0.44206000  0.09336000  0.97920000  1.0
  N  N174  1  0.94206000  0.59336000  0.52080000  1.0
  N  N175  1  0.40664000  0.05794000  0.47920000  1.0
  N  N176  1  0.99509000  0.45445000  0.09280000  1.0
  N  N177  1  0.54555000  0.00491000  0.90720000  1.0
  N  N178  1  0.04555000  0.50491000  0.59280000  1.0
  N  N179  1  0.49509000  0.95445000  0.40720000  1.0
  O  O180  1  0.24995000  0.11251000  0.63394000  1.0
  O  O181  1  0.88749000  0.75005000  0.36606000  1.0
  O  O182  1  0.38749000  0.25005000  0.13394000  1.0
  O  O183  1  0.74995000  0.61251000  0.86606000  1.0
  O  O184  1  0.15693000  0.05388000  0.52790000  1.0
  O  O185  1  0.94612000  0.84307000  0.47210000  1.0
  O  O186  1  0.44612000  0.34307000  0.02791000  1.0
  O  O187  1  0.65693000  0.55388000  0.97210000  1.0
  O  O188  1  0.25652000  0.20448000  0.34845000  1.0
  O  O189  1  0.79552000  0.74348000  0.65155000  1.0
  O  O190  1  0.29552000  0.24348000  0.84845000  1.0
  O  O191  1  0.75652000  0.70448000  0.15155000  1.0
  O  O192  1  0.16126000  0.28031000  0.44278000  1.0
  O  O193  1  0.71969000  0.83874000  0.55722000  1.0
  O  O194  1  0.21969000  0.33874000  0.94278000  1.0
  O  O195  1  0.66126000  0.78031000  0.05722000  1.0
