# generated using pymatgen
data_ZnH28C20S2(N5O4)2
_symmetry_space_group_name_H-M   'P 1'
_cell_length_a   7.37756000
_cell_length_b   10.67910000
_cell_length_c   18.71140000
_cell_angle_alpha   91.70790000
_cell_angle_beta   89.99980000
_cell_angle_gamma   89.99990000
_symmetry_Int_Tables_number   1
_chemical_formula_structural   ZnH28C20S2(N5O4)2
_chemical_formula_sum   'Zn2 H56 C40 S4 N20 O16'
_cell_volume   1473.53587140
_cell_formula_units_Z   2
loop_
 _symmetry_equiv_pos_site_id
 _symmetry_equiv_pos_as_xyz
  1  'x, y, z'
loop_
 _atom_site_type_symbol
 _atom_site_label
 _atom_site_symmetry_multiplicity
 _atom_site_fract_x
 _atom_site_fract_y
 _atom_site_fract_z
 _atom_site_occupancy
  Zn  Zn0  1  0.39696000  0.95180000  0.23465000  1.0
  Zn  Zn1  1  0.89696000  0.04819000  0.76534000  1.0
  H  H2  1  0.02823000  0.14531000  0.00423000  1.0
  H  H3  1  0.52823000  0.85469000  0.99577000  1.0
  H  H4  1  0.89298000  0.12474000  0.08153000  1.0
  H  H5  1  0.39298000  0.87526000  0.91847000  1.0
  H  H6  1  0.93680000  0.27921000  0.04992000  1.0
  H  H7  1  0.43680000  0.72079000  0.95008000  1.0
  H  H8  1  0.67784000  0.23177000  0.11205000  1.0
  H  H9  1  0.17783000  0.76823000  0.88794000  1.0
  H  H10  1  0.29640000  0.28626000  0.07482000  1.0
  H  H11  1  0.79640000  0.71374000  0.92518000  1.0
  H  H12  1  0.32120000  0.40173000  0.20256000  1.0
  H  H13  1  0.82120000  0.59827000  0.79744000  1.0
  H  H14  1  0.55468000  0.40469000  0.18383000  1.0
  H  H15  1  0.05467000  0.59531000  0.81617000  1.0
  H  H16  1  0.48154000  0.51259000  0.06605000  1.0
  H  H17  1  0.98154000  0.48741000  0.93395000  1.0
  H  H18  1  0.42146000  0.60108000  0.14521000  1.0
  H  H19  1  0.92145000  0.39891000  0.85479000  1.0
  H  H20  1  0.90032000  0.57339000  0.14648000  1.0
  H  H21  1  0.40031000  0.42661000  0.85352000  1.0
  H  H22  1  0.10115000  0.60342000  0.19804000  1.0
  H  H23  1  0.60115000  0.39658000  0.80196000  1.0
  H  H24  1  0.02083000  0.44544000  0.18389000  1.0
  H  H25  1  0.52083000  0.55456000  0.81611000  1.0
  H  H26  1  0.17053000  0.16699000  0.88544000  1.0
  H  H27  1  0.67053000  0.83301000  0.11456000  1.0
  H  H28  1  0.31004000  0.14236000  0.80869000  1.0
  H  H29  1  0.81003000  0.85763000  0.19131000  1.0
  H  H30  1  0.27634000  0.79920000  0.42754000  1.0
  H  H31  1  0.77636000  0.20081000  0.57246000  1.0
  H  H32  1  0.13918000  0.81042000  0.34952000  1.0
  H  H33  1  0.63920000  0.18960000  0.65048000  1.0
  H  H34  1  0.15091000  0.66565000  0.39641000  1.0
  H  H35  1  0.65093000  0.33437000  0.60358000  1.0
  H  H36  1  0.90132000  0.72073000  0.33161000  1.0
  H  H37  1  0.40134000  0.27927000  0.66839000  1.0
  H  H38  1  0.54006000  0.66749000  0.39315000  1.0
  H  H39  1  0.04008000  0.33251000  0.60685000  1.0
  H  H40  1  0.54757000  0.49479000  0.28886000  1.0
  H  H41  1  0.04757000  0.50520000  0.71115000  1.0
  H  H42  1  0.78534000  0.50911000  0.29694000  1.0
  H  H43  1  0.28534000  0.49089000  0.70306000  1.0
  H  H44  1  0.75812000  0.46478000  0.42984000  1.0
  H  H45  1  0.25812000  0.53522000  0.57016000  1.0
  H  H46  1  0.67820000  0.33963000  0.37373000  1.0
  H  H47  1  0.17819000  0.66037000  0.62627000  1.0
  H  H48  1  0.14941000  0.39158000  0.39866000  1.0
  H  H49  1  0.64940000  0.60841000  0.60134000  1.0
  H  H50  1  0.31705000  0.31667000  0.34379000  1.0
  H  H51  1  0.81704000  0.68333000  0.65621000  1.0
  H  H52  1  0.26630000  0.48005000  0.33293000  1.0
  H  H53  1  0.76629000  0.51995000  0.66707000  1.0
  H  H54  1  0.43667000  0.86963000  0.55994000  1.0
  H  H55  1  0.93669000  0.13036000  0.44006000  1.0
  H  H56  1  0.59324000  0.92867000  0.62670000  1.0
  H  H57  1  0.09325000  0.07133000  0.37330000  1.0
  C  C58  1  0.91074000  0.18092000  0.03391000  1.0
  C  C59  1  0.41074000  0.81907000  0.96609000  1.0
  C  C60  1  0.58077000  0.20326000  0.01158000  1.0
  C  C61  1  0.08078000  0.79674000  0.98842000  1.0
  C  C62  1  0.40143000  0.27673000  0.11571000  1.0
  C  C63  1  0.90143000  0.72328000  0.88429000  1.0
  C  C64  1  0.34500000  0.17026000  0.16434000  1.0
  C  C65  1  0.84499000  0.82974000  0.83566000  1.0
  C  C66  1  0.41985000  0.40046000  0.15859000  1.0
  C  C67  1  0.91985000  0.59954000  0.84141000  1.0
  C  C68  1  0.39243000  0.51541000  0.11329000  1.0
  C  C69  1  0.89243000  0.48459000  0.88671000  1.0
  C  C70  1  0.03506000  0.53769000  0.16005000  1.0
  C  C71  1  0.53506000  0.46232000  0.83996000  1.0
  C  C72  1  0.44546000  0.16785000  0.90197000  1.0
  C  C73  1  0.94545000  0.83215000  0.09802000  1.0
  C  C74  1  0.61933000  0.14426000  0.86923000  1.0
  C  C75  1  0.11932000  0.85573000  0.13077000  1.0
  C  C76  1  0.77917000  0.14560000  0.91413000  1.0
  C  C77  1  0.27917000  0.85440000  0.08587000  1.0
  C  C78  1  0.15014000  0.76833000  0.40205000  1.0
  C  C79  1  0.65016000  0.23169000  0.59794000  1.0
  C  C80  1  0.82411000  0.77976000  0.43104000  1.0
  C  C81  1  0.32413000  0.22024000  0.56897000  1.0
  C  C82  1  0.62913000  0.66173000  0.34583000  1.0
  C  C83  1  0.12914000  0.33827000  0.65417000  1.0
  C  C84  1  0.52335000  0.73192000  0.28861000  1.0
  C  C85  1  0.02336000  0.26808000  0.71139000  1.0
  C  C86  1  0.65623000  0.52252000  0.32596000  1.0
  C  C87  1  0.15622000  0.47748000  0.67404000  1.0
  C  C88  1  0.65329000  0.43786000  0.39040000  1.0
  C  C89  1  0.15329000  0.56214000  0.60961000  1.0
  C  C90  1  0.27949000  0.40502000  0.37151000  1.0
  C  C91  1  0.77949000  0.59498000  0.62849000  1.0
  C  C92  1  0.70901000  0.85946000  0.53707000  1.0
  C  C93  1  0.20903000  0.14054000  0.46293000  1.0
  C  C94  1  0.88998000  0.89056000  0.56277000  1.0
  C  C95  1  0.39000000  0.10944000  0.43723000  1.0
  C  C96  1  0.04466000  0.85888000  0.51670000  1.0
  C  C97  1  0.54467000  0.14112000  0.48330000  1.0
  S  S98  1  0.16403000  0.52773000  0.07766000  1.0
  S  S99  1  0.66403000  0.47227000  0.92235000  1.0
  S  S100  1  0.44250000  0.44621000  0.44054000  1.0
  S  S101  1  0.94250000  0.55379000  0.55946000  1.0
  N  N102  1  0.75233000  0.17071000  0.98681000  1.0
  N  N103  1  0.25233000  0.82928000  0.01318000  1.0
  N  N104  1  0.57092000  0.24731000  0.07926000  1.0
  N  N105  1  0.07091000  0.75269000  0.92074000  1.0
  N  N106  1  0.43093000  0.19513000  0.97238000  1.0
  N  N107  1  0.93092000  0.80486000  0.02762000  1.0
  N  N108  1  0.29646000  0.16162000  0.86253000  1.0
  N  N109  1  0.79646000  0.83837000  0.13747000  1.0
  N  N110  1  0.64861000  0.11636000  0.79934000  1.0
  N  N111  1  0.14861000  0.88364000  0.20066000  1.0
  N  N112  1  0.00119000  0.80965000  0.44851000  1.0
  N  N113  1  0.50121000  0.19035000  0.55149000  1.0
  N  N114  1  0.79887000  0.71909000  0.36779000  1.0
  N  N115  1  0.29888000  0.28092000  0.63222000  1.0
  N  N116  1  0.68196000  0.80302000  0.47291000  1.0
  N  N117  1  0.18198000  0.19698000  0.52710000  1.0
  N  N118  1  0.56621000  0.88567000  0.57814000  1.0
  N  N119  1  0.06623000  0.11433000  0.42187000  1.0
  N  N120  1  0.93624000  0.94392000  0.62552000  1.0
  N  N121  1  0.43626000  0.05608000  0.37448000  1.0
  O  O122  1  0.47933000  0.10650000  0.18920000  1.0
  O  O123  1  0.97932000  0.89349000  0.81079000  1.0
  O  O124  1  0.18066000  0.15490000  0.17629000  1.0
  O  O125  1  0.68064000  0.84510000  0.82372000  1.0
  O  O126  1  0.51891000  0.12029000  0.75470000  1.0
  O  O127  1  0.01890000  0.87971000  0.24530000  1.0
  O  O128  1  0.93470000  0.12610000  0.89019000  1.0
  O  O129  1  0.43470000  0.87389000  0.10981000  1.0
  O  O130  1  0.58616000  0.84000000  0.27147000  1.0
  O  O131  1  0.08617000  0.15999000  0.72852000  1.0
  O  O132  1  0.38034000  0.68226000  0.26586000  1.0
  O  O133  1  0.88036000  0.31773000  0.73414000  1.0
  O  O134  1  0.80358000  0.97489000  0.66889000  1.0
  O  O135  1  0.30359000  0.02512000  0.33111000  1.0
  O  O136  1  0.20494000  0.87366000  0.53416000  1.0
  O  O137  1  0.70496000  0.12632000  0.46584000  1.0
