# generated using pymatgen
data_ZnH22C32S2(NO2)4
_symmetry_space_group_name_H-M   'P 1'
_cell_length_a   14.27560000
_cell_length_b   15.67380000
_cell_length_c   16.18720000
_cell_angle_alpha   67.60340000
_cell_angle_beta   79.06820000
_cell_angle_gamma   72.61630000
_symmetry_Int_Tables_number   1
_chemical_formula_structural   ZnH22C32S2(NO2)4
_chemical_formula_sum   'Zn4 H88 C128 S8 N16 O32'
_cell_volume   3183.95780101
_cell_formula_units_Z   4
loop_
 _symmetry_equiv_pos_site_id
 _symmetry_equiv_pos_as_xyz
  1  'x, y, z'
loop_
 _atom_site_type_symbol
 _atom_site_label
 _atom_site_symmetry_multiplicity
 _atom_site_fract_x
 _atom_site_fract_y
 _atom_site_fract_z
 _atom_site_occupancy
  Zn  Zn0  1  0.08245000  0.32550000  0.90554000  1.0
  Zn  Zn1  1  0.91755000  0.67450000  0.09446000  1.0
  Zn  Zn2  1  0.44284000  0.10527000  0.65054000  1.0
  Zn  Zn3  1  0.55716000  0.89473000  0.34946000  1.0
  H  H4  1  0.39464000  0.41674000  0.69372000  1.0
  H  H5  1  0.60537000  0.58326000  0.30628000  1.0
  H  H6  1  0.55379000  0.45649000  0.69480000  1.0
  H  H7  1  0.44621000  0.54351000  0.30520000  1.0
  H  H8  1  0.45592000  0.47684000  0.95715000  1.0
  H  H9  1  0.54408000  0.52317000  0.04285000  1.0
  H  H10  1  0.30332000  0.43092000  0.95730000  1.0
  H  H11  1  0.69667000  0.56908000  0.04270000  1.0
  H  H12  1  0.55264000  0.63309000  0.91148000  1.0
  H  H13  1  0.44736000  0.36691000  0.08852000  1.0
  H  H14  1  0.51303000  0.81074000  0.84342000  1.0
  H  H15  1  0.48697000  0.18926000  0.15657000  1.0
  H  H16  1  0.61751000  0.79132000  0.58308000  1.0
  H  H17  1  0.38249000  0.20868000  0.41692000  1.0
  H  H18  1  0.65691000  0.61358000  0.64888000  1.0
  H  H19  1  0.34309000  0.38643000  0.35111000  1.0
  H  H20  1  0.21926000  0.05134000  0.53973000  1.0
  H  H21  1  0.78074000  0.94865000  0.46027000  1.0
  H  H22  1  0.06106000  0.05072000  0.49828000  1.0
  H  H23  1  0.93894000  0.94928000  0.50172000  1.0
  H  H24  1  0.93940000  0.34064000  0.49190000  1.0
  H  H25  1  0.06060000  0.65936000  0.50810000  1.0
  H  H26  1  0.10274000  0.34036000  0.53116000  1.0
  H  H27  1  0.89726000  0.65963000  0.46884000  1.0
  H  H28  1  0.95630000  0.07992000  0.35189000  1.0
  H  H29  1  0.04370000  0.92008000  0.64811000  1.0
  H  H30  1  0.01041000  0.12679000  0.18687000  1.0
  H  H31  1  0.98960000  0.87321000  0.81313000  1.0
  H  H32  1  0.90219000  0.42207000  0.15835000  1.0
  H  H33  1  0.09781000  0.57793000  0.84165000  1.0
  H  H34  1  0.84811000  0.37770000  0.32298000  1.0
  H  H35  1  0.15188000  0.62230000  0.67702000  1.0
  H  H36  1  0.94111000  0.51874000  0.91851000  1.0
  H  H37  1  0.05889000  0.48126000  0.08149000  1.0
  H  H38  1  0.99479000  0.41279000  0.70611000  1.0
  H  H39  1  0.00520000  0.58721000  0.29390000  1.0
  H  H40  1  0.86724000  0.59329000  0.65308000  1.0
  H  H41  1  0.13276000  0.40671000  0.34692000  1.0
  H  H42  1  0.80667000  0.62427000  0.93457000  1.0
  H  H43  1  0.19333000  0.37573000  0.06543000  1.0
  H  H44  1  0.73357000  0.78398000  0.94208000  1.0
  H  H45  1  0.26643000  0.21602000  0.05792000  1.0
  H  H46  1  0.77511000  0.90683000  0.65301000  1.0
  H  H47  1  0.22489000  0.09317000  0.34699000  1.0
  H  H48  1  0.85382000  0.74495000  0.64579000  1.0
  H  H49  1  0.14618000  0.25505000  0.35421000  1.0
  H  H50  1  0.79203000  0.95582000  0.95567000  1.0
  H  H51  1  0.20797000  0.04418000  0.04433000  1.0
  H  H52  1  0.92430000  0.02491000  0.96302000  1.0
  H  H53  1  0.07570000  0.97509000  0.03698000  1.0
  H  H54  1  0.95752000  0.14123000  0.67356000  1.0
  H  H55  1  0.04247000  0.85878000  0.32644000  1.0
  H  H56  1  0.82599000  0.07101000  0.66617000  1.0
  H  H57  1  0.17400000  0.92900000  0.33383000  1.0
  H  H58  1  0.96300000  0.17785000  0.93548000  1.0
  H  H59  1  0.03700000  0.82215000  0.06452000  1.0
  H  H60  1  0.11459000  0.12364000  0.70112000  1.0
  H  H61  1  0.88540000  0.87636000  0.29888000  1.0
  H  H62  1  0.19271000  0.24854000  0.73677000  1.0
  H  H63  1  0.80729000  0.75146000  0.26323000  1.0
  H  H64  1  0.57894000  0.07541000  0.48551000  1.0
  H  H65  1  0.42106000  0.92459000  0.51449000  1.0
  H  H66  1  0.48737000  0.31832000  0.56057000  1.0
  H  H67  1  0.51263000  0.68168000  0.43943000  1.0
  H  H68  1  0.59864000  0.36353000  0.39700000  1.0
  H  H69  1  0.40136000  0.63647000  0.60300000  1.0
  H  H70  1  0.63765000  0.35994000  0.26207000  1.0
  H  H71  1  0.36235000  0.64006000  0.73793000  1.0
  H  H72  1  0.71335000  0.34146000  0.11676000  1.0
  H  H73  1  0.28665000  0.65854000  0.88324000  1.0
  H  H74  1  0.75532000  0.03647000  0.23906000  1.0
  H  H75  1  0.24469000  0.96353000  0.76095000  1.0
  H  H76  1  0.67777000  0.05376000  0.38143000  1.0
  H  H77  1  0.32223000  0.94624000  0.61857000  1.0
  H  H78  1  0.62932000  0.08107000  0.12576000  1.0
  H  H79  1  0.37068000  0.91893000  0.87425000  1.0
  H  H80  1  0.50718000  0.07656000  0.04035000  1.0
  H  H81  1  0.49282000  0.92344000  0.95965000  1.0
  H  H82  1  0.62377000  0.27030000  0.79929000  1.0
  H  H83  1  0.37623000  0.72970000  0.20071000  1.0
  H  H84  1  0.74665000  0.27499000  0.88566000  1.0
  H  H85  1  0.25335000  0.72501000  0.11434000  1.0
  H  H86  1  0.37551000  0.12511000  0.96992000  1.0
  H  H87  1  0.62449000  0.87490000  0.03007000  1.0
  H  H88  1  0.30151000  0.10884000  0.83174000  1.0
  H  H89  1  0.69849000  0.89116000  0.16826000  1.0
  H  H90  1  0.56915000  0.18874000  0.73352000  1.0
  H  H91  1  0.43085000  0.81126000  0.26648000  1.0
  C  C92  1  0.25087000  0.38754000  0.82695000  1.0
  C  C93  1  0.74913000  0.61246000  0.17304000  1.0
  C  C94  1  0.34131000  0.41917000  0.82605000  1.0
  C  C95  1  0.65869000  0.58083000  0.17395000  1.0
  C  C96  1  0.41050000  0.42915000  0.75095000  1.0
  C  C97  1  0.58950000  0.57085000  0.24905000  1.0
  C  C98  1  0.49765000  0.45195000  0.75127000  1.0
  C  C99  1  0.50235000  0.54805000  0.24873000  1.0
  C  C100  1  0.51414000  0.46655000  0.82691000  1.0
  C  C101  1  0.48586000  0.53345000  0.17309000  1.0
  C  C102  1  0.44369000  0.46192000  0.90016000  1.0
  C  C103  1  0.55630000  0.53808000  0.09983000  1.0
  C  C104  1  0.35792000  0.43710000  0.89981000  1.0
  C  C105  1  0.64208000  0.56290000  0.10019000  1.0
  C  C106  1  0.60553000  0.61399000  0.78385000  1.0
  C  C107  1  0.39447000  0.38600000  0.21615000  1.0
  C  C108  1  0.56585000  0.66807000  0.83956000  1.0
  C  C109  1  0.43415000  0.33193000  0.16044000  1.0
  C  C110  1  0.54384000  0.76690000  0.80169000  1.0
  C  C111  1  0.45616000  0.23310000  0.19831000  1.0
  C  C112  1  0.56141000  0.81104000  0.70916000  1.0
  C  C113  1  0.43860000  0.18896000  0.29084000  1.0
  C  C114  1  0.60312000  0.75558000  0.65466000  1.0
  C  C115  1  0.39689000  0.24442000  0.34534000  1.0
  C  C116  1  0.62480000  0.65669000  0.69128000  1.0
  C  C117  1  0.37520000  0.34331000  0.30871000  1.0
  C  C118  1  0.53535000  0.91785000  0.66570000  1.0
  C  C119  1  0.46466000  0.08215000  0.33429000  1.0
  C  C120  1  0.26423000  0.19634000  0.56816000  1.0
  C  C121  1  0.73577000  0.80365000  0.43184000  1.0
  C  C122  1  0.17002000  0.19597000  0.53856000  1.0
  C  C123  1  0.82998000  0.80403000  0.46145000  1.0
  C  C124  1  0.15813000  0.11453000  0.52924000  1.0
  C  C125  1  0.84187000  0.88547000  0.47077000  1.0
  C  C126  1  0.06908000  0.11411000  0.50619000  1.0
  C  C127  1  0.93091000  0.88589000  0.49381000  1.0
  C  C128  1  0.99103000  0.19567000  0.49399000  1.0
  C  C129  1  0.00897000  0.80433000  0.50601000  1.0
  C  C130  1  0.00151000  0.27812000  0.50197000  1.0
  C  C131  1  0.99849000  0.72188000  0.49803000  1.0
  C  C132  1  0.09160000  0.27789000  0.52366000  1.0
  C  C133  1  0.90840000  0.72211000  0.47634000  1.0
  C  C134  1  0.90128000  0.22638000  0.34587000  1.0
  C  C135  1  0.09872000  0.77361000  0.65413000  1.0
  C  C136  1  0.94512000  0.15461000  0.30920000  1.0
  C  C137  1  0.05488000  0.84539000  0.69080000  1.0
  C  C138  1  0.97529000  0.18048000  0.21789000  1.0
  C  C139  1  0.02471000  0.81952000  0.78211000  1.0
  C  C140  1  0.96225000  0.27686000  0.16470000  1.0
  C  C141  1  0.03775000  0.72314000  0.83530000  1.0
  C  C142  1  0.91396000  0.34770000  0.20199000  1.0
  C  C143  1  0.08604000  0.65229000  0.79801000  1.0
  C  C144  1  0.88385000  0.32311000  0.29303000  1.0
  C  C145  1  0.11614000  0.67688000  0.70697000  1.0
  C  C146  1  0.00351000  0.30713000  0.06869000  1.0
  C  C147  1  0.99650000  0.69287000  0.93131000  1.0
  C  C148  1  0.93587000  0.51257000  0.85514000  1.0
  C  C149  1  0.06413000  0.48743000  0.14486000  1.0
  C  C150  1  0.96393000  0.46191000  0.74230000  1.0
  C  C151  1  0.03607000  0.53810000  0.25770000  1.0
  C  C152  1  0.90229000  0.55134000  0.71467000  1.0
  C  C153  1  0.09771000  0.44866000  0.28533000  1.0
  C  C154  1  0.83509000  0.67478000  0.78954000  1.0
  C  C155  1  0.16491000  0.32522000  0.21046000  1.0
  C  C156  1  0.79992000  0.68554000  0.87275000  1.0
  C  C157  1  0.20008000  0.31447000  0.12725000  1.0
  C  C158  1  0.75900000  0.77603000  0.87705000  1.0
  C  C159  1  0.24100000  0.22397000  0.12295000  1.0
  C  C160  1  0.75142000  0.85476000  0.79768000  1.0
  C  C161  1  0.24858000  0.14524000  0.20232000  1.0
  C  C162  1  0.78377000  0.84449000  0.71413000  1.0
  C  C163  1  0.21624000  0.15551000  0.28587000  1.0
  C  C164  1  0.82621000  0.75383000  0.71018000  1.0
  C  C165  1  0.17380000  0.24617000  0.28983000  1.0
  C  C166  1  0.80171000  0.00982000  0.81064000  1.0
  C  C167  1  0.19829000  0.99018000  0.18936000  1.0
  C  C168  1  0.82915000  0.99562000  0.89420000  1.0
  C  C169  1  0.17084000  0.00438000  0.10580000  1.0
  C  C170  1  0.90369000  0.03403000  0.89823000  1.0
  C  C171  1  0.09630000  0.96597000  0.10177000  1.0
  C  C172  1  0.94932000  0.08632000  0.81852000  1.0
  C  C173  1  0.05067000  0.91369000  0.18148000  1.0
  C  C174  1  0.92300000  0.09843000  0.73497000  1.0
  C  C175  1  0.07699000  0.90157000  0.26503000  1.0
  C  C176  1  0.84896000  0.05987000  0.73076000  1.0
  C  C177  1  0.15104000  0.94014000  0.26924000  1.0
  C  C178  1  0.01676000  0.17803000  0.87820000  1.0
  C  C179  1  0.98324000  0.82197000  0.12180000  1.0
  C  C180  1  0.09528000  0.15405000  0.75362000  1.0
  C  C181  1  0.90471000  0.84595000  0.24638000  1.0
  C  C182  1  0.13455000  0.21343000  0.77285000  1.0
  C  C183  1  0.86544000  0.78657000  0.22715000  1.0
  C  C184  1  0.57160000  0.14718000  0.48302000  1.0
  C  C185  1  0.42840000  0.85282000  0.51698000  1.0
  C  C186  1  0.52472000  0.27460000  0.52017000  1.0
  C  C187  1  0.47527000  0.72540000  0.47983000  1.0
  C  C188  1  0.57737000  0.29848000  0.43838000  1.0
  C  C189  1  0.42263000  0.70152000  0.56162000  1.0
  C  C190  1  0.65371000  0.20816000  0.33217000  1.0
  C  C191  1  0.34629000  0.79184000  0.66783000  1.0
  C  C192  1  0.66369000  0.28904000  0.25745000  1.0
  C  C193  1  0.33631000  0.71096000  0.74255000  1.0
  C  C194  1  0.70558000  0.27919000  0.17557000  1.0
  C  C195  1  0.29442000  0.72081000  0.82443000  1.0
  C  C196  1  0.73813000  0.18821000  0.16947000  1.0
  C  C197  1  0.26187000  0.81179000  0.83053000  1.0
  C  C198  1  0.72924000  0.10727000  0.24391000  1.0
  C  C199  1  0.27076000  0.89272000  0.75609000  1.0
  C  C200  1  0.68671000  0.11739000  0.32513000  1.0
  C  C201  1  0.31329000  0.88260000  0.67488000  1.0
  C  C202  1  0.69689000  0.17697000  0.01000000  1.0
  C  C203  1  0.30311000  0.82303000  0.99000000  1.0
  C  C204  1  0.62914000  0.12206000  0.05412000  1.0
  C  C205  1  0.37086000  0.87794000  0.94588000  1.0
  C  C206  1  0.55937000  0.12000000  0.00599000  1.0
  C  C207  1  0.44063000  0.88000000  0.99401000  1.0
  C  C208  1  0.55837000  0.17229000  0.91393000  1.0
  C  C209  1  0.44163000  0.82771000  0.08607000  1.0
  C  C210  1  0.62595000  0.22761000  0.87027000  1.0
  C  C211  1  0.37405000  0.77239000  0.12973000  1.0
  C  C212  1  0.69528000  0.23038000  0.91858000  1.0
  C  C213  1  0.30472000  0.76962000  0.08142000  1.0
  C  C214  1  0.40293000  0.13746000  0.90031000  1.0
  C  C215  1  0.59707000  0.86254000  0.09969000  1.0
  C  C216  1  0.36778000  0.12899000  0.83162000  1.0
  C  C217  1  0.63222000  0.87102000  0.16837000  1.0
  C  C218  1  0.50389000  0.17371000  0.77673000  1.0
  C  C219  1  0.49611000  0.82629000  0.22327000  1.0
  S  S220  1  0.62826000  0.48842000  0.83185000  1.0
  S  S221  1  0.37174000  0.51158000  0.16814000  1.0
  S  S222  1  0.87711000  0.19592000  0.46373000  1.0
  S  S223  1  0.12289000  0.80408000  0.53627000  1.0
  S  S224  1  0.70072000  0.97040000  0.80222000  1.0
  S  S225  1  0.29927000  0.02960000  0.19778000  1.0
  S  S226  1  0.79389000  0.17350000  0.06684000  1.0
  S  S227  1  0.20611000  0.82650000  0.93316000  1.0
  N  N228  1  0.98433000  0.43897000  0.82966000  1.0
  N  N229  1  0.01567000  0.56103000  0.17034000  1.0
  N  N230  1  0.88479000  0.58294000  0.78700000  1.0
  N  N231  1  0.11521000  0.41707000  0.21300000  1.0
  N  N232  1  0.02007000  0.13276000  0.82010000  1.0
  N  N233  1  0.97993000  0.86724000  0.17990000  1.0
  N  N234  1  0.08511000  0.22717000  0.85083000  1.0
  N  N235  1  0.91489000  0.77283000  0.14917000  1.0
  N  N236  1  0.52205000  0.18011000  0.54713000  1.0
  N  N237  1  0.47795000  0.81989000  0.45287000  1.0
  N  N238  1  0.60673000  0.21705000  0.41497000  1.0
  N  N239  1  0.39327000  0.78295000  0.58503000  1.0
  N  N240  1  0.48971000  0.16605000  0.86478000  1.0
  N  N241  1  0.51030000  0.83395000  0.13521000  1.0
  N  N242  1  0.43146000  0.15134000  0.75503000  1.0
  N  N243  1  0.56854000  0.84866000  0.24496000  1.0
  O  O244  1  0.22522000  0.39236000  0.75556000  1.0
  O  O245  1  0.77478000  0.60764000  0.24444000  1.0
  O  O246  1  0.20648000  0.35594000  0.90650000  1.0
  O  O247  1  0.79353000  0.64406000  0.09350000  1.0
  O  O248  1  0.70178000  0.44675000  0.77337000  1.0
  O  O249  1  0.29822000  0.55324000  0.22663000  1.0
  O  O250  1  0.64279000  0.46061000  0.92594000  1.0
  O  O251  1  0.35721000  0.53939000  0.07406000  1.0
  O  O252  1  0.56372000  0.95336000  0.58498000  1.0
  O  O253  1  0.43628000  0.04664000  0.41502000  1.0
  O  O254  1  0.48264000  0.96543000  0.71605000  1.0
  O  O255  1  0.51737000  0.03457000  0.28395000  1.0
  O  O256  1  0.31313000  0.11266000  0.61626000  1.0
  O  O257  1  0.68686000  0.88734000  0.38374000  1.0
  O  O258  1  0.28699000  0.27308000  0.54747000  1.0
  O  O259  1  0.71301000  0.72692000  0.45253000  1.0
  O  O260  1  0.86554000  0.09884000  0.50233000  1.0
  O  O261  1  0.13446000  0.90116000  0.49768000  1.0
  O  O262  1  0.80123000  0.27250000  0.48353000  1.0
  O  O263  1  0.19877000  0.72750000  0.51647000  1.0
  O  O264  1  0.04588000  0.24261000  0.03331000  1.0
  O  O265  1  0.95413000  0.75739000  0.96669000  1.0
  O  O266  1  0.99842000  0.39435000  0.02721000  1.0
  O  O267  1  0.00159000  0.60565000  0.97279000  1.0
  O  O268  1  0.66305000  0.03217000  0.71643000  1.0
  O  O269  1  0.33695000  0.96783000  0.28357000  1.0
  O  O270  1  0.63707000  0.96259000  0.88518000  1.0
  O  O271  1  0.36292000  0.03741000  0.11482000  1.0
  O  O272  1  0.83429000  0.25422000  0.01275000  1.0
  O  O273  1  0.16571000  0.74578000  0.98726000  1.0
  O  O274  1  0.85810000  0.07741000  0.08867000  1.0
  O  O275  1  0.14190000  0.92258000  0.91133000  1.0
