# generated using pymatgen
data_AlH2C9BrNO7
_symmetry_space_group_name_H-M   'P 1'
_cell_length_a   6.64010000
_cell_length_b   16.24000000
_cell_length_c   18.10380000
_cell_angle_alpha   90.00020000
_cell_angle_beta   90.00090000
_cell_angle_gamma   92.46240000
_symmetry_Int_Tables_number   1
_chemical_formula_structural   AlH2C9BrNO7
_chemical_formula_sum   'Al4 H8 C36 Br4 N4 O28'
_cell_volume   1950.42470260
_cell_formula_units_Z   4
loop_
 _symmetry_equiv_pos_site_id
 _symmetry_equiv_pos_as_xyz
  1  'x, y, z'
loop_
 _atom_site_type_symbol
 _atom_site_label
 _atom_site_symmetry_multiplicity
 _atom_site_fract_x
 _atom_site_fract_y
 _atom_site_fract_z
 _atom_site_occupancy
  Al  Al0  1  0.73914000  0.28431000  0.75165000  1.0
  Al  Al1  1  0.26085000  0.71568000  0.25165000  1.0
  Al  Al2  1  0.23931000  0.28119000  0.75183000  1.0
  Al  Al3  1  0.76068000  0.71880000  0.25183000  1.0
  H  H4  1  0.20221000  0.17159000  0.95018000  1.0
  H  H5  1  0.72685000  0.80441000  0.02877000  1.0
  H  H6  1  0.79781000  0.82842000  0.45017000  1.0
  H  H7  1  0.27313000  0.19559000  0.52877000  1.0
  H  H8  1  0.49456000  0.38679000  0.72549000  1.0
  H  H9  1  0.50542000  0.61321000  0.22549000  1.0
  H  H10  1  0.97233000  0.18050000  0.72173000  1.0
  H  H11  1  0.02765000  0.81949000  0.22173000  1.0
  C  C12  1  0.49103000  0.18437000  0.85063000  1.0
  C  C13  1  0.52727000  0.81984000  0.15412000  1.0
  C  C14  1  0.50897000  0.81563000  0.35062000  1.0
  C  C15  1  0.47271000  0.18015000  0.65413000  1.0
  C  C16  1  0.99478000  0.38065000  0.65058000  1.0
  C  C17  1  0.99337000  0.62337000  0.35334000  1.0
  C  C18  1  0.00520000  0.61934000  0.15059000  1.0
  C  C19  1  0.00663000  0.37663000  0.85334000  1.0
  C  C20  1  0.00542000  0.42874000  0.91766000  1.0
  C  C21  1  0.99507000  0.56592000  0.08713000  1.0
  C  C22  1  0.99458000  0.57125000  0.41767000  1.0
  C  C23  1  0.00491000  0.43407000  0.58713000  1.0
  C  C24  1  0.99981000  0.47264000  0.97242000  1.0
  C  C25  1  0.99633000  0.52141000  0.03267000  1.0
  C  C26  1  0.00018000  0.52736000  0.47242000  1.0
  C  C27  1  0.00365000  0.47858000  0.53268000  1.0
  C  C28  1  0.47754000  0.12048000  0.91055000  1.0
  C  C29  1  0.52911000  0.88058000  0.09170000  1.0
  C  C30  1  0.52248000  0.87953000  0.41054000  1.0
  C  C31  1  0.47088000  0.11942000  0.59170000  1.0
  C  C32  1  0.66379000  0.91483000  0.97111000  1.0
  C  C33  1  0.28710000  0.06995000  0.01641000  1.0
  C  C34  1  0.33621000  0.08518000  0.47110000  1.0
  C  C35  1  0.71292000  0.93006000  0.51640000  1.0
  C  C36  1  0.64728000  0.86165000  0.02980000  1.0
  C  C37  1  0.31124000  0.12431000  0.95873000  1.0
  C  C38  1  0.35271000  0.13835000  0.52979000  1.0
  C  C39  1  0.68878000  0.87570000  0.45872000  1.0
  C  C40  1  0.42008000  0.95169000  0.09116000  1.0
  C  C41  1  0.60792000  0.05636000  0.91818000  1.0
  C  C42  1  0.57992000  0.04831000  0.59115000  1.0
  C  C43  1  0.39210000  0.94365000  0.41817000  1.0
  C  C44  1  0.41825000  0.00363000  0.02713000  1.0
  C  C45  1  0.56443000  0.99089000  0.96974000  1.0
  C  C46  1  0.58177000  0.99638000  0.52712000  1.0
  C  C47  1  0.43558000  0.00912000  0.46973000  1.0
  Br  Br48  1  0.85750000  0.05970000  0.86740000  1.0
  Br  Br49  1  0.30894000  0.98882000  0.18100000  1.0
  Br  Br50  1  0.14251000  0.94030000  0.36739000  1.0
  Br  Br51  1  0.69107000  0.01118000  0.68099000  1.0
  N  N52  1  0.76553000  0.88170000  0.90550000  1.0
  N  N53  1  0.09536000  0.07658000  0.05704000  1.0
  N  N54  1  0.23446000  0.11830000  0.40549000  1.0
  N  N55  1  0.90466000  0.92343000  0.55703000  1.0
  O  O56  1  0.30376000  0.20995000  0.66987000  1.0
  O  O57  1  0.67596000  0.80173000  0.31946000  1.0
  O  O58  1  0.69622000  0.79004000  0.16987000  1.0
  O  O59  1  0.32404000  0.19826000  0.81947000  1.0
  O  O60  1  0.66059000  0.21848000  0.83539000  1.0
  O  O61  1  0.35900000  0.80121000  0.18433000  1.0
  O  O62  1  0.33941000  0.78152000  0.33538000  1.0
  O  O63  1  0.64098000  0.19879000  0.68434000  1.0
  O  O64  1  0.84038000  0.36668000  0.81889000  1.0
  O  O65  1  0.18093000  0.64694000  0.16855000  1.0
  O  O66  1  0.15962000  0.63332000  0.31890000  1.0
  O  O67  1  0.81905000  0.35305000  0.66855000  1.0
  O  O68  1  0.49285000  0.33339000  0.74956000  1.0
  O  O69  1  0.50714000  0.66666667  0.24956000  1.0
  O  O70  1  0.16035000  0.36627000  0.68282000  1.0
  O  O71  1  0.82684000  0.65424000  0.33637000  1.0
  O  O72  1  0.83963000  0.63372000  0.18282000  1.0
  O  O73  1  0.17316000  0.34576000  0.83638000  1.0
  O  O74  1  0.98266000  0.23193000  0.74917000  1.0
  O  O75  1  0.01732000  0.76807000  0.24917000  1.0
  O  O76  1  0.67293000  0.88536000  0.84622000  1.0
  O  O77  1  0.92760000  0.84845000  0.91503000  1.0
  O  O78  1  0.98858000  0.01231000  0.06331000  1.0
  O  O79  1  0.04830000  0.14591000  0.07712000  1.0
  O  O80  1  0.32705000  0.11464000  0.34621000  1.0
  O  O81  1  0.07239000  0.15156000  0.41503000  1.0
  O  O82  1  0.01144000  0.98770000  0.56331000  1.0
  O  O83  1  0.95173000  0.85411000  0.57711000  1.0
