# generated using pymatgen
data_BaH4C4O5
_symmetry_space_group_name_H-M   'P 1'
_cell_length_a   6.92567000
_cell_length_b   8.20869000
_cell_length_c   10.49050000
_cell_angle_alpha   90.00010000
_cell_angle_beta   90.00000000
_cell_angle_gamma   95.02620000
_symmetry_Int_Tables_number   1
_chemical_formula_structural   BaH4C4O5
_chemical_formula_sum   'Ba4 H16 C16 O20'
_cell_volume   594.09875568
_cell_formula_units_Z   4
loop_
 _symmetry_equiv_pos_site_id
 _symmetry_equiv_pos_as_xyz
  1  'x, y, z'
loop_
 _atom_site_type_symbol
 _atom_site_label
 _atom_site_symmetry_multiplicity
 _atom_site_fract_x
 _atom_site_fract_y
 _atom_site_fract_z
 _atom_site_occupancy
  Ba  Ba0  1  0.46423000  0.73534000  0.40167000  1.0
  Ba  Ba1  1  0.03576000  0.26466000  0.90167000  1.0
  Ba  Ba2  1  0.53577000  0.26466000  0.59833000  1.0
  Ba  Ba3  1  0.96423000  0.73534000  0.09833000  1.0
  H  H4  1  0.12459000  0.09325000  0.34271000  1.0
  H  H5  1  0.37541000  0.90675000  0.84271000  1.0
  H  H6  1  0.87541000  0.90676000  0.65729000  1.0
  H  H7  1  0.62459000  0.09325000  0.15729000  1.0
  H  H8  1  0.96349000  0.17388000  0.23285000  1.0
  H  H9  1  0.53651000  0.82612000  0.73285000  1.0
  H  H10  1  0.03652000  0.82612000  0.76715000  1.0
  H  H11  1  0.46348000  0.17388000  0.26716000  1.0
  H  H12  1  0.81091000  0.44690000  0.33047000  1.0
  H  H13  1  0.68909000  0.55310000  0.83047000  1.0
  H  H14  1  0.18908000  0.55310000  0.66953000  1.0
  H  H15  1  0.31091000  0.44690000  0.16953000  1.0
  H  H16  1  0.00870000  0.27349000  0.51411000  1.0
  H  H17  1  0.49131000  0.72651000  0.01410000  1.0
  H  H18  1  0.99130000  0.72652000  0.48589000  1.0
  H  H19  1  0.50869000  0.27349000  0.98589000  1.0
  C  C20  1  0.82967000  0.01184000  0.37254000  1.0
  C  C21  1  0.67034000  0.98816000  0.87254000  1.0
  C  C22  1  0.17034000  0.98816000  0.62746000  1.0
  C  C23  1  0.32967000  0.01184000  0.12747000  1.0
  C  C24  1  0.98436000  0.14543000  0.33414000  1.0
  C  C25  1  0.51564000  0.85456000  0.83414000  1.0
  C  C26  1  0.01564000  0.85457000  0.66586000  1.0
  C  C27  1  0.48436000  0.14543000  0.16586000  1.0
  C  C28  1  0.98703000  0.30192000  0.41293000  1.0
  C  C29  1  0.51297000  0.69808000  0.91293000  1.0
  C  C30  1  0.01296000  0.69808000  0.58707000  1.0
  C  C31  1  0.48703000  0.30192000  0.08707000  1.0
  C  C32  1  0.15838000  0.42026000  0.37173000  1.0
  C  C33  1  0.34161000  0.57974000  0.87173000  1.0
  C  C34  1  0.84161000  0.57975000  0.62827000  1.0
  C  C35  1  0.65838000  0.42026000  0.12827000  1.0
  O  O36  1  0.81654000  0.88233000  0.30390000  1.0
  O  O37  1  0.68346000  0.11767000  0.80389000  1.0
  O  O38  1  0.18346000  0.11767000  0.69610000  1.0
  O  O39  1  0.31654000  0.88233000  0.19610000  1.0
  O  O40  1  0.72036000  0.02886000  0.46807000  1.0
  O  O41  1  0.77962000  0.97114000  0.96806000  1.0
  O  O42  1  0.27963000  0.97114000  0.53193000  1.0
  O  O43  1  0.22036000  0.02886000  0.03193000  1.0
  O  O44  1  0.80699000  0.37383000  0.40468000  1.0
  O  O45  1  0.69301000  0.62616000  0.90468000  1.0
  O  O46  1  0.19300000  0.62616000  0.59532000  1.0
  O  O47  1  0.30699000  0.37383000  0.09532000  1.0
  O  O48  1  0.32675000  0.38768000  0.40638000  1.0
  O  O49  1  0.17326000  0.61232000  0.90638000  1.0
  O  O50  1  0.67325000  0.61233000  0.59362000  1.0
  O  O51  1  0.82675000  0.38768000  0.09362000  1.0
  O  O52  1  0.12674000  0.54307000  0.30255000  1.0
  O  O53  1  0.37326000  0.45692000  0.80254000  1.0
  O  O54  1  0.87326000  0.45693000  0.69746000  1.0
  O  O55  1  0.62674000  0.54307000  0.19745000  1.0
