# generated using pymatgen
data_CdH7C8O6F
_symmetry_space_group_name_H-M   'P 1'
_cell_length_a   6.89184000
_cell_length_b   7.23033000
_cell_length_c   10.84510000
_cell_angle_alpha   103.39700000
_cell_angle_beta   93.62950000
_cell_angle_gamma   115.54400000
_symmetry_Int_Tables_number   1
_chemical_formula_structural   CdH7C8O6F
_chemical_formula_sum   'Cd2 H14 C16 O12 F2'
_cell_volume   466.04988848
_cell_formula_units_Z   2
loop_
 _symmetry_equiv_pos_site_id
 _symmetry_equiv_pos_as_xyz
  1  'x, y, z'
loop_
 _atom_site_type_symbol
 _atom_site_label
 _atom_site_symmetry_multiplicity
 _atom_site_fract_x
 _atom_site_fract_y
 _atom_site_fract_z
 _atom_site_occupancy
  Cd  Cd0  1  0.22956000  0.69228000  0.43953000  1.0
  Cd  Cd1  1  0.77044000  0.30772000  0.56047000  1.0
  H  H2  1  0.79320000  0.01996000  0.14979000  1.0
  H  H3  1  0.20680000  0.98004000  0.85022000  1.0
  H  H4  1  0.82108000  0.82601000  0.93541000  1.0
  H  H5  1  0.17892000  0.17400000  0.06459000  1.0
  H  H6  1  0.78423000  0.45672000  0.89842000  1.0
  H  H7  1  0.21578000  0.54329000  0.10157000  1.0
  H  H8  1  0.02979000  0.25576000  0.32828000  1.0
  H  H9  1  0.97021000  0.74424000  0.67172000  1.0
  H  H10  1  0.27224000  0.33842000  0.29851000  1.0
  H  H11  1  0.72775000  0.66158000  0.70149000  1.0
  H  H12  1  0.10630000  0.85224000  0.24693000  1.0
  H  H13  1  0.89370000  0.14775000  0.75306000  1.0
  H  H14  1  0.35171000  0.02184000  0.30191000  1.0
  H  H15  1  0.64829000  0.97816000  0.69809000  1.0
  C  C16  1  0.73242000  0.45141000  0.09133000  1.0
  C  C17  1  0.26759000  0.54860000  0.90867000  1.0
  C  C18  1  0.71553000  0.55414000  0.21311000  1.0
  C  C19  1  0.28447000  0.44586000  0.78689000  1.0
  C  C20  1  0.74196000  0.76440000  0.23419000  1.0
  C  C21  1  0.25804000  0.23560000  0.76581000  1.0
  C  C22  1  0.78075000  0.86086000  0.13384000  1.0
  C  C23  1  0.21925000  0.13914000  0.86616000  1.0
  C  C24  1  0.79544000  0.75178000  0.01349000  1.0
  C  C25  1  0.20456000  0.24822000  0.98651000  1.0
  C  C26  1  0.77332000  0.54539000  0.99145000  1.0
  C  C27  1  0.22668000  0.45462000  0.00855000  1.0
  C  C28  1  0.67337000  0.43871000  0.31533000  1.0
  C  C29  1  0.32663000  0.56129000  0.68467000  1.0
  C  C30  1  0.71324000  0.88204000  0.35966000  1.0
  C  C31  1  0.28676000  0.11796000  0.64034000  1.0
  O  O32  1  0.48721000  0.28256000  0.30164000  1.0
  O  O33  1  0.51279000  0.71743000  0.69836000  1.0
  O  O34  1  0.83255000  0.50234000  0.40768000  1.0
  O  O35  1  0.16744000  0.49765000  0.59231000  1.0
  O  O36  1  0.58609000  0.77583000  0.42429000  1.0
  O  O37  1  0.41391000  0.22416000  0.57571000  1.0
  O  O38  1  0.81915000  0.08693000  0.39204000  1.0
  O  O39  1  0.18085000  0.91306000  0.60796000  1.0
  O  O40  1  0.14261000  0.36607000  0.29606000  1.0
  O  O41  1  0.85739000  0.63393000  0.70394000  1.0
  O  O42  1  0.24810000  0.86625000  0.28137000  1.0
  O  O43  1  0.75190000  0.13374000  0.71863000  1.0
  F  F44  1  0.70865000  0.24863000  0.06916000  1.0
  F  F45  1  0.29136000  0.75137000  0.93083000  1.0
