# generated using pymatgen
data_MnH14C10(NO)4
_symmetry_space_group_name_H-M   'P 1'
_cell_length_a   4.91763000
_cell_length_b   9.20208000
_cell_length_c   13.12690000
_cell_angle_alpha   88.62420000
_cell_angle_beta   88.67970000
_cell_angle_gamma   89.66410000
_symmetry_Int_Tables_number   1
_chemical_formula_structural   MnH14C10(NO)4
_chemical_formula_sum   'Mn2 H28 C20 N8 O8'
_cell_volume   593.68676816
_cell_formula_units_Z   2
loop_
 _symmetry_equiv_pos_site_id
 _symmetry_equiv_pos_as_xyz
  1  'x, y, z'
loop_
 _atom_site_type_symbol
 _atom_site_label
 _atom_site_symmetry_multiplicity
 _atom_site_fract_x
 _atom_site_fract_y
 _atom_site_fract_z
 _atom_site_occupancy
  Mn  Mn0  1  0.00001000  0.00000000  1.00000000  1.0
  Mn  Mn1  1  0.49999000  0.50000000  0.50000000  1.0
  H  H2  1  0.47262000  0.11945000  0.13394000  1.0
  H  H3  1  0.97416000  0.37886000  0.37634000  1.0
  H  H4  1  0.52738000  0.88054000  0.86606000  1.0
  H  H5  1  0.02584000  0.62114000  0.62366000  1.0
  H  H6  1  0.54824000  0.62371000  0.11013000  1.0
  H  H7  1  0.02916000  0.86748000  0.40265000  1.0
  H  H8  1  0.45176000  0.37629000  0.88987000  1.0
  H  H9  1  0.97084000  0.13253000  0.59734000  1.0
  H  H10  1  0.59990000  0.69761000  0.23138000  1.0
  H  H11  1  0.07506000  0.79810000  0.27900000  1.0
  H  H12  1  0.40011000  0.30239000  0.76862000  1.0
  H  H13  1  0.92495000  0.20189000  0.72099000  1.0
  H  H14  1  0.85630000  0.72077000  0.13444000  1.0
  H  H15  1  0.34041000  0.77575000  0.36877000  1.0
  H  H16  1  0.14370000  0.27924000  0.86556000  1.0
  H  H17  1  0.65958000  0.22425000  0.63123000  1.0
  H  H18  1  0.52161000  0.36255000  0.22948000  1.0
  H  H19  1  0.01405000  0.13304000  0.28474000  1.0
  H  H20  1  0.47839000  0.63745000  0.77053000  1.0
  H  H21  1  0.98595000  0.86695000  0.71526000  1.0
  H  H22  1  0.08907000  0.53289000  0.16767000  1.0
  H  H23  1  0.55334000  0.98116000  0.34551000  1.0
  H  H24  1  0.91093000  0.46711000  0.83234000  1.0
  H  H25  1  0.44666000  0.01884000  0.65449000  1.0
  H  H26  1  0.81226000  0.35469000  0.03932000  1.0
  H  H27  1  0.27005000  0.17337000  0.46579000  1.0
  H  H28  1  0.18775000  0.64532000  0.96068000  1.0
  H  H29  1  0.72993000  0.82664000  0.53421000  1.0
  C  C30  1  0.50610000  0.85707000  0.11598000  1.0
  C  C31  1  0.00409000  0.63366000  0.39560000  1.0
  C  C32  1  0.49391000  0.14293000  0.88402000  1.0
  C  C33  1  0.99591000  0.36634000  0.60440000  1.0
  C  C34  1  0.63673000  0.71554000  0.14903000  1.0
  C  C35  1  0.11988000  0.77758000  0.35986000  1.0
  C  C36  1  0.36326000  0.28446000  0.85097000  1.0
  C  C37  1  0.88011000  0.22242000  0.64014000  1.0
  C  C38  1  0.35659000  0.33865000  0.17939000  1.0
  C  C39  1  0.84248000  0.16457000  0.33262000  1.0
  C  C40  1  0.64341000  0.66135000  0.82060000  1.0
  C  C41  1  0.15753000  0.83542000  0.66739000  1.0
  C  C42  1  0.13737000  0.42251000  0.14688000  1.0
  C  C43  1  0.60964000  0.09051000  0.36449000  1.0
  C  C44  1  0.86264000  0.57749000  0.85313000  1.0
  C  C45  1  0.39035000  0.90948000  0.63552000  1.0
  C  C46  1  0.99408000  0.33246000  0.08216000  1.0
  C  C47  1  0.46163000  0.18852000  0.42503000  1.0
  C  C48  1  0.00593000  0.66755000  0.91784000  1.0
  C  C49  1  0.53837000  0.81149000  0.57497000  1.0
  N  N50  1  0.11667000  0.20194000  0.07577000  1.0
  N  N51  1  0.59383000  0.31628000  0.42968000  1.0
  N  N52  1  0.88334000  0.79807000  0.92422000  1.0
  N  N53  1  0.40617000  0.68372000  0.57032000  1.0
  N  N54  1  0.33651000  0.20804000  0.13560000  1.0
  N  N55  1  0.82625000  0.29888000  0.37266000  1.0
  N  N56  1  0.66350000  0.79196000  0.86440000  1.0
  N  N57  1  0.17374000  0.70111000  0.62734000  1.0
  O  O58  1  0.65620000  0.97142000  0.11059000  1.0
  O  O59  1  0.16744000  0.52522000  0.41081000  1.0
  O  O60  1  0.34381000  0.02858000  0.88941000  1.0
  O  O61  1  0.83256000  0.47478000  0.58919000  1.0
  O  O62  1  0.25399000  0.85884000  0.09713000  1.0
  O  O63  1  0.74590000  0.62269000  0.40670000  1.0
  O  O64  1  0.74601000  0.14117000  0.90287000  1.0
  O  O65  1  0.25410000  0.37731000  0.59330000  1.0
