# generated using pymatgen
data_CdFe2H44C48Br2(N2O)4
_symmetry_space_group_name_H-M   'P 1'
_cell_length_a   8.93743000
_cell_length_b   10.66420000
_cell_length_c   13.30880000
_cell_angle_alpha   107.68100000
_cell_angle_beta   105.65900000
_cell_angle_gamma   93.51810000
_symmetry_Int_Tables_number   1
_chemical_formula_structural   CdFe2H44C48Br2(N2O)4
_chemical_formula_sum   'Cd1 Fe2 H44 C48 Br2 N8 O4'
_cell_volume   1149.40179313
_cell_formula_units_Z   1
loop_
 _symmetry_equiv_pos_site_id
 _symmetry_equiv_pos_as_xyz
  1  'x, y, z'
loop_
 _atom_site_type_symbol
 _atom_site_label
 _atom_site_symmetry_multiplicity
 _atom_site_fract_x
 _atom_site_fract_y
 _atom_site_fract_z
 _atom_site_occupancy
  Cd  Cd0  1  0.50000000  0.00000000  0.50000000  1.0
  Fe  Fe1  1  0.32870000  0.42976000  0.17634000  1.0
  Fe  Fe2  1  0.67131000  0.57024000  0.82366000  1.0
  H  H3  1  0.01949000  0.47345000  0.16633000  1.0
  H  H4  1  0.98052000  0.52657000  0.83368000  1.0
  H  H5  1  0.24517000  0.68659000  0.22421000  1.0
  H  H6  1  0.75485000  0.31342000  0.77579000  1.0
  H  H7  1  0.43247000  0.62231000  0.09367000  1.0
  H  H8  1  0.56755000  0.37767000  0.90632000  1.0
  H  H9  1  0.32481000  0.36794000  0.95468000  1.0
  H  H10  1  0.67518000  0.63205000  0.04532000  1.0
  H  H11  1  0.50481000  0.22004000  0.13160000  1.0
  H  H12  1  0.49520000  0.77995000  0.86841000  1.0
  H  H13  1  0.25462000  0.18610000  0.20644000  1.0
  H  H14  1  0.74539000  0.81389000  0.79356000  1.0
  H  H15  1  0.26045000  0.41138000  0.36734000  1.0
  H  H16  1  0.73954000  0.58861000  0.63266000  1.0
  H  H17  1  0.50664000  0.59099000  0.39183000  1.0
  H  H18  1  0.49336000  0.40900000  0.60818000  1.0
  H  H19  1  0.80908000  0.04130000  0.03069000  1.0
  H  H20  1  0.19092000  0.95873000  0.96933000  1.0
  H  H21  1  0.89876000  0.01126000  0.92323000  1.0
  H  H22  1  0.10122000  0.98874000  0.07678000  1.0
  H  H23  1  0.76325000  0.02964000  0.74193000  1.0
  H  H24  1  0.23675000  0.97037000  0.25808000  1.0
  H  H25  1  0.29337000  0.07180000  0.66237000  1.0
  H  H26  1  0.70661000  0.92820000  0.33762000  1.0
  H  H27  1  0.29132000  0.11543000  0.85984000  1.0
  H  H28  1  0.70865000  0.88457000  0.14015000  1.0
  H  H29  1  0.54489000  0.11728000  0.00118000  1.0
  H  H30  1  0.45508000  0.88273000  0.99882000  1.0
  H  H31  1  0.85699000  0.78417000  0.27847000  1.0
  H  H32  1  0.14302000  0.21584000  0.72154000  1.0
  H  H33  1  0.89738000  0.63294000  0.19951000  1.0
  H  H34  1  0.10262000  0.36706000  0.80048000  1.0
  H  H35  1  0.12914000  0.88978000  0.36386000  1.0
  H  H36  1  0.87087000  0.11022000  0.63615000  1.0
  H  H37  1  0.44043000  0.75273000  0.58369000  1.0
  H  H38  1  0.55958000  0.24726000  0.41632000  1.0
  H  H39  1  0.24036000  0.55767000  0.54935000  1.0
  H  H40  1  0.75964000  0.44232000  0.45065000  1.0
  H  H41  1  0.97751000  0.52294000  0.40603000  1.0
  H  H42  1  0.02249000  0.47704000  0.59396000  1.0
  H  H43  1  0.88859000  0.28049000  0.07089000  1.0
  H  H44  1  0.11143000  0.71952000  0.92911000  1.0
  H  H45  1  0.70024000  0.66481000  0.34914000  1.0
  H  H46  1  0.29977000  0.33519000  0.65086000  1.0
  C  C47  1  0.13757000  0.37571000  0.03933000  1.0
  C  C48  1  0.86244000  0.62429000  0.96068000  1.0
  C  C49  1  0.11199000  0.48021000  0.12850000  1.0
  C  C50  1  0.88803000  0.51980000  0.87150000  1.0
  C  C51  1  0.23029000  0.59277000  0.15821000  1.0
  C  C52  1  0.76972000  0.40723000  0.84179000  1.0
  C  C53  1  0.32988000  0.55838000  0.08914000  1.0
  C  C54  1  0.67013000  0.44162000  0.91086000  1.0
  C  C55  1  0.27404000  0.42460000  0.01620000  1.0
  C  C56  1  0.72597000  0.57540000  0.98380000  1.0
  C  C57  1  0.55565000  0.42540000  0.25590000  1.0
  C  C58  1  0.44436000  0.57459000  0.74411000  1.0
  C  C59  1  0.47247000  0.29216000  0.19601000  1.0
  C  C60  1  0.52754000  0.70784000  0.80400000  1.0
  C  C61  1  0.34284000  0.27418000  0.23631000  1.0
  C  C62  1  0.65717000  0.72582000  0.76369000  1.0
  C  C63  1  0.34507000  0.39474000  0.32160000  1.0
  C  C64  1  0.65493000  0.60525000  0.67840000  1.0
  C  C65  1  0.47488000  0.48945000  0.33387000  1.0
  C  C66  1  0.52512000  0.51055000  0.66614000  1.0
  C  C67  1  0.04803000  0.23968000  0.98171000  1.0
  C  C68  1  0.95197000  0.76032000  0.01828000  1.0
  C  C69  1  0.82902000  0.07734000  0.96558000  1.0
  C  C70  1  0.17096000  0.92268000  0.03443000  1.0
  C  C71  1  0.67451000  0.07611000  0.88337000  1.0
  C  C72  1  0.32548000  0.92390000  0.11663000  1.0
  C  C73  1  0.66235000  0.05216000  0.77196000  1.0
  C  C74  1  0.33765000  0.94785000  0.22805000  1.0
  C  C75  1  0.39885000  0.07389000  0.72794000  1.0
  C  C76  1  0.60113000  0.92611000  0.27205000  1.0
  C  C77  1  0.39869000  0.09766000  0.83682000  1.0
  C  C78  1  0.60129000  0.90235000  0.16318000  1.0
  C  C79  1  0.53921000  0.09890000  0.91500000  1.0
  C  C80  1  0.46077000  0.90111000  0.08500000  1.0
  C  C81  1  0.69598000  0.48091000  0.23484000  1.0
  C  C82  1  0.30403000  0.51909000  0.76516000  1.0
  C  C83  1  0.88243000  0.68537000  0.28025000  1.0
  C  C84  1  0.11757000  0.31462000  0.71975000  1.0
  C  C85  1  0.03378000  0.70158000  0.37088000  1.0
  C  C86  1  0.96623000  0.29841000  0.62912000  1.0
  C  C87  1  0.15048000  0.81069000  0.39991000  1.0
  C  C88  1  0.84953000  0.18931000  0.60009000  1.0
  C  C89  1  0.32296000  0.73672000  0.52549000  1.0
  C  C90  1  0.67705000  0.26327000  0.47451000  1.0
  C  C91  1  0.21112000  0.62791000  0.50511000  1.0
  C  C92  1  0.78888000  0.37208000  0.49488000  1.0
  C  C93  1  0.06577000  0.60916000  0.42591000  1.0
  C  C94  1  0.93424000  0.39083000  0.57408000  1.0
  Br  Br95  1  0.27594000  0.16598000  0.47719000  1.0
  Br  Br96  1  0.72405000  0.83401000  0.52281000  1.0
  N  N97  1  0.92498000  0.20856000  0.01636000  1.0
  N  N98  1  0.07502000  0.79145000  0.98364000  1.0
  N  N99  1  0.52824000  0.05183000  0.69611000  1.0
  N  N100  1  0.47175000  0.94818000  0.30389000  1.0
  N  N101  1  0.74810000  0.61295000  0.29006000  1.0
  N  N102  1  0.25190000  0.38705000  0.70994000  1.0
  N  N103  1  0.29256000  0.82664000  0.47349000  1.0
  N  N104  1  0.70745000  0.17335000  0.52651000  1.0
  O  O105  1  0.08435000  0.15783000  0.90577000  1.0
  O  O106  1  0.91563000  0.84218000  0.09421000  1.0
  O  O107  1  0.76092000  0.40968000  0.17084000  1.0
  O  O108  1  0.23907000  0.59031000  0.82916000  1.0
