# generated using pymatgen
data_Al3H19(C21O10)2
_symmetry_space_group_name_H-M   'P 1'
_cell_length_a   14.01250000
_cell_length_b   14.05570000
_cell_length_c   28.11400000
_cell_angle_alpha   89.89660000
_cell_angle_beta   89.86830000
_cell_angle_gamma   60.10360000
_symmetry_Int_Tables_number   1
_chemical_formula_structural   Al3H19(C21O10)2
_chemical_formula_sum   'Al6 H38 C84 O40'
_cell_volume   4800.34594440
_cell_formula_units_Z   2
loop_
 _symmetry_equiv_pos_site_id
 _symmetry_equiv_pos_as_xyz
  1  'x, y, z'
loop_
 _atom_site_type_symbol
 _atom_site_label
 _atom_site_symmetry_multiplicity
 _atom_site_fract_x
 _atom_site_fract_y
 _atom_site_fract_z
 _atom_site_occupancy
  Al  Al0  1  0.77030000  0.74199000  0.50142000  1.0
  Al  Al1  1  0.74076000  0.52976000  0.50205000  1.0
  Al  Al2  1  0.53697000  0.75094000  0.50129000  1.0
  Al  Al3  1  0.51103000  0.25616000  0.99906000  1.0
  Al  Al4  1  0.27013000  0.46946000  0.00213000  1.0
  Al  Al5  1  0.28603000  0.24873000  0.00129000  1.0
  H  H6  1  0.37928000  0.69980000  0.21448000  1.0
  H  H7  1  0.70639000  0.90081000  0.20899000  1.0
  H  H8  1  0.91008000  0.38169000  0.20354000  1.0
  H  H9  1  0.07874000  0.29940000  0.71527000  1.0
  H  H10  1  0.60068000  0.10193000  0.70968000  1.0
  H  H11  1  0.29398000  0.61618000  0.70347000  1.0
  H  H12  1  0.30368000  0.62156000  0.29132000  1.0
  H  H13  1  0.62711000  0.06580000  0.28112000  1.0
  H  H14  1  0.06465000  0.29713000  0.27982000  1.0
  H  H15  1  0.92373000  0.38049000  0.79157000  1.0
  H  H16  1  0.68721000  0.93643000  0.78167000  1.0
  H  H17  1  0.36227000  0.70054000  0.78039000  1.0
  H  H18  1  0.58144000  0.62694000  0.26327000  1.0
  H  H19  1  0.62513000  0.78428000  0.26295000  1.0
  H  H20  1  0.78520000  0.57964000  0.25530000  1.0
  H  H21  1  0.20838000  0.37213000  0.76396000  1.0
  H  H22  1  0.40199000  0.21535000  0.76297000  1.0
  H  H23  1  0.36751000  0.41741000  0.75475000  1.0
  H  H24  1  0.74557000  0.37694000  0.23311000  1.0
  H  H25  1  0.37681000  0.86920000  0.23050000  1.0
  H  H26  1  0.87618000  0.74179000  0.22876000  1.0
  H  H27  1  0.12322000  0.62250000  0.73225000  1.0
  H  H28  1  0.24160000  0.12984000  0.72924000  1.0
  H  H29  1  0.62392000  0.25706000  0.72876000  1.0
  H  H30  1  0.59298000  0.34147000  0.29300000  1.0
  H  H31  1  0.34142000  0.06560000  0.28467000  1.0
  H  H32  1  0.06355000  0.58209000  0.28714000  1.0
  H  H33  1  0.93514000  0.65954000  0.79179000  1.0
  H  H34  1  0.40396000  0.93128000  0.78352000  1.0
  H  H35  1  0.64698000  0.41624000  0.78783000  1.0
  H  H36  1  0.42014000  0.33102000  0.24081000  1.0
  H  H37  1  0.33808000  0.23687000  0.22911000  1.0
  H  H38  1  0.24378000  0.41471000  0.23844000  1.0
  H  H39  1  0.75165000  0.66973000  0.73958000  1.0
  H  H40  1  0.57424000  0.76211000  0.72903000  1.0
  H  H41  1  0.65907000  0.58549000  0.73950000  1.0
  H  H42  1  0.85320000  0.83892000  0.47202000  1.0
  H  H43  1  0.69247000  0.17088000  0.02623000  1.0
  C  C44  1  0.58044000  0.86760000  0.43290000  1.0
  C  C45  1  0.86865000  0.54824000  0.43204000  1.0
  C  C46  1  0.56302000  0.58277000  0.43709000  1.0
  C  C47  1  0.44454000  0.13260000  0.93239000  1.0
  C  C48  1  0.41620000  0.45185000  0.93242000  1.0
  C  C49  1  0.14499000  0.41625000  0.93698000  1.0
  C  C50  1  0.49768000  0.53564000  0.30155000  1.0
  C  C51  1  0.53541000  0.96453000  0.29514000  1.0
  C  C52  1  0.96078000  0.48968000  0.29311000  1.0
  C  C53  1  0.03269000  0.46556000  0.80146000  1.0
  C  C54  1  0.49397000  0.03482000  0.79493000  1.0
  C  C55  1  0.45183000  0.50775000  0.79334000  1.0
  C  C56  1  0.58684000  0.46539000  0.23342000  1.0
  C  C57  1  0.46747000  0.93709000  0.22840000  1.0
  C  C58  1  0.94345000  0.58386000  0.22669000  1.0
  C  C59  1  0.05348000  0.53354000  0.73304000  1.0
  C  C60  1  0.40016000  0.06167000  0.72776000  1.0
  C  C61  1  0.52977000  0.41466000  0.72686000  1.0
  C  C62  1  0.53879000  0.58024000  0.25869000  1.0
  C  C63  1  0.58078000  0.87231000  0.25529000  1.0
  C  C64  1  0.87460000  0.53586000  0.25069000  1.0
  C  C65  1  0.11918000  0.41923000  0.75895000  1.0
  C  C66  1  0.44677000  0.12741000  0.75520000  1.0
  C  C67  1  0.41270000  0.46173000  0.75055000  1.0
  C  C68  1  0.46032000  0.49081000  0.15732000  1.0
  C  C69  1  0.49886000  0.02742000  0.14984000  1.0
  C  C70  1  0.04437000  0.46212000  0.14944000  1.0
  C  C71  1  0.95335000  0.50692000  0.65699000  1.0
  C  C72  1  0.52399000  0.97297000  0.64960000  1.0
  C  C73  1  0.50868000  0.53790000  0.64994000  1.0
  C  C74  1  0.51360000  0.55026000  0.35007000  1.0
  C  C75  1  0.54696000  0.94099000  0.34432000  1.0
  C  C76  1  0.93323000  0.50185000  0.34206000  1.0
  C  C77  1  0.06273000  0.45135000  0.85002000  1.0
  C  C78  1  0.48127000  0.05809000  0.84411000  1.0
  C  C79  1  0.43612000  0.49548000  0.84224000  1.0
  C  C80  1  0.57568000  0.87653000  0.56554000  1.0
  C  C81  1  0.87278000  0.55212000  0.56939000  1.0
  C  C82  1  0.56303000  0.58215000  0.56606000  1.0
  C  C83  1  0.45056000  0.12213000  0.06526000  1.0
  C  C84  1  0.42582000  0.44375000  0.06983000  1.0
  C  C85  1  0.14295000  0.41986000  0.06567000  1.0
  C  C86  1  0.38459000  0.57793000  0.27434000  1.0
  C  C87  1  0.58243000  0.02821000  0.26555000  1.0
  C  C88  1  0.02916000  0.37903000  0.26415000  1.0
  C  C89  1  0.96179000  0.42321000  0.77440000  1.0
  C  C90  1  0.60538000  0.97290000  0.76572000  1.0
  C  C91  1  0.40926000  0.61885000  0.76463000  1.0
  C  C92  1  0.42675000  0.62107000  0.23265000  1.0
  C  C93  1  0.62635000  0.93653000  0.22666000  1.0
  C  C94  1  0.94333000  0.42611000  0.22284000  1.0
  C  C95  1  0.04781000  0.37846000  0.73305000  1.0
  C  C96  1  0.55714000  0.06487000  0.72693000  1.0
  C  C97  1  0.37143000  0.57192000  0.72296000  1.0
  C  C98  1  0.44475000  0.47371000  0.11634000  1.0
  C  C99  1  0.48031000  0.06290000  0.10932000  1.0
  C  C100  1  0.08269000  0.44598000  0.10935000  1.0
  C  C101  1  0.92155000  0.52315000  0.61588000  1.0
  C  C102  1  0.54309000  0.93695000  0.60920000  1.0
  C  C103  1  0.53028000  0.55509000  0.60988000  1.0
  C  C104  1  0.53160000  0.56157000  0.39149000  1.0
  C  C105  1  0.55687000  0.91597000  0.38625000  1.0
  C  C106  1  0.90942000  0.51718000  0.38416000  1.0
  C  C107  1  0.09203000  0.43949000  0.89146000  1.0
  C  C108  1  0.46667000  0.08330000  0.88600000  1.0
  C  C109  1  0.42739000  0.48091000  0.88441000  1.0
  C  C110  1  0.43271000  0.46404000  0.24985000  1.0
  C  C111  1  0.46989000  0.09208000  0.23952000  1.0
  C  C112  1  0.09703000  0.42725000  0.24109000  1.0
  C  C113  1  0.89708000  0.53653000  0.74928000  1.0
  C  C114  1  0.55874000  0.90788000  0.73915000  1.0
  C  C115  1  0.52551000  0.57157000  0.74193000  1.0
  C  C116  1  0.47475000  0.50772000  0.20558000  1.0
  C  C117  1  0.51452000  0.99944000  0.19832000  1.0
  C  C118  1  0.01033000  0.47455000  0.19719000  1.0
  C  C119  1  0.98368000  0.49114000  0.70535000  1.0
  C  C120  1  0.51012000  0.00094000  0.69806000  1.0
  C  C121  1  0.48710000  0.52447000  0.69759000  1.0
  C  C122  1  0.54571000  0.42117000  0.27542000  1.0
  C  C123  1  0.42238000  0.02892000  0.26762000  1.0
  C  C124  1  0.02934000  0.53775000  0.26832000  1.0
  C  C125  1  0.96738000  0.57938000  0.77471000  1.0
  C  C126  1  0.44742000  0.96933000  0.76688000  1.0
  C  C127  1  0.56862000  0.46059000  0.76886000  1.0
  O  O128  1  0.85200000  0.64008000  0.44652000  1.0
  O  O129  1  0.65603000  0.50990000  0.45360000  1.0
  O  O130  1  0.50649000  0.84967000  0.45127000  1.0
  O  O131  1  0.49261000  0.36249000  0.94852000  1.0
  O  O132  1  0.16254000  0.48940000  0.95514000  1.0
  O  O133  1  0.35781000  0.14434000  0.95388000  1.0
  O  O134  1  0.67242000  0.84294000  0.45090000  1.0
  O  O135  1  0.84920000  0.48039000  0.45546000  1.0
  O  O136  1  0.49789000  0.67514000  0.45658000  1.0
  O  O137  1  0.50927000  0.16390000  0.94721000  1.0
  O  O138  1  0.32620000  0.51891000  0.95436000  1.0
  O  O139  1  0.17517000  0.32152000  0.95480000  1.0
  O  O140  1  0.85905000  0.64033000  0.55129000  1.0
  O  O141  1  0.65282000  0.50846000  0.54697000  1.0
  O  O142  1  0.50186000  0.86141000  0.54485000  1.0
  O  O143  1  0.49853000  0.35269000  0.05321000  1.0
  O  O144  1  0.16318000  0.49244000  0.04838000  1.0
  O  O145  1  0.35687000  0.14329000  0.04763000  1.0
  O  O146  1  0.67364000  0.83988000  0.55176000  1.0
  O  O147  1  0.84404000  0.48635000  0.55057000  1.0
  O  O148  1  0.50232000  0.67960000  0.55002000  1.0
  O  O149  1  0.51495000  0.15214000  0.04833000  1.0
  O  O150  1  0.33403000  0.51165000  0.04949000  1.0
  O  O151  1  0.17597000  0.32444000  0.04816000  1.0
  O  O152  1  0.68183000  0.67363000  0.50095000  1.0
  O  O153  1  0.35417000  0.32553000  0.00073000  1.0
  O  O154  1  0.68631000  0.40792000  0.20978000  1.0
  O  O155  1  0.40938000  0.89396000  0.20625000  1.0
  O  O156  1  0.90378000  0.68452000  0.20457000  1.0
  O  O157  1  0.09652000  0.58968000  0.70910000  1.0
  O  O158  1  0.29943000  0.10401000  0.70520000  1.0
  O  O159  1  0.59145000  0.31439000  0.70463000  1.0
  O  O160  1  0.37338000  0.41041000  0.24740000  1.0
  O  O161  1  0.41876000  0.20350000  0.23194000  1.0
  O  O162  1  0.20953000  0.36791000  0.23696000  1.0
  O  O163  1  0.78421000  0.59046000  0.74643000  1.0
  O  O164  1  0.62052000  0.79671000  0.73136000  1.0
  O  O165  1  0.57789000  0.63176000  0.73854000  1.0
  O  O166  1  0.85568000  0.79970000  0.50068000  1.0
  O  O167  1  0.65431000  0.19581000  0.99623000  1.0
