# generated using pymatgen
data_InH9(C7O3)2
_symmetry_space_group_name_H-M   'P 1'
_cell_length_a   13.92570000
_cell_length_b   13.92560000
_cell_length_c   25.35320000
_cell_angle_alpha   105.12100000
_cell_angle_beta   105.12100000
_cell_angle_gamma   92.77380000
_symmetry_Int_Tables_number   1
_chemical_formula_structural   InH9(C7O3)2
_chemical_formula_sum   'In8 H72 C112 O48'
_cell_volume   4546.12307223
_cell_formula_units_Z   8
loop_
 _symmetry_equiv_pos_site_id
 _symmetry_equiv_pos_as_xyz
  1  'x, y, z'
loop_
 _atom_site_type_symbol
 _atom_site_label
 _atom_site_symmetry_multiplicity
 _atom_site_fract_x
 _atom_site_fract_y
 _atom_site_fract_z
 _atom_site_occupancy
  In  In0  1  0.12500000  0.37500000  0.25000000  1.0
  In  In1  1  0.62500000  0.87500000  0.75000000  1.0
  In  In2  1  0.12500000  0.87500000  0.75000000  1.0
  In  In3  1  0.12500000  0.87500000  0.25000000  1.0
  In  In4  1  0.13978000  0.63970000  0.27958000  1.0
  In  In5  1  0.36030000  0.86022000  0.72042000  1.0
  In  In6  1  0.11022000  0.11030000  0.22042000  1.0
  In  In7  1  0.88970000  0.88978000  0.77958000  1.0
  H  H8  1  0.64097000  0.09433000  0.66420000  1.0
  H  H9  1  0.32002000  0.03799000  0.60008000  1.0
  H  H10  1  0.42836000  0.11403000  0.46638000  1.0
  H  H11  1  0.32644000  0.11007000  0.36906000  1.0
  H  H12  1  0.31226000  0.42663000  0.42536000  1.0
  H  H13  1  0.64278000  0.22496000  0.61230000  1.0
  H  H14  1  0.41719000  0.43205000  0.52375000  1.0
  H  H15  1  0.32061000  0.16925000  0.54889000  1.0
  H  H16  1  0.90566000  0.35903000  0.33580000  1.0
  H  H17  1  0.96201000  0.67998000  0.39992000  1.0
  H  H18  1  0.88597000  0.57164000  0.53362000  1.0
  H  H19  1  0.88993000  0.67357000  0.63094000  1.0
  H  H20  1  0.57337000  0.68774000  0.57464000  1.0
  H  H21  1  0.77504000  0.35722000  0.38770000  1.0
  H  H22  1  0.56796000  0.58281000  0.47625000  1.0
  H  H23  1  0.83075000  0.67939000  0.45111000  1.0
  H  H24  1  0.43001000  0.97681000  0.33594000  1.0
  H  H25  1  0.43772000  0.71970000  0.39994000  1.0
  H  H26  1  0.64740000  0.96173000  0.53376000  1.0
  H  H27  1  0.74096000  0.95735000  0.63112000  1.0
  H  H28  1  0.00110000  0.88697000  0.57458000  1.0
  H  H29  1  0.61244000  0.03041000  0.38784000  1.0
  H  H30  1  0.90795000  0.89326000  0.47617000  1.0
  H  H31  1  0.62009000  0.77137000  0.45110000  1.0
  H  H32  1  0.02320000  0.56999000  0.66406000  1.0
  H  H33  1  0.28030000  0.56227000  0.60006000  1.0
  H  H34  1  0.03827000  0.35260000  0.46624000  1.0
  H  H35  1  0.04265000  0.25904000  0.36888000  1.0
  H  H36  1  0.11303000  0.99889000  0.42542000  1.0
  H  H37  1  0.96959000  0.38756000  0.61217000  1.0
  H  H38  1  0.10673000  0.09205000  0.52383000  1.0
  H  H39  1  0.22863000  0.37990000  0.54890000  1.0
  H  H40  1  0.99028000  0.74155000  0.25543000  1.0
  H  H41  1  0.60903000  0.65566000  0.83580000  1.0
  H  H42  1  0.92998000  0.71201000  0.89992000  1.0
  H  H43  1  0.82164000  0.63597000  0.03362000  1.0
  H  H44  1  0.92356000  0.63993000  0.13094000  1.0
  H  H45  1  0.93774000  0.32337000  0.07464000  1.0
  H  H46  1  0.60722000  0.52503000  0.88770000  1.0
  H  H47  1  0.83281000  0.31795000  0.97625000  1.0
  H  H48  1  0.92939000  0.58075000  0.95111000  1.0
  H  H49  1  0.98472000  0.23625000  0.24447000  1.0
  H  H50  1  0.34433000  0.39097000  0.16420000  1.0
  H  H51  1  0.28799000  0.07002000  0.10008000  1.0
  H  H52  1  0.36403000  0.17836000  0.96638000  1.0
  H  H53  1  0.36007000  0.07644000  0.86906000  1.0
  H  H54  1  0.67663000  0.06226000  0.92536000  1.0
  H  H55  1  0.47496000  0.39278000  0.11230000  1.0
  H  H56  1  0.68204000  0.16719000  0.02375000  1.0
  H  H57  1  0.41925000  0.07060000  0.04889000  1.0
  H  H58  1  0.81999000  0.77319000  0.16406000  1.0
  H  H59  1  0.81228000  0.03030000  0.10006000  1.0
  H  H60  1  0.60260000  0.78827000  0.96624000  1.0
  H  H61  1  0.50904000  0.79265000  0.86888000  1.0
  H  H62  1  0.24890000  0.86303000  0.92542000  1.0
  H  H63  1  0.63756000  0.71959000  0.11216000  1.0
  H  H64  1  0.34205000  0.85674000  0.02383000  1.0
  H  H65  1  0.62991000  0.97863000  0.04890000  1.0
  H  H66  1  0.22681000  0.18001000  0.83594000  1.0
  H  H67  1  0.96970000  0.18773000  0.89994000  1.0
  H  H68  1  0.21173000  0.39740000  0.03376000  1.0
  H  H69  1  0.20735000  0.49096000  0.13112000  1.0
  H  H70  1  0.13697000  0.75111000  0.07458000  1.0
  H  H71  1  0.28041000  0.36244000  0.88784000  1.0
  H  H72  1  0.14327000  0.65795000  0.97617000  1.0
  H  H73  1  0.02137000  0.37010000  0.95110000  1.0
  H  H74  1  0.25845000  0.00972000  0.74457000  1.0
  H  H75  1  0.76375000  0.01528000  0.75553000  1.0
  H  H76  1  0.48625000  0.73472000  0.74447000  1.0
  H  H77  1  0.99155000  0.74028000  0.75543000  1.0
  H  H78  1  0.26528000  0.51375000  0.25553000  1.0
  H  H79  1  0.25972000  0.00845000  0.24457000  1.0
  C  C80  1  0.48098000  0.98363000  0.66786000  1.0
  C  C81  1  0.57145000  0.11092000  0.63858000  1.0
  C  C82  1  0.39035000  0.07888000  0.60223000  1.0
  C  C83  1  0.31415000  0.26837000  0.39115000  1.0
  C  C84  1  0.42740000  0.27365000  0.50030000  1.0
  C  C85  1  0.40314000  0.18239000  0.45729000  1.0
  C  C86  1  0.48058000  0.05816000  0.63507000  1.0
  C  C87  1  0.34685000  0.18052000  0.40291000  1.0
  C  C88  1  0.25158000  0.26512000  0.33320000  1.0
  C  C89  1  0.33894000  0.35904000  0.43487000  1.0
  C  C90  1  0.57283000  0.18342000  0.61008000  1.0
  C  C91  1  0.39602000  0.36223000  0.48933000  1.0
  C  C92  1  0.48224000  0.20400000  0.57815000  1.0
  C  C93  1  0.39059000  0.15191000  0.57383000  1.0
  C  C94  1  0.01637000  0.51902000  0.33214000  1.0
  C  C95  1  0.88908000  0.42855000  0.36142000  1.0
  C  C96  1  0.92112000  0.60965000  0.39777000  1.0
  C  C97  1  0.73163000  0.68585000  0.60885000  1.0
  C  C98  1  0.72636000  0.57260000  0.49970000  1.0
  C  C99  1  0.81761000  0.59686000  0.54272000  1.0
  C  C100  1  0.94184000  0.51942000  0.36493000  1.0
  C  C101  1  0.81949000  0.65315000  0.59709000  1.0
  C  C102  1  0.73488000  0.74842000  0.66680000  1.0
  C  C103  1  0.64096000  0.66107000  0.56513000  1.0
  C  C104  1  0.81658000  0.42717000  0.38992000  1.0
  C  C105  1  0.63777000  0.60398000  0.51067000  1.0
  C  C106  1  0.79600000  0.51776000  0.42185000  1.0
  C  C107  1  0.84809000  0.60942000  0.42617000  1.0
  C  C108  1  0.31568000  0.81303000  0.33217000  1.0
  C  C109  1  0.47217000  0.93280000  0.36151000  1.0
  C  C110  1  0.47646000  0.78789000  0.39779000  1.0
  C  C111  1  0.87711000  0.92301000  0.60890000  1.0
  C  C112  1  0.77304000  0.92681000  0.49972000  1.0
  C  C113  1  0.72487000  0.94560000  0.54280000  1.0
  C  C114  1  0.42293000  0.84537000  0.36496000  1.0
  C  C115  1  0.77747000  0.94386000  0.59720000  1.0
  C  C116  1  0.93196000  0.91858000  0.66686000  1.0
  C  C117  1  0.92400000  0.90405000  0.56512000  1.0
  C  C118  1  0.57313000  0.96263000  0.39002000  1.0
  C  C119  1  0.87261000  0.90652000  0.51065000  1.0
  C  C120  1  0.62559000  0.90384000  0.42189000  1.0
  C  C121  1  0.57783000  0.81647000  0.42618000  1.0
  C  C122  1  0.18698000  0.68431000  0.66783000  1.0
  C  C123  1  0.06721000  0.52782000  0.63849000  1.0
  C  C124  1  0.21211000  0.52354000  0.60221000  1.0
  C  C125  1  0.07699000  0.12289000  0.39110000  1.0
  C  C126  1  0.07318000  0.22696000  0.50028000  1.0
  C  C127  1  0.05439000  0.27513000  0.45720000  1.0
  C  C128  1  0.15464000  0.57707000  0.63504000  1.0
  C  C129  1  0.05614000  0.22252000  0.40280000  1.0
  C  C130  1  0.08142000  0.06804000  0.33314000  1.0
  C  C131  1  0.09595000  0.07600000  0.43488000  1.0
  C  C132  1  0.03737000  0.42687000  0.60998000  1.0
  C  C133  1  0.09348000  0.12738000  0.48935000  1.0
  C  C134  1  0.09616000  0.37441000  0.57811000  1.0
  C  C135  1  0.18353000  0.42217000  0.57382000  1.0
  C  C136  1  0.76902000  0.76636000  0.83214000  1.0
  C  C137  1  0.67855000  0.63908000  0.86142000  1.0
  C  C138  1  0.85965000  0.67112000  0.89777000  1.0
  C  C139  1  0.93585000  0.48163000  0.10885000  1.0
  C  C140  1  0.82260000  0.47635000  0.99970000  1.0
  C  C141  1  0.84686000  0.56760000  0.04271000  1.0
  C  C142  1  0.76942000  0.69183000  0.86493000  1.0
  C  C143  1  0.90314000  0.56948000  0.09709000  1.0
  C  C144  1  0.99842000  0.48489000  0.16680000  1.0
  C  C145  1  0.91107000  0.39096000  0.06514000  1.0
  C  C146  1  0.67717000  0.56657000  0.88992000  1.0
  C  C147  1  0.85398000  0.38777000  0.01067000  1.0
  C  C148  1  0.76776000  0.54599000  0.92185000  1.0
  C  C149  1  0.85942000  0.59808000  0.92617000  1.0
  C  C150  1  0.23363000  0.23098000  0.16786000  1.0
  C  C151  1  0.36092000  0.32145000  0.13858000  1.0
  C  C152  1  0.32888000  0.14035000  0.10223000  1.0
  C  C153  1  0.51837000  0.06415000  0.89115000  1.0
  C  C154  1  0.52364000  0.17740000  0.00030000  1.0
  C  C155  1  0.43239000  0.15314000  0.95728000  1.0
  C  C156  1  0.30817000  0.23058000  0.13507000  1.0
  C  C157  1  0.43052000  0.09685000  0.90290000  1.0
  C  C158  1  0.51512000  0.00158000  0.83320000  1.0
  C  C159  1  0.60904000  0.08893000  0.93486000  1.0
  C  C160  1  0.43342000  0.32283000  0.11008000  1.0
  C  C161  1  0.61223000  0.14602000  0.98933000  1.0
  C  C162  1  0.45400000  0.23224000  0.07815000  1.0
  C  C163  1  0.40191000  0.14059000  0.07383000  1.0
  C  C164  1  0.93431000  0.93697000  0.16783000  1.0
  C  C165  1  0.77783000  0.81720000  0.13848000  1.0
  C  C166  1  0.77354000  0.96211000  0.10221000  1.0
  C  C167  1  0.37289000  0.82699000  0.89110000  1.0
  C  C168  1  0.47697000  0.82319000  0.00028000  1.0
  C  C169  1  0.52513000  0.80440000  0.95720000  1.0
  C  C170  1  0.82707000  0.90463000  0.13504000  1.0
  C  C171  1  0.47253000  0.80614000  0.90280000  1.0
  C  C172  1  0.31804000  0.83142000  0.83313000  1.0
  C  C173  1  0.32600000  0.84595000  0.93488000  1.0
  C  C174  1  0.67687000  0.78737000  0.10998000  1.0
  C  C175  1  0.37739000  0.84348000  0.98935000  1.0
  C  C176  1  0.62441000  0.84616000  0.07811000  1.0
  C  C177  1  0.67217000  0.93353000  0.07382000  1.0
  C  C178  1  0.06303000  0.06569000  0.83217000  1.0
  C  C179  1  0.18280000  0.22217000  0.86151000  1.0
  C  C180  1  0.03789000  0.22646000  0.89778000  1.0
  C  C181  1  0.17301000  0.62711000  0.10890000  1.0
  C  C182  1  0.17682000  0.52304000  0.99972000  1.0
  C  C183  1  0.19560000  0.47487000  0.04280000  1.0
  C  C184  1  0.09536000  0.17293000  0.86496000  1.0
  C  C185  1  0.19385000  0.52748000  0.09720000  1.0
  C  C186  1  0.16858000  0.68196000  0.16686000  1.0
  C  C187  1  0.15405000  0.67400000  0.06512000  1.0
  C  C188  1  0.21263000  0.32313000  0.89002000  1.0
  C  C189  1  0.15652000  0.62262000  0.01065000  1.0
  C  C190  1  0.15384000  0.37559000  0.92189000  1.0
  C  C191  1  0.06647000  0.32783000  0.92618000  1.0
  O  O192  1  0.22123000  0.51393000  0.27976000  1.0
  O  O193  1  0.20736000  0.34192000  0.32835000  1.0
  O  O194  1  0.24546000  0.18605000  0.29247000  1.0
  O  O195  1  0.39774000  0.93151000  0.66018000  1.0
  O  O196  1  0.56505000  0.97871000  0.70187000  1.0
  O  O197  1  0.48754000  0.28226000  0.55447000  1.0
  O  O198  1  0.48607000  0.77877000  0.72024000  1.0
  O  O199  1  0.65808000  0.79265000  0.67165000  1.0
  O  O200  1  0.81396000  0.75454000  0.70753000  1.0
  O  O201  1  0.06849000  0.60226000  0.33981000  1.0
  O  O202  1  0.02129000  0.43495000  0.29813000  1.0
  O  O203  1  0.71774000  0.51247000  0.44553000  1.0
  O  O204  1  0.23439000  0.94151000  0.72031000  1.0
  O  O205  1  0.01372000  0.87942000  0.67170000  1.0
  O  O206  1  0.89360000  0.95312000  0.70762000  1.0
  O  O207  1  0.27130000  0.73729000  0.33972000  1.0
  O  O208  1  0.27674000  0.86335000  0.29828000  1.0
  O  O209  1  0.72751000  0.93271000  0.44554000  1.0
  O  O210  1  0.05849000  0.76561000  0.27969000  1.0
  O  O211  1  0.12058000  0.98627000  0.32830000  1.0
  O  O212  1  0.04689000  0.10641000  0.29238000  1.0
  O  O213  1  0.26271000  0.72870000  0.66028000  1.0
  O  O214  1  0.13665000  0.72326000  0.70171000  1.0
  O  O215  1  0.06729000  0.27249000  0.55446000  1.0
  O  O216  1  0.02877000  0.23607000  0.22024000  1.0
  O  O217  1  0.04265000  0.40809000  0.17165000  1.0
  O  O218  1  0.00454000  0.56396000  0.20753000  1.0
  O  O219  1  0.85225000  0.81849000  0.83981000  1.0
  O  O220  1  0.68494000  0.77129000  0.79813000  1.0
  O  O221  1  0.76247000  0.46773000  0.94553000  1.0
  O  O222  1  0.76393000  0.97123000  0.77976000  1.0
  O  O223  1  0.59192000  0.95735000  0.82835000  1.0
  O  O224  1  0.43604000  0.99546000  0.79247000  1.0
  O  O225  1  0.18151000  0.14774000  0.16019000  1.0
  O  O226  1  0.22871000  0.31505000  0.20187000  1.0
  O  O227  1  0.53226000  0.23754000  0.05447000  1.0
  O  O228  1  0.01561000  0.80849000  0.77969000  1.0
  O  O229  1  0.23628000  0.87058000  0.82830000  1.0
  O  O230  1  0.35640000  0.79688000  0.79238000  1.0
  O  O231  1  0.97870000  0.01270000  0.16028000  1.0
  O  O232  1  0.97326000  0.88665000  0.20172000  1.0
  O  O233  1  0.52249000  0.81729000  0.05446000  1.0
  O  O234  1  0.19151000  0.98439000  0.22031000  1.0
  O  O235  1  0.12941000  0.76373000  0.17170000  1.0
  O  O236  1  0.20311000  0.64360000  0.20762000  1.0
  O  O237  1  0.98729000  0.02130000  0.83972000  1.0
  O  O238  1  0.11335000  0.02674000  0.79828000  1.0
  O  O239  1  0.18271000  0.47751000  0.94554000  1.0
