# generated using pymatgen
data_CoH16C20(BrN3)2
_symmetry_space_group_name_H-M   'P 1'
_cell_length_a   9.41883000
_cell_length_b   10.68420000
_cell_length_c   10.73390000
_cell_angle_alpha   67.43810000
_cell_angle_beta   80.85540000
_cell_angle_gamma   83.16130000
_symmetry_Int_Tables_number   1
_chemical_formula_structural   CoH16C20(BrN3)2
_chemical_formula_sum   'Co2 H32 C40 Br4 N12'
_cell_volume   982.83043906
_cell_formula_units_Z   2
loop_
 _symmetry_equiv_pos_site_id
 _symmetry_equiv_pos_as_xyz
  1  'x, y, z'
loop_
 _atom_site_type_symbol
 _atom_site_label
 _atom_site_symmetry_multiplicity
 _atom_site_fract_x
 _atom_site_fract_y
 _atom_site_fract_z
 _atom_site_occupancy
  Co  Co0  1  0.25785000  0.63723000  0.66519000  1.0
  Co  Co1  1  0.74215000  0.36276000  0.33481000  1.0
  H  H2  1  0.61179000  0.19265000  0.80757000  1.0
  H  H3  1  0.38821000  0.80735000  0.19243000  1.0
  H  H4  1  0.87020000  0.81314000  0.18340000  1.0
  H  H5  1  0.12980000  0.18686000  0.81660000  1.0
  H  H6  1  0.60279000  0.39200000  0.95059000  1.0
  H  H7  1  0.39721000  0.60800000  0.04941000  1.0
  H  H8  1  0.97976000  0.04659000  0.75781000  1.0
  H  H9  1  0.02024000  0.95341000  0.24218000  1.0
  H  H10  1  0.34017000  0.85656000  0.95557000  1.0
  H  H11  1  0.65983000  0.14344000  0.04443000  1.0
  H  H12  1  0.86150000  0.65296000  0.50598000  1.0
  H  H13  1  0.13850000  0.34704000  0.49402000  1.0
  H  H14  1  0.93560000  0.86053000  0.51679000  1.0
  H  H15  1  0.06440000  0.13947000  0.48322000  1.0
  H  H16  1  0.74836000  0.78069000  0.02398000  1.0
  H  H17  1  0.25164000  0.21931000  0.97602000  1.0
  H  H18  1  0.75592000  0.90115000  0.85403000  1.0
  H  H19  1  0.24408000  0.09885000  0.14598000  1.0
  H  H20  1  0.33315000  0.10115000  0.70861000  1.0
  H  H21  1  0.66685000  0.89885000  0.29139000  1.0
  H  H22  1  0.51689000  0.13413000  0.64981000  1.0
  H  H23  1  0.48312000  0.86587000  0.35019000  1.0
  H  H24  1  0.60728000  0.58524000  0.57836000  1.0
  H  H25  1  0.39272000  0.41476000  0.42164000  1.0
  H  H26  1  0.62979000  0.60350000  0.99028000  1.0
  H  H27  1  0.37021000  0.39650000  0.00972000  1.0
  H  H28  1  0.03717000  0.40048000  0.74437000  1.0
  H  H29  1  0.96283000  0.59953000  0.25562000  1.0
  H  H30  1  0.80290000  0.29160000  0.83305000  1.0
  H  H31  1  0.19709000  0.70840000  0.16695000  1.0
  H  H32  1  0.75933000  0.01554000  0.59999000  1.0
  H  H33  1  0.24067000  0.98446000  0.40002000  1.0
  C  C34  1  0.56249000  0.10861000  0.89244000  1.0
  C  C35  1  0.43751000  0.89139000  0.10756000  1.0
  C  C36  1  0.92749000  0.89537000  0.10301000  1.0
  C  C37  1  0.07252000  0.10463000  0.89699000  1.0
  C  C38  1  0.91554000  0.92004000  0.96720000  1.0
  C  C39  1  0.08446000  0.07997000  0.03279000  1.0
  C  C40  1  0.47393000  0.02723000  0.86663000  1.0
  C  C41  1  0.52607000  0.97277000  0.13337000  1.0
  C  C42  1  0.70397000  0.44176000  0.91534000  1.0
  C  C43  1  0.29603000  0.55824000  0.08466000  1.0
  C  C44  1  0.98859000  0.02565000  0.86412000  1.0
  C  C45  1  0.01142000  0.97435000  0.13588000  1.0
  C  C46  1  0.96343000  0.56215000  0.81893000  1.0
  C  C47  1  0.03657000  0.43785000  0.18107000  1.0
  C  C48  1  0.54184000  0.76268000  0.63236000  1.0
  C  C49  1  0.45817000  0.23732000  0.36764000  1.0
  C  C50  1  0.41126000  0.91867000  0.97511000  1.0
  C  C51  1  0.58874000  0.08133000  0.02489000  1.0
  C  C52  1  0.78066000  0.71607000  0.54383000  1.0
  C  C53  1  0.21934000  0.28393000  0.45617000  1.0
  C  C54  1  0.82326000  0.83605000  0.55020000  1.0
  C  C55  1  0.17674000  0.16395000  0.44980000  1.0
  C  C56  1  0.82155000  0.83598000  0.93381000  1.0
  C  C57  1  0.17845000  0.16402000  0.06619000  1.0
  C  C58  1  0.84921000  0.61866000  0.88695000  1.0
  C  C59  1  0.15079000  0.38134000  0.11305000  1.0
  C  C60  1  0.44414000  0.05918000  0.72302000  1.0
  C  C61  1  0.55586000  0.94082000  0.27698000  1.0
  C  C62  1  0.64008000  0.67695000  0.58434000  1.0
  C  C63  1  0.35992000  0.32305000  0.41567000  1.0
  C  C64  1  0.71649000  0.55991000  0.93654000  1.0
  C  C65  1  0.28351000  0.44009000  0.06346000  1.0
  C  C66  1  0.94923000  0.44284000  0.79816000  1.0
  C  C67  1  0.05076000  0.55716000  0.20184000  1.0
  C  C68  1  0.58559000  0.88168000  0.63919000  1.0
  C  C69  1  0.41441000  0.11832000  0.36081000  1.0
  C  C70  1  0.81827000  0.38403000  0.84789000  1.0
  C  C71  1  0.18172000  0.61597000  0.15211000  1.0
  C  C72  1  0.72731000  0.92159000  0.59786000  1.0
  C  C73  1  0.27269000  0.07841000  0.40214000  1.0
  Br  Br74  1  0.35926000  0.41262000  0.72544000  1.0
  Br  Br75  1  0.64074000  0.58738000  0.27456000  1.0
  Br  Br76  1  0.20076000  0.71811000  0.44015000  1.0
  Br  Br77  1  0.79924000  0.28188000  0.55985000  1.0
  N  N78  1  0.07529000  0.64700000  0.78181000  1.0
  N  N79  1  0.92471000  0.35300000  0.21819000  1.0
  N  N80  1  0.03650000  0.74961000  0.82207000  1.0
  N  N81  1  0.96350000  0.25039000  0.17793000  1.0
  N  N82  1  0.46187000  0.93891000  0.68753000  1.0
  N  N83  1  0.53813000  0.06109000  0.31246000  1.0
  N  N84  1  0.39550000  0.75772000  0.67678000  1.0
  N  N85  1  0.60450000  0.24228000  0.32322000  1.0
  N  N86  1  0.34939000  0.86349000  0.71012000  1.0
  N  N87  1  0.65061000  0.13652000  0.28987000  1.0
  N  N88  1  0.90195000  0.73313000  0.88614000  1.0
  N  N89  1  0.09805000  0.26687000  0.11386000  1.0
