# generated using pymatgen
data_AgH9C13S6N2O3
_symmetry_space_group_name_H-M   'P 1'
_cell_length_a   7.15732000
_cell_length_b   8.49527000
_cell_length_c   14.48100000
_cell_angle_alpha   74.63210000
_cell_angle_beta   80.74410000
_cell_angle_gamma   82.17840000
_symmetry_Int_Tables_number   1
_chemical_formula_structural   AgH9C13S6N2O3
_chemical_formula_sum   'Ag2 H18 C26 S12 N4 O6'
_cell_volume   833.90566713
_cell_formula_units_Z   2
loop_
 _symmetry_equiv_pos_site_id
 _symmetry_equiv_pos_as_xyz
  1  'x, y, z'
loop_
 _atom_site_type_symbol
 _atom_site_label
 _atom_site_symmetry_multiplicity
 _atom_site_fract_x
 _atom_site_fract_y
 _atom_site_fract_z
 _atom_site_occupancy
  Ag  Ag0  1  0.90311000  0.04806000  0.13844000  1.0
  Ag  Ag1  1  0.09689000  0.95193000  0.86156000  1.0
  H  H2  1  0.74800000  0.51591000  0.26981000  1.0
  H  H3  1  0.25201000  0.48409000  0.73019000  1.0
  H  H4  1  0.08987000  0.51720000  0.39770000  1.0
  H  H5  1  0.91014000  0.48280000  0.60231000  1.0
  H  H6  1  0.56337000  0.70881000  0.18846000  1.0
  H  H7  1  0.43663000  0.29120000  0.81153000  1.0
  H  H8  1  0.32954000  0.91482000  0.10381000  1.0
  H  H9  1  0.67046000  0.08518000  0.89619000  1.0
  H  H10  1  0.57030000  0.82903000  0.93178000  1.0
  H  H11  1  0.42969000  0.17097000  0.06822000  1.0
  H  H12  1  0.45930000  0.64487000  0.98131000  1.0
  H  H13  1  0.54069000  0.35513000  0.01869000  1.0
  H  H14  1  0.68167000  0.50764000  0.86522000  1.0
  H  H15  1  0.31832000  0.49236000  0.13478000  1.0
  H  H16  1  0.81002000  0.56940000  0.94172000  1.0
  H  H17  1  0.18997000  0.43060000  0.05828000  1.0
  H  H18  1  0.87893000  0.73343000  0.30426000  1.0
  H  H19  1  0.12107000  0.26655000  0.69574000  1.0
  C  C20  1  0.61054000  0.10711000  0.57648000  1.0
  C  C21  1  0.38946000  0.89290000  0.42352000  1.0
  C  C22  1  0.66906000  0.44875000  0.33607000  1.0
  C  C23  1  0.33094000  0.55125000  0.66393000  1.0
  C  C24  1  0.47744000  0.47193000  0.35906000  1.0
  C  C25  1  0.52256000  0.52807000  0.64094000  1.0
  C  C26  1  0.71706000  0.86286000  0.71450000  1.0
  C  C27  1  0.28294000  0.13715000  0.28550000  1.0
  C  C28  1  0.52403000  0.88202000  0.73099000  1.0
  C  C29  1  0.47597000  0.11799000  0.26901000  1.0
  C  C30  1  0.34889000  0.59388000  0.30346000  1.0
  C  C31  1  0.65112000  0.40612000  0.69654000  1.0
  C  C32  1  0.59993000  0.23271000  0.49596000  1.0
  C  C33  1  0.40008000  0.76729000  0.50404000  1.0
  C  C34  1  0.15162000  0.60293000  0.33333333  1.0
  C  C35  1  0.84839000  0.39707000  0.66666667  1.0
  C  C36  1  0.41360000  0.70928000  0.21829000  1.0
  C  C37  1  0.58641000  0.29072000  0.78171000  1.0
  C  C38  1  0.28338000  0.82521000  0.17005000  1.0
  C  C39  1  0.71662000  0.17479000  0.82995000  1.0
  C  C40  1  0.53984000  0.71643000  0.91637000  1.0
  C  C41  1  0.46015000  0.28357000  0.08363000  1.0
  C  C42  1  0.71818000  0.61507000  0.88448000  1.0
  C  C43  1  0.28181000  0.38493000  0.11552000  1.0
  C  C44  1  0.03173000  0.72379000  0.28108000  1.0
  C  C45  1  0.96828000  0.27620000  0.71892000  1.0
  S  S46  1  0.38141000  0.34120000  0.46763000  1.0
  S  S47  1  0.61860000  0.65881000  0.53238000  1.0
  S  S48  1  0.40528000  0.04582000  0.65461000  1.0
  S  S49  1  0.59472000  0.95418000  0.34539000  1.0
  S  S50  1  0.79728000  0.30041000  0.41307000  1.0
  S  S51  1  0.20273000  0.69961000  0.58693000  1.0
  S  S52  1  0.82459000  0.00129000  0.61360000  1.0
  S  S53  1  0.17543000  0.99872000  0.38640000  1.0
  S  S54  1  0.87574000  0.72482000  0.78334000  1.0
  S  S55  1  0.12426000  0.27518000  0.21666000  1.0
  S  S56  1  0.37831000  0.76498000  0.82562000  1.0
  S  S57  1  0.62168000  0.23502000  0.17438000  1.0
  N  N58  1  0.09439000  0.83519000  0.20082000  1.0
  N  N59  1  0.90560000  0.16480000  0.79918000  1.0
  N  N60  1  0.10526000  0.27239000  0.94435000  1.0
  N  N61  1  0.89474000  0.72760000  0.05565000  1.0
  O  O62  1  0.21609000  0.14002000  0.95836000  1.0
  O  O63  1  0.78390000  0.85997000  0.04165000  1.0
  O  O64  1  0.94326000  0.27866000  0.99581000  1.0
  O  O65  1  0.05672000  0.72133000  0.00419000  1.0
  O  O66  1  0.15331000  0.39794000  0.88017000  1.0
  O  O67  1  0.84669000  0.60203000  0.11983000  1.0
