# generated using pymatgen
data_CuPH20C24NCl
_symmetry_space_group_name_H-M   'P 1'
_cell_length_a   8.13075000
_cell_length_b   11.33440000
_cell_length_c   13.47380000
_cell_angle_alpha   110.03400000
_cell_angle_beta   93.39700000
_cell_angle_gamma   99.15830000
_symmetry_Int_Tables_number   1
_chemical_formula_structural   CuPH20C24NCl
_chemical_formula_sum   'Cu2 P2 H40 C48 N2 Cl2'
_cell_volume   1143.00150987
_cell_formula_units_Z   2
loop_
 _symmetry_equiv_pos_site_id
 _symmetry_equiv_pos_as_xyz
  1  'x, y, z'
loop_
 _atom_site_type_symbol
 _atom_site_label
 _atom_site_symmetry_multiplicity
 _atom_site_fract_x
 _atom_site_fract_y
 _atom_site_fract_z
 _atom_site_occupancy
  Cu  Cu0  1  0.49968000  0.38318000  0.91879000  1.0
  Cu  Cu1  1  0.50031000  0.61682000  0.08122000  1.0
  P  P2  1  0.36387000  0.31436000  0.75941000  1.0
  P  P3  1  0.63612000  0.68563000  0.24059000  1.0
  H  H4  1  0.85517000  0.37997000  0.89603000  1.0
  H  H5  1  0.14481000  0.62004000  0.10398000  1.0
  H  H6  1  0.06406000  0.24880000  0.91769000  1.0
  H  H7  1  0.93593000  0.75121000  0.08231000  1.0
  H  H8  1  0.68256000  0.03849000  0.03641000  1.0
  H  H9  1  0.31743000  0.96152000  0.96358000  1.0
  H  H10  1  0.49407000  0.18324000  0.01513000  1.0
  H  H11  1  0.50592000  0.81676000  0.98487000  1.0
  H  H12  1  0.14252000  0.09215000  0.97821000  1.0
  H  H13  1  0.85747000  0.90786000  0.02179000  1.0
  H  H14  1  0.31383000  0.11372000  0.54200000  1.0
  H  H15  1  0.68617000  0.88629000  0.45800000  1.0
  H  H16  1  0.50364000  0.06235000  0.40090000  1.0
  H  H17  1  0.49636000  0.93766000  0.59909000  1.0
  H  H18  1  0.79230000  0.18969000  0.43242000  1.0
  H  H19  1  0.20770000  0.81033000  0.56758000  1.0
  H  H20  1  0.89114000  0.37065000  0.60424000  1.0
  H  H21  1  0.10886000  0.62936000  0.39576000  1.0
  H  H22  1  0.70248000  0.42189000  0.74528000  1.0
  H  H23  1  0.29751000  0.57811000  0.25472000  1.0
  H  H24  1  0.15108000  0.47510000  0.87886000  1.0
  H  H25  1  0.84891000  0.52489000  0.12114000  1.0
  H  H26  1  0.98657000  0.62613000  0.84244000  1.0
  H  H27  1  0.01343000  0.37387000  0.15755000  1.0
  H  H28  1  0.00156000  0.66819000  0.67263000  1.0
  H  H29  1  0.99844000  0.33181000  0.32736000  1.0
  H  H30  1  0.17604000  0.55504000  0.53886000  1.0
  H  H31  1  0.82398000  0.44497000  0.46114000  1.0
  H  H32  1  0.32995000  0.39789000  0.57210000  1.0
  H  H33  1  0.67007000  0.60212000  0.42790000  1.0
  H  H34  1  0.38010000  0.08427000  0.80030000  1.0
  H  H35  1  0.61991000  0.91573000  0.19970000  1.0
  H  H36  1  0.17559000  0.88310000  0.76814000  1.0
  H  H37  1  0.82444000  0.11689000  0.23186000  1.0
  H  H38  1  0.88455000  0.85420000  0.68146000  1.0
  H  H39  1  0.11548000  0.14579000  0.31855000  1.0
  H  H40  1  0.80237000  0.02656000  0.62453000  1.0
  H  H41  1  0.19764000  0.97342000  0.37548000  1.0
  H  H42  1  0.00659000  0.22464000  0.65457000  1.0
  H  H43  1  0.99340000  0.77534000  0.34543000  1.0
  C  C44  1  0.82224000  0.30198000  0.92558000  1.0
  C  C45  1  0.17775000  0.69803000  0.07443000  1.0
  C  C46  1  0.93720000  0.22819000  0.93711000  1.0
  C  C47  1  0.06279000  0.77182000  0.06290000  1.0
  C  C48  1  0.89151000  0.12892000  0.97626000  1.0
  C  C49  1  0.10848000  0.87108000  0.02374000  1.0
  C  C50  1  0.72669000  0.11157000  0.00345000  1.0
  C  C51  1  0.27331000  0.88843000  0.99655000  1.0
  C  C52  1  0.62013000  0.19093000  0.99121000  1.0
  C  C53  1  0.37986000  0.80907000  0.00878000  1.0
  C  C54  1  0.01519000  0.05416000  0.98868000  1.0
  C  C55  1  0.98479000  0.94584000  0.01132000  1.0
  C  C56  1  0.49579000  0.27124000  0.65242000  1.0
  C  C57  1  0.50422000  0.72876000  0.34758000  1.0
  C  C58  1  0.44011000  0.17046000  0.55510000  1.0
  C  C59  1  0.55989000  0.82955000  0.44490000  1.0
  C  C60  1  0.54649000  0.14177000  0.47602000  1.0
  C  C61  1  0.45351000  0.85824000  0.52398000  1.0
  C  C62  1  0.70893000  0.21326000  0.49372000  1.0
  C  C63  1  0.29107000  0.78676000  0.50628000  1.0
  C  C64  1  0.76465000  0.31417000  0.59030000  1.0
  C  C65  1  0.23534000  0.68584000  0.40970000  1.0
  C  C66  1  0.65917000  0.34321000  0.66960000  1.0
  C  C67  1  0.34083000  0.65679000  0.33040000  1.0
  C  C68  1  0.24795000  0.42438000  0.72687000  1.0
  C  C69  1  0.75205000  0.57562000  0.27313000  1.0
  C  C70  1  0.15248000  0.49068000  0.80323000  1.0
  C  C71  1  0.84752000  0.50932000  0.19677000  1.0
  C  C72  1  0.06310000  0.57739000  0.78357000  1.0
  C  C73  1  0.93690000  0.42261000  0.21642000  1.0
  C  C74  1  0.07175000  0.60085000  0.68843000  1.0
  C  C75  1  0.92826000  0.39915000  0.31156000  1.0
  C  C76  1  0.16856000  0.53688000  0.61294000  1.0
  C  C77  1  0.83145000  0.46312000  0.38706000  1.0
  C  C78  1  0.25548000  0.44823000  0.63161000  1.0
  C  C79  1  0.74453000  0.55177000  0.36839000  1.0
  C  C80  1  0.20762000  0.16761000  0.72856000  1.0
  C  C81  1  0.79238000  0.83239000  0.27144000  1.0
  C  C82  1  0.25362000  0.07032000  0.76052000  1.0
  C  C83  1  0.74639000  0.92968000  0.23948000  1.0
  C  C84  1  0.13856000  0.95783000  0.74289000  1.0
  C  C85  1  0.86145000  0.04217000  0.25712000  1.0
  C  C86  1  0.97551000  0.94137000  0.69395000  1.0
  C  C87  1  0.02451000  0.05862000  0.30606000  1.0
  C  C88  1  0.92926000  0.03751000  0.66202000  1.0
  C  C89  1  0.07075000  0.96248000  0.33798000  1.0
  C  C90  1  0.04477000  0.14984000  0.67884000  1.0
  C  C91  1  0.95523000  0.85015000  0.32116000  1.0
  N  N92  1  0.66486000  0.28480000  0.95188000  1.0
  N  N93  1  0.33513000  0.71521000  0.04812000  1.0
  Cl  Cl94  1  0.32595000  0.41118000  0.05599000  1.0
  Cl  Cl95  1  0.67404000  0.58882000  0.94401000  1.0
