# generated using pymatgen
data_ZnH10C12(N2Cl)2
_symmetry_space_group_name_H-M   'P 1'
_cell_length_a   9.04538000
_cell_length_b   10.34490000
_cell_length_c   14.59760000
_cell_angle_alpha   90.00000000
_cell_angle_beta   90.00000000
_cell_angle_gamma   98.13090000
_symmetry_Int_Tables_number   1
_chemical_formula_structural   ZnH10C12(N2Cl)2
_chemical_formula_sum   'Zn4 H40 C48 N16 Cl8'
_cell_volume   1352.21810500
_cell_formula_units_Z   4
loop_
 _symmetry_equiv_pos_site_id
 _symmetry_equiv_pos_as_xyz
  1  'x, y, z'
loop_
 _atom_site_type_symbol
 _atom_site_label
 _atom_site_symmetry_multiplicity
 _atom_site_fract_x
 _atom_site_fract_y
 _atom_site_fract_z
 _atom_site_occupancy
  Zn  Zn0  1  0.24416000  0.26264000  0.61486000  1.0
  Zn  Zn1  1  0.25584000  0.23735000  0.11486000  1.0
  Zn  Zn2  1  0.75584000  0.73736000  0.38514000  1.0
  Zn  Zn3  1  0.74416000  0.76265000  0.88514000  1.0
  H  H4  1  0.04512000  0.12058000  0.75858000  1.0
  H  H5  1  0.45488000  0.37942000  0.25858000  1.0
  H  H6  1  0.95488000  0.87942000  0.24142000  1.0
  H  H7  1  0.54512000  0.62058000  0.74142000  1.0
  H  H8  1  0.97045000  0.16467000  0.91959000  1.0
  H  H9  1  0.52955000  0.33533000  0.41959000  1.0
  H  H10  1  0.02955000  0.83534000  0.08041000  1.0
  H  H11  1  0.47045000  0.66467000  0.58041000  1.0
  H  H12  1  0.04943000  0.38801000  0.98547000  1.0
  H  H13  1  0.45057000  0.11199000  0.48547000  1.0
  H  H14  1  0.95057000  0.61199000  0.01453000  1.0
  H  H15  1  0.54943000  0.88801000  0.51453000  1.0
  H  H16  1  0.26159000  0.49939000  0.72715000  1.0
  H  H17  1  0.23841000  0.00060000  0.22716000  1.0
  H  H18  1  0.73841000  0.50061000  0.27285000  1.0
  H  H19  1  0.76159000  0.99940000  0.77284000  1.0
  H  H20  1  0.18454000  0.61051000  0.96988000  1.0
  H  H21  1  0.31545000  0.88949000  0.46988000  1.0
  H  H22  1  0.81546000  0.38949000  0.03012000  1.0
  H  H23  1  0.68455000  0.11051000  0.53012000  1.0
  H  H24  1  0.33637000  0.88951000  0.76523000  1.0
  H  H25  1  0.16363000  0.61049000  0.26523000  1.0
  H  H26  1  0.66363000  0.11049000  0.23477000  1.0
  H  H27  1  0.83637000  0.38951000  0.73477000  1.0
  H  H28  1  0.46763000  0.37584000  0.97994000  1.0
  H  H29  1  0.03237000  0.12416000  0.47994000  1.0
  H  H30  1  0.53237000  0.62416000  0.02006000  1.0
  H  H31  1  0.96763000  0.87584000  0.52006000  1.0
  H  H32  1  0.55230000  0.33614000  0.82081000  1.0
  H  H33  1  0.94770000  0.16386000  0.32081000  1.0
  H  H34  1  0.44771000  0.66387000  0.17919000  1.0
  H  H35  1  0.05229000  0.83613000  0.67919000  1.0
  H  H36  1  0.48508000  0.11293000  0.75256000  1.0
  H  H37  1  0.01492000  0.38707000  0.25256000  1.0
  H  H38  1  0.51492000  0.88707000  0.24744000  1.0
  H  H39  1  0.98508000  0.61293000  0.74744000  1.0
  H  H40  1  0.26112000  0.99244000  0.00592000  1.0
  H  H41  1  0.23888000  0.50756000  0.50592000  1.0
  H  H42  1  0.73888000  0.00756000  0.99408000  1.0
  H  H43  1  0.76112000  0.49244000  0.49408000  1.0
  C  C44  1  0.07302000  0.21683000  0.78937000  1.0
  C  C45  1  0.42699000  0.28317000  0.28938000  1.0
  C  C46  1  0.92699000  0.78317000  0.21063000  1.0
  C  C47  1  0.57302000  0.71683000  0.71062000  1.0
  C  C48  1  0.03168000  0.24246000  0.87859000  1.0
  C  C49  1  0.46832000  0.25754000  0.37859000  1.0
  C  C50  1  0.96832000  0.75754000  0.12141000  1.0
  C  C51  1  0.53168000  0.74246000  0.62141000  1.0
  C  C52  1  0.07529000  0.36637000  0.91473000  1.0
  C  C53  1  0.42471000  0.13363000  0.41473000  1.0
  C  C54  1  0.92471000  0.63363000  0.08527000  1.0
  C  C55  1  0.57529000  0.86637000  0.58527000  1.0
  C  C56  1  0.15828000  0.46305000  0.86060000  1.0
  C  C57  1  0.34172000  0.03695000  0.36060000  1.0
  C  C58  1  0.84172000  0.53695000  0.13940000  1.0
  C  C59  1  0.65827000  0.96305000  0.63940000  1.0
  C  C60  1  0.19464000  0.42906000  0.77137000  1.0
  C  C61  1  0.30536000  0.07094000  0.27137000  1.0
  C  C62  1  0.80536000  0.57094000  0.22863000  1.0
  C  C63  1  0.69464000  0.92906000  0.72863000  1.0
  C  C64  1  0.20705000  0.59304000  0.89744000  1.0
  C  C65  1  0.29295000  0.90696000  0.39744000  1.0
  C  C66  1  0.79295000  0.40696000  0.10256000  1.0
  C  C67  1  0.70705000  0.09304000  0.60256000  1.0
  C  C68  1  0.34052000  0.90077000  0.84007000  1.0
  C  C69  1  0.15948000  0.59923000  0.34007000  1.0
  C  C70  1  0.65948000  0.09923000  0.15993000  1.0
  C  C71  1  0.84051000  0.40077000  0.65993000  1.0
  C  C72  1  0.44334000  0.27978000  0.94830000  1.0
  C  C73  1  0.05666000  0.22022000  0.44830000  1.0
  C  C74  1  0.55667000  0.72022000  0.05170000  1.0
  C  C75  1  0.94333000  0.77978000  0.55170000  1.0
  C  C76  1  0.49000000  0.25683000  0.85983000  1.0
  C  C77  1  0.01000000  0.24317000  0.35983000  1.0
  C  C78  1  0.51000000  0.74317000  0.14017000  1.0
  C  C79  1  0.99000000  0.75683000  0.64017000  1.0
  C  C80  1  0.45400000  0.13252000  0.82279000  1.0
  C  C81  1  0.04600000  0.36748000  0.32279000  1.0
  C  C82  1  0.54600000  0.86748000  0.17721000  1.0
  C  C83  1  0.95400000  0.63252000  0.67721000  1.0
  C  C84  1  0.37696000  0.03243000  0.87671000  1.0
  C  C85  1  0.12304000  0.46757000  0.37671000  1.0
  C  C86  1  0.62304000  0.96757000  0.12329000  1.0
  C  C87  1  0.87696000  0.53243000  0.62329000  1.0
  C  C88  1  0.33047000  0.06476000  0.96444000  1.0
  C  C89  1  0.16953000  0.43524000  0.46444000  1.0
  C  C90  1  0.66953000  0.93524000  0.03556000  1.0
  C  C91  1  0.83047000  0.56476000  0.53556000  1.0
  N  N92  1  0.15366000  0.30900000  0.73718000  1.0
  N  N93  1  0.34634000  0.19100000  0.23718000  1.0
  N  N94  1  0.84634000  0.69100000  0.26282000  1.0
  N  N95  1  0.65366000  0.80900000  0.76282000  1.0
  N  N96  1  0.27522000  0.68524000  0.84660000  1.0
  N  N97  1  0.22478000  0.81475000  0.34660000  1.0
  N  N98  1  0.72478000  0.31476000  0.15340000  1.0
  N  N99  1  0.77522000  0.18525000  0.65340000  1.0
  N  N100  1  0.31191000  0.80123000  0.89397000  1.0
  N  N101  1  0.18809000  0.69877000  0.39397000  1.0
  N  N102  1  0.68809000  0.19877000  0.10603000  1.0
  N  N103  1  0.81191000  0.30123000  0.60603000  1.0
  N  N104  1  0.36161000  0.18602000  0.99867000  1.0
  N  N105  1  0.13839000  0.31398000  0.49867000  1.0
  N  N106  1  0.63839000  0.81398000  0.00133000  1.0
  N  N107  1  0.86160000  0.68602000  0.50133000  1.0
  Cl  Cl108  1  0.46585000  0.38922000  0.61456000  1.0
  Cl  Cl109  1  0.03415000  0.11078000  0.11456000  1.0
  Cl  Cl110  1  0.53415000  0.61077000  0.38544000  1.0
  Cl  Cl111  1  0.96585000  0.88922000  0.88544000  1.0
  Cl  Cl112  1  0.23107000  0.04437000  0.61656000  1.0
  Cl  Cl113  1  0.26893000  0.45563000  0.11656000  1.0
  Cl  Cl114  1  0.76893000  0.95563000  0.38344000  1.0
  Cl  Cl115  1  0.73107000  0.54437000  0.88344000  1.0
