# generated using pymatgen
data_ZnH25C34(NO)5
_symmetry_space_group_name_H-M   'P 1'
_cell_length_a   11.17970000
_cell_length_b   11.36970000
_cell_length_c   13.26004706
_cell_angle_alpha   66.07373279
_cell_angle_beta   80.70749464
_cell_angle_gamma   82.65630000
_symmetry_Int_Tables_number   1
_chemical_formula_structural   ZnH25C34(NO)5
_chemical_formula_sum   'Zn2 H50 C68 N10 O10'
_cell_volume   1516.79336975
_cell_formula_units_Z   2
loop_
 _symmetry_equiv_pos_site_id
 _symmetry_equiv_pos_as_xyz
  1  'x, y, z'
loop_
 _atom_site_type_symbol
 _atom_site_label
 _atom_site_symmetry_multiplicity
 _atom_site_fract_x
 _atom_site_fract_y
 _atom_site_fract_z
 _atom_site_occupancy
  Zn  Zn0  1  0.02344000  0.71201000  0.82872000  1.0
  Zn  Zn1  1  0.97656000  0.28799000  0.17128000  1.0
  H  H2  1  0.19365000  0.55861000  0.00932000  1.0
  H  H3  1  0.80635000  0.44139000  0.99068000  1.0
  H  H4  1  0.02188000  0.93042000  0.93961000  1.0
  H  H5  1  0.97813000  0.06958000  0.06039000  1.0
  H  H6  1  0.16436000  0.87176000  0.11113000  1.0
  H  H7  1  0.83565000  0.12823000  0.88887000  1.0
  H  H8  1  0.42117000  0.76637000  0.08887000  1.0
  H  H9  1  0.57884000  0.23363000  0.91113000  1.0
  H  H10  1  0.57608000  0.63525000  0.21310000  1.0
  H  H11  1  0.42392000  0.36474000  0.78691000  1.0
  H  H12  1  0.17341000  0.46237000  0.24044000  1.0
  H  H13  1  0.82659000  0.53763000  0.75956000  1.0
  H  H14  1  0.62161000  0.54557000  0.45360000  1.0
  H  H15  1  0.37838000  0.45443000  0.54640000  1.0
  H  H16  1  0.75915000  0.44856000  0.48409000  1.0
  H  H17  1  0.24085000  0.55144000  0.51591000  1.0
  H  H18  1  0.61862000  0.38686000  0.55907000  1.0
  H  H19  1  0.38138000  0.61315000  0.44093000  1.0
  H  H20  1  0.18430000  0.21202000  0.39600000  1.0
  H  H21  1  0.81570000  0.78798000  0.60401000  1.0
  H  H22  1  0.17036000  0.98040000  0.40906000  1.0
  H  H23  1  0.82964000  0.01961000  0.59093000  1.0
  H  H24  1  0.03750000  0.77727000  0.56322000  1.0
  H  H25  1  0.96250000  0.22272000  0.43678000  1.0
  H  H26  1  0.08075000  0.36940000  0.65874000  1.0
  H  H27  1  0.91925000  0.63061000  0.34125000  1.0
  H  H28  1  0.31332000  0.10793000  0.97688000  1.0
  H  H29  1  0.68668000  0.89208000  0.02312000  1.0
  H  H30  1  0.18601000  0.15601000  0.67197000  1.0
  H  H31  1  0.81399000  0.84399000  0.32803000  1.0
  H  H32  1  0.40526000  0.77147000  0.87740000  1.0
  H  H33  1  0.59474000  0.22852000  0.12260000  1.0
  H  H34  1  0.62915000  0.70945000  0.86475000  1.0
  H  H35  1  0.37085000  0.29055000  0.13525000  1.0
  H  H36  1  0.70316000  0.10336000  0.77201000  1.0
  H  H37  1  0.29685000  0.89663000  0.22799000  1.0
  H  H38  1  0.43228000  0.97401000  0.63023000  1.0
  H  H39  1  0.56771000  0.02599000  0.36977000  1.0
  H  H40  1  0.57559000  0.14616000  0.56026000  1.0
  H  H41  1  0.42441000  0.85384000  0.43974000  1.0
  H  H42  1  0.69830000  0.45356000  0.30895000  1.0
  H  H43  1  0.30170000  0.54643000  0.69106000  1.0
  H  H44  1  0.70012000  0.29672000  0.41295000  1.0
  H  H45  1  0.29988000  0.70328000  0.58705000  1.0
  H  H46  1  0.20922000  0.32184000  0.96182000  1.0
  H  H47  1  0.79078000  0.67816000  0.03818000  1.0
  H  H48  1  0.22331000  0.92196000  0.73647000  1.0
  H  H49  1  0.77669000  0.07804000  0.26352000  1.0
  H  H50  1  0.48132000  0.16723000  0.78053000  1.0
  H  H51  1  0.51868000  0.83277000  0.21947000  1.0
  C  C52  1  0.16687000  0.65253000  0.01188000  1.0
  C  C53  1  0.83312000  0.34746000  0.98813000  1.0
  C  C54  1  0.07948000  0.84510000  0.98007000  1.0
  C  C55  1  0.92053000  0.15491000  0.01992000  1.0
  C  C56  1  0.15041000  0.81748000  0.06346000  1.0
  C  C57  1  0.84961000  0.18252000  0.93654000  1.0
  C  C58  1  0.29004000  0.62122000  0.15909000  1.0
  C  C59  1  0.70996000  0.37878000  0.84091000  1.0
  C  C60  1  0.40191000  0.67066000  0.15134000  1.0
  C  C61  1  0.59810000  0.32933000  0.84866000  1.0
  C  C62  1  0.48888000  0.59739000  0.22059000  1.0
  C  C63  1  0.51113000  0.40261000  0.77941000  1.0
  C  C64  1  0.46109000  0.47376000  0.29719000  1.0
  C  C65  1  0.53891000  0.52624000  0.70281000  1.0
  C  C66  1  0.34822000  0.42348000  0.30385000  1.0
  C  C67  1  0.65178000  0.57652000  0.69615000  1.0
  C  C68  1  0.26161000  0.49790000  0.23448000  1.0
  C  C69  1  0.73839000  0.50210000  0.76552000  1.0
  C  C70  1  0.66299000  0.44675000  0.47700000  1.0
  C  C71  1  0.33701000  0.55325000  0.52300000  1.0
  C  C72  1  0.26928000  0.19824000  0.43104000  1.0
  C  C73  1  0.73072000  0.80177000  0.56896000  1.0
  C  C74  1  0.16090000  0.93809000  0.49910000  1.0
  C  C75  1  0.83910000  0.06191000  0.50090000  1.0
  C  C76  1  0.09465000  0.83923000  0.57554000  1.0
  C  C77  1  0.90535000  0.16077000  0.42446000  1.0
  C  C78  1  0.07880000  0.48909000  0.79570000  1.0
  C  C79  1  0.92120000  0.51092000  0.20430000  1.0
  C  C80  1  0.13229000  0.31126000  0.72773000  1.0
  C  C81  1  0.86771000  0.68874000  0.27227000  1.0
  C  C82  1  0.26325000  0.16621000  0.90688000  1.0
  C  C83  1  0.73675000  0.83379000  0.09312000  1.0
  C  C84  1  0.25587000  0.12152000  0.82449000  1.0
  C  C85  1  0.74413000  0.87848000  0.17551000  1.0
  C  C86  1  0.19029000  0.19273000  0.73521000  1.0
  C  C87  1  0.80970000  0.80727000  0.26479000  1.0
  C  C88  1  0.47161000  0.84319000  0.85483000  1.0
  C  C89  1  0.52839000  0.15681000  0.14517000  1.0
  C  C90  1  0.59579000  0.80915000  0.84780000  1.0
  C  C91  1  0.40422000  0.19085000  0.15220000  1.0
  C  C92  1  0.63728000  0.03093000  0.79581000  1.0
  C  C93  1  0.36272000  0.96907000  0.20419000  1.0
  C  C94  1  0.68017000  0.90246000  0.81873000  1.0
  C  C95  1  0.31983000  0.09754000  0.18126000  1.0
  C  C96  1  0.81430000  0.86762000  0.81403000  1.0
  C  C97  1  0.18570000  0.13237000  0.18597000  1.0
  C  C98  1  0.30139000  0.08318000  0.51716000  1.0
  C  C99  1  0.69861000  0.91681000  0.48284000  1.0
  C  C100  1  0.40983000  0.06576000  0.56405000  1.0
  C  C101  1  0.59017000  0.93424000  0.43595000  1.0
  C  C102  1  0.49132000  0.16190000  0.52396000  1.0
  C  C103  1  0.50868000  0.83810000  0.47604000  1.0
  C  C104  1  0.46243000  0.27558000  0.43479000  1.0
  C  C105  1  0.53757000  0.72441000  0.56522000  1.0
  C  C106  1  0.65324000  0.39321000  0.39048000  1.0
  C  C107  1  0.34676000  0.60679000  0.60952000  1.0
  C  C108  1  0.35001000  0.29568000  0.39021000  1.0
  C  C109  1  0.64999000  0.70431000  0.60980000  1.0
  C  C110  1  0.20537000  0.28554000  0.89807000  1.0
  C  C111  1  0.79462000  0.71446000  0.10193000  1.0
  C  C112  1  0.19126000  0.90733000  0.66970000  1.0
  C  C113  1  0.80874000  0.09267000  0.33030000  1.0
  C  C114  1  0.13990000  0.35918000  0.80832000  1.0
  C  C115  1  0.86009000  0.64083000  0.19167000  1.0
  C  C116  1  0.43076000  0.97236000  0.83127000  1.0
  C  C117  1  0.56924000  0.02764000  0.16873000  1.0
  C  C118  1  0.51351000  0.06676000  0.80143000  1.0
  C  C119  1  0.48649000  0.93324000  0.19857000  1.0
  N  N120  1  0.09100000  0.74185000  0.94866000  1.0
  N  N121  1  0.90900000  0.25815000  0.05134000  1.0
  N  N122  1  0.20548000  0.69501000  0.08241000  1.0
  N  N123  1  0.79452000  0.30498000  0.91760000  1.0
  N  N124  1  0.52906000  0.38266000  0.37605000  1.0
  N  N125  1  0.47094000  0.61733000  0.62396000  1.0
  N  N126  1  0.22203000  0.98038000  0.56001000  1.0
  N  N127  1  0.77797000  0.01962000  0.43999000  1.0
  N  N128  1  0.11418000  0.82158000  0.68111000  1.0
  N  N129  1  0.88582000  0.17843000  0.31888000  1.0
  O  O130  1  0.30709000  0.99988000  0.83263000  1.0
  O  O131  1  0.69291000  0.00013000  0.16736000  1.0
  O  O132  1  0.88644000  0.95145000  0.79678000  1.0
  O  O133  1  0.11356000  0.04855000  0.20322000  1.0
  O  O134  1  0.84664000  0.74779000  0.82940000  1.0
  O  O135  1  0.15336000  0.25220000  0.17060000  1.0
  O  O136  1  0.09176000  0.52960000  0.87151000  1.0
  O  O137  1  0.90823000  0.47040000  0.12849000  1.0
  O  O138  1  0.02126000  0.55251000  0.71413000  1.0
  O  O139  1  0.97873000  0.44749000  0.28587000  1.0
