# generated using pymatgen
data_CuH14C22N4O5
_symmetry_space_group_name_H-M   'P 1'
_cell_length_a   8.69935000
_cell_length_b   10.84980000
_cell_length_c   11.60680000
_cell_angle_alpha   102.53600000
_cell_angle_beta   105.32900000
_cell_angle_gamma   108.06800000
_symmetry_Int_Tables_number   1
_chemical_formula_structural   CuH14C22N4O5
_chemical_formula_sum   'Cu2 H28 C44 N8 O10'
_cell_volume   949.52003735
_cell_formula_units_Z   2
loop_
 _symmetry_equiv_pos_site_id
 _symmetry_equiv_pos_as_xyz
  1  'x, y, z'
loop_
 _atom_site_type_symbol
 _atom_site_label
 _atom_site_symmetry_multiplicity
 _atom_site_fract_x
 _atom_site_fract_y
 _atom_site_fract_z
 _atom_site_occupancy
  Cu  Cu0  1  0.79348000  0.04974000  0.24040000  1.0
  Cu  Cu1  1  0.20652000  0.95026000  0.75960000  1.0
  H  H2  1  0.93228000  0.85229000  0.10485000  1.0
  H  H3  1  0.06771000  0.14771000  0.89514000  1.0
  H  H4  1  0.19333000  0.79659000  0.17234000  1.0
  H  H5  1  0.80667000  0.20340000  0.82765000  1.0
  H  H6  1  0.39647000  0.90588000  0.39485000  1.0
  H  H7  1  0.60352000  0.09411000  0.60515000  1.0
  H  H8  1  0.34317000  0.08245000  0.54496000  1.0
  H  H9  1  0.65683000  0.91755000  0.45504000  1.0
  H  H10  1  0.29313000  0.25253000  0.64834000  1.0
  H  H11  1  0.70687000  0.74747000  0.35167000  1.0
  H  H12  1  0.90794000  0.42976000  0.62431000  1.0
  H  H13  1  0.09206000  0.57024000  0.37569000  1.0
  H  H14  1  0.63197000  0.38421000  0.50284000  1.0
  H  H15  1  0.36803000  0.61579000  0.49716000  1.0
  H  H16  1  0.33576000  0.32475000  0.34449000  1.0
  H  H17  1  0.66424000  0.67525000  0.65551000  1.0
  H  H18  1  0.23574000  0.14347000  0.13502000  1.0
  H  H19  1  0.76426000  0.85653000  0.86498000  1.0
  H  H20  1  0.42877000  0.02675000  0.09039000  1.0
  H  H21  1  0.57123000  0.97325000  0.90961000  1.0
  H  H22  1  0.46291000  0.47262000  0.75358000  1.0
  H  H23  1  0.53709000  0.52737000  0.24642000  1.0
  H  H24  1  0.64024000  0.66108000  0.95312000  1.0
  H  H25  1  0.35976000  0.33892000  0.04688000  1.0
  H  H26  1  0.18254000  0.63302000  0.04214000  1.0
  H  H27  1  0.81746000  0.36698000  0.95786000  1.0
  H  H28  1  0.00179000  0.45433000  0.83625000  1.0
  H  H29  1  0.99821000  0.54567000  0.16375000  1.0
  C  C30  1  0.02695000  0.90206000  0.20077000  1.0
  C  C31  1  0.97305000  0.09794000  0.79923000  1.0
  C  C32  1  0.17132000  0.86991000  0.23937000  1.0
  C  C33  1  0.82867000  0.13008000  0.76062000  1.0
  C  C34  1  0.28571000  0.93313000  0.36409000  1.0
  C  C35  1  0.71428000  0.06686000  0.63591000  1.0
  C  C36  1  0.25771000  0.03121000  0.44621000  1.0
  C  C37  1  0.74229000  0.96878000  0.55379000  1.0
  C  C38  1  0.11415000  0.06239000  0.40022000  1.0
  C  C39  1  0.88585000  0.93761000  0.59978000  1.0
  C  C40  1  0.07200000  0.16727000  0.47408000  1.0
  C  C41  1  0.92801000  0.83272000  0.52592000  1.0
  C  C42  1  0.17251000  0.25782000  0.59561000  1.0
  C  C43  1  0.82749000  0.74218000  0.40439000  1.0
  C  C44  1  0.11312000  0.35347000  0.65152000  1.0
  C  C45  1  0.88688000  0.64653000  0.34848000  1.0
  C  C46  1  0.95306000  0.35378000  0.58315000  1.0
  C  C47  1  0.04694000  0.64622000  0.41685000  1.0
  C  C48  1  0.85752000  0.25836000  0.46253000  1.0
  C  C49  1  0.14248000  0.74164000  0.53747000  1.0
  C  C50  1  0.68472000  0.23709000  0.37858000  1.0
  C  C51  1  0.31529000  0.76291000  0.62142000  1.0
  C  C52  1  0.58297000  0.30597000  0.41061000  1.0
  C  C53  1  0.41703000  0.69403000  0.58939000  1.0
  C  C54  1  0.41888000  0.27257000  0.32332000  1.0
  C  C55  1  0.58113000  0.72743000  0.67668000  1.0
  C  C56  1  0.36145000  0.17172000  0.20665000  1.0
  C  C57  1  0.63855000  0.82828000  0.79335000  1.0
  C  C58  1  0.46900000  0.10618000  0.18045000  1.0
  C  C59  1  0.53100000  0.89383000  0.81955000  1.0
  C  C60  1  0.21887000  0.45308000  0.77828000  1.0
  C  C61  1  0.78113000  0.54692000  0.22172000  1.0
  C  C62  1  0.40019000  0.50877000  0.81559000  1.0
  C  C63  1  0.59981000  0.49123000  0.18441000  1.0
  C  C64  1  0.50061000  0.61520000  0.92831000  1.0
  C  C65  1  0.49939000  0.38479000  0.07169000  1.0
  C  C66  1  0.42264000  0.66351000  0.00923000  1.0
  C  C67  1  0.57737000  0.33649000  0.99077000  1.0
  C  C68  1  0.24368000  0.59975000  0.97789000  1.0
  C  C69  1  0.75632000  0.40025000  0.02211000  1.0
  C  C70  1  0.14189000  0.49811000  0.86201000  1.0
  C  C71  1  0.85811000  0.50189000  0.13799000  1.0
  C  C72  1  0.52925000  0.78785000  0.12424000  1.0
  C  C73  1  0.47075000  0.21215000  0.87576000  1.0
  N  N74  1  0.01213000  0.26751000  0.15191000  1.0
  N  N75  1  0.98787000  0.73249000  0.84808000  1.0
  N  N76  1  0.99938000  0.99545000  0.27991000  1.0
  N  N77  1  0.00061000  0.00455000  0.72009000  1.0
  N  N78  1  0.91984000  0.17004000  0.41206000  1.0
  N  N79  1  0.08016000  0.82996000  0.58794000  1.0
  N  N80  1  0.62578000  0.13801000  0.26427000  1.0
  N  N81  1  0.37422000  0.86200000  0.73574000  1.0
  O  O82  1  0.88060000  0.15194000  0.10477000  1.0
  O  O83  1  0.11940000  0.84807000  0.89523000  1.0
  O  O84  1  0.08689000  0.31077000  0.08085000  1.0
  O  O85  1  0.91310000  0.68923000  0.91914000  1.0
  O  O86  1  0.06416000  0.33531000  0.26800000  1.0
  O  O87  1  0.93585000  0.66469000  0.73200000  1.0
  O  O88  1  0.50661000  0.79648000  0.22744000  1.0
  O  O89  1  0.49340000  0.20352000  0.77256000  1.0
  O  O90  1  0.64086000  0.88248000  0.10188000  1.0
  O  O91  1  0.35913000  0.11752000  0.89812000  1.0
