# generated using pymatgen
data_LiH4C9N4(OF)3
_symmetry_space_group_name_H-M   'P 1'
_cell_length_a   8.61662000
_cell_length_b   11.63100000
_cell_length_c   12.14910000
_cell_angle_alpha   106.36000000
_cell_angle_beta   89.99990000
_cell_angle_gamma   90.00000000
_symmetry_Int_Tables_number   1
_chemical_formula_structural   LiH4C9N4(OF)3
_chemical_formula_sum   'Li4 H16 C36 N16 O12 F12'
_cell_volume   1168.28283050
_cell_formula_units_Z   4
loop_
 _symmetry_equiv_pos_site_id
 _symmetry_equiv_pos_as_xyz
  1  'x, y, z'
loop_
 _atom_site_type_symbol
 _atom_site_label
 _atom_site_symmetry_multiplicity
 _atom_site_fract_x
 _atom_site_fract_y
 _atom_site_fract_z
 _atom_site_occupancy
  Li  Li0  1  0.69806000  0.70883000  0.55685000  1.0
  Li  Li1  1  0.19806000  0.79117000  0.94315000  1.0
  Li  Li2  1  0.30194000  0.29117000  0.44315000  1.0
  Li  Li3  1  0.80194000  0.20883000  0.05685000  1.0
  H  H4  1  0.87326000  0.93491000  0.19056000  1.0
  H  H5  1  0.37326000  0.56509000  0.30944000  1.0
  H  H6  1  0.12674000  0.06509000  0.80944000  1.0
  H  H7  1  0.62674000  0.43491000  0.69056000  1.0
  H  H8  1  0.98169000  0.79527000  0.15477000  1.0
  H  H9  1  0.48169000  0.70473000  0.34523000  1.0
  H  H10  1  0.01831000  0.20473000  0.84523000  1.0
  H  H11  1  0.51831000  0.29527000  0.65477000  1.0
  H  H12  1  0.13590000  0.86946000  0.32366000  1.0
  H  H13  1  0.63590000  0.63054000  0.17634000  1.0
  H  H14  1  0.86410000  0.13054000  0.67634000  1.0
  H  H15  1  0.36410000  0.36946000  0.82366000  1.0
  H  H16  1  0.03117000  0.00895000  0.35749000  1.0
  H  H17  1  0.53117000  0.49105000  0.14251000  1.0
  H  H18  1  0.96883000  0.99105000  0.64251000  1.0
  H  H19  1  0.46883000  0.50895000  0.85749000  1.0
  C  C20  1  0.66285000  0.30044000  0.40592000  1.0
  C  C21  1  0.16285000  0.19956000  0.09408000  1.0
  C  C22  1  0.33715000  0.69956000  0.59408000  1.0
  C  C23  1  0.83715000  0.80044000  0.90592000  1.0
  C  C24  1  0.78741000  0.21870000  0.37137000  1.0
  C  C25  1  0.28740000  0.28130000  0.12863000  1.0
  C  C26  1  0.21259000  0.78130000  0.62863000  1.0
  C  C27  1  0.71260000  0.71870000  0.87137000  1.0
  C  C28  1  0.57501000  0.12348000  0.34053000  1.0
  C  C29  1  0.07501000  0.37652000  0.15947000  1.0
  C  C30  1  0.42499000  0.87652000  0.65947000  1.0
  C  C31  1  0.92499000  0.62348000  0.84053000  1.0
  C  C32  1  0.67291000  0.42543000  0.45199000  1.0
  C  C33  1  0.17291000  0.07457000  0.04801000  1.0
  C  C34  1  0.32709000  0.57457000  0.54801000  1.0
  C  C35  1  0.82709000  0.92543000  0.95199000  1.0
  C  C36  1  0.94749000  0.24435000  0.37697000  1.0
  C  C37  1  0.44749000  0.25565000  0.12303000  1.0
  C  C38  1  0.05251000  0.75565000  0.62303000  1.0
  C  C39  1  0.55251000  0.74435000  0.87697000  1.0
  C  C40  1  0.46294000  0.02140000  0.30277000  1.0
  C  C41  1  0.96294000  0.47860000  0.19723000  1.0
  C  C42  1  0.53706000  0.97860000  0.69723000  1.0
  C  C43  1  0.03706000  0.52140000  0.80277000  1.0
  C  C44  1  0.80718000  0.81636000  0.37418000  1.0
  C  C45  1  0.30718000  0.68364000  0.12582000  1.0
  C  C46  1  0.19282000  0.18364000  0.62582000  1.0
  C  C47  1  0.69282000  0.31636000  0.87418000  1.0
  C  C48  1  0.92171000  0.86320000  0.22212000  1.0
  C  C49  1  0.42171000  0.63680000  0.27788000  1.0
  C  C50  1  0.07829000  0.13680000  0.77788000  1.0
  C  C51  1  0.57829000  0.36320000  0.72212000  1.0
  C  C52  1  0.02128000  0.91133000  0.33023000  1.0
  C  C53  1  0.52128000  0.58867000  0.16977000  1.0
  C  C54  1  0.97872000  0.08867000  0.66977000  1.0
  C  C55  1  0.47872000  0.41133000  0.83023000  1.0
  N  N56  1  0.52663000  0.23771000  0.38588000  1.0
  N  N57  1  0.02663000  0.26229000  0.11412000  1.0
  N  N58  1  0.47337000  0.76229000  0.61412000  1.0
  N  N59  1  0.97337000  0.73771000  0.88588000  1.0
  N  N60  1  0.68583000  0.52883000  0.49048000  1.0
  N  N61  1  0.18583000  0.97117000  0.00952000  1.0
  N  N62  1  0.31417000  0.47117000  0.50952000  1.0
  N  N63  1  0.81417000  0.02883000  0.99048000  1.0
  N  N64  1  0.07981000  0.26644000  0.38201000  1.0
  N  N65  1  0.57981000  0.23356000  0.11800000  1.0
  N  N66  1  0.92019000  0.73356000  0.61799000  1.0
  N  N67  1  0.42019000  0.76644000  0.88201000  1.0
  N  N68  1  0.72905000  0.10581000  0.32984000  1.0
  N  N69  1  0.22905000  0.39419000  0.17016000  1.0
  N  N70  1  0.27096000  0.89419000  0.67016000  1.0
  N  N71  1  0.77095000  0.60581000  0.82984000  1.0
  O  O72  1  0.71362000  0.77537000  0.42875000  1.0
  O  O73  1  0.21362000  0.72463000  0.07125000  1.0
  O  O74  1  0.28638000  0.22463000  0.57125000  1.0
  O  O75  1  0.78638000  0.27537000  0.92875000  1.0
  O  O76  1  0.79172000  0.80502000  0.26180000  1.0
  O  O77  1  0.29172000  0.69498000  0.23820000  1.0
  O  O78  1  0.20828000  0.19498000  0.73820000  1.0
  O  O79  1  0.70828000  0.30503000  0.76180000  1.0
  O  O80  1  0.93563000  0.87633000  0.41927000  1.0
  O  O81  1  0.43563000  0.62367000  0.08073000  1.0
  O  O82  1  0.06437000  0.12367000  0.58073000  1.0
  O  O83  1  0.56437000  0.37634000  0.91927000  1.0
  F  F84  1  0.31537000  0.06277000  0.29679000  1.0
  F  F85  1  0.81537000  0.43723000  0.20321000  1.0
  F  F86  1  0.68463000  0.93723000  0.70321000  1.0
  F  F87  1  0.18463000  0.56277000  0.79679000  1.0
  F  F88  1  0.45805000  0.95098000  0.37592000  1.0
  F  F89  1  0.95805000  0.54902000  0.12408000  1.0
  F  F90  1  0.54195000  0.04902000  0.62408000  1.0
  F  F91  1  0.04195000  0.45098000  0.87592000  1.0
  F  F92  1  0.49904000  0.94767000  0.19713000  1.0
  F  F93  1  0.99904000  0.55233000  0.30287000  1.0
  F  F94  1  0.50096000  0.05233000  0.80287000  1.0
  F  F95  1  0.00096000  0.44767000  0.69713000  1.0
