# generated using pymatgen
data_LiH6C3SO6
_symmetry_space_group_name_H-M   'P 1'
_cell_length_a   6.11779000
_cell_length_b   7.16552000
_cell_length_c   8.21724000
_cell_angle_alpha   73.84480000
_cell_angle_beta   69.78560000
_cell_angle_gamma   67.12030000
_symmetry_Int_Tables_number   1
_chemical_formula_structural   LiH6C3SO6
_chemical_formula_sum   'Li2 H12 C6 S2 O12'
_cell_volume   307.09376074
_cell_formula_units_Z   2
loop_
 _symmetry_equiv_pos_site_id
 _symmetry_equiv_pos_as_xyz
  1  'x, y, z'
loop_
 _atom_site_type_symbol
 _atom_site_label
 _atom_site_symmetry_multiplicity
 _atom_site_fract_x
 _atom_site_fract_y
 _atom_site_fract_z
 _atom_site_occupancy
  Li  Li0  1  0.80329000  0.18740000  0.89506000  1.0
  Li  Li1  1  0.19671000  0.81260000  0.10494000  1.0
  H  H2  1  0.82932000  0.39522000  0.57659000  1.0
  H  H3  1  0.17068000  0.60478000  0.42341000  1.0
  H  H4  1  0.91333000  0.49145000  0.68461000  1.0
  H  H5  1  0.08668000  0.50855000  0.31539000  1.0
  H  H6  1  0.35322000  0.41240000  0.94162000  1.0
  H  H7  1  0.64678000  0.58759000  0.05838000  1.0
  H  H8  1  0.34165000  0.20683000  0.07769000  1.0
  H  H9  1  0.65835000  0.79317000  0.92231000  1.0
  H  H10  1  0.70579000  0.82421000  0.12984000  1.0
  H  H11  1  0.29420000  0.17579000  0.87017000  1.0
  H  H12  1  0.53153000  0.28412000  0.59908000  1.0
  H  H13  1  0.46846000  0.71588000  0.40092000  1.0
  C  C14  1  0.65878000  0.10603000  0.39210000  1.0
  C  C15  1  0.34122000  0.89397000  0.60790000  1.0
  C  C16  1  0.51909000  0.15870000  0.55676000  1.0
  C  C17  1  0.48091000  0.84130000  0.44324000  1.0
  C  C18  1  0.64027000  0.94846000  0.33244000  1.0
  C  C19  1  0.35973000  0.05154000  0.66756000  1.0
  S  S20  1  0.87038000  0.23346000  0.25343000  1.0
  S  S21  1  0.12962000  0.76654000  0.74657000  1.0
  O  O22  1  0.79546000  0.33125000  0.08827000  1.0
  O  O23  1  0.20454000  0.66876000  0.91172000  1.0
  O  O24  1  0.80442000  0.41494000  0.69607000  1.0
  O  O25  1  0.19559000  0.58506000  0.30393000  1.0
  O  O26  1  0.11331000  0.07196000  0.22089000  1.0
  O  O27  1  0.88669000  0.92804000  0.77911000  1.0
  O  O28  1  0.42778000  0.25957000  0.95855000  1.0
  O  O29  1  0.57222000  0.74043000  0.04145000  1.0
  O  O30  1  0.85735000  0.38636000  0.34736000  1.0
  O  O31  1  0.14265000  0.61365000  0.65264000  1.0
  O  O32  1  0.77692000  0.90644000  0.16825000  1.0
  O  O33  1  0.22308000  0.09357000  0.83175000  1.0
