# generated using pymatgen
data_Zr3H12C26S5N2O21
_symmetry_space_group_name_H-M   'P 1'
_cell_length_a   16.45030000
_cell_length_b   16.48320000
_cell_length_c   16.48203439
_cell_angle_alpha   88.47661070
_cell_angle_beta   60.22758415
_cell_angle_gamma   60.23570000
_symmetry_Int_Tables_number   1
_chemical_formula_structural   Zr3H12C26S5N2O21
_chemical_formula_sum   'Zr6 H24 C52 S10 N4 O42'
_cell_volume   3220.85624953
_cell_formula_units_Z   2
loop_
 _symmetry_equiv_pos_site_id
 _symmetry_equiv_pos_as_xyz
  1  'x, y, z'
loop_
 _atom_site_type_symbol
 _atom_site_label
 _atom_site_symmetry_multiplicity
 _atom_site_fract_x
 _atom_site_fract_y
 _atom_site_fract_z
 _atom_site_occupancy
  Zr  Zr0  1  0.50992000  0.09887000  0.59993000  1.0
  Zr  Zr1  1  0.49548000  0.89456000  0.39570000  1.0
  Zr  Zr2  1  0.29233000  0.10203000  0.60353000  1.0
  Zr  Zr3  1  0.71302000  0.89114000  0.39251000  1.0
  Zr  Zr4  1  0.50259000  0.10608000  0.38851000  1.0
  Zr  Zr5  1  0.50268000  0.88724000  0.60733000  1.0
  H  H6  1  0.34227000  0.24558000  0.57684000  1.0
  H  H7  1  0.66302000  0.91783000  0.24893000  1.0
  H  H8  1  0.33050000  0.91393000  0.58632000  1.0
  H  H9  1  0.67487000  0.90833000  0.58061000  1.0
  H  H10  1  0.30375000  0.35106000  0.82948000  1.0
  H  H11  1  0.70199000  0.66447000  0.14357000  1.0
  H  H12  1  0.51849000  0.54311000  0.67324000  1.0
  H  H13  1  0.51284000  0.43781000  0.30958000  1.0
  H  H14  1  0.49018000  0.18613000  0.05774000  1.0
  H  H15  1  0.48607000  0.82182000  0.95165000  1.0
  H  H16  1  0.89201000  0.18628000  0.93785000  1.0
  H  H17  1  0.11361000  0.82340000  0.07447000  1.0
  H  H18  1  0.89125000  0.42119000  0.67242000  1.0
  H  H19  1  0.11336000  0.55708000  0.30911000  1.0
  H  H20  1  0.24148000  0.82869000  0.31672000  1.0
  H  H21  1  0.76387000  0.17810000  0.66587000  1.0
  H  H22  1  0.84418000  0.50310000  0.92232000  1.0
  H  H23  1  0.72301000  0.57311000  0.02957000  1.0
  H  H24  1  0.05950000  0.27969000  0.83765000  1.0
  H  H25  1  0.92368000  0.36906000  0.94010000  1.0
  H  H26  1  0.16235000  0.57222000  0.99062000  1.0
  H  H27  1  0.28335000  0.46485000  0.92019000  1.0
  H  H28  1  0.94609000  0.65907000  0.21320000  1.0
  H  H29  1  0.08169000  0.55625000  0.12480000  1.0
  C  C30  1  0.51768000  0.26196000  0.48435000  1.0
  C  C31  1  0.48729000  0.01035000  0.23273000  1.0
  C  C32  1  0.50243000  0.72422000  0.50395000  1.0
  C  C33  1  0.50255000  0.99091000  0.77042000  1.0
  C  C34  1  0.24848000  0.25685000  0.76616000  1.0
  C  C35  1  0.77584000  0.00021000  0.49226000  1.0
  C  C36  1  0.75708000  0.72857000  0.23751000  1.0
  C  C37  1  0.22943000  0.00238000  0.49449000  1.0
  C  C38  1  0.23026000  0.26559000  0.49452000  1.0
  C  C39  1  0.23042000  0.00077000  0.77492000  1.0
  C  C40  1  0.77487000  0.71989000  0.49408000  1.0
  C  C41  1  0.77480000  0.00059000  0.22925000  1.0
  C  C42  1  0.51327000  0.57409000  0.56296000  1.0
  C  C43  1  0.51601000  0.40784000  0.42094000  1.0
  C  C44  1  0.50829000  0.63282000  0.50085000  1.0
  C  C45  1  0.51928000  0.34986000  0.48384000  1.0
  C  C46  1  0.51422000  0.48948000  0.44981000  1.0
  C  C47  1  0.51654000  0.49178000  0.53343000  1.0
  C  C48  1  0.48789000  0.07435000  0.08735000  1.0
  C  C49  1  0.49125000  0.93213000  0.92072000  1.0
  C  C50  1  0.48521000  0.01114000  0.14504000  1.0
  C  C51  1  0.49616000  0.99430000  0.86206000  1.0
  C  C52  1  0.48766000  0.96177000  0.00319000  1.0
  C  C53  1  0.48951000  0.04561000  0.00577000  1.0
  C  C54  1  0.02416000  0.07221000  0.91778000  1.0
  C  C55  1  0.98142000  0.93612000  0.09325000  1.0
  C  C56  1  0.14072000  0.00494000  0.86615000  1.0
  C  C57  1  0.86477000  0.00192000  0.14339000  1.0
  C  C58  1  0.03933000  0.96235000  0.01133000  1.0
  C  C59  1  0.96618000  0.04731000  0.00095000  1.0
  C  C60  1  0.02355000  0.40221000  0.55963000  1.0
  C  C61  1  0.98108000  0.57736000  0.42320000  1.0
  C  C62  1  0.14022000  0.35185000  0.49366000  1.0
  C  C63  1  0.86451000  0.62897000  0.49034000  1.0
  C  C64  1  0.03893000  0.49437000  0.44833000  1.0
  C  C65  1  0.96569000  0.48415000  0.53340000  1.0
  C  C66  1  0.05044000  0.38687000  0.90786000  1.0
  C  C67  1  0.21306000  0.38462000  0.87696000  1.0
  C  C68  1  0.14756000  0.46367000  0.95713000  1.0
  C  C69  1  0.02752000  0.50947000  0.01713000  1.0
  C  C70  1  0.95540000  0.58774000  0.10675000  1.0
  C  C71  1  0.79271000  0.61731000  0.10994000  1.0
  C  C72  1  0.85842000  0.53690000  0.03110000  1.0
  C  C73  1  0.97841000  0.47705000  0.98542000  1.0
  C  C74  1  0.16835000  0.34302000  0.85213000  1.0
  C  C75  1  0.83739000  0.64276000  0.15115000  1.0
  C  C76  1  0.15413000  0.94019000  0.42483000  1.0
  C  C77  1  0.85110000  0.06987000  0.55453000  1.0
  C  C78  1  0.14219000  0.00416000  0.48992000  1.0
  C  C79  1  0.86303000  0.00479000  0.49054000  1.0
  C  C80  1  0.95757000  0.04665000  0.52978000  1.0
  C  C81  1  0.04768000  0.96493000  0.44799000  1.0
  S  S82  1  0.50829000  0.58723000  0.40632000  1.0
  S  S83  1  0.52114000  0.39455000  0.57754000  1.0
  S  S84  1  0.48357000  0.91736000  0.10016000  1.0
  S  S85  1  0.49558000  0.08908000  0.90797000  1.0
  S  S86  1  0.17915000  0.91216000  0.92012000  1.0
  S  S87  1  0.82628000  0.09619000  0.09098000  1.0
  S  S88  1  0.17880000  0.40420000  0.39937000  1.0
  S  S89  1  0.82589000  0.57529000  0.58337000  1.0
  S  S90  1  0.00143000  0.09467000  0.57863000  1.0
  S  S91  1  0.00379000  0.91607000  0.40002000  1.0
  N  N92  1  0.80495000  0.51603000  0.99619000  1.0
  N  N93  1  0.00509000  0.34514000  0.89001000  1.0
  N  N94  1  0.20148000  0.49835000  0.97750000  1.0
  N  N95  1  0.00092000  0.60705000  0.14743000  1.0
  O  O96  1  0.51916000  0.22558000  0.55366000  1.0
  O  O97  1  0.48621000  0.94084000  0.26891000  1.0
  O  O98  1  0.49750000  0.76223000  0.43637000  1.0
  O  O99  1  0.50760000  0.05840000  0.73234000  1.0
  O  O100  1  0.21166000  0.22197000  0.73383000  1.0
  O  O101  1  0.80879000  0.93139000  0.42603000  1.0
  O  O102  1  0.79376000  0.76107000  0.27242000  1.0
  O  O103  1  0.19652000  0.06862000  0.56327000  1.0
  O  O104  1  0.33185000  0.23404000  0.42519000  1.0
  O  O105  1  0.33190000  0.93001000  0.74176000  1.0
  O  O106  1  0.67333000  0.75298000  0.56473000  1.0
  O  O107  1  0.67317000  0.06961000  0.26058000  1.0
  O  O108  1  0.19918000  0.06759000  0.73527000  1.0
  O  O109  1  0.80613000  0.75935000  0.42707000  1.0
  O  O110  1  0.80565000  0.92966000  0.26475000  1.0
  O  O111  1  0.19948000  0.22993000  0.56536000  1.0
  O  O112  1  0.35386000  0.22134000  0.72516000  1.0
  O  O113  1  0.33131000  0.93345000  0.42998000  1.0
  O  O114  1  0.65170000  0.76923000  0.27324000  1.0
  O  O115  1  0.67395000  0.06474000  0.56115000  1.0
  O  O116  1  0.50379000  0.92155000  0.73561000  1.0
  O  O117  1  0.51280000  0.22996000  0.41812000  1.0
  O  O118  1  0.49218000  0.07657000  0.26474000  1.0
  O  O119  1  0.50147000  0.75895000  0.57314000  1.0
  O  O120  1  0.62588000  0.93286000  0.55718000  1.0
  O  O121  1  0.37950000  0.93735000  0.56175000  1.0
  O  O122  1  0.61695000  0.94154000  0.31968000  1.0
  O  O123  1  0.38834000  0.17486000  0.55306000  1.0
  O  O124  1  0.41224000  0.04366000  0.45409000  1.0
  O  O125  1  0.59318000  0.04052000  0.45078000  1.0
  O  O126  1  0.58643000  0.86553000  0.45787000  1.0
  O  O127  1  0.41899000  0.03666000  0.62901000  1.0
  O  O128  1  0.51418000  0.59458000  0.64169000  1.0
  O  O129  1  0.51409000  0.38783000  0.34278000  1.0
  O  O130  1  0.48941000  0.15272000  0.10752000  1.0
  O  O131  1  0.49070000  0.85323000  0.90005000  1.0
  O  O132  1  0.97328000  0.15121000  0.89082000  1.0
  O  O133  1  0.03226000  0.85667000  0.11962000  1.0
  O  O134  1  0.97258000  0.37602000  0.63921000  1.0
  O  O135  1  0.03210000  0.60405000  0.34402000  1.0
  O  O136  1  0.25527000  0.86365000  0.34978000  1.0
  O  O137  1  0.74999000  0.14506000  0.63100000  1.0
