# generated using pymatgen
data_CuH22C17N2O5
_symmetry_space_group_name_H-M   'P 1'
_cell_length_a   6.31094000
_cell_length_b   10.78010000
_cell_length_c   13.78790000
_cell_angle_alpha   100.13500000
_cell_angle_beta   89.99910000
_cell_angle_gamma   89.99910000
_symmetry_Int_Tables_number   1
_chemical_formula_structural   CuH22C17N2O5
_chemical_formula_sum   'Cu2 H44 C34 N4 O10'
_cell_volume   923.38911109
_cell_formula_units_Z   2
loop_
 _symmetry_equiv_pos_site_id
 _symmetry_equiv_pos_as_xyz
  1  'x, y, z'
loop_
 _atom_site_type_symbol
 _atom_site_label
 _atom_site_symmetry_multiplicity
 _atom_site_fract_x
 _atom_site_fract_y
 _atom_site_fract_z
 _atom_site_occupancy
  Cu  Cu0  1  0.14933000  0.93358000  0.88769000  1.0
  Cu  Cu1  1  0.64932000  0.06641000  0.11231000  1.0
  H  H2  1  0.44536000  0.67475000  0.74911000  1.0
  H  H3  1  0.94535000  0.32526000  0.25090000  1.0
  H  H4  1  0.47309000  0.80313000  0.68496000  1.0
  H  H5  1  0.97309000  0.19688000  0.31505000  1.0
  H  H6  1  0.63077000  0.79700000  0.79112000  1.0
  H  H7  1  0.13077000  0.20301000  0.20889000  1.0
  H  H8  1  0.31834000  0.10669000  0.67980000  1.0
  H  H9  1  0.81834000  0.89330000  0.32019000  1.0
  H  H10  1  0.28093000  0.98767000  0.52489000  1.0
  H  H11  1  0.78093000  0.01233000  0.47511000  1.0
  H  H12  1  0.49139000  0.52597000  0.60310000  1.0
  H  H13  1  0.99138000  0.47405000  0.39691000  1.0
  H  H14  1  0.71166000  0.51989000  0.52331000  1.0
  H  H15  1  0.21165000  0.48012000  0.47669000  1.0
  H  H16  1  0.52099000  0.64332000  0.52807000  1.0
  H  H17  1  0.02098000  0.35670000  0.47194000  1.0
  H  H18  1  0.85939000  0.67223000  0.46783000  1.0
  H  H19  1  0.35938000  0.32777000  0.53218000  1.0
  H  H20  1  0.92745000  0.62550000  0.77963000  1.0
  H  H21  1  0.42745000  0.37449000  0.22036000  1.0
  H  H22  1  0.96390000  0.51803000  0.66693000  1.0
  H  H23  1  0.46389000  0.48197000  0.33307000  1.0
  H  H24  1  0.73299000  0.50752000  0.73863000  1.0
  H  H25  1  0.23299000  0.49248000  0.26138000  1.0
  H  H26  1  0.49080000  0.19120000  0.82815000  1.0
  H  H27  1  0.99079000  0.80879000  0.17185000  1.0
  H  H28  1  0.01063000  0.40222000  0.82411000  1.0
  H  H29  1  0.51063000  0.59777000  0.17589000  1.0
  H  H30  1  0.98797000  0.24095000  0.77175000  1.0
  H  H31  1  0.48796000  0.75904000  0.22825000  1.0
  H  H32  1  0.21731000  0.32831000  0.74784000  1.0
  H  H33  1  0.71731000  0.67168000  0.25216000  1.0
  H  H34  1  0.25012000  0.48139000  0.95777000  1.0
  H  H35  1  0.75012000  0.51861000  0.04223000  1.0
  H  H36  1  0.47138000  0.41408000  0.88758000  1.0
  H  H37  1  0.97138000  0.58592000  0.11241000  1.0
  H  H38  1  0.42840000  0.38174000  0.00841000  1.0
  H  H39  1  0.92840000  0.61825000  0.99158000  1.0
  H  H40  1  0.10689000  0.24917000  0.04208000  1.0
  H  H41  1  0.60689000  0.75084000  0.95792000  1.0
  H  H42  1  0.94008000  0.18018000  0.94336000  1.0
  H  H43  1  0.44007000  0.81982000  0.05665000  1.0
  H  H44  1  0.93209000  0.34426000  0.98602000  1.0
  H  H45  1  0.43208000  0.65575000  0.01398000  1.0
  C  C46  1  0.56000000  0.74027000  0.72546000  1.0
  C  C47  1  0.05999000  0.25974000  0.27455000  1.0
  C  C48  1  0.13765000  0.93424000  0.65444000  1.0
  C  C49  1  0.63766000  0.06576000  0.34556000  1.0
  C  C50  1  0.88781000  0.75218000  0.62151000  1.0
  C  C51  1  0.38781000  0.24782000  0.37850000  1.0
  C  C52  1  0.00314000  0.84404000  0.69134000  1.0
  C  C53  1  0.50315000  0.15596000  0.30867000  1.0
  C  C54  1  0.08263000  0.82424000  0.48895000  1.0
  C  C55  1  0.58263000  0.17576000  0.51105000  1.0
  C  C56  1  0.23877000  0.03824000  0.71729000  1.0
  C  C57  1  0.73877000  0.96175000  0.28271000  1.0
  C  C58  1  0.17609000  0.92229000  0.55344000  1.0
  C  C59  1  0.67609000  0.07770000  0.44656000  1.0
  C  C60  1  0.60743000  0.58432000  0.57237000  1.0
  C  C61  1  0.10742000  0.41569000  0.42764000  1.0
  C  C62  1  0.72773000  0.66411000  0.65817000  1.0
  C  C63  1  0.22772000  0.33590000  0.34183000  1.0
  C  C64  1  0.93501000  0.74302000  0.52275000  1.0
  C  C65  1  0.43500000  0.25698000  0.47725000  1.0
  C  C66  1  0.84601000  0.57368000  0.71476000  1.0
  C  C67  1  0.34600000  0.42632000  0.28524000  1.0
  C  C68  1  0.35389000  0.16470000  0.86982000  1.0
  C  C69  1  0.85388000  0.83530000  0.13017000  1.0
  C  C70  1  0.20823000  0.28462000  0.89712000  1.0
  C  C71  1  0.70823000  0.71537000  0.10288000  1.0
  C  C72  1  0.10064000  0.31426000  0.80411000  1.0
  C  C73  1  0.60064000  0.68574000  0.19588000  1.0
  C  C74  1  0.34935000  0.39665000  0.94056000  1.0
  C  C75  1  0.84934000  0.60334000  0.05943000  1.0
  C  C76  1  0.03822000  0.26257000  0.97137000  1.0
  C  C77  1  0.53821000  0.73743000  0.02863000  1.0
  C  C78  1  0.43225000  0.11983000  0.96256000  1.0
  C  C79  1  0.93224000  0.88017000  0.03744000  1.0
  N  N80  1  0.24338000  0.05673000  0.81248000  1.0
  N  N81  1  0.74337000  0.94326000  0.18752000  1.0
  N  N82  1  0.13451000  0.80684000  0.38599000  1.0
  N  N83  1  0.63451000  0.19317000  0.61400000  1.0
  O  O84  1  0.35412000  0.01772000  0.98385000  1.0
  O  O85  1  0.85411000  0.98227000  0.01614000  1.0
  O  O86  1  0.57025000  0.18139000  0.01764000  1.0
  O  O87  1  0.07026000  0.81860000  0.98237000  1.0
  O  O88  1  0.98160000  0.84193000  0.78422000  1.0
  O  O89  1  0.48159000  0.15807000  0.21578000  1.0
  O  O90  1  0.24982000  0.88665000  0.35579000  1.0
  O  O91  1  0.74982000  0.11336000  0.64421000  1.0
  O  O92  1  0.05912000  0.71301000  0.32963000  1.0
  O  O93  1  0.55912000  0.28700000  0.67036000  1.0
