# generated using pymatgen
data_ZnH6C7N4O5
_symmetry_space_group_name_H-M   'P 1'
_cell_length_a   7.03280000
_cell_length_b   8.28602000
_cell_length_c   15.99630000
_cell_angle_alpha   90.00000000
_cell_angle_beta   89.99990000
_cell_angle_gamma   105.78200000
_symmetry_Int_Tables_number   1
_chemical_formula_structural   ZnH6C7N4O5
_chemical_formula_sum   'Zn4 H24 C28 N16 O20'
_cell_volume   897.02767797
_cell_formula_units_Z   4
loop_
 _symmetry_equiv_pos_site_id
 _symmetry_equiv_pos_as_xyz
  1  'x, y, z'
loop_
 _atom_site_type_symbol
 _atom_site_label
 _atom_site_symmetry_multiplicity
 _atom_site_fract_x
 _atom_site_fract_y
 _atom_site_fract_z
 _atom_site_occupancy
  Zn  Zn0  1  0.32928000  0.20174000  0.91915000  1.0
  Zn  Zn1  1  0.17072000  0.79825000  0.41915000  1.0
  Zn  Zn2  1  0.67072000  0.79825000  0.08085000  1.0
  Zn  Zn3  1  0.82928000  0.20175000  0.58085000  1.0
  H  H4  1  0.35587000  0.91448000  0.84989000  1.0
  H  H5  1  0.14413000  0.08552000  0.34989000  1.0
  H  H6  1  0.64413000  0.08552000  0.15011000  1.0
  H  H7  1  0.85587000  0.91448000  0.65011000  1.0
  H  H8  1  0.55296000  0.97860000  0.90884000  1.0
  H  H9  1  0.94704000  0.02141000  0.40884000  1.0
  H  H10  1  0.44704000  0.02141000  0.09116000  1.0
  H  H11  1  0.05296000  0.97859000  0.59116000  1.0
  H  H12  1  0.77585000  0.84306000  0.81608000  1.0
  H  H13  1  0.72415000  0.15694000  0.31608000  1.0
  H  H14  1  0.22415000  0.15694000  0.18392000  1.0
  H  H15  1  0.27585000  0.84306000  0.68392000  1.0
  H  H16  1  0.58731000  0.65026000  0.58006000  1.0
  H  H17  1  0.91269000  0.34974000  0.08007000  1.0
  H  H18  1  0.41269000  0.34974000  0.41993000  1.0
  H  H19  1  0.08731000  0.65027000  0.91993000  1.0
  H  H20  1  0.27835000  0.31965000  0.60239000  1.0
  H  H21  1  0.22165000  0.68035000  0.10239000  1.0
  H  H22  1  0.72165000  0.68036000  0.39761000  1.0
  H  H23  1  0.77835000  0.31965000  0.89761000  1.0
  H  H24  1  0.17645000  0.12497000  0.72695000  1.0
  H  H25  1  0.32355000  0.87502000  0.22695000  1.0
  H  H26  1  0.82355000  0.87503000  0.27305000  1.0
  H  H27  1  0.67645000  0.12498000  0.77305000  1.0
  C  C28  1  0.39833000  0.52030000  0.00082000  1.0
  C  C29  1  0.10166000  0.47970000  0.50082000  1.0
  C  C30  1  0.60166000  0.47969000  0.99918000  1.0
  C  C31  1  0.89834000  0.52031000  0.49918000  1.0
  C  C32  1  0.06163000  0.99670000  0.04018000  1.0
  C  C33  1  0.43835000  0.00330000  0.54018000  1.0
  C  C34  1  0.93836000  0.00330000  0.95982000  1.0
  C  C35  1  0.56163000  0.99670000  0.45982000  1.0
  C  C36  1  0.68590000  0.73792000  0.78009000  1.0
  C  C37  1  0.81410000  0.26208000  0.28009000  1.0
  C  C38  1  0.31410000  0.26208000  0.21991000  1.0
  C  C39  1  0.18590000  0.73793000  0.71991000  1.0
  C  C40  1  0.47917000  0.47913000  0.77552000  1.0
  C  C41  1  0.02083000  0.52087000  0.27552000  1.0
  C  C42  1  0.52083000  0.52087000  0.22448000  1.0
  C  C43  1  0.97918000  0.47913000  0.72448000  1.0
  C  C44  1  0.46957000  0.49007000  0.68713000  1.0
  C  C45  1  0.03043000  0.50993000  0.18713000  1.0
  C  C46  1  0.53044000  0.50994000  0.31287000  1.0
  C  C47  1  0.96957000  0.49006000  0.81287000  1.0
  C  C48  1  0.58154000  0.63374000  0.64773000  1.0
  C  C49  1  0.91846000  0.36626000  0.14773000  1.0
  C  C50  1  0.41846000  0.36626000  0.35227000  1.0
  C  C51  1  0.08155000  0.63374000  0.85227000  1.0
  C  C52  1  0.28264000  0.24742000  0.73044000  1.0
  C  C53  1  0.21736000  0.75258000  0.23044000  1.0
  C  C54  1  0.71736000  0.75258000  0.26956000  1.0
  C  C55  1  0.78264000  0.24742000  0.76956000  1.0
  N  N56  1  0.69061000  0.75705000  0.69603000  1.0
  N  N57  1  0.80939000  0.24295000  0.19603000  1.0
  N  N58  1  0.30939000  0.24295000  0.30397000  1.0
  N  N59  1  0.19061000  0.75705000  0.80397000  1.0
  N  N60  1  0.58551000  0.60361000  0.82330000  1.0
  N  N61  1  0.91449000  0.39640000  0.32330000  1.0
  N  N62  1  0.41449000  0.39639000  0.17670000  1.0
  N  N63  1  0.08551000  0.60361000  0.67670000  1.0
  N  N64  1  0.34275000  0.34156000  0.66134000  1.0
  N  N65  1  0.15725000  0.65844000  0.16134000  1.0
  N  N66  1  0.65725000  0.65844000  0.33866000  1.0
  N  N67  1  0.84276000  0.34156000  0.83866000  1.0
  N  N68  1  0.36230000  0.32391000  0.80079000  1.0
  N  N69  1  0.13770000  0.67610000  0.30079000  1.0
  N  N70  1  0.63770000  0.67610000  0.19921000  1.0
  N  N71  1  0.86231000  0.32391000  0.69921000  1.0
  O  O72  1  0.24882000  0.41088000  0.97483000  1.0
  O  O73  1  0.25117000  0.58911000  0.47482000  1.0
  O  O74  1  0.75117000  0.58911000  0.02517000  1.0
  O  O75  1  0.74882000  0.41088000  0.52517000  1.0
  O  O76  1  0.39740000  0.66513000  0.02834000  1.0
  O  O77  1  0.10260000  0.33486000  0.52834000  1.0
  O  O78  1  0.60260000  0.33485000  0.97166000  1.0
  O  O79  1  0.89740000  0.66513000  0.47167000  1.0
  O  O80  1  0.24690000  0.06169000  0.03489000  1.0
  O  O81  1  0.25311000  0.93832000  0.53489000  1.0
  O  O82  1  0.75311000  0.93831000  0.96511000  1.0
  O  O83  1  0.74690000  0.06169000  0.46511000  1.0
  O  O84  1  0.96987000  0.92854000  0.10458000  1.0
  O  O85  1  0.53013000  0.07147000  0.60459000  1.0
  O  O86  1  0.03013000  0.07146000  0.89541000  1.0
  O  O87  1  0.46987000  0.92855000  0.39541000  1.0
  O  O88  1  0.45704000  0.01659000  0.87372000  1.0
  O  O89  1  0.04296000  0.98341000  0.37372000  1.0
  O  O90  1  0.54296000  0.98341000  0.12628000  1.0
  O  O91  1  0.95704000  0.01659000  0.62628000  1.0
