# generated using pymatgen
data_AlH10C19O9
_symmetry_space_group_name_H-M   'P 1'
_cell_length_a   6.70929000
_cell_length_b   23.49730000
_cell_length_c   25.98070000
_cell_angle_alpha   101.66580000
_cell_angle_beta   89.99880000
_cell_angle_gamma   89.94990000
_symmetry_Int_Tables_number   1
_chemical_formula_structural   AlH10C19O9
_chemical_formula_sum   'Al4 H40 C76 O36'
_cell_volume   4011.25548801
_cell_formula_units_Z   4
loop_
 _symmetry_equiv_pos_site_id
 _symmetry_equiv_pos_as_xyz
  1  'x, y, z'
loop_
 _atom_site_type_symbol
 _atom_site_label
 _atom_site_symmetry_multiplicity
 _atom_site_fract_x
 _atom_site_fract_y
 _atom_site_fract_z
 _atom_site_occupancy
  Al  Al0  1  0.27572000  0.75107000  0.24996000  1.0
  Al  Al1  1  0.68301000  0.25174000  0.74930000  1.0
  Al  Al2  1  0.77575000  0.74903000  0.24993000  1.0
  Al  Al3  1  0.18307000  0.24839000  0.75063000  1.0
  H  H4  1  0.68761000  0.31636000  0.60113000  1.0
  H  H5  1  0.31165000  0.68700000  0.39146000  1.0
  H  H6  1  0.18775000  0.18385000  0.89876000  1.0
  H  H7  1  0.81141000  0.81304000  0.10852000  1.0
  H  H8  1  0.27056000  0.44701000  0.60876000  1.0
  H  H9  1  0.75747000  0.54687000  0.39008000  1.0
  H  H10  1  0.77092000  0.05296000  0.89110000  1.0
  H  H11  1  0.25689000  0.95333000  0.10978000  1.0
  H  H12  1  0.09249000  0.53643000  0.59317000  1.0
  H  H13  1  0.94884000  0.46236000  0.40379000  1.0
  H  H14  1  0.59256000  0.96358000  0.90672000  1.0
  H  H15  1  0.44860000  0.03783000  0.09611000  1.0
  H  H16  1  0.11328000  0.60275000  0.53067000  1.0
  H  H17  1  0.93039000  0.39592000  0.46612000  1.0
  H  H18  1  0.61290000  0.89727000  0.96924000  1.0
  H  H19  1  0.43065000  0.10426000  0.03372000  1.0
  H  H20  1  0.14800000  0.40611000  0.01479000  1.0
  H  H21  1  0.82625000  0.58626000  0.99018000  1.0
  H  H22  1  0.64085000  0.09393000  0.48474000  1.0
  H  H23  1  0.33142000  0.91283000  0.51090000  1.0
  H  H24  1  0.82964000  0.46366000  0.07669000  1.0
  H  H25  1  0.14458000  0.52843000  0.92818000  1.0
  H  H26  1  0.32208000  0.03512000  0.42407000  1.0
  H  H27  1  0.65007000  0.97192000  0.57167000  1.0
  H  H28  1  0.34155000  0.51530000  0.02203000  1.0
  H  H29  1  0.63267000  0.47711000  0.98288000  1.0
  H  H30  1  0.84043000  0.98555000  0.47697000  1.0
  H  H31  1  0.13192000  0.02116000  0.51872000  1.0
  H  H32  1  0.45768000  0.43566000  0.51288000  1.0
  H  H33  1  0.59824000  0.65629000  0.48885000  1.0
  H  H34  1  0.95785000  0.06464000  0.98696000  1.0
  H  H35  1  0.09833000  0.84369000  0.01120000  1.0
  H  H36  1  0.54401000  0.33594000  0.68018000  1.0
  H  H37  1  0.69046000  0.58931000  0.23917000  1.0
  H  H38  1  0.04393000  0.16432000  0.81983000  1.0
  H  H39  1  0.18925000  0.91087000  0.26066000  1.0
  H  H40  1  0.51638000  0.68868000  0.27726000  1.0
  H  H41  1  0.42300000  0.32647000  0.76979000  1.0
  H  H42  1  0.01603000  0.81140000  0.22260000  1.0
  H  H43  1  0.92359000  0.17371000  0.73005000  1.0
  C  C44  1  0.52725000  0.83516000  0.32023000  1.0
  C  C45  1  0.43598000  0.17181000  0.67453000  1.0
  C  C46  1  0.02800000  0.66481000  0.17977000  1.0
  C  C47  1  0.93523000  0.32825000  0.82546000  1.0
  C  C48  1  0.53030000  0.80296000  0.17994000  1.0
  C  C49  1  0.43850000  0.19077000  0.81723000  1.0
  C  C50  1  0.03060000  0.69714000  0.31996000  1.0
  C  C51  1  0.93842000  0.30935000  0.68267000  1.0
  C  C52  1  0.81284000  0.34613000  0.60427000  1.0
  C  C53  1  0.18946000  0.65673000  0.39192000  1.0
  C  C54  1  0.31305000  0.15403000  0.89562000  1.0
  C  C55  1  0.68913000  0.84334000  0.10801000  1.0
  C  C56  1  0.82248000  0.38462000  0.56989000  1.0
  C  C57  1  0.19659000  0.61701000  0.42530000  1.0
  C  C58  1  0.32267000  0.11549000  0.92995000  1.0
  C  C59  1  0.69630000  0.88307000  0.07464000  1.0
  C  C60  1  0.98690000  0.42249000  0.57176000  1.0
  C  C61  1  0.03851000  0.57725000  0.42561000  1.0
  C  C62  1  0.48714000  0.07756000  0.92808000  1.0
  C  C63  1  0.53812000  0.92287000  0.07430000  1.0
  C  C64  1  0.13799000  0.42015000  0.60875000  1.0
  C  C65  1  0.88140000  0.57681000  0.38982000  1.0
  C  C66  1  0.63835000  0.07987000  0.89113000  1.0
  C  C67  1  0.38088000  0.92335000  0.11007000  1.0
  C  C68  1  0.12553000  0.38277000  0.64398000  1.0
  C  C69  1  0.88052000  0.61434000  0.35454000  1.0
  C  C70  1  0.62595000  0.11730000  0.85595000  1.0
  C  C71  1  0.38002000  0.88583000  0.14535000  1.0
  C  C72  1  0.95822000  0.34635000  0.64270000  1.0
  C  C73  1  0.03298000  0.65574000  0.35642000  1.0
  C  C74  1  0.45859000  0.15379000  0.85722000  1.0
  C  C75  1  0.53252000  0.84437000  0.14347000  1.0
  C  C76  1  0.06372000  0.51996000  0.55149000  1.0
  C  C77  1  0.97896000  0.47884000  0.44538000  1.0
  C  C78  1  0.56366000  0.98007000  0.94840000  1.0
  C  C79  1  0.47874000  0.02132000  0.05451000  1.0
  C  C80  1  0.07471000  0.55720000  0.51629000  1.0
  C  C81  1  0.96854000  0.44149000  0.48050000  1.0
  C  C82  1  0.57441000  0.94285000  0.98363000  1.0
  C  C83  1  0.46853000  0.05865000  0.01937000  1.0
  C  C84  1  0.03196000  0.53733000  0.46275000  1.0
  C  C85  1  0.00770000  0.46163000  0.53423000  1.0
  C  C86  1  0.53160000  0.96278000  0.03716000  1.0
  C  C87  1  0.50775000  0.03844000  0.96565000  1.0
  C  C88  1  0.89905000  0.47752000  0.04319000  1.0
  C  C89  1  0.07516000  0.51484000  0.96181000  1.0
  C  C90  1  0.39437000  0.02161000  0.45736000  1.0
  C  C91  1  0.57792000  0.98517000  0.53822000  1.0
  C  C92  1  0.07720000  0.44663000  0.01000000  1.0
  C  C93  1  0.89707000  0.54575000  0.99504000  1.0
  C  C94  1  0.57271000  0.05319000  0.48985000  1.0
  C  C95  1  0.39960000  0.95354000  0.50568000  1.0
  C  C96  1  0.93837000  0.37317000  0.87192000  1.0
  C  C97  1  0.02817000  0.61910000  0.13355000  1.0
  C  C98  1  0.43898000  0.12670000  0.62821000  1.0
  C  C99  1  0.52713000  0.88066000  0.36659000  1.0
  C  C100  1  0.78985000  0.48615000  0.99218000  1.0
  C  C101  1  0.18425000  0.50627000  0.01285000  1.0
  C  C102  1  0.28900000  0.01271000  0.50881000  1.0
  C  C103  1  0.68321000  0.99399000  0.48675000  1.0
  C  C104  1  0.96656000  0.45413000  0.95780000  1.0
  C  C105  1  0.00727000  0.53825000  0.04731000  1.0
  C  C106  1  0.46590000  0.04546000  0.54249000  1.0
  C  C107  1  0.50605000  0.96130000  0.45297000  1.0
  C  C108  1  0.94995000  0.41077000  0.91168000  1.0
  C  C109  1  0.02143000  0.58160000  0.09361000  1.0
  C  C110  1  0.44978000  0.08895000  0.58854000  1.0
  C  C111  1  0.52028000  0.91800000  0.40664000  1.0
  C  C112  1  0.64662000  0.38467000  0.53439000  1.0
  C  C113  1  0.38630000  0.61187000  0.45392000  1.0
  C  C114  1  0.14676000  0.11551000  0.96545000  1.0
  C  C115  1  0.88607000  0.88815000  0.04605000  1.0
  C  C116  1  0.29538000  0.37969000  0.68139000  1.0
  C  C117  1  0.72072000  0.60871000  0.31349000  1.0
  C  C118  1  0.79594000  0.12038000  0.81860000  1.0
  C  C119  1  0.22012000  0.89148000  0.18638000  1.0
  O  O120  1  0.69701000  0.78514000  0.19342000  1.0
  O  O121  1  0.26246000  0.20190000  0.80234000  1.0
  O  O122  1  0.19722000  0.71494000  0.30646000  1.0
  O  O123  1  0.76253000  0.29840000  0.69774000  1.0
  O  O124  1  0.35598000  0.81830000  0.30182000  1.0
  O  O125  1  0.60475000  0.19248000  0.69147000  1.0
  O  O126  1  0.85665000  0.68173000  0.19816000  1.0
  O  O127  1  0.10406000  0.30778000  0.80826000  1.0
  O  O128  1  0.35999000  0.78915000  0.19527000  1.0
  O  O129  1  0.59922000  0.20704000  0.79935000  1.0
  O  O130  1  0.86024000  0.71098000  0.30464000  1.0
  O  O131  1  0.09932000  0.29286000  0.70034000  1.0
  O  O132  1  0.19705000  0.68372000  0.19792000  1.0
  O  O133  1  0.76578000  0.31266000  0.80512000  1.0
  O  O134  1  0.69640000  0.81634000  0.30199000  1.0
  O  O135  1  0.26664000  0.18734000  0.69503000  1.0
  O  O136  1  0.52453000  0.71595000  0.25354000  1.0
  O  O137  1  0.43059000  0.28566000  0.75258000  1.0
  O  O138  1  0.02430000  0.78416000  0.24633000  1.0
  O  O139  1  0.93078000  0.21449000  0.74734000  1.0
  O  O140  1  0.57323000  0.34115000  0.50743000  1.0
  O  O141  1  0.56996000  0.43900000  0.53756000  1.0
  O  O142  1  0.46670000  0.56606000  0.45727000  1.0
  O  O143  1  0.46886000  0.66463000  0.47443000  1.0
  O  O144  1  0.07319000  0.15907000  0.99237000  1.0
  O  O145  1  0.07026000  0.06121000  0.96232000  1.0
  O  O146  1  0.96629000  0.93394000  0.04267000  1.0
  O  O147  1  0.96894000  0.83537000  0.02560000  1.0
  O  O148  1  0.30401000  0.40639000  0.72692000  1.0
  O  O149  1  0.43684000  0.34460000  0.65622000  1.0
  O  O150  1  0.54481000  0.62067000  0.32210000  1.0
  O  O151  1  0.79517000  0.58691000  0.26509000  1.0
  O  O152  1  0.80528000  0.09353000  0.77313000  1.0
  O  O153  1  0.93668000  0.15568000  0.84375000  1.0
  O  O154  1  0.04431000  0.87955000  0.17773000  1.0
  O  O155  1  0.29427000  0.91322000  0.23481000  1.0
