# generated using pymatgen
data_Ba2NiH14(C3O8)2
_symmetry_space_group_name_H-M   'P 1'
_cell_length_a   6.89161000
_cell_length_b   7.17652000
_cell_length_c   8.85234000
_cell_angle_alpha   82.15470000
_cell_angle_beta   71.17690000
_cell_angle_gamma   80.24440000
_symmetry_Int_Tables_number   1
_chemical_formula_structural   Ba2NiH14(C3O8)2
_chemical_formula_sum   'Ba2 Ni1 H14 C6 O16'
_cell_volume   406.83547861
_cell_formula_units_Z   1
loop_
 _symmetry_equiv_pos_site_id
 _symmetry_equiv_pos_as_xyz
  1  'x, y, z'
loop_
 _atom_site_type_symbol
 _atom_site_label
 _atom_site_symmetry_multiplicity
 _atom_site_fract_x
 _atom_site_fract_y
 _atom_site_fract_z
 _atom_site_occupancy
  Ba  Ba0  1  0.09406000  0.73398000  0.35498000  1.0
  Ba  Ba1  1  0.90594000  0.26603000  0.64502000  1.0
  Ni  Ni2  1  0.00000000  0.00000000  0.00000000  1.0
  H  H3  1  0.59548000  0.89094000  0.06566000  1.0
  H  H4  1  0.40452000  0.10907000  0.93434000  1.0
  H  H5  1  0.01386000  0.36901000  0.09184000  1.0
  H  H6  1  0.98614000  0.63099000  0.90816000  1.0
  H  H7  1  0.47456000  0.38051000  0.11105000  1.0
  H  H8  1  0.52544000  0.61949000  0.88895000  1.0
  H  H9  1  0.34785000  0.05319000  0.42224000  1.0
  H  H10  1  0.65215000  0.94681000  0.57776000  1.0
  H  H11  1  0.30109000  0.92785000  0.58987000  1.0
  H  H12  1  0.69891000  0.07215000  0.41013000  1.0
  H  H13  1  0.39020000  0.34741000  0.42046000  1.0
  H  H14  1  0.60980000  0.65260000  0.57954000  1.0
  H  H15  1  0.35529000  0.40244000  0.59470000  1.0
  H  H16  1  0.64471000  0.59756000  0.40530000  1.0
  C  C17  1  0.65177000  0.79775000  0.15770000  1.0
  C  C18  1  0.34823000  0.20225000  0.84230000  1.0
  C  C19  1  0.05116000  0.27527000  0.19195000  1.0
  C  C20  1  0.94884000  0.72474000  0.80805000  1.0
  C  C21  1  0.59319000  0.26468000  0.13427000  1.0
  C  C22  1  0.40681000  0.73532000  0.86573000  1.0
  O  O23  1  0.83354000  0.81206000  0.15964000  1.0
  O  O24  1  0.16646000  0.18794000  0.84036000  1.0
  O  O25  1  0.53591000  0.68546000  0.25129000  1.0
  O  O26  1  0.46409000  0.31453000  0.74870000  1.0
  O  O27  1  0.07295000  0.35015000  0.30464000  1.0
  O  O28  1  0.92705000  0.64985000  0.69537000  1.0
  O  O29  1  0.07023000  0.09600000  0.18215000  1.0
  O  O30  1  0.92977000  0.90400000  0.81785000  1.0
  O  O31  1  0.74290000  0.21708000  0.01204000  1.0
  O  O32  1  0.25710000  0.78292000  0.98796000  1.0
  O  O33  1  0.56427000  0.19500000  0.27857000  1.0
  O  O34  1  0.43573000  0.80499000  0.72143000  1.0
  O  O35  1  0.24274000  0.98418000  0.50225000  1.0
  O  O36  1  0.75726000  0.01582000  0.49775000  1.0
  O  O37  1  0.29041000  0.42043000  0.50723000  1.0
  O  O38  1  0.70959000  0.57957000  0.49277000  1.0
