# generated using pymatgen
data_Zn4H43C64N16F
_symmetry_space_group_name_H-M   'P 1'
_cell_length_a   13.27240000
_cell_length_b   13.34890000
_cell_length_c   14.82080000
_cell_angle_alpha   108.32600000
_cell_angle_beta   111.08500000
_cell_angle_gamma   102.46300000
_symmetry_Int_Tables_number   1
_chemical_formula_structural   Zn4H43C64N16F
_chemical_formula_sum   'Zn4 H43 C64 N16 F1'
_cell_volume   2159.44814922
_cell_formula_units_Z   1
loop_
 _symmetry_equiv_pos_site_id
 _symmetry_equiv_pos_as_xyz
  1  'x, y, z'
loop_
 _atom_site_type_symbol
 _atom_site_label
 _atom_site_symmetry_multiplicity
 _atom_site_fract_x
 _atom_site_fract_y
 _atom_site_fract_z
 _atom_site_occupancy
  Zn  Zn0  1  0.63821000  0.12111000  0.99412000  1.0
  Zn  Zn1  1  0.35596000  0.84051000  0.01332000  1.0
  Zn  Zn2  1  0.63594000  0.97171000  0.13426000  1.0
  Zn  Zn3  1  0.35600000  0.00430000  0.88584000  1.0
  H  H4  1  0.71585000  0.97853000  0.83616000  1.0
  H  H5  1  0.28353000  0.99789000  0.16811000  1.0
  H  H6  1  0.84166000  0.15698000  0.35388000  1.0
  H  H7  1  0.09574000  0.01522000  0.83721000  1.0
  H  H8  1  0.06866000  0.76025000  0.95830000  1.0
  H  H9  1  0.90998000  0.33640000  0.17197000  1.0
  H  H10  1  0.30139000  0.21059000  0.01310000  1.0
  H  H11  1  0.65914000  0.15472000  0.35581000  1.0
  H  H12  1  0.96427000  0.51769000  0.96798000  1.0
  H  H13  1  0.77681000  0.54444000  0.94178000  1.0
  H  H14  1  0.59536000  0.41484000  0.77472000  1.0
  H  H15  1  0.29581000  0.60825000  0.82703000  1.0
  H  H16  1  0.78559000  0.23325000  0.65589000  1.0
  H  H17  1  0.96813000  0.36256000  0.82315000  1.0
  H  H18  1  0.63928000  0.25968000  0.50249000  1.0
  H  H19  1  0.18763000  0.14457000  0.28044000  1.0
  H  H20  1  0.99628000  0.00381000  0.12778000  1.0
  H  H21  1  0.94678000  0.79836000  0.08140000  1.0
  H  H22  1  0.08879000  0.73189000  0.18648000  1.0
  H  H23  1  0.27867000  0.87301000  0.33944000  1.0
  H  H24  1  0.07441000  0.99042000  0.55705000  1.0
  H  H25  1  0.71573000  0.77939000  0.21561000  1.0
  H  H26  1  0.02165000  0.89239000  0.66088000  1.0
  H  H27  1  0.04483000  0.70833000  0.64046000  1.0
  H  H28  1  0.15181000  0.70896000  0.39870000  1.0
  H  H29  1  0.13181000  0.89526000  0.42142000  1.0
  H  H30  1  0.97758000  0.50556000  0.34902000  1.0
  H  H31  1  0.22176000  0.45012000  0.65704000  1.0
  H  H32  1  0.97397000  0.31189000  0.60666000  1.0
  H  H33  1  0.86150000  0.11609000  0.57110000  1.0
  H  H34  1  0.86115000  0.94849000  0.43593000  1.0
  H  H35  1  0.98816000  0.97729000  0.34880000  1.0
  H  H36  1  0.29038000  0.07633000  0.67603000  1.0
  H  H37  1  0.10015000  0.17163000  0.38563000  1.0
  H  H38  1  0.38130000  0.44121000  0.08991000  1.0
  H  H39  1  0.64521000  0.55220000  0.17530000  1.0
  H  H40  1  0.84955000  0.74924000  0.90487000  1.0
  H  H41  1  0.90592000  0.96480000  0.86897000  1.0
  H  H42  1  0.34201000  0.60442000  0.05487000  1.0
  H  H43  1  0.66607000  0.20841000  0.81467000  1.0
  H  H44  1  0.31102000  0.82720000  0.66578000  1.0
  H  H45  1  0.71222000  0.77913000  0.01706000  1.0
  H  H46  1  0.67673000  0.36578000  0.15460000  1.0
  C  C47  1  0.70499000  0.93867000  0.88739000  1.0
  C  C48  1  0.27153000  0.67334000  0.70017000  1.0
  C  C49  1  0.53580000  0.64769000  0.14187000  1.0
  C  C50  1  0.47492000  0.16006000  0.70753000  1.0
  C  C51  1  0.58558000  0.31062000  0.11387000  1.0
  C  C52  1  0.37720000  0.02770000  0.20095000  1.0
  C  C53  1  0.84555000  0.18597000  0.29429000  1.0
  C  C54  1  0.10766000  0.95286000  0.86858000  1.0
  C  C55  1  0.09269000  0.82190000  0.92902000  1.0
  C  C56  1  0.87870000  0.27767000  0.20137000  1.0
  C  C57  1  0.39433000  0.23080000  0.04186000  1.0
  C  C58  1  0.31039000  0.67714000  0.80335000  1.0
  C  C59  1  0.56893000  0.10825000  0.29550000  1.0
  C  C60  1  0.48557000  0.33806000  0.09847000  1.0
  C  C61  1  0.46624000  0.10094000  0.30609000  1.0
  C  C62  1  0.92005000  0.28731000  0.30679000  1.0
  C  C63  1  0.02944000  0.88320000  0.88766000  1.0
  C  C64  1  0.77949000  0.47656000  0.87919000  1.0
  C  C65  1  0.67729000  0.40390000  0.78518000  1.0
  C  C66  1  0.67790000  0.31490000  0.70365000  1.0
  C  C67  1  0.78428000  0.30246000  0.71830000  1.0
  C  C68  1  0.88672000  0.37490000  0.81267000  1.0
  C  C69  1  0.62159000  0.75243000  0.17376000  1.0
  C  C70  1  0.88456000  0.46180000  0.89375000  1.0
  C  C71  1  0.56129000  0.21630000  0.50495000  1.0
  C  C72  1  0.46043000  0.14202000  0.40756000  1.0
  C  C73  1  0.35791000  0.09931000  0.41492000  1.0
  C  C74  1  0.36632000  0.12334000  0.51653000  1.0
  C  C75  1  0.46930000  0.17862000  0.61353000  1.0
  C  C76  1  0.56770000  0.23539000  0.60557000  1.0
  C  C77  1  0.16477000  0.05412000  0.26061000  1.0
  C  C78  1  0.05803000  0.97536000  0.17470000  1.0
  C  C79  1  0.03025000  0.85944000  0.14835000  1.0
  C  C80  1  0.38357000  0.10512000  0.72387000  1.0
  C  C81  1  0.10978000  0.82236000  0.20699000  1.0
  C  C82  1  0.21614000  0.90128000  0.29309000  1.0
  C  C83  1  0.24431000  0.01800000  0.32128000  1.0
  C  C84  1  0.05208000  0.85358000  0.60466000  1.0
  C  C85  1  0.06370000  0.74969000  0.59245000  1.0
  C  C86  1  0.10217000  0.69813000  0.51984000  1.0
  C  C87  1  0.12356000  0.74978000  0.45633000  1.0
  C  C88  1  0.11266000  0.85434000  0.46931000  1.0
  C  C89  1  0.07976000  0.90754000  0.54524000  1.0
  C  C90  1  0.03474000  0.49252000  0.41496000  1.0
  C  C91  1  0.43132000  0.66334000  0.09270000  1.0
  C  C92  1  0.01498000  0.38152000  0.40568000  1.0
  C  C93  1  0.08114000  0.36815000  0.49767000  1.0
  C  C94  1  0.16879000  0.46330000  0.58923000  1.0
  C  C95  1  0.18797000  0.57482000  0.59862000  1.0
  C  C96  1  0.11363000  0.58790000  0.51020000  1.0
  C  C97  1  0.97935000  0.23817000  0.55251000  1.0
  C  C98  1  0.91460000  0.12833000  0.53093000  1.0
  C  C99  1  0.91437000  0.03407000  0.45501000  1.0
  C  C100  1  0.98520000  0.05012000  0.40611000  1.0
  C  C101  1  0.04994000  0.15966000  0.42806000  1.0
  C  C102  1  0.57519000  0.17239000  0.79441000  1.0
  C  C103  1  0.04377000  0.25480000  0.49761000  1.0
  C  C104  1  0.47133000  0.44609000  0.11594000  1.0
  C  C105  1  0.55498000  0.54674000  0.14853000  1.0
  C  C106  1  0.83937000  0.82451000  0.89410000  1.0
  C  C107  1  0.91944000  0.89024000  0.87932000  1.0
  C  C108  1  0.31707000  0.78853000  0.72091000  1.0
  C  C109  1  0.70199000  0.83602000  0.97857000  1.0
  C  C110  1  0.74832000  0.85793000  0.91178000  1.0
  N  N111  1  0.64193000  0.96468000  0.93866000  1.0
  N  N112  1  0.42452000  0.99329000  0.13610000  1.0
  N  N113  1  0.76960000  0.12107000  0.19105000  1.0
  N  N114  1  0.20752000  0.93390000  0.89483000  1.0
  N  N115  1  0.19849000  0.85289000  0.93353000  1.0
  N  N116  1  0.78905000  0.17766000  0.13219000  1.0
  N  N117  1  0.43669000  0.14755000  0.02269000  1.0
  N  N118  1  0.54208000  0.04286000  0.19403000  1.0
  N  N119  1  0.36984000  0.78549000  0.87830000  1.0
  N  N120  1  0.57254000  0.82347000  0.14572000  1.0
  N  N121  1  0.42630000  0.08682000  0.81183000  1.0
  N  N122  1  0.45378000  0.76785000  0.09517000  1.0
  N  N123  1  0.54559000  0.12908000  0.85562000  1.0
  N  N124  1  0.37356000  0.85452000  0.82743000  1.0
  N  N125  1  0.64033000  0.90202000  0.99524000  1.0
  N  N126  1  0.55455000  0.19683000  0.06735000  1.0
  F  F127  1  0.26498000  0.08052000  0.51985000  1.0
