# generated using pymatgen
data_MnH10C6S2(NO3)2
_symmetry_space_group_name_H-M   'P 1'
_cell_length_a   5.96309000
_cell_length_b   8.79689000
_cell_length_c   11.52670000
_cell_angle_alpha   111.64400000
_cell_angle_beta   89.99930000
_cell_angle_gamma   89.99990000
_symmetry_Int_Tables_number   1
_chemical_formula_structural   MnH10C6S2(NO3)2
_chemical_formula_sum   'Mn2 H20 C12 S4 N4 O12'
_cell_volume   562.02013960
_cell_formula_units_Z   2
loop_
 _symmetry_equiv_pos_site_id
 _symmetry_equiv_pos_as_xyz
  1  'x, y, z'
loop_
 _atom_site_type_symbol
 _atom_site_label
 _atom_site_symmetry_multiplicity
 _atom_site_fract_x
 _atom_site_fract_y
 _atom_site_fract_z
 _atom_site_occupancy
  Mn  Mn0  1  0.00000000  0.50000000  0.00000000  1.0
  Mn  Mn1  1  0.50000000  0.99999000  0.00000000  1.0
  H  H2  1  0.33986000  0.65433000  0.18607000  1.0
  H  H3  1  0.83987000  0.84568000  0.81392000  1.0
  H  H4  1  0.66014000  0.34567000  0.81392000  1.0
  H  H5  1  0.16013000  0.15432000  0.18608000  1.0
  H  H6  1  0.35897000  0.67353000  0.05334000  1.0
  H  H7  1  0.85897000  0.82647000  0.94665000  1.0
  H  H8  1  0.64103000  0.32647000  0.94666000  1.0
  H  H9  1  0.14103000  0.17354000  0.05335000  1.0
  H  H10  1  0.70831000  0.57290000  0.43390000  1.0
  H  H11  1  0.20831000  0.92710000  0.56611000  1.0
  H  H12  1  0.29169000  0.42709000  0.56610000  1.0
  H  H13  1  0.79169000  0.07290000  0.43389000  1.0
  H  H14  1  0.47863000  0.36982000  0.29602000  1.0
  H  H15  1  0.97862000  0.13019000  0.70399000  1.0
  H  H16  1  0.52138000  0.63018000  0.70397000  1.0
  H  H17  1  0.02138000  0.86982000  0.29602000  1.0
  H  H18  1  0.67988000  0.21582000  0.28287000  1.0
  H  H19  1  0.17988000  0.28419000  0.71714000  1.0
  H  H20  1  0.32012000  0.78418000  0.71713000  1.0
  H  H21  1  0.82012000  0.71581000  0.28287000  1.0
  C  C22  1  0.96007000  0.42766000  0.44334000  1.0
  C  C23  1  0.46006000  0.07234000  0.55666000  1.0
  C  C24  1  0.03993000  0.57234000  0.55666000  1.0
  C  C25  1  0.53993000  0.92766000  0.44334000  1.0
  C  C26  1  0.65877000  0.34161000  0.28655000  1.0
  C  C27  1  0.15876000  0.15840000  0.71346000  1.0
  C  C28  1  0.34123000  0.65839000  0.71345000  1.0
  C  C29  1  0.84123000  0.84160000  0.28655000  1.0
  C  C30  1  0.73471000  0.34838000  0.16134000  1.0
  C  C31  1  0.23472000  0.15162000  0.83866000  1.0
  C  C32  1  0.26529000  0.65162000  0.83866000  1.0
  C  C33  1  0.76528000  0.84838000  0.16134000  1.0
  S  S34  1  0.10431000  0.25136000  0.39271000  1.0
  S  S35  1  0.60430000  0.24864000  0.60729000  1.0
  S  S36  1  0.89569000  0.74864000  0.60729000  1.0
  S  S37  1  0.39569000  0.75137000  0.39271000  1.0
  N  N38  1  0.77195000  0.45559000  0.39359000  1.0
  N  N39  1  0.27194000  0.04441000  0.60642000  1.0
  N  N40  1  0.22805000  0.54440000  0.60641000  1.0
  N  N41  1  0.72805000  0.95559000  0.39358000  1.0
  O  O42  1  0.31411000  0.59813000  0.09584000  1.0
  O  O43  1  0.81411000  0.90187000  0.90416000  1.0
  O  O44  1  0.68589000  0.40187000  0.90416000  1.0
  O  O45  1  0.18589000  0.09813000  0.09584000  1.0
  O  O46  1  0.87784000  0.45519000  0.16235000  1.0
  O  O47  1  0.37786000  0.04481000  0.83766000  1.0
  O  O48  1  0.12216000  0.54482000  0.83765000  1.0
  O  O49  1  0.62215000  0.95518000  0.16235000  1.0
  O  O50  1  0.64305000  0.24647000  0.06436000  1.0
  O  O51  1  0.14306000  0.25353000  0.93565000  1.0
  O  O52  1  0.35695000  0.75353000  0.93564000  1.0
  O  O53  1  0.85695000  0.74647000  0.06435000  1.0
