# generated using pymatgen
data_ZnH14C20(NO4)2
_symmetry_space_group_name_H-M   'P 1'
_cell_length_a   8.23010000
_cell_length_b   8.23011000
_cell_length_c   14.62290000
_cell_angle_alpha   86.71310000
_cell_angle_beta   86.71290000
_cell_angle_gamma   73.37710000
_symmetry_Int_Tables_number   1
_chemical_formula_structural   ZnH14C20(NO4)2
_chemical_formula_sum   'Zn2 H28 C40 N4 O16'
_cell_volume   946.65375111
_cell_formula_units_Z   2
loop_
 _symmetry_equiv_pos_site_id
 _symmetry_equiv_pos_as_xyz
  1  'x, y, z'
loop_
 _atom_site_type_symbol
 _atom_site_label
 _atom_site_symmetry_multiplicity
 _atom_site_fract_x
 _atom_site_fract_y
 _atom_site_fract_z
 _atom_site_occupancy
  Zn  Zn0  1  0.74921000  0.25079000  0.25000000  1.0
  Zn  Zn1  1  0.25080000  0.74921000  0.75000000  1.0
  H  H2  1  0.57650000  0.97444000  0.33973000  1.0
  H  H3  1  0.02556000  0.42350000  0.16027000  1.0
  H  H4  1  0.42350000  0.02556000  0.66027000  1.0
  H  H5  1  0.97444000  0.57650000  0.83973000  1.0
  H  H6  1  0.68665000  0.66053000  0.37211000  1.0
  H  H7  1  0.33947000  0.31335000  0.12789000  1.0
  H  H8  1  0.31335000  0.33947000  0.62789000  1.0
  H  H9  1  0.66053000  0.68664000  0.87211000  1.0
  H  H10  1  0.99319000  0.51460000  0.34211000  1.0
  H  H11  1  0.48540000  0.00681000  0.15789000  1.0
  H  H12  1  0.00681000  0.48539000  0.65789000  1.0
  H  H13  1  0.51460000  0.99319000  0.84212000  1.0
  H  H14  1  0.28327000  0.53772000  0.28153000  1.0
  H  H15  1  0.46228000  0.71673000  0.21847000  1.0
  H  H16  1  0.71673000  0.46227000  0.71846000  1.0
  H  H17  1  0.53772000  0.28327000  0.78153000  1.0
  H  H18  1  0.52962000  0.67487000  0.00973000  1.0
  H  H19  1  0.32512000  0.47038000  0.49027000  1.0
  H  H20  1  0.47039000  0.32513000  0.99027000  1.0
  H  H21  1  0.67488000  0.52961000  0.50973000  1.0
  H  H22  1  0.75032000  0.70703000  0.10791000  1.0
  H  H23  1  0.29297000  0.24968000  0.39209000  1.0
  H  H24  1  0.24968000  0.29297000  0.89209000  1.0
  H  H25  1  0.70703000  0.75032000  0.60791000  1.0
  H  H26  1  0.81341000  0.09600000  0.02448000  1.0
  H  H27  1  0.90400000  0.18659000  0.47552000  1.0
  H  H28  1  0.18659000  0.90401000  0.97552000  1.0
  H  H29  1  0.09599000  0.81341000  0.52448000  1.0
  C  C30  1  0.70898000  0.90646000  0.32425000  1.0
  C  C31  1  0.09354000  0.29101000  0.17575000  1.0
  C  C32  1  0.29102000  0.09354000  0.67575000  1.0
  C  C33  1  0.90646000  0.70898000  0.82425000  1.0
  C  C34  1  0.77222000  0.73156000  0.34408000  1.0
  C  C35  1  0.26844000  0.22778000  0.15592000  1.0
  C  C36  1  0.22778000  0.26844000  0.65592000  1.0
  C  C37  1  0.73156000  0.77222000  0.84408000  1.0
  C  C38  1  0.94221000  0.65048000  0.32632000  1.0
  C  C39  1  0.34952000  0.05779000  0.17368000  1.0
  C  C40  1  0.05779000  0.34953000  0.67368000  1.0
  C  C41  1  0.65048000  0.94221000  0.82632000  1.0
  C  C42  1  0.05037000  0.74496000  0.28812000  1.0
  C  C43  1  0.25504000  0.94963000  0.21188000  1.0
  C  C44  1  0.94963000  0.25504000  0.71188000  1.0
  C  C45  1  0.74496000  0.05037000  0.78812000  1.0
  C  C46  1  0.22802000  0.67340000  0.26785000  1.0
  C  C47  1  0.32660000  0.77198000  0.23215000  1.0
  C  C48  1  0.77198000  0.32660000  0.73215000  1.0
  C  C49  1  0.67340000  0.22802000  0.76785000  1.0
  C  C50  1  0.97599000  0.92059000  0.26936000  1.0
  C  C51  1  0.07941000  0.02401000  0.23064000  1.0
  C  C52  1  0.02401000  0.07941000  0.73064000  1.0
  C  C53  1  0.92060000  0.97599000  0.76937000  1.0
  C  C54  1  0.63077000  0.46257000  0.10821000  1.0
  C  C55  1  0.53743000  0.36923000  0.39179000  1.0
  C  C56  1  0.36923000  0.53743000  0.89179000  1.0
  C  C57  1  0.46257000  0.63077000  0.60821000  1.0
  C  C58  1  0.53687000  0.54219000  0.02625000  1.0
  C  C59  1  0.45780000  0.46313000  0.47375000  1.0
  C  C60  1  0.46313000  0.45780000  0.97375000  1.0
  C  C61  1  0.54219000  0.53687000  0.52625000  1.0
  C  C62  1  0.91662000  0.81931000  0.05468000  1.0
  C  C63  1  0.18069000  0.08338000  0.44532000  1.0
  C  C64  1  0.08338000  0.18070000  0.94532000  1.0
  C  C65  1  0.81930000  0.91662000  0.55468000  1.0
  C  C66  1  0.92755000  0.98887000  0.01881000  1.0
  C  C67  1  0.01113000  0.07245000  0.48119000  1.0
  C  C68  1  0.07244000  0.01113000  0.98119000  1.0
  C  C69  1  0.98887000  0.92756000  0.51881000  1.0
  N  N70  1  0.80838000  0.99737000  0.28695000  1.0
  N  N71  1  0.00263000  0.19162000  0.21305000  1.0
  N  N72  1  0.19162000  0.00263000  0.71306000  1.0
  N  N73  1  0.99737000  0.80838000  0.78695000  1.0
  O  O74  1  0.61870000  0.31572000  0.13764000  1.0
  O  O75  1  0.68429000  0.38130000  0.36236000  1.0
  O  O76  1  0.38131000  0.68429000  0.86236000  1.0
  O  O77  1  0.31571000  0.61869000  0.63764000  1.0
  O  O78  1  0.71633000  0.54085000  0.14857000  1.0
  O  O79  1  0.45915000  0.28367000  0.35144000  1.0
  O  O80  1  0.28368000  0.45914000  0.85143000  1.0
  O  O81  1  0.54085000  0.71632000  0.64856000  1.0
  O  O82  1  0.03767000  0.69038000  0.05705000  1.0
  O  O83  1  0.30962000  0.96233000  0.44295000  1.0
  O  O84  1  0.96233000  0.30962000  0.94295000  1.0
  O  O85  1  0.69038000  0.03767000  0.55705000  1.0
  O  O86  1  0.75762000  0.82544000  0.08467000  1.0
  O  O87  1  0.17456000  0.24238000  0.41533000  1.0
  O  O88  1  0.24237000  0.17457000  0.91533000  1.0
  O  O89  1  0.82543000  0.75763000  0.58467000  1.0
