# generated using pymatgen
data_KH5C4O5
_symmetry_space_group_name_H-M   'P 1'
_cell_length_a   6.39440000
_cell_length_b   6.46281000
_cell_length_c   15.36650000
_cell_angle_alpha   90.00000000
_cell_angle_beta   89.99990000
_cell_angle_gamma   106.61400000
_symmetry_Int_Tables_number   1
_chemical_formula_structural   KH5C4O5
_chemical_formula_sum   'K4 H20 C16 O20'
_cell_volume   608.52190734
_cell_formula_units_Z   4
loop_
 _symmetry_equiv_pos_site_id
 _symmetry_equiv_pos_as_xyz
  1  'x, y, z'
loop_
 _atom_site_type_symbol
 _atom_site_label
 _atom_site_symmetry_multiplicity
 _atom_site_fract_x
 _atom_site_fract_y
 _atom_site_fract_z
 _atom_site_occupancy
  K  K0  1  0.06198000  0.03389000  0.70674000  1.0
  K  K1  1  0.43803000  0.46611000  0.20674000  1.0
  K  K2  1  0.93803000  0.96610000  0.29326000  1.0
  K  K3  1  0.56197000  0.53389000  0.79325000  1.0
  H  H4  1  0.22814000  0.86614000  0.51504000  1.0
  H  H5  1  0.27187000  0.63387000  0.01504000  1.0
  H  H6  1  0.77186000  0.13385000  0.48496000  1.0
  H  H7  1  0.72813000  0.36614000  0.98496000  1.0
  H  H8  1  0.05745000  0.56810000  0.73489000  1.0
  H  H9  1  0.44256000  0.93191000  0.23488000  1.0
  H  H10  1  0.94255000  0.43190000  0.26512000  1.0
  H  H11  1  0.55745000  0.06810000  0.76512000  1.0
  H  H12  1  0.10242000  0.60770000  0.83504000  1.0
  H  H13  1  0.39758000  0.89232000  0.33504000  1.0
  H  H14  1  0.89758000  0.39232000  0.16496000  1.0
  H  H15  1  0.60242000  0.10768000  0.66496000  1.0
  H  H16  1  0.26079000  0.55308000  0.44060000  1.0
  H  H17  1  0.23921000  0.94692000  0.94060000  1.0
  H  H18  1  0.73921000  0.44690000  0.55940000  1.0
  H  H19  1  0.76079000  0.05311000  0.05940000  1.0
  H  H20  1  0.37217000  0.23800000  0.56592000  1.0
  H  H21  1  0.12783000  0.26201000  0.06592000  1.0
  H  H22  1  0.62783000  0.76198000  0.43408000  1.0
  H  H23  1  0.87217000  0.73801000  0.93408000  1.0
  C  C24  1  0.21554000  0.58526000  0.57728000  1.0
  C  C25  1  0.28446000  0.91473000  0.07728000  1.0
  C  C26  1  0.78446000  0.41471000  0.42272000  1.0
  C  C27  1  0.71553000  0.08527000  0.92272000  1.0
  C  C28  1  0.34438000  0.53699000  0.50153000  1.0
  C  C29  1  0.15562000  0.96301000  0.00153000  1.0
  C  C30  1  0.65563000  0.46300000  0.49847000  1.0
  C  C31  1  0.84437000  0.03700000  0.99848000  1.0
  C  C32  1  0.40886000  0.32452000  0.50412000  1.0
  C  C33  1  0.09114000  0.17548000  0.00412000  1.0
  C  C34  1  0.59114000  0.67545000  0.49588000  1.0
  C  C35  1  0.90886000  0.82455000  0.99588000  1.0
  C  C36  1  0.33028000  0.17852000  0.42624000  1.0
  C  C37  1  0.16971000  0.32149000  0.92624000  1.0
  C  C38  1  0.66971000  0.82147000  0.57375000  1.0
  C  C39  1  0.83029000  0.67853000  0.07376000  1.0
  O  O40  1  0.17551000  0.77460000  0.57495000  1.0
  O  O41  1  0.32452000  0.72542000  0.07495000  1.0
  O  O42  1  0.82450000  0.22539000  0.42505000  1.0
  O  O43  1  0.67548000  0.27461000  0.92505000  1.0
  O  O44  1  0.15025000  0.45755000  0.63847000  1.0
  O  O45  1  0.34975000  0.04246000  0.13848000  1.0
  O  O46  1  0.84975000  0.54244000  0.36152000  1.0
  O  O47  1  0.65024000  0.95756000  0.86153000  1.0
  O  O48  1  0.33156000  0.26345000  0.35300000  1.0
  O  O49  1  0.16843000  0.23656000  0.85300000  1.0
  O  O50  1  0.66845000  0.73654000  0.64700000  1.0
  O  O51  1  0.83154000  0.76347000  0.14700000  1.0
  O  O52  1  0.27038000  0.97053000  0.43650000  1.0
  O  O53  1  0.22962000  0.52946000  0.93650000  1.0
  O  O54  1  0.72962000  0.02944000  0.56349000  1.0
  O  O55  1  0.77038000  0.47056000  0.06350000  1.0
  O  O56  1  0.02194000  0.64562000  0.78582000  1.0
  O  O57  1  0.47807000  0.85439000  0.28582000  1.0
  O  O58  1  0.97806000  0.35439000  0.21418000  1.0
  O  O59  1  0.52195000  0.14561000  0.71418000  1.0
