# generated using pymatgen
data_ScH3(CO2)3
_symmetry_space_group_name_H-M   'P 1'
_cell_length_a   6.81263000
_cell_length_b   6.81261000
_cell_length_c   6.81334000
_cell_angle_alpha   101.45700000
_cell_angle_beta   101.44700000
_cell_angle_gamma   101.44500000
_symmetry_Int_Tables_number   1
_chemical_formula_structural   ScH3(CO2)3
_chemical_formula_sum   'Sc2 H6 C6 O12'
_cell_volume   294.29478946
_cell_formula_units_Z   2
loop_
 _symmetry_equiv_pos_site_id
 _symmetry_equiv_pos_as_xyz
  1  'x, y, z'
loop_
 _atom_site_type_symbol
 _atom_site_label
 _atom_site_symmetry_multiplicity
 _atom_site_fract_x
 _atom_site_fract_y
 _atom_site_fract_z
 _atom_site_occupancy
  Sc  Sc0  1  0.99994000  0.00003000  0.00016000  1.0
  Sc  Sc1  1  0.50015000  0.50006000  0.49991000  1.0
  H  H2  1  0.74991000  0.07382000  0.42604000  1.0
  H  H3  1  0.42619000  0.75005000  0.07388000  1.0
  H  H4  1  0.07383000  0.42615000  0.74999000  1.0
  H  H5  1  0.24992000  0.92610000  0.57381000  1.0
  H  H6  1  0.57389000  0.25004000  0.92620000  1.0
  H  H7  1  0.92609000  0.57383000  0.24998000  1.0
  C  C8  1  0.75001000  0.96929000  0.53071000  1.0
  C  C9  1  0.53071000  0.74999000  0.96927000  1.0
  C  C10  1  0.96933000  0.53074000  0.75004000  1.0
  C  C11  1  0.25001000  0.03071000  0.46933000  1.0
  C  C12  1  0.46930000  0.24999000  0.03068000  1.0
  C  C13  1  0.03074000  0.46928000  0.25002000  1.0
  O  O14  1  0.88541000  0.03049000  0.70117000  1.0
  O  O15  1  0.70115000  0.88540000  0.03048000  1.0
  O  O16  1  0.61456000  0.79881000  0.46946000  1.0
  O  O17  1  0.03043000  0.70120000  0.88540000  1.0
  O  O18  1  0.46956000  0.61458000  0.79882000  1.0
  O  O19  1  0.79886000  0.46955000  0.61463000  1.0
  O  O20  1  0.11460000  0.96950000  0.29888000  1.0
  O  O21  1  0.29885000  0.11463000  0.96955000  1.0
  O  O22  1  0.38539000  0.20113000  0.53046000  1.0
  O  O23  1  0.96950000  0.29880000  0.11457000  1.0
  O  O24  1  0.53050000  0.38538000  0.20114000  1.0
  O  O25  1  0.20119000  0.53044000  0.38541000  1.0
