# generated using pymatgen
data_ZnH18C18(NO)4
_symmetry_space_group_name_H-M   'P 1'
_cell_length_a   10.19800000
_cell_length_b   11.72130000
_cell_length_c   17.86200000
_cell_angle_alpha   90.00000000
_cell_angle_beta   90.00020000
_cell_angle_gamma   89.99990000
_symmetry_Int_Tables_number   1
_chemical_formula_structural   ZnH18C18(NO)4
_chemical_formula_sum   'Zn4 H72 C72 N16 O16'
_cell_volume   2135.11304638
_cell_formula_units_Z   4
loop_
 _symmetry_equiv_pos_site_id
 _symmetry_equiv_pos_as_xyz
  1  'x, y, z'
loop_
 _atom_site_type_symbol
 _atom_site_label
 _atom_site_symmetry_multiplicity
 _atom_site_fract_x
 _atom_site_fract_y
 _atom_site_fract_z
 _atom_site_occupancy
  Zn  Zn0  1  0.57290000  0.86304000  0.48896000  1.0
  Zn  Zn1  1  0.07290000  0.13696000  0.51104000  1.0
  Zn  Zn2  1  0.57290000  0.63696000  0.98896000  1.0
  Zn  Zn3  1  0.07290000  0.36304000  0.01104000  1.0
  H  H4  1  0.84670000  0.86807000  0.42825000  1.0
  H  H5  1  0.34670000  0.13193000  0.57175000  1.0
  H  H6  1  0.84671000  0.63193000  0.92825000  1.0
  H  H7  1  0.34671000  0.36807000  0.07175000  1.0
  H  H8  1  0.75582000  0.49059000  0.08646000  1.0
  H  H9  1  0.25582000  0.50941000  0.91354000  1.0
  H  H10  1  0.75582000  0.00941000  0.58646000  1.0
  H  H11  1  0.25582000  0.99059000  0.41354000  1.0
  H  H12  1  0.03943000  0.76796000  0.31806000  1.0
  H  H13  1  0.53943000  0.23203000  0.68194000  1.0
  H  H14  1  0.03943000  0.73204000  0.81806000  1.0
  H  H15  1  0.53943000  0.26796000  0.18194000  1.0
  H  H16  1  0.99016000  0.90993000  0.30064000  1.0
  H  H17  1  0.49016000  0.09006000  0.69936000  1.0
  H  H18  1  0.99016000  0.59007000  0.80064000  1.0
  H  H19  1  0.49016000  0.40993000  0.19936000  1.0
  H  H20  1  0.96997000  0.80418000  0.22958000  1.0
  H  H21  1  0.46997000  0.19582000  0.77043000  1.0
  H  H22  1  0.96997000  0.69582000  0.72957000  1.0
  H  H23  1  0.46997000  0.30418000  0.27043000  1.0
  H  H24  1  0.41897000  0.75210000  0.30861000  1.0
  H  H25  1  0.91897000  0.24790000  0.69139000  1.0
  H  H26  1  0.41897000  0.74790000  0.80861000  1.0
  H  H27  1  0.91898000  0.25210000  0.19139000  1.0
  H  H28  1  0.45021000  0.66230000  0.38563000  1.0
  H  H29  1  0.95021000  0.33770000  0.61437000  1.0
  H  H30  1  0.45021000  0.83770000  0.88563000  1.0
  H  H31  1  0.95021000  0.16230000  0.11437000  1.0
  H  H32  1  0.49007000  0.61562000  0.29306000  1.0
  H  H33  1  0.99007000  0.38438000  0.70694000  1.0
  H  H34  1  0.49008000  0.88437000  0.79306000  1.0
  H  H35  1  0.99007000  0.11562000  0.20694000  1.0
  H  H36  1  0.79249000  0.41522000  0.23912000  1.0
  H  H37  1  0.29249000  0.58478000  0.76088000  1.0
  H  H38  1  0.79249000  0.08478000  0.73911000  1.0
  H  H39  1  0.29249000  0.91522000  0.26089000  1.0
  H  H40  1  0.86060000  0.53056000  0.29107000  1.0
  H  H41  1  0.36060000  0.46945000  0.70893000  1.0
  H  H42  1  0.86061000  0.96945000  0.79107000  1.0
  H  H43  1  0.36060000  0.03055000  0.20893000  1.0
  H  H44  1  0.94134000  0.47859000  0.20919000  1.0
  H  H45  1  0.44134000  0.52141000  0.79081000  1.0
  H  H46  1  0.94134000  0.02141000  0.70918000  1.0
  H  H47  1  0.44133000  0.97859000  0.29082000  1.0
  H  H48  1  0.47734000  0.82955000  0.14336000  1.0
  H  H49  1  0.97734000  0.17044000  0.85665000  1.0
  H  H50  1  0.47734000  0.67045000  0.64336000  1.0
  H  H51  1  0.97733000  0.32956000  0.35664000  1.0
  H  H52  1  0.59899000  0.87542000  0.07999000  1.0
  H  H53  1  0.09899000  0.12458000  0.92002000  1.0
  H  H54  1  0.59899000  0.62457000  0.57998000  1.0
  H  H55  1  0.09899000  0.37543000  0.42001000  1.0
  H  H56  1  0.61943000  0.90112000  0.17791000  1.0
  H  H57  1  0.11944000  0.09888000  0.82209000  1.0
  H  H58  1  0.61943000  0.59888000  0.67791000  1.0
  H  H59  1  0.11943000  0.40113000  0.32209000  1.0
  H  H60  1  0.36343000  0.24781000  0.44647000  1.0
  H  H61  1  0.86343000  0.75219000  0.55354000  1.0
  H  H62  1  0.36343000  0.25220000  0.94647000  1.0
  H  H63  1  0.86343000  0.74780000  0.05354000  1.0
  H  H64  1  0.39492000  0.45322000  0.41748000  1.0
  H  H65  1  0.89492000  0.54678000  0.58252000  1.0
  H  H66  1  0.39492000  0.04678000  0.91748000  1.0
  H  H67  1  0.89492000  0.95322000  0.08252000  1.0
  H  H68  1  0.61801000  0.54082000  0.43089000  1.0
  H  H69  1  0.11802000  0.45918000  0.56911000  1.0
  H  H70  1  0.61801000  0.95918000  0.93089000  1.0
  H  H71  1  0.11801000  0.04082000  0.06910000  1.0
  H  H72  1  0.80473000  0.42077000  0.47349000  1.0
  H  H73  1  0.30473000  0.57923000  0.52651000  1.0
  H  H74  1  0.80473000  0.07923000  0.97348000  1.0
  H  H75  1  0.30473000  0.92077000  0.02651000  1.0
  C  C76  1  0.96453000  0.82028000  0.28999000  1.0
  C  C77  1  0.46453000  0.17972000  0.71001000  1.0
  C  C78  1  0.96454000  0.67972000  0.78999000  1.0
  C  C79  1  0.46453000  0.32028000  0.21001000  1.0
  C  C80  1  0.83041000  0.79389000  0.31828000  1.0
  C  C81  1  0.33041000  0.20611000  0.68172000  1.0
  C  C82  1  0.83042000  0.70612000  0.81828000  1.0
  C  C83  1  0.33042000  0.29388000  0.18172000  1.0
  C  C84  1  0.72402000  0.73843000  0.28424000  1.0
  C  C85  1  0.22402000  0.26157000  0.71576000  1.0
  C  C86  1  0.72403000  0.76157000  0.78424000  1.0
  C  C87  1  0.22403000  0.23843000  0.21576000  1.0
  C  C88  1  0.62284000  0.73798000  0.33839000  1.0
  C  C89  1  0.12284000  0.26202000  0.66161000  1.0
  C  C90  1  0.62285000  0.76202000  0.83839000  1.0
  C  C91  1  0.12285000  0.23798000  0.16161000  1.0
  C  C92  1  0.48853000  0.68924000  0.33109000  1.0
  C  C93  1  0.98853000  0.31076000  0.66891000  1.0
  C  C94  1  0.48853000  0.81076000  0.83109000  1.0
  C  C95  1  0.98853000  0.18924000  0.16891000  1.0
  C  C96  1  0.84534000  0.49666000  0.23450000  1.0
  C  C97  1  0.34533000  0.50334000  0.76550000  1.0
  C  C98  1  0.84534000  0.00334000  0.73450000  1.0
  C  C99  1  0.34533000  0.99666000  0.26550000  1.0
  C  C100  1  0.76965000  0.58072000  0.18940000  1.0
  C  C101  1  0.26965000  0.41928000  0.81060000  1.0
  C  C102  1  0.76965000  0.91928000  0.68940000  1.0
  C  C103  1  0.26965000  0.08072000  0.31060000  1.0
  C  C104  1  0.71782000  0.68700000  0.20993000  1.0
  C  C105  1  0.21782000  0.31300000  0.79007000  1.0
  C  C106  1  0.71782000  0.81300000  0.70993000  1.0
  C  C107  1  0.21782000  0.18700000  0.29007000  1.0
  C  C108  1  0.65355000  0.72891000  0.14544000  1.0
  C  C109  1  0.15355000  0.27108000  0.85456000  1.0
  C  C110  1  0.65355000  0.77108000  0.64544000  1.0
  C  C111  1  0.15355000  0.22892000  0.35456000  1.0
  C  C112  1  0.58376000  0.83977000  0.13617000  1.0
  C  C113  1  0.08376000  0.16023000  0.86383000  1.0
  C  C114  1  0.58375000  0.66023000  0.63617000  1.0
  C  C115  1  0.08375000  0.33977000  0.36383000  1.0
  C  C116  1  0.54086000  0.09330000  0.48773000  1.0
  C  C117  1  0.04086000  0.90670000  0.51227000  1.0
  C  C118  1  0.54086000  0.40670000  0.98773000  1.0
  C  C119  1  0.04086000  0.59330000  0.01227000  1.0
  C  C120  1  0.56484000  0.21851000  0.47623000  1.0
  C  C121  1  0.06484000  0.78149000  0.52377000  1.0
  C  C122  1  0.56485000  0.28149000  0.97623000  1.0
  C  C123  1  0.06484000  0.71851000  0.02377000  1.0
  C  C124  1  0.45976000  0.28665000  0.45278000  1.0
  C  C125  1  0.95976000  0.71335000  0.54722000  1.0
  C  C126  1  0.45976000  0.21335000  0.95278000  1.0
  C  C127  1  0.95976000  0.78665000  0.04722000  1.0
  C  C128  1  0.47786000  0.40204000  0.43642000  1.0
  C  C129  1  0.97786000  0.59796000  0.56358000  1.0
  C  C130  1  0.47786000  0.09797000  0.93642000  1.0
  C  C131  1  0.97786000  0.90204000  0.06358000  1.0
  C  C132  1  0.60217000  0.45089000  0.44364000  1.0
  C  C133  1  0.10218000  0.54911000  0.55636000  1.0
  C  C134  1  0.60218000  0.04911000  0.94364000  1.0
  C  C135  1  0.10217000  0.95089000  0.05636000  1.0
  C  C136  1  0.70720000  0.38377000  0.46739000  1.0
  C  C137  1  0.20720000  0.61623000  0.53261000  1.0
  C  C138  1  0.70721000  0.11623000  0.96739000  1.0
  C  C139  1  0.20720000  0.88377000  0.03261000  1.0
  C  C140  1  0.68977000  0.26816000  0.48453000  1.0
  C  C141  1  0.18977000  0.73184000  0.51547000  1.0
  C  C142  1  0.68977000  0.23184000  0.98453000  1.0
  C  C143  1  0.18977000  0.76816000  0.01547000  1.0
  C  C144  1  0.80415000  0.20424000  0.51689000  1.0
  C  C145  1  0.30415000  0.79576000  0.48311000  1.0
  C  C146  1  0.80416000  0.29576000  0.01689000  1.0
  C  C147  1  0.30415000  0.70424000  0.98311000  1.0
  N  N148  1  0.66597000  0.78976000  0.40123000  1.0
  N  N149  1  0.16597000  0.21024000  0.59877000  1.0
  N  N150  1  0.66597000  0.71024000  0.90123000  1.0
  N  N151  1  0.16597000  0.28976000  0.09877000  1.0
  N  N152  1  0.79108000  0.82304000  0.38758000  1.0
  N  N153  1  0.29107000  0.17696000  0.61242000  1.0
  N  N154  1  0.79108000  0.67696000  0.88758000  1.0
  N  N155  1  0.29108000  0.32304000  0.11242000  1.0
  N  N156  1  0.73645000  0.56395000  0.11734000  1.0
  N  N157  1  0.23645000  0.43605000  0.88266000  1.0
  N  N158  1  0.73645000  0.93605000  0.61733000  1.0
  N  N159  1  0.23645000  0.06395000  0.38267000  1.0
  N  N160  1  0.66593000  0.65221000  0.08942000  1.0
  N  N161  1  0.16593000  0.34779000  0.91057000  1.0
  N  N162  1  0.66592000  0.84779000  0.58943000  1.0
  N  N163  1  0.16592000  0.15221000  0.41058000  1.0
  O  O164  1  0.62570000  0.02348000  0.46080000  1.0
  O  O165  1  0.12570000  0.97652000  0.53920000  1.0
  O  O166  1  0.62570000  0.47652000  0.96080000  1.0
  O  O167  1  0.12570000  0.52348000  0.03920000  1.0
  O  O168  1  0.43822000  0.05906000  0.52040000  1.0
  O  O169  1  0.93822000  0.94094000  0.47960000  1.0
  O  O170  1  0.43822000  0.44094000  0.02040000  1.0
  O  O171  1  0.93822000  0.55906000  0.97960000  1.0
  O  O172  1  0.78904000  0.14691000  0.57551000  1.0
  O  O173  1  0.28904000  0.85310000  0.42449000  1.0
  O  O174  1  0.78904000  0.35310000  0.07551000  1.0
  O  O175  1  0.28904000  0.64691000  0.92450000  1.0
  O  O176  1  0.91414000  0.22093000  0.48318000  1.0
  O  O177  1  0.41414000  0.77907000  0.51682000  1.0
  O  O178  1  0.91414000  0.27907000  0.98318000  1.0
  O  O179  1  0.41414000  0.72093000  0.01682000  1.0
