# generated using pymatgen
data_Zn4H20C48SN16O11
_symmetry_space_group_name_H-M   'P 1'
_cell_length_a   15.57420000
_cell_length_b   15.84650000
_cell_length_c   17.61480000
_cell_angle_alpha   103.26200000
_cell_angle_beta   106.46900000
_cell_angle_gamma   113.67700000
_symmetry_Int_Tables_number   1
_chemical_formula_structural   Zn4H20C48SN16O11
_chemical_formula_sum   'Zn4 H20 C48 S1 N16 O11'
_cell_volume   3514.31436861
_cell_formula_units_Z   1
loop_
 _symmetry_equiv_pos_site_id
 _symmetry_equiv_pos_as_xyz
  1  'x, y, z'
loop_
 _atom_site_type_symbol
 _atom_site_label
 _atom_site_symmetry_multiplicity
 _atom_site_fract_x
 _atom_site_fract_y
 _atom_site_fract_z
 _atom_site_occupancy
  Zn  Zn0  1  0.84719000  0.84542000  0.49226000  1.0
  Zn  Zn1  1  0.13996000  0.13262000  0.50762000  1.0
  Zn  Zn2  1  0.10298000  0.97355000  0.60934000  1.0
  Zn  Zn3  1  0.87835000  0.99450000  0.37794000  1.0
  H  H4  1  0.19363000  0.02143000  0.36528000  1.0
  H  H5  1  0.13669000  0.26056000  0.04627000  1.0
  H  H6  1  0.64189000  0.95892000  0.30740000  1.0
  H  H7  1  0.59885000  0.76585000  0.44822000  1.0
  H  H8  1  0.81145000  0.13497000  0.47808000  1.0
  H  H9  1  0.12359000  0.15139000  0.76096000  1.0
  H  H10  1  0.85475000  0.66940000  0.37022000  1.0
  H  H11  1  0.66600000  0.77558000  0.59861000  1.0
  H  H12  1  0.82095000  0.10049000  0.10538000  1.0
  H  H13  1  0.84074000  0.95912000  0.02198000  1.0
  H  H14  1  0.24277000  0.98888000  0.81815000  1.0
  H  H15  1  0.13169000  0.80385000  0.67263000  1.0
  H  H16  1  0.32299000  0.37670000  0.55410000  1.0
  H  H17  1  0.22151000  0.24564000  0.37491000  1.0
  H  H18  1  0.80198000  0.62532000  0.51311000  1.0
  H  H19  1  0.87088000  0.84482000  0.21303000  1.0
  H  H20  1  0.15940000  0.82394000  0.50272000  1.0
  H  H21  1  0.65093000  0.40234000  0.04539000  1.0
  H  H22  1  0.66935000  0.55495000  0.95981000  1.0
  H  H23  1  0.14259000  0.31496000  0.63278000  1.0
  C  C24  1  0.87769000  0.97786000  0.66818000  1.0
  C  C25  1  0.88252000  0.68341000  0.54966000  1.0
  C  C26  1  0.87267000  0.81693000  0.26398000  1.0
  C  C27  1  0.06375000  0.25679000  0.58922000  1.0
  C  C28  1  0.16023000  0.87985000  0.47661000  1.0
  C  C29  1  0.85003000  0.71970000  0.25975000  1.0
  C  C30  1  0.19703000  0.90325000  0.41532000  1.0
  C  C31  1  0.96665000  0.67670000  0.59925000  1.0
  C  C32  1  0.06239000  0.16755000  0.26676000  1.0
  C  C33  1  0.47776000  0.84392000  0.35787000  1.0
  C  C34  1  0.39808000  0.84273000  0.35678000  1.0
  C  C35  1  0.97208000  0.26193000  0.57102000  1.0
  C  C36  1  0.31866000  0.85189000  0.36570000  1.0
  C  C37  1  0.25469000  0.86928000  0.38261000  1.0
  C  C38  1  0.96484000  0.34861000  0.59612000  1.0
  C  C39  1  0.31707000  0.16003000  0.74806000  1.0
  C  C40  1  0.96395000  0.42768000  0.60789000  1.0
  C  C41  1  0.96438000  0.51399000  0.61228000  1.0
  C  C42  1  0.96611000  0.59135000  0.60940000  1.0
  C  C43  1  0.47699000  0.33286000  0.82943000  1.0
  C  C44  1  0.63916000  0.48198000  0.96462000  1.0
  C  C45  1  0.68067000  0.47596000  0.04171000  1.0
  C  C46  1  0.38623000  0.25822000  0.75861000  1.0
  C  C47  1  0.75357000  0.55968000  0.11751000  1.0
  C  C48  1  0.55497000  0.40066000  0.89238000  1.0
  C  C49  1  0.80591000  0.63379000  0.18530000  1.0
  C  C50  1  0.07387000  0.19538000  0.19904000  1.0
  C  C51  1  0.64870000  0.91521000  0.34564000  1.0
  C  C52  1  0.06975000  0.21162000  0.05416000  1.0
  C  C53  1  0.97911000  0.14290000  0.98250000  1.0
  C  C54  1  0.96797000  0.12305000  0.89788000  1.0
  C  C55  1  0.07841000  0.21227000  0.13545000  1.0
  C  C56  1  0.96077000  0.09769000  0.82426000  1.0
  C  C57  1  0.57496000  0.85470000  0.36968000  1.0
  C  C58  1  0.33865000  0.26264000  0.67893000  1.0
  C  C59  1  0.62689000  0.81606000  0.41743000  1.0
  C  C60  1  0.89420000  0.16485000  0.51004000  1.0
  C  C61  1  0.04435000  0.09140000  0.72167000  1.0
  C  C62  1  0.95951000  0.06209000  0.74333000  1.0
  C  C63  1  0.77600000  0.90894000  0.66062000  1.0
  C  C64  1  0.89313000  0.07912000  0.00218000  1.0
  C  C65  1  0.32067000  0.11141000  0.80897000  1.0
  C  C66  1  0.37009000  0.34480000  0.65023000  1.0
  C  C67  1  0.86356000  0.72664000  0.34421000  1.0
  C  C68  1  0.17770000  0.98094000  0.40616000  1.0
  C  C69  1  0.05106000  0.77460000  0.63164000  1.0
  C  C70  1  0.97043000  0.10030000  0.26904000  1.0
  C  C71  1  0.13871000  0.19545000  0.34834000  1.0
  S  S72  1  0.84119000  0.02684000  0.19321000  1.0
  N  N73  1  0.91335000  0.96117000  0.60805000  1.0
  N  N74  1  0.23702000  0.11250000  0.66873000  1.0
  N  N75  1  0.73641000  0.91294000  0.37738000  1.0
  N  N76  1  0.25004000  0.17422000  0.62735000  1.0
  N  N77  1  0.72330000  0.85177000  0.42223000  1.0
  N  N78  1  0.93731000  0.10862000  0.49236000  1.0
  N  N79  1  0.01505000  0.02949000  0.64101000  1.0
  N  N80  1  0.88902000  0.81922000  0.39298000  1.0
  N  N81  1  0.13535000  0.00257000  0.45921000  1.0
  N  N82  1  0.01913000  0.83346000  0.60348000  1.0
  N  N83  1  0.99159000  0.09023000  0.34472000  1.0
  N  N84  1  0.09493000  0.14850000  0.39313000  1.0
  N  N85  1  0.91469000  0.77672000  0.55246000  1.0
  N  N86  1  0.89501000  0.87459000  0.34344000  1.0
  N  N87  1  0.12473000  0.94052000  0.50236000  1.0
  N  N88  1  0.04147000  0.16538000  0.54108000  1.0
  O  O89  1  0.73611000  0.92701000  0.70779000  1.0
  O  O90  1  0.44562000  0.42819000  0.69056000  1.0
  O  O91  1  0.29959000  0.31684000  0.56729000  1.0
  O  O92  1  0.73100000  0.81622000  0.59588000  1.0
  O  O93  1  0.83231000  0.95207000  0.12110000  1.0
  O  O94  1  0.78342000  0.99143000  0.24171000  1.0
  O  O95  1  0.81199000  0.09938000  0.16237000  1.0
  O  O96  1  0.84630000  0.11355000  0.03314000  1.0
  O  O97  1  0.88041000  0.98852000  0.99019000  1.0
  O  O98  1  0.38532000  0.14828000  0.88280000  1.0
  O  O99  1  0.23744000  0.01464000  0.77254000  1.0
