# generated using pymatgen
data_AgH9C9N3O2
_symmetry_space_group_name_H-M   'P 1'
_cell_length_a   10.82630000
_cell_length_b   11.59670000
_cell_length_c   17.41500000
_cell_angle_alpha   75.74100000
_cell_angle_beta   89.99990000
_cell_angle_gamma   89.99970000
_symmetry_Int_Tables_number   1
_chemical_formula_structural   AgH9C9N3O2
_chemical_formula_sum   'Ag8 H72 C72 N24 O16'
_cell_volume   2119.08258884
_cell_formula_units_Z   8
loop_
 _symmetry_equiv_pos_site_id
 _symmetry_equiv_pos_as_xyz
  1  'x, y, z'
loop_
 _atom_site_type_symbol
 _atom_site_label
 _atom_site_symmetry_multiplicity
 _atom_site_fract_x
 _atom_site_fract_y
 _atom_site_fract_z
 _atom_site_occupancy
  Ag  Ag0  1  0.19408000  0.75842000  0.99049000  1.0
  Ag  Ag1  1  0.69408000  0.74159000  0.50951000  1.0
  Ag  Ag2  1  0.80593000  0.24158000  0.00951000  1.0
  Ag  Ag3  1  0.30592000  0.25841000  0.49049000  1.0
  Ag  Ag4  1  0.44819000  0.27365000  0.99471000  1.0
  Ag  Ag5  1  0.94819000  0.22636000  0.50529000  1.0
  Ag  Ag6  1  0.55180000  0.72635000  0.00529000  1.0
  Ag  Ag7  1  0.05181000  0.77364000  0.49471000  1.0
  H  H8  1  0.23635000  0.23255000  0.10775000  1.0
  H  H9  1  0.73634000  0.26745000  0.39225000  1.0
  H  H10  1  0.76365000  0.76745000  0.89226000  1.0
  H  H11  1  0.26365000  0.73255000  0.60775000  1.0
  H  H12  1  0.05469000  0.33692000  0.15257000  1.0
  H  H13  1  0.55468000  0.16308000  0.34744000  1.0
  H  H14  1  0.94532000  0.66309000  0.84745000  1.0
  H  H15  1  0.44532000  0.83691000  0.65256000  1.0
  H  H16  1  0.00139000  0.66526000  0.06230000  1.0
  H  H17  1  0.50138000  0.83474000  0.43770000  1.0
  H  H18  1  0.99862000  0.33474000  0.93770000  1.0
  H  H19  1  0.49862000  0.16526000  0.56230000  1.0
  H  H20  1  0.02259000  0.58194000  0.16214000  1.0
  H  H21  1  0.52258000  0.91806000  0.33786000  1.0
  H  H22  1  0.97741000  0.41806000  0.83787000  1.0
  H  H23  1  0.47742000  0.08194000  0.66213000  1.0
  H  H24  1  0.91776000  0.52945000  0.10039000  1.0
  H  H25  1  0.41775000  0.97055000  0.39961000  1.0
  H  H26  1  0.08224000  0.47055000  0.89961000  1.0
  H  H27  1  0.58225000  0.02945000  0.60039000  1.0
  H  H28  1  0.19643000  0.28766000  0.89684000  1.0
  H  H29  1  0.69643000  0.21234000  0.60315000  1.0
  H  H30  1  0.80356000  0.71234000  0.10315000  1.0
  H  H31  1  0.30357000  0.78765000  0.39685000  1.0
  H  H32  1  0.02471000  0.17772000  0.84695000  1.0
  H  H33  1  0.52470000  0.32229000  0.65304000  1.0
  H  H34  1  0.97529000  0.82228000  0.15304000  1.0
  H  H35  1  0.47529000  0.67771000  0.34696000  1.0
  H  H36  1  0.99701000  0.84278000  0.91980000  1.0
  H  H37  1  0.49700000  0.65723000  0.58020000  1.0
  H  H38  1  0.00300000  0.15722000  0.08019000  1.0
  H  H39  1  0.50300000  0.34277000  0.41980000  1.0
  H  H40  1  0.01986000  0.93565000  0.82249000  1.0
  H  H41  1  0.51986000  0.56436000  0.67751000  1.0
  H  H42  1  0.98015000  0.06435000  0.17750000  1.0
  H  H43  1  0.48014000  0.43565000  0.32249000  1.0
  H  H44  1  0.90539000  0.97391000  0.88457000  1.0
  H  H45  1  0.40539000  0.52610000  0.61542000  1.0
  H  H46  1  0.09461000  0.02608000  0.11542000  1.0
  H  H47  1  0.59461000  0.47391000  0.38458000  1.0
  H  H48  1  0.25850000  0.81074000  0.17455000  1.0
  H  H49  1  0.75850000  0.68927000  0.32545000  1.0
  H  H50  1  0.74150000  0.18927000  0.82546000  1.0
  H  H51  1  0.24150000  0.31073000  0.67454000  1.0
  H  H52  1  0.08659000  0.80279000  0.27086000  1.0
  H  H53  1  0.58659000  0.69722000  0.22914000  1.0
  H  H54  1  0.91341000  0.19721000  0.72914000  1.0
  H  H55  1  0.41342000  0.30278000  0.77085000  1.0
  H  H56  1  0.01166000  0.60882000  0.34987000  1.0
  H  H57  1  0.51166000  0.89118000  0.15013000  1.0
  H  H58  1  0.98833000  0.39117000  0.65013000  1.0
  H  H59  1  0.48835000  0.10882000  0.84986000  1.0
  H  H60  1  0.29032000  0.42917000  0.24684000  1.0
  H  H61  1  0.79032000  0.07084000  0.25316000  1.0
  H  H62  1  0.70968000  0.57084000  0.75316000  1.0
  H  H63  1  0.20968000  0.92916000  0.74684000  1.0
  H  H64  1  0.35138000  0.87206000  0.06698000  1.0
  H  H65  1  0.85139000  0.62794000  0.43302000  1.0
  H  H66  1  0.64861000  0.12794000  0.93302000  1.0
  H  H67  1  0.14861000  0.37205000  0.56698000  1.0
  H  H68  1  0.40616000  0.01524000  0.07147000  1.0
  H  H69  1  0.90616000  0.48477000  0.42853000  1.0
  H  H70  1  0.59383000  0.98477000  0.92854000  1.0
  H  H71  1  0.09384000  0.51523000  0.57147000  1.0
  H  H72  1  0.34781000  0.64700000  0.91044000  1.0
  H  H73  1  0.84781000  0.85300000  0.58955000  1.0
  H  H74  1  0.65219000  0.35300000  0.08956000  1.0
  H  H75  1  0.15219000  0.14700000  0.41045000  1.0
  H  H76  1  0.42336000  0.50930000  0.91625000  1.0
  H  H77  1  0.92336000  0.99070000  0.58375000  1.0
  H  H78  1  0.57663000  0.49069000  0.08375000  1.0
  H  H79  1  0.07663000  0.00930000  0.41625000  1.0
  C  C80  1  0.28209000  0.50192000  0.99590000  1.0
  C  C81  1  0.78209000  0.99809000  0.50410000  1.0
  C  C82  1  0.71791000  0.49807000  0.00411000  1.0
  C  C83  1  0.21791000  0.00192000  0.49590000  1.0
  C  C84  1  0.21872000  0.32714000  0.08324000  1.0
  C  C85  1  0.71870000  0.17286000  0.41676000  1.0
  C  C86  1  0.78130000  0.67286000  0.91677000  1.0
  C  C87  1  0.28130000  0.82714000  0.58324000  1.0
  C  C88  1  0.11919000  0.38411000  0.10788000  1.0
  C  C89  1  0.61918000  0.11590000  0.39212000  1.0
  C  C90  1  0.88081000  0.61590000  0.89213000  1.0
  C  C91  1  0.38082000  0.88410000  0.60788000  1.0
  C  C92  1  0.10812000  0.50647000  0.07538000  1.0
  C  C93  1  0.60812000  0.99353000  0.42462000  1.0
  C  C94  1  0.89189000  0.49353000  0.92463000  1.0
  C  C95  1  0.39188000  0.00647000  0.57537000  1.0
  C  C96  1  0.00649000  0.57512000  0.10104000  1.0
  C  C97  1  0.50649000  0.92489000  0.39896000  1.0
  C  C98  1  0.99351000  0.42489000  0.89897000  1.0
  C  C99  1  0.49351000  0.07511000  0.60104000  1.0
  C  C100  1  0.26169000  0.01709000  0.99619000  1.0
  C  C101  1  0.76169000  0.48292000  0.50381000  1.0
  C  C102  1  0.73830000  0.98292000  0.00381000  1.0
  C  C103  1  0.23831000  0.51708000  0.49619000  1.0
  C  C104  1  0.18611000  0.19137000  0.91776000  1.0
  C  C105  1  0.68610000  0.30863000  0.58223000  1.0
  C  C106  1  0.81389000  0.80863000  0.08224000  1.0
  C  C107  1  0.31389000  0.69136000  0.41777000  1.0
  C  C108  1  0.09230000  0.13113000  0.88955000  1.0
  C  C109  1  0.59229000  0.36888000  0.61044000  1.0
  C  C110  1  0.90770000  0.86887000  0.11045000  1.0
  C  C111  1  0.40770000  0.63112000  0.38955000  1.0
  C  C112  1  0.09123000  0.00725000  0.91553000  1.0
  C  C113  1  0.59123000  0.49276000  0.58447000  1.0
  C  C114  1  0.90878000  0.99275000  0.08447000  1.0
  C  C115  1  0.40877000  0.50724000  0.41553000  1.0
  C  C116  1  0.99802000  0.93535000  0.88431000  1.0
  C  C117  1  0.49802000  0.56465000  0.61569000  1.0
  C  C118  1  0.00199000  0.06465000  0.11568000  1.0
  C  C119  1  0.50199000  0.43535000  0.38431000  1.0
  C  C120  1  0.38903000  0.62347000  0.14623000  1.0
  C  C121  1  0.88903000  0.87654000  0.35377000  1.0
  C  C122  1  0.61097000  0.37653000  0.85377000  1.0
  C  C123  1  0.11097000  0.12346000  0.64623000  1.0
  C  C124  1  0.28439000  0.62009000  0.20353000  1.0
  C  C125  1  0.78439000  0.87992000  0.29646000  1.0
  C  C126  1  0.71561000  0.37993000  0.79647000  1.0
  C  C127  1  0.21561000  0.12007000  0.70353000  1.0
  C  C128  1  0.22632000  0.72534000  0.21026000  1.0
  C  C129  1  0.72633000  0.77467000  0.28974000  1.0
  C  C130  1  0.77367000  0.27467000  0.78975000  1.0
  C  C131  1  0.27368000  0.22532000  0.71025000  1.0
  C  C132  1  0.12914000  0.72090000  0.26344000  1.0
  C  C133  1  0.62913000  0.77911000  0.23656000  1.0
  C  C134  1  0.87086000  0.27910000  0.73657000  1.0
  C  C135  1  0.37087000  0.22089000  0.76343000  1.0
  C  C136  1  0.08733000  0.61135000  0.30863000  1.0
  C  C137  1  0.58733000  0.88865000  0.19137000  1.0
  C  C138  1  0.91266000  0.38865000  0.69138000  1.0
  C  C139  1  0.41267000  0.11135000  0.80863000  1.0
  C  C140  1  0.14496000  0.50532000  0.30326000  1.0
  C  C141  1  0.64496000  0.99468000  0.19674000  1.0
  C  C142  1  0.85503000  0.49468000  0.69674000  1.0
  C  C143  1  0.35504000  0.00532000  0.80326000  1.0
  C  C144  1  0.24433000  0.51093000  0.25102000  1.0
  C  C145  1  0.74434000  0.98908000  0.24898000  1.0
  C  C146  1  0.75567000  0.48907000  0.74898000  1.0
  C  C147  1  0.25566000  0.01092000  0.75102000  1.0
  C  C148  1  0.10461000  0.38694000  0.35553000  1.0
  C  C149  1  0.60461000  0.11307000  0.14447000  1.0
  C  C150  1  0.89538000  0.61307000  0.64447000  1.0
  C  C151  1  0.39539000  0.88693000  0.85553000  1.0
  N  N152  1  0.17611000  0.94987000  0.96817000  1.0
  N  N153  1  0.67611000  0.55014000  0.53183000  1.0
  N  N154  1  0.82389000  0.05013000  0.03183000  1.0
  N  N155  1  0.32389000  0.44986000  0.46818000  1.0
  N  N156  1  0.18951000  0.56548000  0.02097000  1.0
  N  N157  1  0.68951000  0.93453000  0.47903000  1.0
  N  N158  1  0.81049000  0.43452000  0.97904000  1.0
  N  N159  1  0.31049000  0.06547000  0.52097000  1.0
  N  N160  1  0.34148000  0.96322000  0.05194000  1.0
  N  N161  1  0.84148000  0.53679000  0.44806000  1.0
  N  N162  1  0.65852000  0.03678000  0.94806000  1.0
  N  N163  1  0.15852000  0.46321000  0.55195000  1.0
  N  N164  1  0.35726000  0.55709000  0.93802000  1.0
  N  N165  1  0.85725000  0.94291000  0.56198000  1.0
  N  N166  1  0.64275000  0.44291000  0.06198000  1.0
  N  N167  1  0.14275000  0.05709000  0.43802000  1.0
  N  N168  1  0.29861000  0.38325000  0.02810000  1.0
  N  N169  1  0.79861000  0.11675000  0.47190000  1.0
  N  N170  1  0.70139000  0.61675000  0.97191000  1.0
  N  N171  1  0.20139000  0.88325000  0.52810000  1.0
  N  N172  1  0.26907000  0.13721000  0.97090000  1.0
  N  N173  1  0.76907000  0.36279000  0.52909000  1.0
  N  N174  1  0.73093000  0.86279000  0.02910000  1.0
  N  N175  1  0.23094000  0.63720000  0.47091000  1.0
  O  O176  1  0.40049000  0.72231000  0.09206000  1.0
  O  O177  1  0.90049000  0.77770000  0.40793000  1.0
  O  O178  1  0.59950000  0.27770000  0.90793000  1.0
  O  O179  1  0.09951000  0.22229000  0.59207000  1.0
  O  O180  1  0.45712000  0.53417000  0.15280000  1.0
  O  O181  1  0.95713000  0.96584000  0.34720000  1.0
  O  O182  1  0.54287000  0.46584000  0.84721000  1.0
  O  O183  1  0.04287000  0.03416000  0.65280000  1.0
  O  O184  1  0.17425000  0.29765000  0.35858000  1.0
  O  O185  1  0.67425000  0.20235000  0.14142000  1.0
  O  O186  1  0.82575000  0.70235000  0.64142000  1.0
  O  O187  1  0.32576000  0.79764000  0.85858000  1.0
  O  O188  1  0.00455000  0.38592000  0.39448000  1.0
  O  O189  1  0.50455000  0.11408000  0.10552000  1.0
  O  O190  1  0.99544000  0.61408000  0.60552000  1.0
  O  O191  1  0.49545000  0.88592000  0.89448000  1.0
