# generated using pymatgen
data_CdH5C6(N2O)3
_symmetry_space_group_name_H-M   'P 1'
_cell_length_a   5.92595000
_cell_length_b   11.43300000
_cell_length_c   13.15260000
_cell_angle_alpha   90.00010000
_cell_angle_beta   90.00010000
_cell_angle_gamma   86.32630000
_symmetry_Int_Tables_number   1
_chemical_formula_structural   CdH5C6(N2O)3
_chemical_formula_sum   'Cd4 H20 C24 N24 O12'
_cell_volume   889.27577964
_cell_formula_units_Z   4
loop_
 _symmetry_equiv_pos_site_id
 _symmetry_equiv_pos_as_xyz
  1  'x, y, z'
loop_
 _atom_site_type_symbol
 _atom_site_label
 _atom_site_symmetry_multiplicity
 _atom_site_fract_x
 _atom_site_fract_y
 _atom_site_fract_z
 _atom_site_occupancy
  Cd  Cd0  1  0.57226000  0.15726000  0.45036000  1.0
  Cd  Cd1  1  0.92774000  0.34274000  0.95036000  1.0
  Cd  Cd2  1  0.42776000  0.84274000  0.54964000  1.0
  Cd  Cd3  1  0.07224000  0.65726000  0.04964000  1.0
  H  H4  1  0.56885000  0.41329000  0.39818000  1.0
  H  H5  1  0.93116000  0.08671000  0.89818000  1.0
  H  H6  1  0.43115000  0.58670000  0.60182000  1.0
  H  H7  1  0.06884000  0.91330000  0.10182000  1.0
  H  H8  1  0.71999000  0.38377000  0.49883000  1.0
  H  H9  1  0.78001000  0.11623000  0.99883000  1.0
  H  H10  1  0.28002000  0.61622000  0.50117000  1.0
  H  H11  1  0.21998000  0.88378000  0.00118000  1.0
  H  H12  1  0.02575000  0.31991000  0.36238000  1.0
  H  H13  1  0.47426000  0.18009000  0.86237000  1.0
  H  H14  1  0.97424000  0.68008000  0.63763000  1.0
  H  H15  1  0.52574000  0.81991000  0.13763000  1.0
  H  H16  1  0.83462000  0.37480000  0.19649000  1.0
  H  H17  1  0.66538000  0.12520000  0.69649000  1.0
  H  H18  1  0.16537000  0.62520000  0.80351000  1.0
  H  H19  1  0.33463000  0.87479000  0.30352000  1.0
  H  H20  1  0.33054000  0.17265000  0.04058000  1.0
  H  H21  1  0.16945000  0.32735000  0.54058000  1.0
  H  H22  1  0.66945000  0.82736000  0.95942000  1.0
  H  H23  1  0.83056000  0.67264000  0.45942000  1.0
  C  C24  1  0.59191000  0.11275000  0.20687000  1.0
  C  C25  1  0.90809000  0.38725000  0.70686000  1.0
  C  C26  1  0.40808000  0.88725000  0.79314000  1.0
  C  C27  1  0.09192000  0.61275000  0.29313000  1.0
  C  C28  1  0.37948000  0.18418000  0.20370000  1.0
  C  C29  1  0.12052000  0.31582000  0.70370000  1.0
  C  C30  1  0.62052000  0.81582000  0.79630000  1.0
  C  C31  1  0.87949000  0.68418000  0.29630000  1.0
  C  C32  1  0.10051000  0.29033000  0.29055000  1.0
  C  C33  1  0.39951000  0.20966000  0.79055000  1.0
  C  C34  1  0.89950000  0.70966000  0.70945000  1.0
  C  C35  1  0.60050000  0.79033000  0.20945000  1.0
  C  C36  1  0.99033000  0.31852000  0.19902000  1.0
  C  C37  1  0.50966000  0.18149000  0.69901000  1.0
  C  C38  1  0.00965000  0.68149000  0.80099000  1.0
  C  C39  1  0.49034000  0.81851000  0.30099000  1.0
  C  C40  1  0.26508000  0.20831000  0.11213000  1.0
  C  C41  1  0.23491000  0.29169000  0.61212000  1.0
  C  C42  1  0.73489000  0.79170000  0.88788000  1.0
  C  C43  1  0.76510000  0.70831000  0.38787000  1.0
  C  C44  1  0.07234000  0.05240000  0.48680000  1.0
  C  C45  1  0.42766000  0.44760000  0.98679000  1.0
  C  C46  1  0.92769000  0.94759000  0.51321000  1.0
  C  C47  1  0.57232000  0.55241000  0.01320000  1.0
  N  N48  1  0.69562000  0.08095000  0.29463000  1.0
  N  N49  1  0.80437000  0.41905000  0.79463000  1.0
  N  N50  1  0.30437000  0.91905000  0.70537000  1.0
  N  N51  1  0.19563000  0.58095000  0.20537000  1.0
  N  N52  1  0.88454000  0.01702000  0.26923000  1.0
  N  N53  1  0.61546000  0.48298000  0.76923000  1.0
  N  N54  1  0.11546000  0.98299000  0.73077000  1.0
  N  N55  1  0.38455000  0.51702000  0.23076000  1.0
  N  N56  1  0.89320000  0.01075000  0.16893000  1.0
  N  N57  1  0.60679000  0.48925000  0.66893000  1.0
  N  N58  1  0.10679000  0.98926000  0.83107000  1.0
  N  N59  1  0.39322000  0.51075000  0.33107000  1.0
  N  N60  1  0.71265000  0.06967000  0.12712000  1.0
  N  N61  1  0.78734000  0.43033000  0.62712000  1.0
  N  N62  1  0.28733000  0.93034000  0.87288000  1.0
  N  N63  1  0.21267000  0.56967000  0.37287000  1.0
  N  N64  1  0.29662000  0.22568000  0.29295000  1.0
  N  N65  1  0.20337000  0.27433000  0.79294000  1.0
  N  N66  1  0.70336000  0.77432000  0.70706000  1.0
  N  N67  1  0.79664000  0.72568000  0.20705000  1.0
  N  N68  1  0.07425000  0.27732000  0.11023000  1.0
  N  N69  1  0.42576000  0.22268000  0.61024000  1.0
  N  N70  1  0.92575000  0.72268000  0.88976000  1.0
  N  N71  1  0.57427000  0.77731000  0.38977000  1.0
  O  O72  1  0.97658000  0.15352000  0.48294000  1.0
  O  O73  1  0.52344000  0.34647000  0.98294000  1.0
  O  O74  1  0.02343000  0.84648000  0.51706000  1.0
  O  O75  1  0.47656000  0.65352000  0.01705000  1.0
  O  O76  1  0.28235000  0.02626000  0.47160000  1.0
  O  O77  1  0.21765000  0.47373000  0.97159000  1.0
  O  O78  1  0.71766000  0.97374000  0.52841000  1.0
  O  O79  1  0.78234000  0.52627000  0.02840000  1.0
  O  O80  1  0.67078000  0.35176000  0.43252000  1.0
  O  O81  1  0.82922000  0.14825000  0.93252000  1.0
  O  O82  1  0.32923000  0.64824000  0.56747000  1.0
  O  O83  1  0.17077000  0.85176000  0.06748000  1.0
