# generated using pymatgen
data_CuH8C6NO4
_symmetry_space_group_name_H-M   'P 1'
_cell_length_a   8.13409000
_cell_length_b   9.24562000
_cell_length_c   10.87490000
_cell_angle_alpha   93.08050000
_cell_angle_beta   98.26610000
_cell_angle_gamma   102.39000000
_symmetry_Int_Tables_number   1
_chemical_formula_structural   CuH8C6NO4
_chemical_formula_sum   'Cu4 H32 C24 N4 O16'
_cell_volume   787.46432855
_cell_formula_units_Z   4
loop_
 _symmetry_equiv_pos_site_id
 _symmetry_equiv_pos_as_xyz
  1  'x, y, z'
loop_
 _atom_site_type_symbol
 _atom_site_label
 _atom_site_symmetry_multiplicity
 _atom_site_fract_x
 _atom_site_fract_y
 _atom_site_fract_z
 _atom_site_occupancy
  Cu  Cu0  1  0.42720000  0.87459000  0.53410000  1.0
  Cu  Cu1  1  0.57279000  0.12542000  0.46589000  1.0
  Cu  Cu2  1  0.04455000  0.49261000  0.89099000  1.0
  Cu  Cu3  1  0.95548000  0.50739000  0.10897000  1.0
  H  H4  1  0.24225000  0.73030000  0.74451000  1.0
  H  H5  1  0.75775000  0.26973000  0.25550000  1.0
  H  H6  1  0.32295000  0.55382000  0.40516000  1.0
  H  H7  1  0.67700000  0.44619000  0.59483000  1.0
  H  H8  1  0.02637000  0.28284000  0.64372000  1.0
  H  H9  1  0.97364000  0.71718000  0.35631000  1.0
  H  H10  1  0.15637000  0.30166000  0.44440000  1.0
  H  H11  1  0.84360000  0.69835000  0.55562000  1.0
  H  H12  1  0.98596000  0.94297000  0.24869000  1.0
  H  H13  1  0.01403000  0.05701000  0.75131000  1.0
  H  H14  1  0.05608000  0.14147000  0.25767000  1.0
  H  H15  1  0.94389000  0.85852000  0.74232000  1.0
  H  H16  1  0.95093000  0.05296000  0.37687000  1.0
  H  H17  1  0.04906000  0.94703000  0.62312000  1.0
  H  H18  1  0.31852000  0.27852000  0.78821000  1.0
  H  H19  1  0.68147000  0.72146000  0.21181000  1.0
  H  H20  1  0.52808000  0.28569000  0.86099000  1.0
  H  H21  1  0.47193000  0.71429000  0.13902000  1.0
  H  H22  1  0.35868000  0.13239000  0.87945000  1.0
  H  H23  1  0.64134000  0.86758000  0.12056000  1.0
  H  H24  1  0.58691000  0.74977000  0.88846000  1.0
  H  H25  1  0.41315000  0.25021000  0.11155000  1.0
  H  H26  1  0.56469000  0.63385000  0.74875000  1.0
  H  H27  1  0.43525000  0.36615000  0.25124000  1.0
  H  H28  1  0.46238000  0.56641000  0.87861000  1.0
  H  H29  1  0.53768000  0.43357000  0.12142000  1.0
  H  H30  1  0.29826000  0.97574000  0.15701000  1.0
  H  H31  1  0.70172000  0.02423000  0.84304000  1.0
  H  H32  1  0.33787000  0.96165000  0.99897000  1.0
  H  H33  1  0.66213000  0.03840000  0.00108000  1.0
  H  H34  1  0.14578000  0.00545000  0.03271000  1.0
  H  H35  1  0.85421000  0.99456000  0.96734000  1.0
  C  C36  1  0.73154000  0.58234000  0.90389000  1.0
  C  C37  1  0.26851000  0.41764000  0.09604000  1.0
  C  C38  1  0.15335000  0.77656000  0.04307000  1.0
  C  C39  1  0.84666000  0.22344000  0.95692000  1.0
  C  C40  1  0.22243000  0.63397000  0.67718000  1.0
  C  C41  1  0.77756000  0.36605000  0.32282000  1.0
  C  C42  1  0.26775000  0.53503000  0.49020000  1.0
  C  C43  1  0.73221000  0.46499000  0.50980000  1.0
  C  C44  1  0.10588000  0.38632000  0.62198000  1.0
  C  C45  1  0.89411000  0.61369000  0.37803000  1.0
  C  C46  1  0.17439000  0.39674000  0.51188000  1.0
  C  C47  1  0.82558000  0.60327000  0.48813000  1.0
  C  C48  1  0.20946000  0.02944000  0.38278000  1.0
  C  C49  1  0.79052000  0.97055000  0.61721000  1.0
  C  C50  1  0.44253000  0.12850000  0.69986000  1.0
  C  C51  1  0.55747000  0.87149000  0.30014000  1.0
  C  C52  1  0.04046000  0.04412000  0.31166000  1.0
  C  C53  1  0.95952000  0.95587000  0.68833000  1.0
  C  C54  1  0.41000000  0.20982000  0.81477000  1.0
  C  C55  1  0.59000000  0.79016000  0.18524000  1.0
  C  C56  1  0.57581000  0.63521000  0.85007000  1.0
  C  C57  1  0.42422000  0.36477000  0.14992000  1.0
  C  C58  1  0.24099000  0.93987000  0.05991000  1.0
  C  C59  1  0.75900000  0.06013000  0.94013000  1.0
  N  N60  1  0.13149000  0.50496000  0.70569000  1.0
  N  N61  1  0.86852000  0.49507000  0.29433000  1.0
  N  N62  1  0.29121000  0.65400000  0.57297000  1.0
  N  N63  1  0.70877000  0.34603000  0.42703000  1.0
  O  O64  1  0.75295000  0.56963000  0.02116000  1.0
  O  O65  1  0.24711000  0.43036000  0.97876000  1.0
  O  O66  1  0.07896000  0.72241000  0.13114000  1.0
  O  O67  1  0.92106000  0.27759000  0.86887000  1.0
  O  O68  1  0.82982000  0.55476000  0.82866000  1.0
  O  O69  1  0.17022000  0.44522000  0.17125000  1.0
  O  O70  1  0.15982000  0.70703000  0.94005000  1.0
  O  O71  1  0.84018000  0.29298000  0.05994000  1.0
  O  O72  1  0.33990000  0.13276000  0.37778000  1.0
  O  O73  1  0.66010000  0.86728000  0.62223000  1.0
  O  O74  1  0.51716000  0.20884000  0.62372000  1.0
  O  O75  1  0.48285000  0.79116000  0.37628000  1.0
  O  O76  1  0.20853000  0.91436000  0.44248000  1.0
  O  O77  1  0.79147000  0.08565000  0.55749000  1.0
  O  O78  1  0.39271000  0.98702000  0.68722000  1.0
  O  O79  1  0.60728000  0.01299000  0.31277000  1.0
