# generated using pymatgen
data_CoH14C10(N4O)2
_symmetry_space_group_name_H-M   'P 1'
_cell_length_a   7.39223000
_cell_length_b   7.56079000
_cell_length_c   7.95723000
_cell_angle_alpha   108.64600000
_cell_angle_beta   90.14480000
_cell_angle_gamma   118.91300000
_symmetry_Int_Tables_number   1
_chemical_formula_structural   CoH14C10(N4O)2
_chemical_formula_sum   'Co1 H14 C10 N8 O2'
_cell_volume   362.19218991
_cell_formula_units_Z   1
loop_
 _symmetry_equiv_pos_site_id
 _symmetry_equiv_pos_as_xyz
  1  'x, y, z'
loop_
 _atom_site_type_symbol
 _atom_site_label
 _atom_site_symmetry_multiplicity
 _atom_site_fract_x
 _atom_site_fract_y
 _atom_site_fract_z
 _atom_site_occupancy
  Co  Co0  1  0.17699000  0.00009000  0.49996000  1.0
  H  H1  1  0.94694000  0.53894000  0.24136000  1.0
  H  H2  1  0.40774000  0.46127000  0.75875000  1.0
  H  H3  1  0.78945000  0.22325000  0.02630000  1.0
  H  H4  1  0.56543000  0.77679000  0.97397000  1.0
  H  H5  1  0.90363000  0.21125000  0.82780000  1.0
  H  H6  1  0.69042000  0.78743000  0.17281000  1.0
  H  H7  1  0.66179000  0.21139000  0.82818000  1.0
  H  H8  1  0.44966000  0.78969000  0.17159000  1.0
  H  H9  1  0.06525000  0.78802000  0.90527000  1.0
  H  H10  1  0.27833000  0.21179000  0.09455000  1.0
  H  H11  1  0.83406000  0.55673000  0.75182000  1.0
  H  H12  1  0.27601000  0.44304000  0.24710000  1.0
  H  H13  1  0.07747000  0.56229000  0.75462000  1.0
  H  H14  1  0.51382000  0.43743000  0.24633000  1.0
  C  C15  1  0.94532000  0.22718000  0.42444000  1.0
  C  C16  1  0.71798000  0.77470000  0.57775000  1.0
  C  C17  1  0.63580000  0.22502000  0.42186000  1.0
  C  C18  1  0.40882000  0.77334000  0.57584000  1.0
  C  C19  1  0.99265000  0.63227000  0.15153000  1.0
  C  C20  1  0.36054000  0.36780000  0.84847000  1.0
  C  C21  1  0.81499000  0.27585000  0.91072000  1.0
  C  C22  1  0.53810000  0.72410000  0.08948000  1.0
  C  C23  1  0.98037000  0.61125000  0.83928000  1.0
  C  C24  1  0.36858000  0.38853000  0.16060000  1.0
  N  N25  1  0.08049000  0.20442000  0.47415000  1.0
  N  N26  1  0.87674000  0.79901000  0.53052000  1.0
  N  N27  1  0.80692000  0.25844000  0.35946000  1.0
  N  N28  1  0.54709000  0.74168000  0.64046000  1.0
  N  N29  1  0.47695000  0.20076000  0.46887000  1.0
  N  N30  1  0.27364000  0.79619000  0.52626000  1.0
  N  N31  1  0.93216000  0.51221000  0.97518000  1.0
  N  N32  1  0.41937000  0.48774000  0.02484000  1.0
  O  O33  1  0.09462000  0.83702000  0.21365000  1.0
  O  O34  1  0.25856000  0.16307000  0.78626000  1.0
