# generated using pymatgen
data_HgH11C11Br2N3
_symmetry_space_group_name_H-M   'P 1'
_cell_length_a   7.96807000
_cell_length_b   8.29621000
_cell_length_c   11.46780000
_cell_angle_alpha   102.78300000
_cell_angle_beta   94.13010000
_cell_angle_gamma   114.81200000
_symmetry_Int_Tables_number   1
_chemical_formula_structural   HgH11C11Br2N3
_chemical_formula_sum   'Hg2 H22 C22 Br4 N6'
_cell_volume   659.30137217
_cell_formula_units_Z   2
loop_
 _symmetry_equiv_pos_site_id
 _symmetry_equiv_pos_as_xyz
  1  'x, y, z'
loop_
 _atom_site_type_symbol
 _atom_site_label
 _atom_site_symmetry_multiplicity
 _atom_site_fract_x
 _atom_site_fract_y
 _atom_site_fract_z
 _atom_site_occupancy
  Hg  Hg0  1  0.93736000  0.56307000  0.21433000  1.0
  Hg  Hg1  1  0.06264000  0.43693000  0.78567000  1.0
  H  H2  1  0.86588000  0.86318000  0.17863000  1.0
  H  H3  1  0.13412000  0.13682000  0.82138000  1.0
  H  H4  1  0.51573000  0.81230000  0.15737000  1.0
  H  H5  1  0.48427000  0.18770000  0.84262000  1.0
  H  H6  1  0.20881000  0.80623000  0.08904000  1.0
  H  H7  1  0.79120000  0.19377000  0.91096000  1.0
  H  H8  1  0.19907000  0.10783000  0.09380000  1.0
  H  H9  1  0.80093000  0.89217000  0.90620000  1.0
  H  H10  1  0.49924000  0.39899000  0.16035000  1.0
  H  H11  1  0.50076000  0.60101000  0.83965000  1.0
  H  H12  1  0.93500000  0.23740000  0.31853000  1.0
  H  H13  1  0.06501000  0.76260000  0.68147000  1.0
  H  H14  1  0.94728000  0.16291000  0.16592000  1.0
  H  H15  1  0.05272000  0.83709000  0.83408000  1.0
  H  H16  1  0.74980000  0.11716000  0.44435000  1.0
  H  H17  1  0.25020000  0.88284000  0.55565000  1.0
  H  H18  1  0.65533000  0.98694000  0.61452000  1.0
  H  H19  1  0.34467000  0.01306000  0.38549000  1.0
  H  H20  1  0.65643000  0.68083000  0.61580000  1.0
  H  H21  1  0.34356000  0.31918000  0.38420000  1.0
  H  H22  1  0.75428000  0.52589000  0.44192000  1.0
  H  H23  1  0.24572000  0.47411000  0.55808000  1.0
  C  C24  1  0.66946000  0.10887000  0.19532000  1.0
  C  C25  1  0.33054000  0.89112000  0.80468000  1.0
  C  C26  1  0.50764000  0.94015000  0.15774000  1.0
  C  C27  1  0.49236000  0.05985000  0.84225000  1.0
  C  C28  1  0.33607000  0.93719000  0.12031000  1.0
  C  C29  1  0.66395000  0.06281000  0.87969000  1.0
  C  C30  1  0.32971000  0.10305000  0.12251000  1.0
  C  C31  1  0.67029000  0.89696000  0.87748000  1.0
  C  C32  1  0.49662000  0.26621000  0.15989000  1.0
  C  C33  1  0.50338000  0.73379000  0.84011000  1.0
  C  C34  1  0.86166000  0.12233000  0.23522000  1.0
  C  C35  1  0.13835000  0.87767000  0.76479000  1.0
  C  C36  1  0.80496000  0.89041000  0.34941000  1.0
  C  C37  1  0.19504000  0.10960000  0.65059000  1.0
  C  C38  1  0.75064000  0.98652000  0.44501000  1.0
  C  C39  1  0.24936000  0.01348000  0.55500000  1.0
  C  C40  1  0.69703000  0.91229000  0.54087000  1.0
  C  C41  1  0.30297000  0.08771000  0.45913000  1.0
  C  C42  1  0.69641000  0.74370000  0.54206000  1.0
  C  C43  1  0.30359000  0.25630000  0.45794000  1.0
  C  C44  1  0.75097000  0.65697000  0.44518000  1.0
  C  C45  1  0.24902000  0.34303000  0.55482000  1.0
  Br  Br46  1  0.82059000  0.60639000  0.00985000  1.0
  Br  Br47  1  0.17940000  0.39360000  0.99015000  1.0
  Br  Br48  1  0.24159000  0.61069000  0.33533000  1.0
  Br  Br49  1  0.75840000  0.38930000  0.66468000  1.0
  N  N50  1  0.66261000  0.26870000  0.19518000  1.0
  N  N51  1  0.33739000  0.73131000  0.80482000  1.0
  N  N52  1  0.86158000  0.95567000  0.25250000  1.0
  N  N53  1  0.13842000  0.04433000  0.74750000  1.0
  N  N54  1  0.80403000  0.72702000  0.35128000  1.0
  N  N55  1  0.19597000  0.27298000  0.64872000  1.0
