# generated using pymatgen
data_ZnH10C6N4O5
_symmetry_space_group_name_H-M   'P 1'
_cell_length_a   6.49333000
_cell_length_b   7.74700000
_cell_length_c   21.38060000
_cell_angle_alpha   89.99950000
_cell_angle_beta   89.99990000
_cell_angle_gamma   66.24200000
_symmetry_Int_Tables_number   1
_chemical_formula_structural   ZnH10C6N4O5
_chemical_formula_sum   'Zn4 H40 C24 N16 O20'
_cell_volume   984.38081631
_cell_formula_units_Z   4
loop_
 _symmetry_equiv_pos_site_id
 _symmetry_equiv_pos_as_xyz
  1  'x, y, z'
loop_
 _atom_site_type_symbol
 _atom_site_label
 _atom_site_symmetry_multiplicity
 _atom_site_fract_x
 _atom_site_fract_y
 _atom_site_fract_z
 _atom_site_occupancy
  Zn  Zn0  1  0.73457000  0.34280000  0.09740000  1.0
  Zn  Zn1  1  0.76543000  0.15719000  0.59740000  1.0
  Zn  Zn2  1  0.26543000  0.65720000  0.90260000  1.0
  Zn  Zn3  1  0.23457000  0.84281000  0.40260000  1.0
  H  H4  1  0.90615000  0.59247000  0.31579000  1.0
  H  H5  1  0.59384000  0.90751000  0.81579000  1.0
  H  H6  1  0.09385000  0.40753000  0.68421000  1.0
  H  H7  1  0.40615000  0.09249000  0.18421000  1.0
  H  H8  1  0.81237000  0.36699000  0.24669000  1.0
  H  H9  1  0.68763000  0.13299000  0.74670000  1.0
  H  H10  1  0.18763000  0.63301000  0.75331000  1.0
  H  H11  1  0.31237000  0.86700000  0.25330000  1.0
  H  H12  1  0.32598000  0.59398000  0.12702000  1.0
  H  H13  1  0.17403000  0.90601000  0.62702000  1.0
  H  H14  1  0.67402000  0.40602000  0.87298000  1.0
  H  H15  1  0.82598000  0.09399000  0.37298000  1.0
  H  H16  1  0.41026000  0.41512000  0.17746000  1.0
  H  H17  1  0.08974000  0.08487000  0.67746000  1.0
  H  H18  1  0.58974000  0.58487000  0.82254000  1.0
  H  H19  1  0.91026000  0.91513000  0.32254000  1.0
  H  H20  1  0.30557000  0.38973000  0.10934000  1.0
  H  H21  1  0.19443000  0.11027000  0.60934000  1.0
  H  H22  1  0.69444000  0.61027000  0.89066000  1.0
  H  H23  1  0.80557000  0.88973000  0.39066000  1.0
  H  H24  1  0.73373000  0.07590000  0.02474000  1.0
  H  H25  1  0.76627000  0.42410000  0.52474000  1.0
  H  H26  1  0.26627000  0.92410000  0.97526000  1.0
  H  H27  1  0.23373000  0.57590000  0.47526000  1.0
  H  H28  1  0.82829000  0.20948000  0.98345000  1.0
  H  H29  1  0.67172000  0.29053000  0.48345000  1.0
  H  H30  1  0.17172000  0.79052000  0.01655000  1.0
  H  H31  1  0.32828000  0.70948000  0.51655000  1.0
  H  H32  1  0.55363000  0.28145000  0.99598000  1.0
  H  H33  1  0.94638000  0.21855000  0.49598000  1.0
  H  H34  1  0.44638000  0.71855000  0.00402000  1.0
  H  H35  1  0.05362000  0.78145000  0.50402000  1.0
  H  H36  1  0.16860000  0.09663000  0.10059000  1.0
  H  H37  1  0.33140000  0.40337000  0.60059000  1.0
  H  H38  1  0.83140000  0.90337000  0.89941000  1.0
  H  H39  1  0.66860000  0.59663000  0.39941000  1.0
  H  H40  1  0.15367000  0.21151000  0.03739000  1.0
  H  H41  1  0.34633000  0.28849000  0.53739000  1.0
  H  H42  1  0.84633000  0.78849000  0.96261000  1.0
  H  H43  1  0.65367000  0.71151000  0.46261000  1.0
  C  C44  1  0.84803000  0.66067000  0.14059000  1.0
  C  C45  1  0.65196000  0.83932000  0.64059000  1.0
  C  C46  1  0.15196000  0.33934000  0.85941000  1.0
  C  C47  1  0.34804000  0.16068000  0.35941000  1.0
  C  C48  1  0.91067000  0.77976000  0.17865000  1.0
  C  C49  1  0.58934000  0.72023000  0.67865000  1.0
  C  C50  1  0.08933000  0.22024000  0.82135000  1.0
  C  C51  1  0.41066000  0.27977000  0.32135000  1.0
  C  C52  1  0.89141000  0.61083000  0.26521000  1.0
  C  C53  1  0.60858000  0.88916000  0.76521000  1.0
  C  C54  1  0.10859000  0.38916000  0.73479000  1.0
  C  C55  1  0.39141000  0.11084000  0.23479000  1.0
  C  C56  1  0.83864000  0.48706000  0.22757000  1.0
  C  C57  1  0.66137000  0.01292000  0.72757000  1.0
  C  C58  1  0.16137000  0.51294000  0.77243000  1.0
  C  C59  1  0.33863000  0.98708000  0.27243000  1.0
  C  C60  1  0.80836000  0.68751000  0.07080000  1.0
  C  C61  1  0.69163000  0.81249000  0.57080000  1.0
  C  C62  1  0.19163000  0.31249000  0.92920000  1.0
  C  C63  1  0.30836000  0.18751000  0.42920000  1.0
  C  C64  1  0.96721000  0.93828000  0.15315000  1.0
  C  C65  1  0.53280000  0.56170000  0.65315000  1.0
  C  C66  1  0.03279000  0.06172000  0.84685000  1.0
  C  C67  1  0.46720000  0.43829000  0.34685000  1.0
  N  N68  1  0.81587000  0.51487000  0.16585000  1.0
  N  N69  1  0.68415000  0.98512000  0.66585000  1.0
  N  N70  1  0.18413000  0.48513000  0.83415000  1.0
  N  N71  1  0.31585000  0.01489000  0.33415000  1.0
  N  N72  1  0.92763000  0.75564000  0.24106000  1.0
  N  N73  1  0.57238000  0.74434000  0.74106000  1.0
  N  N74  1  0.07237000  0.24437000  0.75894000  1.0
  N  N75  1  0.42762000  0.25565000  0.25894000  1.0
  N  N76  1  0.40286000  0.44964000  0.13073000  1.0
  N  N77  1  0.09715000  0.05036000  0.63073000  1.0
  N  N78  1  0.59715000  0.55036000  0.86927000  1.0
  N  N79  1  0.90285000  0.94964000  0.36927000  1.0
  N  N80  1  0.71020000  0.21273000  0.01578000  1.0
  N  N81  1  0.78980000  0.28727000  0.51578000  1.0
  N  N82  1  0.28980000  0.78727000  0.98422000  1.0
  N  N83  1  0.21020000  0.71273000  0.48422000  1.0
  O  O84  1  0.72816000  0.58218000  0.04382000  1.0
  O  O85  1  0.77182000  0.91782000  0.54382000  1.0
  O  O86  1  0.27184000  0.41782000  0.95618000  1.0
  O  O87  1  0.22817000  0.08218000  0.45618000  1.0
  O  O88  1  0.85443000  0.81340000  0.04419000  1.0
  O  O89  1  0.64555000  0.68660000  0.54419000  1.0
  O  O90  1  0.14557000  0.18660000  0.95581000  1.0
  O  O91  1  0.35443000  0.31340000  0.45581000  1.0
  O  O92  1  0.16787000  0.89361000  0.13498000  1.0
  O  O93  1  0.33216000  0.60638000  0.63498000  1.0
  O  O94  1  0.83214000  0.10639000  0.86502000  1.0
  O  O95  1  0.66784000  0.39362000  0.36502000  1.0
  O  O96  1  0.80914000  0.10118000  0.15585000  1.0
  O  O97  1  0.69089000  0.39880000  0.65585000  1.0
  O  O98  1  0.19087000  0.89882000  0.84415000  1.0
  O  O99  1  0.30911000  0.60120000  0.34415000  1.0
  O  O100  1  0.13540000  0.22533000  0.08362000  1.0
  O  O101  1  0.36460000  0.27466000  0.58362000  1.0
  O  O102  1  0.86460000  0.77466000  0.91638000  1.0
  O  O103  1  0.63540000  0.72533000  0.41638000  1.0
