# generated using pymatgen
data_CuH7C7IN
_symmetry_space_group_name_H-M   'P 1'
_cell_length_a   4.11632000
_cell_length_b   13.79720371
_cell_length_c   13.83290000
_cell_angle_alpha   89.99925869
_cell_angle_beta   89.99920000
_cell_angle_gamma   82.44572975
_symmetry_Int_Tables_number   1
_chemical_formula_structural   CuH7C7IN
_chemical_formula_sum   'Cu4 H28 C28 I4 N4'
_cell_volume   778.80306887
_cell_formula_units_Z   4
loop_
 _symmetry_equiv_pos_site_id
 _symmetry_equiv_pos_as_xyz
  1  'x, y, z'
loop_
 _atom_site_type_symbol
 _atom_site_label
 _atom_site_symmetry_multiplicity
 _atom_site_fract_x
 _atom_site_fract_y
 _atom_site_fract_z
 _atom_site_occupancy
  Cu  Cu0  1  0.67427000  0.97664000  0.07960000  1.0
  Cu  Cu1  1  0.82574000  0.52335000  0.57960000  1.0
  Cu  Cu2  1  0.32574000  0.02335000  0.92040000  1.0
  Cu  Cu3  1  0.17426000  0.47665000  0.42040000  1.0
  H  H4  1  0.96701000  0.88731000  0.22532000  1.0
  H  H5  1  0.53300000  0.61267000  0.72531000  1.0
  H  H6  1  0.03298000  0.11269000  0.77468000  1.0
  H  H7  1  0.46701000  0.38733000  0.27469000  1.0
  H  H8  1  0.97955000  0.89538000  0.44914000  1.0
  H  H9  1  0.52043000  0.60462000  0.94913000  1.0
  H  H10  1  0.02045000  0.10463000  0.55086000  1.0
  H  H11  1  0.47956000  0.39538000  0.05087000  1.0
  H  H12  1  0.19488000  0.80092000  0.36907000  1.0
  H  H13  1  0.30510000  0.69907000  0.86906000  1.0
  H  H14  1  0.80512000  0.19908000  0.63093000  1.0
  H  H15  1  0.69490000  0.30092000  0.13094000  1.0
  H  H16  1  0.68947000  0.03549000  0.44979000  1.0
  H  H17  1  0.81055000  0.46451000  0.94980000  1.0
  H  H18  1  0.31052000  0.96452000  0.55020000  1.0
  H  H19  1  0.18945000  0.53549000  0.05020000  1.0
  H  H20  1  0.30295000  0.19103000  0.44010000  1.0
  H  H21  1  0.19709000  0.30898000  0.94011000  1.0
  H  H22  1  0.69705000  0.80898000  0.55989000  1.0
  H  H23  1  0.80291000  0.69102000  0.05990000  1.0
  H  H24  1  0.08186000  0.24745000  0.27809000  1.0
  H  H25  1  0.41816000  0.25254000  0.77809000  1.0
  H  H26  1  0.91814000  0.75255000  0.72190000  1.0
  H  H27  1  0.58184000  0.74745000  0.22192000  1.0
  H  H28  1  0.26854000  0.14812000  0.13206000  1.0
  H  H29  1  0.23145000  0.35187000  0.63206000  1.0
  H  H30  1  0.73146000  0.85188000  0.86794000  1.0
  H  H31  1  0.76855000  0.64812000  0.36794000  1.0
  C  C32  1  0.68343000  0.00929000  0.29606000  1.0
  C  C33  1  0.81658000  0.49070000  0.79607000  1.0
  C  C34  1  0.31657000  0.99071000  0.70393000  1.0
  C  C35  1  0.18342000  0.50930000  0.20393000  1.0
  C  C36  1  0.90505000  0.91752000  0.29717000  1.0
  C  C37  1  0.59493000  0.58248000  0.79716000  1.0
  C  C38  1  0.09495000  0.08248000  0.70284000  1.0
  C  C39  1  0.40507000  0.41752000  0.20284000  1.0
  C  C40  1  0.03269000  0.86962000  0.37554000  1.0
  C  C41  1  0.46732000  0.63037000  0.87553000  1.0
  C  C42  1  0.96732000  0.13038000  0.62446000  1.0
  C  C43  1  0.53267000  0.36963000  0.12447000  1.0
  C  C44  1  0.59029000  0.06242000  0.38040000  1.0
  C  C45  1  0.90974000  0.43758000  0.88040000  1.0
  C  C46  1  0.40972000  0.93758000  0.61960000  1.0
  C  C47  1  0.09027000  0.56242000  0.11960000  1.0
  C  C48  1  0.37528000  0.14856000  0.37539000  1.0
  C  C49  1  0.12473000  0.35145000  0.87540000  1.0
  C  C50  1  0.62471000  0.85145000  0.62460000  1.0
  C  C51  1  0.87527000  0.64855000  0.12460000  1.0
  C  C52  1  0.25309000  0.18060000  0.28512000  1.0
  C  C53  1  0.24692000  0.31940000  0.78511000  1.0
  C  C54  1  0.74691000  0.81940000  0.71488000  1.0
  C  C55  1  0.75307000  0.68060000  0.21489000  1.0
  C  C56  1  0.35634000  0.12578000  0.20411000  1.0
  C  C57  1  0.14365000  0.37422000  0.70412000  1.0
  C  C58  1  0.64365000  0.87423000  0.79588000  1.0
  C  C59  1  0.85634000  0.62578000  0.29589000  1.0
  I  I60  1  0.22983000  0.86677000  0.03403000  1.0
  I  I61  1  0.27019000  0.63322000  0.53403000  1.0
  I  I62  1  0.77017000  0.13323000  0.96597000  1.0
  I  I63  1  0.72983000  0.36677000  0.46597000  1.0
  N  N64  1  0.56849000  0.04223000  0.20805000  1.0
  N  N65  1  0.93151000  0.45776000  0.70805000  1.0
  N  N66  1  0.43151000  0.95777000  0.79195000  1.0
  N  N67  1  0.06850000  0.54223000  0.29195000  1.0
