# generated using pymatgen
data_ZnH10C22N6O5
_symmetry_space_group_name_H-M   'P 1'
_cell_length_a   6.10980000
_cell_length_b   10.82850000
_cell_length_c   14.24170000
_cell_angle_alpha   90.12940000
_cell_angle_beta   101.18190000
_cell_angle_gamma   96.21100000
_symmetry_Int_Tables_number   1
_chemical_formula_structural   ZnH10C22N6O5
_chemical_formula_sum   'Zn2 H20 C44 N12 O10'
_cell_volume   918.65694759
_cell_formula_units_Z   2
loop_
 _symmetry_equiv_pos_site_id
 _symmetry_equiv_pos_as_xyz
  1  'x, y, z'
loop_
 _atom_site_type_symbol
 _atom_site_label
 _atom_site_symmetry_multiplicity
 _atom_site_fract_x
 _atom_site_fract_y
 _atom_site_fract_z
 _atom_site_occupancy
  Zn  Zn0  1  0.33262000  0.82699000  0.52997000  1.0
  Zn  Zn1  1  0.66739000  0.17303000  0.47004000  1.0
  H  H2  1  0.89780000  0.49341000  0.55277000  1.0
  H  H3  1  0.10219000  0.50659000  0.44723000  1.0
  H  H4  1  0.09598000  0.80463000  0.21741000  1.0
  H  H5  1  0.90403000  0.19538000  0.78260000  1.0
  H  H6  1  0.70465000  0.67627000  0.48271000  1.0
  H  H7  1  0.29534000  0.32373000  0.51728000  1.0
  H  H8  1  0.78043000  0.38999000  0.69237000  1.0
  H  H9  1  0.21956000  0.61001000  0.30763000  1.0
  H  H10  1  0.96593000  0.92284000  0.07184000  1.0
  H  H11  1  0.03407000  0.07715000  0.92816000  1.0
  H  H12  1  0.63310000  0.04071000  0.06281000  1.0
  H  H13  1  0.36689000  0.95927000  0.93718000  1.0
  H  H14  1  0.43543000  0.03979000  0.20009000  1.0
  H  H15  1  0.56455000  0.96021000  0.79990000  1.0
  H  H16  1  0.80224000  0.82235000  0.78951000  1.0
  H  H17  1  0.19775000  0.17763000  0.21048000  1.0
  H  H18  1  0.93509000  0.89422000  0.64036000  1.0
  H  H19  1  0.06492000  0.10578000  0.35964000  1.0
  H  H20  1  0.96355000  0.64221000  0.87671000  1.0
  H  H21  1  0.03645000  0.35778000  0.12329000  1.0
  C  C22  1  0.76570000  0.52775000  0.58332000  1.0
  C  C23  1  0.23431000  0.47225000  0.41668000  1.0
  C  C24  1  0.18371000  0.61899000  0.77731000  1.0
  C  C25  1  0.81628000  0.38100000  0.22268000  1.0
  C  C26  1  0.28469000  0.51335000  0.82433000  1.0
  C  C27  1  0.71531000  0.48664000  0.17567000  1.0
  C  C28  1  0.94992000  0.85584000  0.21285000  1.0
  C  C29  1  0.05009000  0.14417000  0.78716000  1.0
  C  C30  1  0.65335000  0.92279000  0.28621000  1.0
  C  C31  1  0.34665000  0.07722000  0.71379000  1.0
  C  C32  1  0.83973000  0.85571000  0.29056000  1.0
  C  C33  1  0.16028000  0.14431000  0.70944000  1.0
  C  C34  1  0.65921000  0.62906000  0.54463000  1.0
  C  C35  1  0.34080000  0.37094000  0.45537000  1.0
  C  C36  1  0.46524000  0.46239000  0.78663000  1.0
  C  C37  1  0.53476000  0.53760000  0.21337000  1.0
  C  C38  1  0.53070000  0.51487000  0.70076000  1.0
  C  C39  1  0.46931000  0.48513000  0.29924000  1.0
  C  C40  1  0.25480000  0.66908000  0.69570000  1.0
  C  C41  1  0.74519000  0.33091000  0.30429000  1.0
  C  C42  1  0.70049000  0.46939000  0.66140000  1.0
  C  C43  1  0.29951000  0.53061000  0.33859000  1.0
  C  C44  1  0.43022000  0.61671000  0.65739000  1.0
  C  C45  1  0.56978000  0.38329000  0.34260000  1.0
  C  C46  1  0.87707000  0.92271000  0.13133000  1.0
  C  C47  1  0.12293000  0.07730000  0.86867000  1.0
  C  C48  1  0.53577000  0.92843000  0.36948000  1.0
  C  C49  1  0.46423000  0.07159000  0.63052000  1.0
  C  C50  1  0.69051000  0.98839000  0.12626000  1.0
  C  C51  1  0.30948000  0.01161000  0.87374000  1.0
  C  C52  1  0.58021000  0.98824000  0.20324000  1.0
  C  C53  1  0.41979000  0.01176000  0.79676000  1.0
  C  C54  1  0.93003000  0.77614000  0.76415000  1.0
  C  C55  1  0.06997000  0.22385000  0.23585000  1.0
  C  C56  1  0.51329000  0.33392000  0.91043000  1.0
  C  C57  1  0.48672000  0.66607000  0.08956000  1.0
  C  C58  1  0.94387000  0.79152000  0.37897000  1.0
  C  C59  1  0.05614000  0.20850000  0.62104000  1.0
  C  C60  1  0.33057000  0.37978000  0.94499000  1.0
  C  C61  1  0.66942000  0.62021000  0.05501000  1.0
  C  C62  1  0.00507000  0.81770000  0.68149000  1.0
  C  C63  1  0.99493000  0.18229000  0.31851000  1.0
  C  C64  1  0.01925000  0.67644000  0.81246000  1.0
  C  C65  1  0.98074000  0.32355000  0.18753000  1.0
  N  N66  1  0.49354000  0.67150000  0.58045000  1.0
  N  N67  1  0.50646000  0.32850000  0.41954000  1.0
  N  N68  1  0.16648000  0.76595000  0.64938000  1.0
  N  N69  1  0.83352000  0.23404000  0.35062000  1.0
  N  N70  1  0.57960000  0.37412000  0.82978000  1.0
  N  N71  1  0.42041000  0.62588000  0.17022000  1.0
  N  N72  1  0.21513000  0.47058000  0.90201000  1.0
  N  N73  1  0.78485000  0.52941000  0.09798000  1.0
  N  N74  1  0.30570000  0.32388000  0.02594000  1.0
  N  N75  1  0.69428000  0.67611000  0.97405000  1.0
  N  N76  1  0.60260000  0.25071000  0.97059000  1.0
  N  N77  1  0.39740000  0.74928000  0.02941000  1.0
  O  O78  1  0.47353000  0.03267000  0.38978000  1.0
  O  O79  1  0.52648000  0.96734000  0.61023000  1.0
  O  O80  1  0.50007000  0.82863000  0.41347000  1.0
  O  O81  1  0.49993000  0.17138000  0.58653000  1.0
  O  O82  1  0.47388000  0.24545000  0.04066000  1.0
  O  O83  1  0.52611000  0.75454000  0.95934000  1.0
  O  O84  1  0.04829000  0.86674000  0.44746000  1.0
  O  O85  1  0.95174000  0.13330000  0.55255000  1.0
  O  O86  1  0.93413000  0.67540000  0.37808000  1.0
  O  O87  1  0.06589000  0.32463000  0.62194000  1.0
