# generated using pymatgen
data_ZnH10C15N4(ClO2)2
_symmetry_space_group_name_H-M   'P 1'
_cell_length_a   8.92034000
_cell_length_b   15.90710000
_cell_length_c   17.08930000
_cell_angle_alpha   86.57550000
_cell_angle_beta   88.41080000
_cell_angle_gamma   78.41340000
_symmetry_Int_Tables_number   1
_chemical_formula_structural   ZnH10C15N4(ClO2)2
_chemical_formula_sum   'Zn2 H20 C30 N8 Cl4 O8'
_cell_volume   2370.95284423
_cell_formula_units_Z   2
loop_
 _symmetry_equiv_pos_site_id
 _symmetry_equiv_pos_as_xyz
  1  'x, y, z'
loop_
 _atom_site_type_symbol
 _atom_site_label
 _atom_site_symmetry_multiplicity
 _atom_site_fract_x
 _atom_site_fract_y
 _atom_site_fract_z
 _atom_site_occupancy
  Zn  Zn0  1  0.47274000  0.59326000  0.49920000  1.0
  Zn  Zn1  1  0.52269000  0.40980000  0.49893000  1.0
  H  H2  1  0.46925000  0.61929000  0.74627000  1.0
  H  H3  1  0.42146000  0.38417000  0.25704000  1.0
  H  H4  1  0.42493000  0.61192000  0.89283000  1.0
  H  H5  1  0.40284000  0.39250000  0.10963000  1.0
  H  H6  1  0.39605000  0.65682000  0.25231000  1.0
  H  H7  1  0.53670000  0.34437000  0.74695000  1.0
  H  H8  1  0.61796000  0.72100000  0.40902000  1.0
  H  H9  1  0.39142000  0.27996000  0.59310000  1.0
  H  H10  1  0.62554000  0.87852000  0.41518000  1.0
  H  H11  1  0.38963000  0.12150000  0.58867000  1.0
  H  H12  1  0.67184000  0.27585000  0.39598000  1.0
  H  H13  1  0.32642000  0.72750000  0.60197000  1.0
  H  H14  1  0.69129000  0.04432000  0.36809000  1.0
  H  H15  1  0.83056000  0.09772000  0.26749000  1.0
  H  H16  1  0.87373000  0.17243000  0.33279000  1.0
  H  H17  1  0.70565000  0.19950000  0.27494000  1.0
  H  H18  1  0.31898000  0.95717000  0.63362000  1.0
  H  H19  1  0.17755000  0.90431000  0.73366000  1.0
  H  H20  1  0.29709000  0.80127000  0.72424000  1.0
  H  H21  1  0.12901000  0.83261000  0.66684000  1.0
  C  C22  1  0.44151000  0.51420000  0.34934000  1.0
  C  C23  1  0.52484000  0.48673000  0.65069000  1.0
  C  C24  1  0.45410000  0.24022000  0.54848000  1.0
  C  C25  1  0.55390000  0.76105000  0.45304000  1.0
  C  C26  1  0.45335000  0.15382000  0.54540000  1.0
  C  C27  1  0.55821000  0.84691000  0.45720000  1.0
  C  C28  1  0.53477000  0.10659000  0.48541000  1.0
  C  C29  1  0.47565000  0.89452000  0.51663000  1.0
  C  C30  1  0.61722000  0.14984000  0.42827000  1.0
  C  C31  1  0.38974000  0.85199000  0.57259000  1.0
  C  C32  1  0.61176000  0.23842000  0.43688000  1.0
  C  C33  1  0.39063000  0.76414000  0.56254000  1.0
  C  C34  1  0.79032000  0.48756000  0.47485000  1.0
  C  C35  1  0.20361000  0.51769000  0.52375000  1.0
  C  C36  1  0.96003000  0.48508000  0.47280000  1.0
  C  C37  1  0.03393000  0.51986000  0.52624000  1.0
  C  C38  1  0.41456000  0.51969000  0.26268000  1.0
  C  C39  1  0.50485000  0.48234000  0.73830000  1.0
  C  C40  1  0.41247000  0.44504000  0.22295000  1.0
  C  C41  1  0.47309000  0.55815000  0.77921000  1.0
  C  C42  1  0.40178000  0.44951000  0.14212000  1.0
  C  C43  1  0.44828000  0.55428000  0.85948000  1.0
  C  C44  1  0.39231000  0.52852000  0.09858000  1.0
  C  C45  1  0.45437000  0.47467000  0.90160000  1.0
  C  C46  1  0.38453000  0.60389000  0.13961000  1.0
  C  C47  1  0.48692000  0.39884000  0.85987000  1.0
  C  C48  1  0.39695000  0.59920000  0.22087000  1.0
  C  C49  1  0.51197000  0.40279000  0.77904000  1.0
  C  C50  1  0.78042000  0.14665000  0.30827000  1.0
  C  C51  1  0.22462000  0.85584000  0.69189000  1.0
  N  N52  1  0.39417000  0.53670000  0.01631000  1.0
  N  N53  1  0.43995000  0.46624000  0.98358000  1.0
  N  N54  1  0.53309000  0.28083000  0.49471000  1.0
  N  N55  1  0.46964000  0.72146000  0.50494000  1.0
  N  N56  1  0.54226000  0.01984000  0.47546000  1.0
  N  N57  1  0.46928000  0.98109000  0.52689000  1.0
  N  N58  1  0.69607000  0.10745000  0.36891000  1.0
  N  N59  1  0.31142000  0.89449000  0.63202000  1.0
  Cl  Cl60  1  0.05722000  0.43300000  0.39508000  1.0
  Cl  Cl61  1  0.93754000  0.57189000  0.60411000  1.0
  Cl  Cl62  1  0.36769000  0.70311000  0.08959000  1.0
  Cl  Cl63  1  0.49405000  0.29943000  0.90817000  1.0
  O  O64  1  0.43263000  0.58466000  0.38235000  1.0
  O  O65  1  0.55392000  0.41586000  0.61712000  1.0
  O  O66  1  0.47398000  0.43898000  0.38228000  1.0
  O  O67  1  0.50750000  0.56155000  0.61696000  1.0
  O  O68  1  0.70499000  0.56152000  0.47493000  1.0
  O  O69  1  0.28951000  0.44384000  0.52478000  1.0
  O  O70  1  0.74924000  0.41563000  0.47671000  1.0
  O  O71  1  0.24361000  0.58994000  0.52047000  1.0
