# generated using pymatgen
data_CoH16C18S2(N3O)2
_symmetry_space_group_name_H-M   'P 1'
_cell_length_a   7.48567000
_cell_length_b   7.75632000
_cell_length_c   9.68250000
_cell_angle_alpha   103.32700000
_cell_angle_beta   101.55700000
_cell_angle_gamma   116.69200000
_symmetry_Int_Tables_number   1
_chemical_formula_structural   CoH16C18S2(N3O)2
_chemical_formula_sum   'Co1 H16 C18 S2 N6 O2'
_cell_volume   457.91295722
_cell_formula_units_Z   1
loop_
 _symmetry_equiv_pos_site_id
 _symmetry_equiv_pos_as_xyz
  1  'x, y, z'
loop_
 _atom_site_type_symbol
 _atom_site_label
 _atom_site_symmetry_multiplicity
 _atom_site_fract_x
 _atom_site_fract_y
 _atom_site_fract_z
 _atom_site_occupancy
  Co  Co0  1  0.50000000  0.50000000  0.00000000  1.0
  H  H1  1  0.04994000  0.23381000  0.80627000  1.0
  H  H2  1  0.95007000  0.76620000  0.19374000  1.0
  H  H3  1  0.74785000  0.28371000  0.71489000  1.0
  H  H4  1  0.25215000  0.71629000  0.28511000  1.0
  H  H5  1  0.18467000  0.94376000  0.95463000  1.0
  H  H6  1  0.81533000  0.05624000  0.04536000  1.0
  H  H7  1  0.46978000  0.86482000  0.03258000  1.0
  H  H8  1  0.53021000  0.13518000  0.96742000  1.0
  H  H9  1  0.52746000  0.77886000  0.56411000  1.0
  H  H10  1  0.47253000  0.22115000  0.43589000  1.0
  H  H11  1  0.44688000  0.69347000  0.70902000  1.0
  H  H12  1  0.55312000  0.30652000  0.29098000  1.0
  H  H13  1  0.84418000  0.52073000  0.54930000  1.0
  H  H14  1  0.15583000  0.47927000  0.45069000  1.0
  H  H15  1  0.77053000  0.67266000  0.46829000  1.0
  H  H16  1  0.22947000  0.32733000  0.53170000  1.0
  C  C17  1  0.07362000  0.38826000  0.83447000  1.0
  C  C18  1  0.92639000  0.61175000  0.16553000  1.0
  C  C19  1  0.90626000  0.41830000  0.78346000  1.0
  C  C20  1  0.09374000  0.58170000  0.21654000  1.0
  C  C21  1  0.94282000  0.61946000  0.82461000  1.0
  C  C22  1  0.05719000  0.38055000  0.17539000  1.0
  C  C23  1  0.14919000  0.78439000  0.91544000  1.0
  C  C24  1  0.85081000  0.21561000  0.08456000  1.0
  C  C25  1  0.30846000  0.74230000  0.96012000  1.0
  C  C26  1  0.69155000  0.25770000  0.03988000  1.0
  C  C27  1  0.76487000  0.66109000  0.78958000  1.0
  C  C28  1  0.23513000  0.33890000  0.21042000  1.0
  C  C29  1  0.48113000  0.65033000  0.60621000  1.0
  C  C30  1  0.51886000  0.34966000  0.39379000  1.0
  C  C31  1  0.71407000  0.54811000  0.51388000  1.0
  C  C32  1  0.28593000  0.45188000  0.48611000  1.0
  C  C33  1  0.67245000  0.86293000  0.29308000  1.0
  C  C34  1  0.32754000  0.13706000  0.70691000  1.0
  S  S35  1  0.76437000  0.06002000  0.44554000  1.0
  S  S36  1  0.23562000  0.93998000  0.55446000  1.0
  N  N37  1  0.27285000  0.54759000  0.92193000  1.0
  N  N38  1  0.72715000  0.45241000  0.07807000  1.0
  N  N39  1  0.66041000  0.61865000  0.64458000  1.0
  N  N40  1  0.33959000  0.38136000  0.35541000  1.0
  N  N41  1  0.60334000  0.71643000  0.18132000  1.0
  N  N42  1  0.39667000  0.28357000  0.81869000  1.0
  O  O43  1  0.72000000  0.73400000  0.89877000  1.0
  O  O44  1  0.28000000  0.26600000  0.10122000  1.0
