# generated using pymatgen
data_SmH10(CO)10
_symmetry_space_group_name_H-M   'P 1'
_cell_length_a   8.82748000
_cell_length_b   9.31353000
_cell_length_c   9.62290000
_cell_angle_alpha   84.40800000
_cell_angle_beta   66.50520000
_cell_angle_gamma   64.18320000
_symmetry_Int_Tables_number   1
_chemical_formula_structural   SmH10(CO)10
_chemical_formula_sum   'Sm2 H20 C20 O20'
_cell_volume   650.35442563
_cell_formula_units_Z   2
loop_
 _symmetry_equiv_pos_site_id
 _symmetry_equiv_pos_as_xyz
  1  'x, y, z'
loop_
 _atom_site_type_symbol
 _atom_site_label
 _atom_site_symmetry_multiplicity
 _atom_site_fract_x
 _atom_site_fract_y
 _atom_site_fract_z
 _atom_site_occupancy
  Sm  Sm0  1  0.23315000  0.50612000  0.54548000  1.0
  Sm  Sm1  1  0.76685000  0.49388000  0.45452000  1.0
  H  H2  1  0.93758000  0.41593000  0.73672000  1.0
  H  H3  1  0.06242000  0.58406000  0.26328000  1.0
  H  H4  1  0.05120000  0.38325000  0.83500000  1.0
  H  H5  1  0.94880000  0.61675000  0.16499000  1.0
  H  H6  1  0.33127000  0.60122000  0.77477000  1.0
  H  H7  1  0.66873000  0.39878000  0.22523000  1.0
  H  H8  1  0.11418000  0.65817000  0.86295000  1.0
  H  H9  1  0.88582000  0.34183000  0.13704000  1.0
  H  H10  1  0.32184000  0.65221000  0.01895000  1.0
  H  H11  1  0.67817000  0.34778000  0.98104000  1.0
  H  H12  1  0.17480000  0.90705000  0.42490000  1.0
  H  H13  1  0.82520000  0.09295000  0.57510000  1.0
  H  H14  1  0.41672000  0.07504000  0.40396000  1.0
  H  H15  1  0.58327000  0.92497000  0.59605000  1.0
  H  H16  1  0.11383000  0.01141000  0.79362000  1.0
  H  H17  1  0.88616000  0.98859000  0.20639000  1.0
  H  H18  1  0.24792000  0.27790000  0.06202000  1.0
  H  H19  1  0.75207000  0.72211000  0.93798000  1.0
  H  H20  1  0.50879000  0.20685000  0.13769000  1.0
  H  H21  1  0.49121000  0.79315000  0.86232000  1.0
  C  C22  1  0.36084000  0.53039000  0.21663000  1.0
  C  C23  1  0.63916000  0.46961000  0.78337000  1.0
  C  C24  1  0.41926000  0.55044000  0.05203000  1.0
  C  C25  1  0.58074000  0.44956000  0.94797000  1.0
  C  C26  1  0.45338000  0.77469000  0.42024000  1.0
  C  C27  1  0.54661000  0.22531000  0.57975000  1.0
  C  C28  1  0.29532000  0.92075000  0.41441000  1.0
  C  C29  1  0.70468000  0.07925000  0.58559000  1.0
  C  C30  1  0.29782000  0.06434000  0.40583000  1.0
  C  C31  1  0.70217000  0.93566000  0.59417000  1.0
  C  C32  1  0.13973000  0.21649000  0.40943000  1.0
  C  C33  1  0.86026000  0.78352000  0.59057000  1.0
  C  C34  1  0.19763000  0.08333000  0.91409000  1.0
  C  C35  1  0.80237000  0.91667000  0.08591000  1.0
  C  C36  1  0.35347000  0.03910000  0.95845000  1.0
  C  C37  1  0.64653000  0.96090000  0.04156000  1.0
  C  C38  1  0.35859000  0.15684000  0.03446000  1.0
  C  C39  1  0.64140000  0.84316000  0.96554000  1.0
  C  C40  1  0.50489000  0.11734000  0.07608000  1.0
  C  C41  1  0.49511000  0.88266000  0.92392000  1.0
  O  O42  1  0.46251000  0.41287000  0.26757000  1.0
  O  O43  1  0.53749000  0.58712000  0.73243000  1.0
  O  O44  1  0.20323000  0.63265000  0.30674000  1.0
  O  O45  1  0.79678000  0.36735000  0.69326000  1.0
  O  O46  1  0.42919000  0.64894000  0.46761000  1.0
  O  O47  1  0.57081000  0.35106000  0.53238000  1.0
  O  O48  1  0.61000000  0.77201000  0.38216000  1.0
  O  O49  1  0.39000000  0.22800000  0.61783000  1.0
  O  O50  1  0.01073000  0.21596000  0.38141000  1.0
  O  O51  1  0.98927000  0.78404000  0.61859000  1.0
  O  O52  1  0.13727000  0.34756000  0.44307000  1.0
  O  O53  1  0.86273000  0.65245000  0.55693000  1.0
  O  O54  1  0.00221000  0.46132000  0.76992000  1.0
  O  O55  1  0.99779000  0.53868000  0.23008000  1.0
  O  O56  1  0.22594000  0.58102000  0.78359000  1.0
  O  O57  1  0.77406000  0.41898000  0.21641000  1.0
  O  O58  1  0.05700000  0.21154000  0.95698000  1.0
  O  O59  1  0.94300000  0.78846000  0.04302000  1.0
  O  O60  1  0.21964000  0.96979000  0.82185000  1.0
  O  O61  1  0.78035000  0.03021000  0.17815000  1.0
