# generated using pymatgen
data_CuH22C32N2(O2F3)2
_symmetry_space_group_name_H-M   'P 1'
_cell_length_a   8.48315000
_cell_length_b   9.39308000
_cell_length_c   9.79784000
_cell_angle_alpha   114.14280000
_cell_angle_beta   101.89990000
_cell_angle_gamma   90.09630000
_symmetry_Int_Tables_number   1
_chemical_formula_structural   CuH22C32N2(O2F3)2
_chemical_formula_sum   'Cu1 H22 C32 N2 O4 F6'
_cell_volume   693.87692760
_cell_formula_units_Z   1
loop_
 _symmetry_equiv_pos_site_id
 _symmetry_equiv_pos_as_xyz
  1  'x, y, z'
loop_
 _atom_site_type_symbol
 _atom_site_label
 _atom_site_symmetry_multiplicity
 _atom_site_fract_x
 _atom_site_fract_y
 _atom_site_fract_z
 _atom_site_occupancy
  Cu  Cu0  1  0.00000000  0.00000000  0.50001000  1.0
  H  H1  1  0.00876000  0.50200000  0.23611000  1.0
  H  H2  1  0.99123000  0.49801000  0.76389000  1.0
  H  H3  1  0.17458000  0.38626000  0.31024000  1.0
  H  H4  1  0.82541000  0.61373000  0.68975000  1.0
  H  H5  1  0.36868000  0.24877000  0.42327000  1.0
  H  H6  1  0.63131000  0.75123000  0.57673000  1.0
  H  H7  1  0.51265000  0.37839000  0.69875000  1.0
  H  H8  1  0.48735000  0.62160000  0.30125000  1.0
  H  H9  1  0.45771000  0.64858000  0.86070000  1.0
  H  H10  1  0.54229000  0.35142000  0.13930000  1.0
  H  H11  1  0.26316000  0.78850000  0.74648000  1.0
  H  H12  1  0.73684000  0.21150000  0.25351000  1.0
  H  H13  1  0.35951000  0.88370000  0.44336000  1.0
  H  H14  1  0.64050000  0.11630000  0.55664000  1.0
  H  H15  1  0.56007000  0.88711000  0.28838000  1.0
  H  H16  1  0.43993000  0.11288000  0.71161000  1.0
  H  H17  1  0.19490000  0.06228000  0.03342000  1.0
  H  H18  1  0.80510000  0.93772000  0.96658000  1.0
  H  H19  1  0.01436000  0.05380000  0.20084000  1.0
  H  H20  1  0.98565000  0.94619000  0.79916000  1.0
  H  H21  1  0.63020000  0.94068000  0.09451000  1.0
  H  H22  1  0.36981000  0.05933000  0.90549000  1.0
  C  C23  1  0.79525000  0.61359000  0.07817000  1.0
  C  C24  1  0.20474000  0.38642000  0.92184000  1.0
  C  C25  1  0.88763000  0.70181000  0.24661000  1.0
  C  C26  1  0.11237000  0.29820000  0.75339000  1.0
  C  C27  1  0.99930000  0.62362000  0.30810000  1.0
  C  C28  1  0.00070000  0.37638000  0.69190000  1.0
  C  C29  1  0.09570000  0.69247000  0.45978000  1.0
  C  C30  1  0.90430000  0.30753000  0.54022000  1.0
  C  C31  1  0.20516000  0.59861000  0.52139000  1.0
  C  C32  1  0.79484000  0.40139000  0.47861000  1.0
  C  C33  1  0.23444000  0.44486000  0.43138000  1.0
  C  C34  1  0.76555000  0.55513000  0.56862000  1.0
  C  C35  1  0.34440000  0.36642000  0.49518000  1.0
  C  C36  1  0.65560000  0.63357000  0.50482000  1.0
  C  C37  1  0.42544000  0.43915000  0.64928000  1.0
  C  C38  1  0.57456000  0.56085000  0.35072000  1.0
  C  C39  1  0.39527000  0.59112000  0.74038000  1.0
  C  C40  1  0.60473000  0.40887000  0.25962000  1.0
  C  C41  1  0.28645000  0.66974000  0.67690000  1.0
  C  C42  1  0.71355000  0.33026000  0.32310000  1.0
  C  C43  1  0.32810000  0.92185000  0.35051000  1.0
  C  C44  1  0.67191000  0.07815000  0.64949000  1.0
  C  C45  1  0.43916000  0.92345000  0.26440000  1.0
  C  C46  1  0.56085000  0.07654000  0.73559000  1.0
  C  C47  1  0.39477000  0.97389000  0.14607000  1.0
  C  C48  1  0.60523000  0.02611000  0.85393000  1.0
  C  C49  1  0.23729000  0.02002000  0.12158000  1.0
  C  C50  1  0.76271000  0.97998000  0.87842000  1.0
  C  C51  1  0.13575000  0.01545000  0.21451000  1.0
  C  C52  1  0.86426000  0.98454000  0.78549000  1.0
  C  C53  1  0.51265000  0.97756000  0.05840000  1.0
  C  C54  1  0.48735000  0.02244000  0.94159000  1.0
  N  N55  1  0.17909000  0.96787000  0.32798000  1.0
  N  N56  1  0.82091000  0.03212000  0.67202000  1.0
  O  O57  1  0.84947000  0.84188000  0.30736000  1.0
  O  O58  1  0.15053000  0.15813000  0.69265000  1.0
  O  O59  1  0.09791000  0.83666000  0.55206000  1.0
  O  O60  1  0.90209000  0.16334000  0.44795000  1.0
  F  F61  1  0.84379000  0.68020000  0.98989000  1.0
  F  F62  1  0.15620000  0.31981000  0.01012000  1.0
  F  F63  1  0.63291000  0.62511000  0.06342000  1.0
  F  F64  1  0.36709000  0.37490000  0.93659000  1.0
  F  F65  1  0.81641000  0.45870000  0.01259000  1.0
  F  F66  1  0.18359000  0.54132000  0.98742000  1.0
