# generated using pymatgen
data_TlBH13C21(S2N)3
_symmetry_space_group_name_H-M   'P 1'
_cell_length_a   8.18287000
_cell_length_b   11.18290000
_cell_length_c   14.56050000
_cell_angle_alpha   84.86160000
_cell_angle_beta   89.99970000
_cell_angle_gamma   89.99950000
_symmetry_Int_Tables_number   1
_chemical_formula_structural   TlBH13C21(S2N)3
_chemical_formula_sum   'Tl2 B2 H26 C42 S12 N6'
_cell_volume   1327.05080717
_cell_formula_units_Z   2
loop_
 _symmetry_equiv_pos_site_id
 _symmetry_equiv_pos_as_xyz
  1  'x, y, z'
loop_
 _atom_site_type_symbol
 _atom_site_label
 _atom_site_symmetry_multiplicity
 _atom_site_fract_x
 _atom_site_fract_y
 _atom_site_fract_z
 _atom_site_occupancy
  Tl  Tl0  1  0.03437000  0.81012000  0.45517000  1.0
  Tl  Tl1  1  0.53437000  0.18988000  0.54483000  1.0
  B  B2  1  0.45367000  0.90240000  0.26817000  1.0
  B  B3  1  0.95367000  0.09760000  0.73183000  1.0
  H  H4  1  0.68029000  0.06914000  0.30773000  1.0
  H  H5  1  0.18029000  0.93086000  0.69227000  1.0
  H  H6  1  0.78404000  0.27546000  0.31450000  1.0
  H  H7  1  0.28404000  0.72453000  0.68550000  1.0
  H  H8  1  0.59751000  0.45167000  0.29209000  1.0
  H  H9  1  0.09751000  0.54832000  0.70791000  1.0
  H  H10  1  0.30373000  0.42317000  0.25941000  1.0
  H  H11  1  0.80372000  0.57683000  0.74059000  1.0
  H  H12  1  0.49857000  0.00622000  0.09910000  1.0
  H  H13  1  0.99858000  0.99377000  0.90090000  1.0
  H  H14  1  0.45905000  0.03425000  0.92988000  1.0
  H  H15  1  0.95906000  0.96575000  0.07012000  1.0
  H  H16  1  0.29543000  0.89101000  0.84908000  1.0
  H  H17  1  0.79543000  0.10899000  0.15092000  1.0
  H  H18  1  0.17056000  0.71107000  0.93600000  1.0
  H  H19  1  0.67056000  0.28894000  0.06400000  1.0
  H  H20  1  0.69644000  0.76023000  0.22085000  1.0
  H  H21  1  0.19644000  0.23977000  0.77915000  1.0
  H  H22  1  0.88843000  0.58883000  0.24535000  1.0
  H  H23  1  0.38843000  0.41116000  0.75465000  1.0
  H  H24  1  0.92077000  0.47828000  0.39995000  1.0
  H  H25  1  0.42077000  0.52172000  0.60005000  1.0
  H  H26  1  0.76840000  0.54350000  0.53521000  1.0
  H  H27  1  0.26839000  0.45651000  0.46479000  1.0
  H  H28  1  0.57821000  0.93189000  0.22732000  1.0
  H  H29  1  0.07822000  0.06811000  0.77268000  1.0
  C  C30  1  0.18587000  0.03185000  0.25712000  1.0
  C  C31  1  0.68587000  0.96815000  0.74288000  1.0
  C  C32  1  0.43208000  0.12865000  0.27521000  1.0
  C  C33  1  0.93207000  0.87135000  0.72479000  1.0
  C  C34  1  0.59770000  0.14514000  0.29475000  1.0
  C  C35  1  0.09770000  0.85486000  0.70525000  1.0
  C  C36  1  0.65526000  0.26208000  0.29933000  1.0
  C  C37  1  0.15525000  0.73792000  0.70067000  1.0
  C  C38  1  0.55085000  0.36152000  0.28622000  1.0
  C  C39  1  0.05084000  0.63847000  0.71378000  1.0
  C  C40  1  0.38562000  0.34601000  0.26727000  1.0
  C  C41  1  0.88561000  0.65399000  0.73273000  1.0
  C  C42  1  0.32816000  0.22955000  0.26134000  1.0
  C  C43  1  0.82815000  0.77045000  0.73866000  1.0
  C  C44  1  0.28595000  0.70776000  0.23839000  1.0
  C  C45  1  0.78595000  0.29224000  0.76161000  1.0
  C  C46  1  0.35714000  0.84126000  0.11408000  1.0
  C  C47  1  0.85715000  0.15873000  0.88592000  1.0
  C  C48  1  0.42647000  0.94194000  0.06460000  1.0
  C  C49  1  0.92648000  0.05806000  0.93541000  1.0
  C  C50  1  0.40353000  0.95748000  0.96951000  1.0
  C  C51  1  0.90354000  0.04252000  0.03049000  1.0
  C  C52  1  0.31181000  0.87563000  0.92339000  1.0
  C  C53  1  0.81182000  0.12437000  0.07661000  1.0
  C  C54  1  0.24199000  0.77502000  0.97164000  1.0
  C  C55  1  0.74199000  0.22498000  0.02836000  1.0
  C  C56  1  0.26621000  0.75858000  0.06690000  1.0
  C  C57  1  0.76621000  0.24142000  0.93310000  1.0
  C  C58  1  0.45382000  0.86211000  0.44911000  1.0
  C  C59  1  0.95382000  0.13789000  0.55089000  1.0
  C  C60  1  0.62264000  0.74871000  0.36439000  1.0
  C  C61  1  0.12263000  0.25129000  0.63561000  1.0
  C  C62  1  0.71010000  0.71256000  0.28885000  1.0
  C  C63  1  0.21009000  0.28744000  0.71115000  1.0
  C  C64  1  0.81695000  0.61560000  0.30322000  1.0
  C  C65  1  0.31694000  0.38440000  0.69678000  1.0
  C  C66  1  0.83611000  0.55349000  0.39064000  1.0
  C  C67  1  0.33610000  0.44651000  0.60936000  1.0
  C  C68  1  0.75118000  0.58919000  0.46655000  1.0
  C  C69  1  0.25118000  0.41082000  0.53346000  1.0
  C  C70  1  0.64630000  0.68776000  0.45256000  1.0
  C  C71  1  0.14630000  0.31225000  0.54744000  1.0
  S  S72  1  0.03805000  0.92810000  0.25761000  1.0
  S  S73  1  0.53805000  0.07191000  0.74239000  1.0
  S  S74  1  0.13073000  0.18291000  0.24093000  1.0
  S  S75  1  0.63072000  0.81709000  0.75907000  1.0
  S  S76  1  0.26067000  0.63929000  0.34447000  1.0
  S  S77  1  0.76067000  0.36071000  0.65553000  1.0
  S  S78  1  0.19721000  0.64363000  0.14531000  1.0
  S  S79  1  0.69721000  0.35637000  0.85470000  1.0
  S  S80  1  0.32334000  0.96728000  0.48116000  1.0
  S  S81  1  0.82335000  0.03273000  0.51884000  1.0
  S  S82  1  0.53403000  0.75770000  0.53302000  1.0
  S  S83  1  0.03402000  0.24230000  0.46698000  1.0
  N  N84  1  0.35056000  0.01913000  0.27023000  1.0
  N  N85  1  0.85056000  0.98087000  0.72977000  1.0
  N  N86  1  0.36624000  0.81110000  0.20963000  1.0
  N  N87  1  0.86624000  0.18890000  0.79037000  1.0
  N  N88  1  0.50956000  0.84286000  0.36390000  1.0
  N  N89  1  0.00955000  0.15715000  0.63610000  1.0
