# generated using pymatgen
data_Ba2P2H18C10N2O15
_symmetry_space_group_name_H-M   'P 1'
_cell_length_a   5.10742000
_cell_length_b   11.11140000
_cell_length_c   18.47270000
_cell_angle_alpha   101.65500000
_cell_angle_beta   90.00330000
_cell_angle_gamma   103.28100000
_symmetry_Int_Tables_number   1
_chemical_formula_structural   Ba2P2H18C10N2O15
_chemical_formula_sum   'Ba4 P4 H36 C20 N4 O30'
_cell_volume   998.07411740
_cell_formula_units_Z   2
loop_
 _symmetry_equiv_pos_site_id
 _symmetry_equiv_pos_as_xyz
  1  'x, y, z'
loop_
 _atom_site_type_symbol
 _atom_site_label
 _atom_site_symmetry_multiplicity
 _atom_site_fract_x
 _atom_site_fract_y
 _atom_site_fract_z
 _atom_site_occupancy
  Ba  Ba0  1  0.19710000  0.10144000  0.61168000  1.0
  Ba  Ba1  1  0.09557000  0.89849000  0.88826000  1.0
  Ba  Ba2  1  0.80290000  0.89856000  0.38833000  1.0
  Ba  Ba3  1  0.90442000  0.10149000  0.11174000  1.0
  P  P4  1  0.49019000  0.17218000  0.44737000  1.0
  P  P5  1  0.31846000  0.82807000  0.05256000  1.0
  P  P6  1  0.50982000  0.82783000  0.55263000  1.0
  P  P7  1  0.68153000  0.17193000  0.94744000  1.0
  H  H8  1  0.82522000  0.25740000  0.54347000  1.0
  H  H9  1  0.56782000  0.74266000  0.95649000  1.0
  H  H10  1  0.17479000  0.74261000  0.45653000  1.0
  H  H11  1  0.43219000  0.25733000  0.04351000  1.0
  H  H12  1  0.35581000  0.05451000  0.78666000  1.0
  H  H13  1  0.30180000  0.94577000  0.71351000  1.0
  H  H14  1  0.64418000  0.94549000  0.21335000  1.0
  H  H15  1  0.69821000  0.05424000  0.28649000  1.0
  H  H16  1  0.73536000  0.33064000  0.35493000  1.0
  H  H17  1  0.40526000  0.66955000  0.14496000  1.0
  H  H18  1  0.26461000  0.66936000  0.64506000  1.0
  H  H19  1  0.59474000  0.33045000  0.85505000  1.0
  H  H20  1  0.24699000  0.33853000  0.44025000  1.0
  H  H21  1  0.90897000  0.66208000  0.05984000  1.0
  H  H22  1  0.75300000  0.66147000  0.55975000  1.0
  H  H23  1  0.09104000  0.33792000  0.94016000  1.0
  H  H24  1  0.58548000  0.40057000  0.47814000  1.0
  H  H25  1  0.18485000  0.59966000  0.02176000  1.0
  H  H26  1  0.41451000  0.59944000  0.52186000  1.0
  H  H27  1  0.81514000  0.40032000  0.97825000  1.0
  H  H28  1  0.43528000  0.52889000  0.38266000  1.0
  H  H29  1  0.90704000  0.47137000  0.11700000  1.0
  H  H30  1  0.56473000  0.47111000  0.61734000  1.0
  H  H31  1  0.09298000  0.52863000  0.88300000  1.0
  H  H32  1  0.62295000  0.50033000  0.30201000  1.0
  H  H33  1  0.12263000  0.49964000  0.19774000  1.0
  H  H34  1  0.37707000  0.49966000  0.69799000  1.0
  H  H35  1  0.87737000  0.50034000  0.80226000  1.0
  H  H36  1  0.21244000  0.31921000  0.28611000  1.0
  H  H37  1  0.89354000  0.68118000  0.21373000  1.0
  H  H38  1  0.78753000  0.68080000  0.71389000  1.0
  H  H39  1  0.10646000  0.31881000  0.78627000  1.0
  H  H40  1  0.26600000  0.18398000  0.31475000  1.0
  H  H41  1  0.08376000  0.81646000  0.18538000  1.0
  H  H42  1  0.73397000  0.81603000  0.68526000  1.0
  H  H43  1  0.91622000  0.18354000  0.81462000  1.0
  C  C44  1  0.45502000  0.32889000  0.43540000  1.0
  C  C45  1  0.12656000  0.67144000  0.06455000  1.0
  C  C46  1  0.54498000  0.67112000  0.56460000  1.0
  C  C47  1  0.87344000  0.32855000  0.93545000  1.0
  C  C48  1  0.60519000  0.49110000  0.35998000  1.0
  C  C49  1  0.11462000  0.50907000  0.13979000  1.0
  C  C50  1  0.39482000  0.50891000  0.64001000  1.0
  C  C51  1  0.88541000  0.49092000  0.86022000  1.0
  C  C52  1  0.87285000  0.55796000  0.40242000  1.0
  C  C53  1  0.31551000  0.44224000  0.09742000  1.0
  C  C54  1  0.12717000  0.44205000  0.59758000  1.0
  C  C55  1  0.68453000  0.55777000  0.90259000  1.0
  C  C56  1  0.36840000  0.27198000  0.29860000  1.0
  C  C57  1  0.09707000  0.72817000  0.20135000  1.0
  C  C58  1  0.63158000  0.72803000  0.70140000  1.0
  C  C59  1  0.90292000  0.27183000  0.79865000  1.0
  C  C60  1  0.53457000  0.23872000  0.23183000  1.0
  C  C61  1  0.29608000  0.76087000  0.26818000  1.0
  C  C62  1  0.46539000  0.76126000  0.76817000  1.0
  C  C63  1  0.70390000  0.23913000  0.73182000  1.0
  N  N64  1  0.54900000  0.35362000  0.36188000  1.0
  N  N65  1  0.19594000  0.64658000  0.13801000  1.0
  N  N66  1  0.45099000  0.64639000  0.63811000  1.0
  N  N67  1  0.80406000  0.35341000  0.86199000  1.0
  O  O68  1  0.21675000  0.08720000  0.45409000  1.0
  O  O69  1  0.13033000  0.91320000  0.04590000  1.0
  O  O70  1  0.78327000  0.91280000  0.54590000  1.0
  O  O71  1  0.86967000  0.08679000  0.95409000  1.0
  O  O72  1  0.66546000  0.12769000  0.38611000  1.0
  O  O73  1  0.53844000  0.87232000  0.11379000  1.0
  O  O74  1  0.33458000  0.87232000  0.61390000  1.0
  O  O75  1  0.46156000  0.12767000  0.88622000  1.0
  O  O76  1  0.63076000  0.19916000  0.52744000  1.0
  O  O77  1  0.43163000  0.80095000  0.97245000  1.0
  O  O78  1  0.36923000  0.80086000  0.47256000  1.0
  O  O79  1  0.56838000  0.19904000  0.02755000  1.0
  O  O80  1  0.91050000  0.67833000  0.42308000  1.0
  O  O81  1  0.23262000  0.32184000  0.07683000  1.0
  O  O82  1  0.08952000  0.32169000  0.57692000  1.0
  O  O83  1  0.76740000  0.67816000  0.92317000  1.0
  O  O84  1  0.03275000  0.49240000  0.41291000  1.0
  O  O85  1  0.54098000  0.50774000  0.08692000  1.0
  O  O86  1  0.96724000  0.50761000  0.58709000  1.0
  O  O87  1  0.45907000  0.49226000  0.91309000  1.0
  O  O88  1  0.40800000  0.15678000  0.17777000  1.0
  O  O89  1  0.25109000  0.84254000  0.32234000  1.0
  O  O90  1  0.59198000  0.84322000  0.82222000  1.0
  O  O91  1  0.74889000  0.15746000  0.67765000  1.0
  O  O92  1  0.78451000  0.28969000  0.23596000  1.0
  O  O93  1  0.49493000  0.70982000  0.26401000  1.0
  O  O94  1  0.21546000  0.71030000  0.76404000  1.0
  O  O95  1  0.50507000  0.29019000  0.73600000  1.0
  O  O96  1  0.21518000  0.00021000  0.75000000  1.0
  O  O97  1  0.78482000  0.99979000  0.25001000  1.0
