# generated using pymatgen
data_AgH23C23S(NO2)2
_symmetry_space_group_name_H-M   'P 1'
_cell_length_a   8.08206000
_cell_length_b   10.59750000
_cell_length_c   13.00900000
_cell_angle_alpha   70.05970000
_cell_angle_beta   89.49130000
_cell_angle_gamma   85.41780000
_symmetry_Int_Tables_number   1
_chemical_formula_structural   AgH23C23S(NO2)2
_chemical_formula_sum   'Ag2 H46 C46 S2 N4 O8'
_cell_volume   1043.86870596
_cell_formula_units_Z   2
loop_
 _symmetry_equiv_pos_site_id
 _symmetry_equiv_pos_as_xyz
  1  'x, y, z'
loop_
 _atom_site_type_symbol
 _atom_site_label
 _atom_site_symmetry_multiplicity
 _atom_site_fract_x
 _atom_site_fract_y
 _atom_site_fract_z
 _atom_site_occupancy
  Ag  Ag0  1  0.10741000  0.42483000  0.36460000  1.0
  Ag  Ag1  1  0.89258000  0.57517000  0.63541000  1.0
  H  H2  1  0.48098000  0.02972000  0.38076000  1.0
  H  H3  1  0.51903000  0.97028000  0.61924000  1.0
  H  H4  1  0.84207000  0.70375000  0.36879000  1.0
  H  H5  1  0.15794000  0.29624000  0.63122000  1.0
  H  H6  1  0.93331000  0.13868000  0.07518000  1.0
  H  H7  1  0.06669000  0.86133000  0.92482000  1.0
  H  H8  1  0.02903000  0.97782000  0.14905000  1.0
  H  H9  1  0.97097000  0.02218000  0.85096000  1.0
  H  H10  1  0.15599000  0.09124000  0.47488000  1.0
  H  H11  1  0.84402000  0.90876000  0.52512000  1.0
  H  H12  1  0.98690000  0.35106000  0.05566000  1.0
  H  H13  1  0.01310000  0.64895000  0.94434000  1.0
  H  H14  1  0.08287000  0.44685000  0.12273000  1.0
  H  H15  1  0.91713000  0.55315000  0.87728000  1.0
  H  H16  1  0.62090000  0.09811000  0.09415000  1.0
  H  H17  1  0.37909000  0.90188000  0.90586000  1.0
  H  H18  1  0.76082000  0.96993000  0.29419000  1.0
  H  H19  1  0.23919000  0.03006000  0.70581000  1.0
  H  H20  1  0.04597000  0.85558000  0.29662000  1.0
  H  H21  1  0.95402000  0.14442000  0.70338000  1.0
  H  H22  1  0.30190000  0.72224000  0.59789000  1.0
  H  H23  1  0.69811000  0.27776000  0.40211000  1.0
  H  H24  1  0.27015000  0.90019000  0.54072000  1.0
  H  H25  1  0.72986000  0.09981000  0.45928000  1.0
  H  H26  1  0.06764000  0.21477000  0.90656000  1.0
  H  H27  1  0.93236000  0.78524000  0.09344000  1.0
  H  H28  1  0.70127000  0.25107000  0.22131000  1.0
  H  H29  1  0.29873000  0.74893000  0.77869000  1.0
  H  H30  1  0.67797000  0.32234000  0.07812000  1.0
  H  H31  1  0.32203000  0.67766000  0.92188000  1.0
  H  H32  1  0.82146000  0.46218000  0.22496000  1.0
  H  H33  1  0.17854000  0.53782000  0.77504000  1.0
  H  H34  1  0.79275000  0.53392000  0.08202000  1.0
  H  H35  1  0.20725000  0.46608000  0.91799000  1.0
  H  H36  1  0.47668000  0.50655000  0.09790000  1.0
  H  H37  1  0.52332000  0.49346000  0.90210000  1.0
  H  H38  1  0.50109000  0.43838000  0.24210000  1.0
  H  H39  1  0.49890000  0.56162000  0.75790000  1.0
  H  H40  1  0.40849000  0.34531000  0.17035000  1.0
  H  H41  1  0.59151000  0.65469000  0.82965000  1.0
  H  H42  1  0.32548000  0.27631000  0.79987000  1.0
  H  H43  1  0.67452000  0.72369000  0.20014000  1.0
  H  H44  1  0.72418000  0.31000000  0.73014000  1.0
  H  H45  1  0.27582000  0.69000000  0.26986000  1.0
  H  H46  1  0.36709000  0.03320000  0.20090000  1.0
  H  H47  1  0.63290000  0.96679000  0.79910000  1.0
  C  C48  1  0.09986000  0.03323000  0.32927000  1.0
  C  C49  1  0.90014000  0.96677000  0.67073000  1.0
  C  C50  1  0.53993000  0.92815000  0.39951000  1.0
  C  C51  1  0.46007000  0.07185000  0.60048000  1.0
  C  C52  1  0.47373000  0.81613000  0.47171000  1.0
  C  C53  1  0.52627000  0.18387000  0.52829000  1.0
  C  C54  1  0.73522000  0.75911000  0.38893000  1.0
  C  C55  1  0.26479000  0.24088000  0.61107000  1.0
  C  C56  1  0.04202000  0.25009000  0.22501000  1.0
  C  C57  1  0.95799000  0.74991000  0.77499000  1.0
  C  C58  1  0.04312000  0.08619000  0.12509000  1.0
  C  C59  1  0.95688000  0.91381000  0.87491000  1.0
  C  C60  1  0.20013000  0.12055000  0.06049000  1.0
  C  C61  1  0.79987000  0.87945000  0.93951000  1.0
  C  C62  1  0.12096000  0.11672000  0.38960000  1.0
  C  C63  1  0.87904000  0.88328000  0.61040000  1.0
  C  C64  1  0.98904000  0.37412000  0.13172000  1.0
  C  C65  1  0.01096000  0.62588000  0.86828000  1.0
  C  C66  1  0.49936000  0.12471000  0.05374000  1.0
  C  C67  1  0.50064000  0.87529000  0.94627000  1.0
  C  C68  1  0.68968000  0.89545000  0.35252000  1.0
  C  C69  1  0.31033000  0.10454000  0.64748000  1.0
  C  C70  1  0.11033000  0.88971000  0.35442000  1.0
  C  C71  1  0.88966000  0.11029000  0.64558000  1.0
  C  C72  1  0.18732000  0.79010000  0.43921000  1.0
  C  C73  1  0.81268000  0.20990000  0.56079000  1.0
  C  C74  1  0.30444000  0.80859000  0.52176000  1.0
  C  C75  1  0.69556000  0.19141000  0.47824000  1.0
  C  C76  1  0.18957000  0.18764000  0.94723000  1.0
  C  C77  1  0.81043000  0.81237000  0.05277000  1.0
  C  C78  1  0.48877000  0.19372000  0.94074000  1.0
  C  C79  1  0.51123000  0.80627000  0.05927000  1.0
  C  C80  1  0.67701000  0.34766000  0.15351000  1.0
  C  C81  1  0.32299000  0.65234000  0.84649000  1.0
  C  C82  1  0.64265000  0.23489000  0.87883000  1.0
  C  C83  1  0.35735000  0.76511000  0.12118000  1.0
  C  C84  1  0.81731000  0.43748000  0.14925000  1.0
  C  C85  1  0.18269000  0.56252000  0.85075000  1.0
  C  C86  1  0.50648000  0.41272000  0.16694000  1.0
  C  C87  1  0.49352000  0.58728000  0.83306000  1.0
  C  C88  1  0.33304000  0.22339000  0.88772000  1.0
  C  C89  1  0.66696000  0.77661000  0.11228000  1.0
  C  C90  1  0.35649000  0.08808000  0.11311000  1.0
  C  C91  1  0.64351000  0.91192000  0.88689000  1.0
  C  C92  1  0.16858000  0.64755000  0.44725000  1.0
  C  C93  1  0.83142000  0.35245000  0.55275000  1.0
  S  S94  1  0.59487000  0.67132000  0.47968000  1.0
  S  S95  1  0.40513000  0.32867000  0.52032000  1.0
  N  N96  1  0.08489000  0.24857000  0.32476000  1.0
  N  N97  1  0.91511000  0.75144000  0.67524000  1.0
  N  N98  1  0.04815000  0.12133000  0.22470000  1.0
  N  N99  1  0.95184000  0.87868000  0.77530000  1.0
  O  O100  1  0.14004000  0.62829000  0.35494000  1.0
  O  O101  1  0.85996000  0.37171000  0.64506000  1.0
  O  O102  1  0.61767000  0.27929000  0.77110000  1.0
  O  O103  1  0.38233000  0.72070000  0.22890000  1.0
  O  O104  1  0.77934000  0.22908000  0.92328000  1.0
  O  O105  1  0.22066000  0.77091000  0.07672000  1.0
  O  O106  1  0.17886000  0.55569000  0.53857000  1.0
  O  O107  1  0.82113000  0.44431000  0.46144000  1.0
