# generated using pymatgen
data_CuH14C12N2O3
_symmetry_space_group_name_H-M   'P 1'
_cell_length_a   5.26235000
_cell_length_b   9.08398000
_cell_length_c   26.32030000
_cell_angle_alpha   90.00070000
_cell_angle_beta   90.00080000
_cell_angle_gamma   89.99870000
_symmetry_Int_Tables_number   1
_chemical_formula_structural   CuH14C12N2O3
_chemical_formula_sum   'Cu4 H56 C48 N8 O12'
_cell_volume   1258.19146265
_cell_formula_units_Z   4
loop_
 _symmetry_equiv_pos_site_id
 _symmetry_equiv_pos_as_xyz
  1  'x, y, z'
loop_
 _atom_site_type_symbol
 _atom_site_label
 _atom_site_symmetry_multiplicity
 _atom_site_fract_x
 _atom_site_fract_y
 _atom_site_fract_z
 _atom_site_occupancy
  Cu  Cu0  1  0.07108000  0.79949000  0.79101000  1.0
  Cu  Cu1  1  0.42892000  0.20052000  0.29100000  1.0
  Cu  Cu2  1  0.92887000  0.29948000  0.70899000  1.0
  Cu  Cu3  1  0.57111000  0.70052000  0.20899000  1.0
  H  H4  1  0.12309000  0.05858000  0.82764000  1.0
  H  H5  1  0.37692000  0.94142000  0.32763000  1.0
  H  H6  1  0.87682000  0.55859000  0.67237000  1.0
  H  H7  1  0.62312000  0.44142000  0.17237000  1.0
  H  H8  1  0.01098000  0.93008000  0.86779000  1.0
  H  H9  1  0.48903000  0.06993000  0.36779000  1.0
  H  H10  1  0.98894000  0.43009000  0.63221000  1.0
  H  H11  1  0.51101000  0.56991000  0.13221000  1.0
  H  H12  1  0.53155000  0.02261000  0.84824000  1.0
  H  H13  1  0.96845000  0.97738000  0.34823000  1.0
  H  H14  1  0.46836000  0.52263000  0.65176000  1.0
  H  H15  1  0.03158000  0.47736000  0.15176000  1.0
  H  H16  1  0.60286000  0.59577000  0.76503000  1.0
  H  H17  1  0.89714000  0.40424000  0.26504000  1.0
  H  H18  1  0.39711000  0.09577000  0.73496000  1.0
  H  H19  1  0.10288000  0.90422000  0.23496000  1.0
  H  H20  1  0.35282000  0.05664000  0.93438000  1.0
  H  H21  1  0.14717000  0.94335000  0.43437000  1.0
  H  H22  1  0.64716000  0.55665000  0.56563000  1.0
  H  H23  1  0.85284000  0.44331000  0.06563000  1.0
  H  H24  1  0.59845000  0.92013000  0.93661000  1.0
  H  H25  1  0.90153000  0.07985000  0.43660000  1.0
  H  H26  1  0.40151000  0.42015000  0.56338000  1.0
  H  H27  1  0.09848000  0.57982000  0.06339000  1.0
  H  H28  1  0.27498000  0.86517000  0.93801000  1.0
  H  H29  1  0.22501000  0.13481000  0.43801000  1.0
  H  H30  1  0.72500000  0.36518000  0.56199000  1.0
  H  H31  1  0.77500000  0.63479000  0.06199000  1.0
  H  H32  1  0.57680000  0.35320000  0.80486000  1.0
  H  H33  1  0.92324000  0.64680000  0.30487000  1.0
  H  H34  1  0.42315000  0.85321000  0.69512000  1.0
  H  H35  1  0.07687000  0.14678000  0.19513000  1.0
  H  H36  1  0.73690000  0.48831000  0.84177000  1.0
  H  H37  1  0.76313000  0.51170000  0.34178000  1.0
  H  H38  1  0.26307000  0.98833000  0.65822000  1.0
  H  H39  1  0.23693000  0.01166000  0.15823000  1.0
  H  H40  1  0.60687000  0.54932000  0.92481000  1.0
  H  H41  1  0.89313000  0.45070000  0.42481000  1.0
  H  H42  1  0.39313000  0.04933000  0.57518000  1.0
  H  H43  1  0.10692000  0.95070000  0.07519000  1.0
  H  H44  1  0.34066000  0.49229000  0.00031000  1.0
  H  H45  1  0.15928000  0.50774000  0.50032000  1.0
  H  H46  1  0.65934000  0.99228000  0.49968000  1.0
  H  H47  1  0.84072000  0.00774000  0.99969000  1.0
  H  H48  1  0.96169000  0.32784000  0.99158000  1.0
  H  H49  1  0.53828000  0.67218000  0.49160000  1.0
  H  H50  1  0.03831000  0.82783000  0.50842000  1.0
  H  H51  1  0.46172000  0.17218000  0.00842000  1.0
  H  H52  1  0.85077000  0.22537000  0.90712000  1.0
  H  H53  1  0.64928000  0.77462000  0.40713000  1.0
  H  H54  1  0.14923000  0.72537000  0.59288000  1.0
  H  H55  1  0.35077000  0.27462000  0.09289000  1.0
  H  H56  1  0.11831000  0.28438000  0.83154000  1.0
  H  H57  1  0.38177000  0.71559000  0.33155000  1.0
  H  H58  1  0.88168000  0.78440000  0.66845000  1.0
  H  H59  1  0.61830000  0.21559000  0.16846000  1.0
  C  C60  1  0.40849000  0.93563000  0.86404000  1.0
  C  C61  1  0.09151000  0.06436000  0.36404000  1.0
  C  C62  1  0.59144000  0.43565000  0.63596000  1.0
  C  C63  1  0.90853000  0.56435000  0.13596000  1.0
  C  C64  1  0.52457000  0.78906000  0.84613000  1.0
  C  C65  1  0.97544000  0.21095000  0.34613000  1.0
  C  C66  1  0.47536000  0.28906000  0.65387000  1.0
  C  C67  1  0.02460000  0.71093000  0.15387000  1.0
  C  C68  1  0.44826000  0.57327000  0.79262000  1.0
  C  C69  1  0.05175000  0.42674000  0.29262000  1.0
  C  C70  1  0.55170000  0.07327000  0.70738000  1.0
  C  C71  1  0.94829000  0.92673000  0.20738000  1.0
  C  C72  1  0.22160000  0.52245000  0.76038000  1.0
  C  C73  1  0.27836000  0.47754000  0.26038000  1.0
  C  C74  1  0.77834000  0.02246000  0.73961000  1.0
  C  C75  1  0.72163000  0.97755000  0.23961000  1.0
  C  C76  1  0.40849000  0.94595000  0.92190000  1.0
  C  C77  1  0.09149000  0.05404000  0.42190000  1.0
  C  C78  1  0.59146000  0.44596000  0.57810000  1.0
  C  C79  1  0.90852000  0.55401000  0.07810000  1.0
  C  C80  1  0.55005000  0.45223000  0.82833000  1.0
  C  C81  1  0.94999000  0.54777000  0.32834000  1.0
  C  C82  1  0.44992000  0.95224000  0.67166000  1.0
  C  C83  1  0.05009000  0.04776000  0.17167000  1.0
  C  C84  1  0.38300000  0.41864000  0.87333000  1.0
  C  C85  1  0.11702000  0.58135000  0.37334000  1.0
  C  C86  1  0.61698000  0.91867000  0.62666000  1.0
  C  C87  1  0.88305000  0.08136000  0.12666000  1.0
  C  C88  1  0.44083000  0.47815000  0.92112000  1.0
  C  C89  1  0.05917000  0.52186000  0.42113000  1.0
  C  C90  1  0.55915000  0.97815000  0.57887000  1.0
  C  C91  1  0.94089000  0.02187000  0.07888000  1.0
  C  C92  1  0.29054000  0.44609000  0.96338000  1.0
  C  C93  1  0.20944000  0.55392000  0.46339000  1.0
  C  C94  1  0.70945000  0.94609000  0.53661000  1.0
  C  C95  1  0.79060000  0.05394000  0.03661000  1.0
  C  C96  1  0.07894000  0.35415000  0.95868000  1.0
  C  C97  1  0.42105000  0.64586000  0.45869000  1.0
  C  C98  1  0.92107000  0.85415000  0.54132000  1.0
  C  C99  1  0.57897000  0.14587000  0.04132000  1.0
  C  C100  1  0.01807000  0.29544000  0.91117000  1.0
  C  C101  1  0.48197000  0.70455000  0.41118000  1.0
  C  C102  1  0.98192000  0.79544000  0.58883000  1.0
  C  C103  1  0.51810000  0.20456000  0.08883000  1.0
  C  C104  1  0.16854000  0.32774000  0.86891000  1.0
  C  C105  1  0.33150000  0.67223000  0.36892000  1.0
  C  C106  1  0.83143000  0.82776000  0.63109000  1.0
  C  C107  1  0.66858000  0.17225000  0.13109000  1.0
  N  N108  1  0.15224000  0.95605000  0.84236000  1.0
  N  N109  1  0.34777000  0.04395000  0.34236000  1.0
  N  N110  1  0.84768000  0.45606000  0.65764000  1.0
  N  N111  1  0.65228000  0.54394000  0.15764000  1.0
  N  N112  1  0.37236000  0.70948000  0.81684000  1.0
  N  N113  1  0.12765000  0.29051000  0.31684000  1.0
  N  N114  1  0.62758000  0.20950000  0.68316000  1.0
  N  N115  1  0.87239000  0.79051000  0.18316000  1.0
  O  O116  1  0.05220000  0.61763000  0.74810000  1.0
  O  O117  1  0.44779000  0.38237000  0.24811000  1.0
  O  O118  1  0.94777000  0.11762000  0.75188000  1.0
  O  O119  1  0.55219000  0.88238000  0.25188000  1.0
  O  O120  1  0.21443000  0.38914000  0.74618000  1.0
  O  O121  1  0.28555000  0.61087000  0.24618000  1.0
  O  O122  1  0.78551000  0.88914000  0.75382000  1.0
  O  O123  1  0.71450000  0.11086000  0.25382000  1.0
  O  O124  1  0.74859000  0.75749000  0.85970000  1.0
  O  O125  1  0.75142000  0.24250000  0.35970000  1.0
  O  O126  1  0.25136000  0.25750000  0.64029000  1.0
  O  O127  1  0.24860000  0.74248000  0.14029000  1.0
