# generated using pymatgen
data_UCuH11C17N2O9
_symmetry_space_group_name_H-M   'P 1'
_cell_length_a   8.40792000
_cell_length_b   10.83400000
_cell_length_c   11.36550000
_cell_angle_alpha   101.53200000
_cell_angle_beta   100.34300000
_cell_angle_gamma   109.05700000
_symmetry_Int_Tables_number   1
_chemical_formula_structural   UCuH11C17N2O9
_chemical_formula_sum   'U2 Cu2 H22 C34 N4 O18'
_cell_volume   924.69827238
_cell_formula_units_Z   2
loop_
 _symmetry_equiv_pos_site_id
 _symmetry_equiv_pos_as_xyz
  1  'x, y, z'
loop_
 _atom_site_type_symbol
 _atom_site_label
 _atom_site_symmetry_multiplicity
 _atom_site_fract_x
 _atom_site_fract_y
 _atom_site_fract_z
 _atom_site_occupancy
  U  U0  1  0.29189000  0.46285000  0.06313000  1.0
  U  U1  1  0.70810000  0.53715000  0.93686000  1.0
  Cu  Cu2  1  0.15167000  0.03889000  0.23083000  1.0
  Cu  Cu3  1  0.84825000  0.96110000  0.76916000  1.0
  H  H4  1  0.53402000  0.20986000  0.00177000  1.0
  H  H5  1  0.46599000  0.79013000  0.99823000  1.0
  H  H6  1  0.75630000  0.23494000  0.18703000  1.0
  H  H7  1  0.24370000  0.76507000  0.81297000  1.0
  H  H8  1  0.77847000  0.40417000  0.25201000  1.0
  H  H9  1  0.22153000  0.59583000  0.74799000  1.0
  H  H10  1  0.10523000  0.31029000  0.32247000  1.0
  H  H11  1  0.89474000  0.68971000  0.67752000  1.0
  H  H12  1  0.12663000  0.44661000  0.53603000  1.0
  H  H13  1  0.87337000  0.55339000  0.46397000  1.0
  H  H14  1  0.20186000  0.36164000  0.72200000  1.0
  H  H15  1  0.79815000  0.63837000  0.27801000  1.0
  H  H16  1  0.34746000  0.97186000  0.76019000  1.0
  H  H17  1  0.65255000  0.02814000  0.23982000  1.0
  H  H18  1  0.28317000  0.18328000  0.80345000  1.0
  H  H19  1  0.71684000  0.81672000  0.19655000  1.0
  H  H20  1  0.36598000  0.77785000  0.60174000  1.0
  H  H21  1  0.63402000  0.22213000  0.39825000  1.0
  H  H22  1  0.32365000  0.66414000  0.37449000  1.0
  H  H23  1  0.67635000  0.33587000  0.62549000  1.0
  H  H24  1  0.22931000  0.76893000  0.21261000  1.0
  H  H25  1  0.77069000  0.23108000  0.78737000  1.0
  C  C26  1  0.42931000  0.24047000  0.15778000  1.0
  C  C27  1  0.57069000  0.75953000  0.84222000  1.0
  C  C28  1  0.56299000  0.29406000  0.08602000  1.0
  C  C29  1  0.43700000  0.70594000  0.91397000  1.0
  C  C30  1  0.74748000  0.32654000  0.16347000  1.0
  C  C31  1  0.25252000  0.67346000  0.83653000  1.0
  C  C32  1  0.88627000  0.37549000  0.09715000  1.0
  C  C33  1  0.11373000  0.62451000  0.90285000  1.0
  C  C34  1  0.05052000  0.95547000  0.98067000  1.0
  C  C35  1  0.94950000  0.04453000  0.01936000  1.0
  C  C36  1  0.13705000  0.27728000  0.40539000  1.0
  C  C37  1  0.86294000  0.72269000  0.59460000  1.0
  C  C38  1  0.14996000  0.35224000  0.52555000  1.0
  C  C39  1  0.85004000  0.64775000  0.47444000  1.0
  C  C40  1  0.19185000  0.30647000  0.62784000  1.0
  C  C41  1  0.80815000  0.69354000  0.37217000  1.0
  C  C42  1  0.22316000  0.18439000  0.61034000  1.0
  C  C43  1  0.77685000  0.81561000  0.38966000  1.0
  C  C44  1  0.20759000  0.11512000  0.48690000  1.0
  C  C45  1  0.79240000  0.88488000  0.51309000  1.0
  C  C46  1  0.23921000  0.99189000  0.46125000  1.0
  C  C47  1  0.76079000  0.00810000  0.53874000  1.0
  C  C48  1  0.28970000  0.93987000  0.56008000  1.0
  C  C49  1  0.71030000  0.06013000  0.43992000  1.0
  C  C50  1  0.30604000  0.01222000  0.68482000  1.0
  C  C51  1  0.69397000  0.98778000  0.31518000  1.0
  C  C52  1  0.27218000  0.12874000  0.70893000  1.0
  C  C53  1  0.72783000  0.87126000  0.29108000  1.0
  C  C54  1  0.32101000  0.81847000  0.52760000  1.0
  C  C55  1  0.67900000  0.18152000  0.47240000  1.0
  C  C56  1  0.29899000  0.75662000  0.40374000  1.0
  C  C57  1  0.70100000  0.24339000  0.59624000  1.0
  C  C58  1  0.24788000  0.81543000  0.31102000  1.0
  C  C59  1  0.75211000  0.18460000  0.68897000  1.0
  N  N60  1  0.16442000  0.16139000  0.38788000  1.0
  N  N61  1  0.83556000  0.83860000  0.61212000  1.0
  N  N62  1  0.21987000  0.93053000  0.33981000  1.0
  N  N63  1  0.78014000  0.06948000  0.66019000  1.0
  O  O64  1  0.16351000  0.33655000  0.91543000  1.0
  O  O65  1  0.83649000  0.66345000  0.08457000  1.0
  O  O66  1  0.41506000  0.58843000  0.21185000  1.0
  O  O67  1  0.58495000  0.41157000  0.78815000  1.0
  O  O68  1  0.30710000  0.28767000  0.15130000  1.0
  O  O69  1  0.69290000  0.71232000  0.84870000  1.0
  O  O70  1  0.44000000  0.15468000  0.21495000  1.0
  O  O71  1  0.56001000  0.84532000  0.78505000  1.0
  O  O72  1  0.04373000  0.40334000  0.15278000  1.0
  O  O73  1  0.95627000  0.59666000  0.84721000  1.0
  O  O74  1  0.83734000  0.38628000  0.98767000  1.0
  O  O75  1  0.16266000  0.61372000  0.01233000  1.0
  O  O76  1  0.54166000  0.40711000  0.05122000  1.0
  O  O77  1  0.45833000  0.59289000  0.94877000  1.0
  O  O78  1  0.14469000  0.93132000  0.06628000  1.0
  O  O79  1  0.85529000  0.06871000  0.93378000  1.0
  O  O80  1  0.03441000  0.91306000  0.86557000  1.0
  O  O81  1  0.96565000  0.08694000  0.13447000  1.0
