# generated using pymatgen
data_ZnH16C18(SN4)2
_symmetry_space_group_name_H-M   'P 1'
_cell_length_a   8.16118000
_cell_length_b   10.16470000
_cell_length_c   12.96590000
_cell_angle_alpha   90.20360000
_cell_angle_beta   98.51710000
_cell_angle_gamma   107.78800000
_symmetry_Int_Tables_number   1
_chemical_formula_structural   ZnH16C18(SN4)2
_chemical_formula_sum   'Zn2 H32 C36 S4 N16'
_cell_volume   1011.52197328
_cell_formula_units_Z   2
loop_
 _symmetry_equiv_pos_site_id
 _symmetry_equiv_pos_as_xyz
  1  'x, y, z'
loop_
 _atom_site_type_symbol
 _atom_site_label
 _atom_site_symmetry_multiplicity
 _atom_site_fract_x
 _atom_site_fract_y
 _atom_site_fract_z
 _atom_site_occupancy
  Zn  Zn0  1  0.50835000  0.87392000  0.79074000  1.0
  Zn  Zn1  1  0.49165000  0.12608000  0.20926000  1.0
  H  H2  1  0.73355000  0.10833000  0.98905000  1.0
  H  H3  1  0.26645000  0.89167000  0.01095000  1.0
  H  H4  1  0.93422000  0.19077000  0.15822000  1.0
  H  H5  1  0.06578000  0.80922000  0.84179000  1.0
  H  H6  1  0.05732000  0.03267000  0.26334000  1.0
  H  H7  1  0.94269000  0.96733000  0.73666000  1.0
  H  H8  1  0.98896000  0.78387000  0.20677000  1.0
  H  H9  1  0.01104000  0.21613000  0.79323000  1.0
  H  H10  1  0.69706000  0.47416000  0.98968000  1.0
  H  H11  1  0.30294000  0.52584000  0.01032000  1.0
  H  H12  1  0.81919000  0.54871000  0.11352000  1.0
  H  H13  1  0.18081000  0.45128000  0.88648000  1.0
  H  H14  1  0.08137000  0.65610000  0.02529000  1.0
  H  H15  1  0.91863000  0.34389000  0.97471000  1.0
  H  H16  1  0.95727000  0.57797000  0.90346000  1.0
  H  H17  1  0.04272000  0.42203000  0.09654000  1.0
  H  H18  1  0.62455000  0.48836000  0.59906000  1.0
  H  H19  1  0.37544000  0.51165000  0.40094000  1.0
  H  H20  1  0.62609000  0.42463000  0.47221000  1.0
  H  H21  1  0.37390000  0.57537000  0.52779000  1.0
  H  H22  1  0.85559000  0.64312000  0.51112000  1.0
  H  H23  1  0.14440000  0.35688000  0.48888000  1.0
  H  H24  1  0.69701000  0.65750000  0.40505000  1.0
  H  H25  1  0.30298000  0.34250000  0.59495000  1.0
  H  H26  1  0.83023000  0.90111000  0.36381000  1.0
  H  H27  1  0.16977000  0.09889000  0.63619000  1.0
  H  H28  1  0.87552000  0.15518000  0.35776000  1.0
  H  H29  1  0.12447000  0.84482000  0.64224000  1.0
  H  H30  1  0.80591000  0.28408000  0.49699000  1.0
  H  H31  1  0.19409000  0.71592000  0.50301000  1.0
  H  H32  1  0.67892000  0.16538000  0.64843000  1.0
  H  H33  1  0.32108000  0.83462000  0.35157000  1.0
  C  C34  1  0.75376000  0.90057000  0.00338000  1.0
  C  C35  1  0.24624000  0.09943000  0.99662000  1.0
  C  C36  1  0.79087000  0.03991000  0.03565000  1.0
  C  C37  1  0.20914000  0.96009000  0.96435000  1.0
  C  C38  1  0.90172000  0.08376000  0.12937000  1.0
  C  C39  1  0.09828000  0.91623000  0.87063000  1.0
  C  C40  1  0.97191000  0.99250000  0.19012000  1.0
  C  C41  1  0.02809000  0.00750000  0.80988000  1.0
  C  C42  1  0.93610000  0.85443000  0.15959000  1.0
  C  C43  1  0.06390000  0.14557000  0.84041000  1.0
  C  C44  1  0.82587000  0.81090000  0.06408000  1.0
  C  C45  1  0.17413000  0.18910000  0.93592000  1.0
  C  C46  1  0.80685000  0.56000000  0.02875000  1.0
  C  C47  1  0.19315000  0.44000000  0.97125000  1.0
  C  C48  1  0.97536000  0.56551000  0.98833000  1.0
  C  C49  1  0.02464000  0.43448000  0.01167000  1.0
  C  C50  1  0.59590000  0.50519000  0.51549000  1.0
  C  C51  1  0.40409000  0.49481000  0.48451000  1.0
  C  C52  1  0.71958000  0.64154000  0.48917000  1.0
  C  C53  1  0.28042000  0.35846000  0.51083000  1.0
  C  C54  1  0.73221000  0.89357000  0.51187000  1.0
  C  C55  1  0.26779000  0.10643000  0.48813000  1.0
  C  C56  1  0.79914000  0.95817000  0.42533000  1.0
  C  C57  1  0.20086000  0.04183000  0.57467000  1.0
  C  C58  1  0.82384000  0.09909000  0.42315000  1.0
  C  C59  1  0.17615000  0.90091000  0.57685000  1.0
  C  C60  1  0.78218000  0.17301000  0.50307000  1.0
  C  C61  1  0.21782000  0.82699000  0.49693000  1.0
  C  C62  1  0.71245000  0.10841000  0.58785000  1.0
  C  C63  1  0.28755000  0.89159000  0.41215000  1.0
  C  C64  1  0.68735000  0.96540000  0.59127000  1.0
  C  C65  1  0.31265000  0.03460000  0.40873000  1.0
  C  C66  1  0.18109000  0.62012000  0.72850000  1.0
  C  C67  1  0.81892000  0.37989000  0.27150000  1.0
  C  C68  1  0.51992000  0.18056000  0.80336000  1.0
  C  C69  1  0.48009000  0.81945000  0.19664000  1.0
  S  S70  1  0.01924000  0.48841000  0.68104000  1.0
  S  S71  1  0.98076000  0.51159000  0.31896000  1.0
  S  S72  1  0.53280000  0.34079000  0.79344000  1.0
  S  S73  1  0.46721000  0.65922000  0.20657000  1.0
  N  N74  1  0.65291000  0.82358000  0.91610000  1.0
  N  N75  1  0.34709000  0.17642000  0.08390000  1.0
  N  N76  1  0.65990000  0.69572000  0.91940000  1.0
  N  N77  1  0.34010000  0.30428000  0.08060000  1.0
  N  N78  1  0.76245000  0.68672000  0.00777000  1.0
  N  N79  1  0.23755000  0.31328000  0.99223000  1.0
  N  N80  1  0.62630000  0.86941000  0.66269000  1.0
  N  N81  1  0.37370000  0.13060000  0.33732000  1.0
  N  N82  1  0.63352000  0.74752000  0.63280000  1.0
  N  N83  1  0.36648000  0.25248000  0.36720000  1.0
  N  N84  1  0.69607000  0.76025000  0.54255000  1.0
  N  N85  1  0.30393000  0.23975000  0.45745000  1.0
  N  N86  1  0.29693000  0.71903000  0.76518000  1.0
  N  N87  1  0.70307000  0.28097000  0.23482000  1.0
  N  N88  1  0.51186000  0.06214000  0.81095000  1.0
  N  N89  1  0.48815000  0.93786000  0.18906000  1.0
