# generated using pymatgen
data_CuMoH10C15N3O4
_symmetry_space_group_name_H-M   'P 1'
_cell_length_a   8.29228000
_cell_length_b   9.53397000
_cell_length_c   10.48160000
_cell_angle_alpha   63.36840000
_cell_angle_beta   72.53060000
_cell_angle_gamma   68.82980000
_symmetry_Int_Tables_number   1
_chemical_formula_structural   CuMoH10C15N3O4
_chemical_formula_sum   'Cu2 Mo2 H20 C30 N6 O8'
_cell_volume   681.17644880
_cell_formula_units_Z   2
loop_
 _symmetry_equiv_pos_site_id
 _symmetry_equiv_pos_as_xyz
  1  'x, y, z'
loop_
 _atom_site_type_symbol
 _atom_site_label
 _atom_site_symmetry_multiplicity
 _atom_site_fract_x
 _atom_site_fract_y
 _atom_site_fract_z
 _atom_site_occupancy
  Cu  Cu0  1  0.88769000  0.14300000  0.67564000  1.0
  Cu  Cu1  1  0.11231000  0.85700000  0.32436000  1.0
  Mo  Mo2  1  0.05975000  0.24917000  0.30015000  1.0
  Mo  Mo3  1  0.94025000  0.75082000  0.69985000  1.0
  H  H4  1  0.72052000  0.08334000  0.48475000  1.0
  H  H5  1  0.27949000  0.91666000  0.51525000  1.0
  H  H6  1  0.42353000  0.20229000  0.40176000  1.0
  H  H7  1  0.57647000  0.79771000  0.59824000  1.0
  H  H8  1  0.19154000  0.39666000  0.50286000  1.0
  H  H9  1  0.80846000  0.60334000  0.49713000  1.0
  H  H10  1  0.25910000  0.47279000  0.67785000  1.0
  H  H11  1  0.74090000  0.52721000  0.32214000  1.0
  H  H12  1  0.33576000  0.48561000  0.85625000  1.0
  H  H13  1  0.66424000  0.51439000  0.14376000  1.0
  H  H14  1  0.80215000  0.40124000  0.01994000  1.0
  H  H15  1  0.19785000  0.59876000  0.98007000  1.0
  H  H16  1  0.08236000  0.28571000  0.00058000  1.0
  H  H17  1  0.91764000  0.71429000  0.99942000  1.0
  H  H18  1  0.37739000  0.09042000  0.00954000  1.0
  H  H19  1  0.62260000  0.90958000  0.99046000  1.0
  H  H20  1  0.47439000  0.90726000  0.86477000  1.0
  H  H21  1  0.52561000  0.09274000  0.13523000  1.0
  H  H22  1  0.25813000  0.92851000  0.73078000  1.0
  H  H23  1  0.74188000  0.07149000  0.26922000  1.0
  C  C24  1  0.61305000  0.16920000  0.52426000  1.0
  C  C25  1  0.38696000  0.83080000  0.47573000  1.0
  C  C26  1  0.44998000  0.23512000  0.47943000  1.0
  C  C27  1  0.55003000  0.76488000  0.52056000  1.0
  C  C28  1  0.32068000  0.34562000  0.53475000  1.0
  C  C29  1  0.67933000  0.65438000  0.46524000  1.0
  C  C30  1  0.35784000  0.38769000  0.63209000  1.0
  C  C31  1  0.64216000  0.61232000  0.36790000  1.0
  C  C32  1  0.52407000  0.31767000  0.67161000  1.0
  C  C33  1  0.47593000  0.68233000  0.32839000  1.0
  C  C34  1  0.58177000  0.35293000  0.77146000  1.0
  C  C35  1  0.41823000  0.64707000  0.22854000  1.0
  C  C36  1  0.47630000  0.43752000  0.85972000  1.0
  C  C37  1  0.52370000  0.56248000  0.14028000  1.0
  C  C38  1  0.55378000  0.45706000  0.95125000  1.0
  C  C39  1  0.44622000  0.54294000  0.04875000  1.0
  C  C40  1  0.73530000  0.39038000  0.95089000  1.0
  C  C41  1  0.26470000  0.60962000  0.04911000  1.0
  C  C42  1  0.83149000  0.30291000  0.86350000  1.0
  C  C43  1  0.16851000  0.69709000  0.13650000  1.0
  C  C44  1  0.01474000  0.20553000  0.86592000  1.0
  C  C45  1  0.98526000  0.79448000  0.13408000  1.0
  C  C46  1  0.12545000  0.20243000  0.94466000  1.0
  C  C47  1  0.87454000  0.79758000  0.05534000  1.0
  C  C48  1  0.29157000  0.09349000  0.94712000  1.0
  C  C49  1  0.70843000  0.90652000  0.05288000  1.0
  C  C50  1  0.34459000  0.99284000  0.86982000  1.0
  C  C51  1  0.65541000  0.00716000  0.13018000  1.0
  C  C52  1  0.22714000  0.00472000  0.79186000  1.0
  C  C53  1  0.77286000  0.99528000  0.20815000  1.0
  N  N54  1  0.64899000  0.20973000  0.61781000  1.0
  N  N55  1  0.35101000  0.79027000  0.38219000  1.0
  N  N56  1  0.75436000  0.28858000  0.77564000  1.0
  N  N57  1  0.24564000  0.71142000  0.22436000  1.0
  N  N58  1  0.06709000  0.10785000  0.79037000  1.0
  N  N59  1  0.93291000  0.89215000  0.20963000  1.0
  O  O60  1  0.00929000  0.28735000  0.46162000  1.0
  O  O61  1  0.99072000  0.71264000  0.53838000  1.0
  O  O62  1  0.28376000  0.23090000  0.22648000  1.0
  O  O63  1  0.71624000  0.76909000  0.77351000  1.0
  O  O64  1  0.92848000  0.41128000  0.17456000  1.0
  O  O65  1  0.07151000  0.58871000  0.82545000  1.0
  O  O66  1  0.99419000  0.93652000  0.65863000  1.0
  O  O67  1  0.00580000  0.06347000  0.34139000  1.0
