# generated using pymatgen
data_GdH11C17O6
_symmetry_space_group_name_H-M   'P 1'
_cell_length_a   6.73991000
_cell_length_b   12.88930000
_cell_length_c   17.12500000
_cell_angle_alpha   90.00000000
_cell_angle_beta   93.65600000
_cell_angle_gamma   90.00000000
_symmetry_Int_Tables_number   1
_chemical_formula_structural   GdH11C17O6
_chemical_formula_sum   'Gd4 H44 C68 O24'
_cell_volume   1484.66772691
_cell_formula_units_Z   4
loop_
 _symmetry_equiv_pos_site_id
 _symmetry_equiv_pos_as_xyz
  1  'x, y, z'
loop_
 _atom_site_type_symbol
 _atom_site_label
 _atom_site_symmetry_multiplicity
 _atom_site_fract_x
 _atom_site_fract_y
 _atom_site_fract_z
 _atom_site_occupancy
  Gd  Gd0  1  0.61597000  0.62764000  0.54766000  1.0
  Gd  Gd1  1  0.88403000  0.12764000  0.45234000  1.0
  Gd  Gd2  1  0.38403000  0.37236000  0.45234000  1.0
  Gd  Gd3  1  0.11597000  0.87236000  0.54766000  1.0
  H  H4  1  0.11175000  0.78740000  0.79075000  1.0
  H  H5  1  0.38825000  0.28740000  0.20925000  1.0
  H  H6  1  0.88825000  0.21260000  0.20924000  1.0
  H  H7  1  0.61175000  0.71260000  0.79076000  1.0
  H  H8  1  0.04435000  0.75722000  0.92933000  1.0
  H  H9  1  0.45564000  0.25721000  0.07067000  1.0
  H  H10  1  0.95564000  0.24279000  0.07067000  1.0
  H  H11  1  0.54436000  0.74279000  0.92933000  1.0
  H  H12  1  0.75542000  0.46853000  0.86333000  1.0
  H  H13  1  0.74458000  0.96853000  0.13667000  1.0
  H  H14  1  0.24458000  0.53147000  0.13667000  1.0
  H  H15  1  0.25542000  0.03147000  0.86333000  1.0
  H  H16  1  0.82269000  0.50114000  0.72438000  1.0
  H  H17  1  0.67731000  0.00114000  0.27562000  1.0
  H  H18  1  0.17731000  0.49886000  0.27562000  1.0
  H  H19  1  0.32269000  0.99886000  0.72438000  1.0
  H  H20  1  0.76617000  0.51533000  0.99341000  1.0
  H  H21  1  0.73383000  0.01533000  0.00659000  1.0
  H  H22  1  0.23383000  0.48467000  0.00659000  1.0
  H  H23  1  0.26617000  0.98467000  0.99341000  1.0
  H  H24  1  0.92178000  0.73255000  0.04111000  1.0
  H  H25  1  0.57822000  0.23256000  0.95889000  1.0
  H  H26  1  0.07822000  0.26744000  0.95889000  1.0
  H  H27  1  0.42178000  0.76745000  0.04111000  1.0
  H  H28  1  0.92992000  0.76993000  0.17712000  1.0
  H  H29  1  0.57008000  0.26993000  0.82288000  1.0
  H  H30  1  0.07008000  0.23007000  0.82288000  1.0
  H  H31  1  0.42992000  0.73007000  0.17713000  1.0
  H  H32  1  0.84603000  0.72732000  0.31298000  1.0
  H  H33  1  0.65397000  0.22732000  0.68702000  1.0
  H  H34  1  0.15397000  0.27268000  0.68702000  1.0
  H  H35  1  0.34603000  0.77268000  0.31298000  1.0
  H  H36  1  0.56295000  0.44630000  0.23026000  1.0
  H  H37  1  0.93706000  0.94630000  0.76974000  1.0
  H  H38  1  0.43706000  0.55370000  0.76974000  1.0
  H  H39  1  0.06294000  0.05370000  0.23026000  1.0
  H  H40  1  0.63861000  0.48804000  0.09471000  1.0
  H  H41  1  0.86140000  0.98804000  0.90529000  1.0
  H  H42  1  0.36140000  0.51196000  0.90529000  1.0
  H  H43  1  0.13860000  0.01196000  0.09471000  1.0
  H  H44  1  0.54901000  0.86939000  0.45210000  1.0
  H  H45  1  0.95098000  0.36939000  0.54790000  1.0
  H  H46  1  0.45099000  0.13061000  0.54790000  1.0
  H  H47  1  0.04901000  0.63061000  0.45210000  1.0
  C  C48  1  0.99661000  0.67288000  0.66543000  1.0
  C  C49  1  0.50339000  0.17288000  0.33457000  1.0
  C  C50  1  0.00339000  0.32712000  0.33457000  1.0
  C  C51  1  0.49661000  0.82712000  0.66543000  1.0
  C  C52  1  0.97113000  0.64681000  0.74903000  1.0
  C  C53  1  0.52887000  0.14681000  0.25097000  1.0
  C  C54  1  0.02887000  0.35319000  0.25097000  1.0
  C  C55  1  0.47113000  0.85319000  0.74903000  1.0
  C  C56  1  0.03442000  0.71766000  0.80768000  1.0
  C  C57  1  0.46558000  0.21766000  0.19232000  1.0
  C  C58  1  0.96558000  0.28234000  0.19232000  1.0
  C  C59  1  0.53442000  0.78234000  0.80768000  1.0
  C  C60  1  0.99526000  0.70039000  0.88507000  1.0
  C  C61  1  0.50474000  0.20038000  0.11493000  1.0
  C  C62  1  0.00474000  0.29962000  0.11493000  1.0
  C  C63  1  0.49526000  0.79962000  0.88507000  1.0
  C  C64  1  0.89032000  0.61120000  0.90637000  1.0
  C  C65  1  0.60968000  0.11120000  0.09363000  1.0
  C  C66  1  0.10968000  0.38880000  0.09363000  1.0
  C  C67  1  0.39032000  0.88880000  0.90637000  1.0
  C  C68  1  0.83392000  0.53865000  0.84739000  1.0
  C  C69  1  0.66608000  0.03865000  0.15261000  1.0
  C  C70  1  0.16608000  0.46135000  0.15261000  1.0
  C  C71  1  0.33392000  0.96135000  0.84739000  1.0
  C  C72  1  0.87173000  0.55636000  0.76973000  1.0
  C  C73  1  0.62827000  0.05636000  0.23027000  1.0
  C  C74  1  0.12827000  0.44365000  0.23027000  1.0
  C  C75  1  0.37173000  0.94364000  0.76973000  1.0
  C  C76  1  0.83309000  0.59153000  0.98536000  1.0
  C  C77  1  0.66691000  0.09153000  0.01464000  1.0
  C  C78  1  0.16691000  0.40847000  0.01464000  1.0
  C  C79  1  0.33309000  0.90847000  0.98536000  1.0
  C  C80  1  0.85243000  0.65656000  0.04759000  1.0
  C  C81  1  0.64757000  0.15656000  0.95241000  1.0
  C  C82  1  0.14757000  0.34344000  0.95241000  1.0
  C  C83  1  0.35243000  0.84344000  0.04759000  1.0
  C  C84  1  0.79286000  0.63213000  0.12566000  1.0
  C  C85  1  0.70715000  0.13213000  0.87434000  1.0
  C  C86  1  0.20715000  0.36787000  0.87434000  1.0
  C  C87  1  0.29285000  0.86787000  0.12566000  1.0
  C  C88  1  0.84770000  0.69918000  0.18856000  1.0
  C  C89  1  0.65230000  0.19918000  0.81143000  1.0
  C  C90  1  0.15230000  0.30082000  0.81144000  1.0
  C  C91  1  0.34770000  0.80082000  0.18856000  1.0
  C  C92  1  0.80210000  0.67540000  0.26466000  1.0
  C  C93  1  0.69790000  0.17540000  0.73535000  1.0
  C  C94  1  0.19790000  0.32460000  0.73534000  1.0
  C  C95  1  0.30210000  0.82460000  0.26466000  1.0
  C  C96  1  0.69967000  0.58368000  0.27982000  1.0
  C  C97  1  0.80033000  0.08368000  0.72018000  1.0
  C  C98  1  0.30033000  0.41632000  0.72018000  1.0
  C  C99  1  0.19967000  0.91632000  0.27982000  1.0
  C  C100  1  0.64183000  0.51730000  0.21742000  1.0
  C  C101  1  0.85818000  0.01730000  0.78258000  1.0
  C  C102  1  0.35818000  0.48270000  0.78258000  1.0
  C  C103  1  0.14182000  0.98270000  0.21742000  1.0
  C  C104  1  0.68537000  0.54143000  0.14174000  1.0
  C  C105  1  0.81464000  0.04143000  0.85826000  1.0
  C  C106  1  0.31463000  0.45857000  0.85826000  1.0
  C  C107  1  0.18536000  0.95857000  0.14174000  1.0
  C  C108  1  0.64888000  0.55383000  0.36021000  1.0
  C  C109  1  0.85112000  0.05384000  0.63979000  1.0
  C  C110  1  0.35112000  0.44617000  0.63979000  1.0
  C  C111  1  0.14887000  0.94617000  0.36021000  1.0
  C  C112  1  0.70499000  0.86971000  0.47623000  1.0
  C  C113  1  0.79501000  0.36971000  0.52377000  1.0
  C  C114  1  0.29501000  0.13029000  0.52377000  1.0
  C  C115  1  0.20499000  0.63029000  0.47623000  1.0
  O  O116  1  0.91866000  0.61184000  0.61253000  1.0
  O  O117  1  0.58134000  0.11184000  0.38747000  1.0
  O  O118  1  0.08134000  0.38816000  0.38747000  1.0
  O  O119  1  0.41866000  0.88816000  0.61253000  1.0
  O  O120  1  0.08703000  0.75579000  0.65019000  1.0
  O  O121  1  0.41297000  0.25579000  0.34981000  1.0
  O  O122  1  0.91297000  0.24421000  0.34981000  1.0
  O  O123  1  0.58703000  0.74421000  0.65019000  1.0
  O  O124  1  0.68925000  0.61787000  0.41607000  1.0
  O  O125  1  0.81075000  0.11787000  0.58393000  1.0
  O  O126  1  0.31074000  0.38213000  0.58393000  1.0
  O  O127  1  0.18925000  0.88212000  0.41607000  1.0
  O  O128  1  0.56589000  0.46590000  0.36742000  1.0
  O  O129  1  0.93411000  0.96590000  0.63258000  1.0
  O  O130  1  0.43411000  0.53410000  0.63258000  1.0
  O  O131  1  0.06589000  0.03410000  0.36742000  1.0
  O  O132  1  0.78019000  0.78870000  0.50902000  1.0
  O  O133  1  0.71981000  0.28870000  0.49098000  1.0
  O  O134  1  0.21981000  0.21130000  0.49098000  1.0
  O  O135  1  0.28019000  0.71130000  0.50902000  1.0
  O  O136  1  0.80939000  0.95066000  0.47056000  1.0
  O  O137  1  0.69061000  0.45066000  0.52944000  1.0
  O  O138  1  0.19061000  0.04934000  0.52944000  1.0
  O  O139  1  0.30939000  0.54934000  0.47056000  1.0
