# generated using pymatgen
data_ZnH10C15(NO2)2
_symmetry_space_group_name_H-M   'P 1'
_cell_length_a   9.35404000
_cell_length_b   9.98129000
_cell_length_c   14.47620000
_cell_angle_alpha   88.63730000
_cell_angle_beta   77.94380000
_cell_angle_gamma   88.21470000
_symmetry_Int_Tables_number   1
_chemical_formula_structural   ZnH10C15(NO2)2
_chemical_formula_sum   'Zn4 H40 C60 N8 O16'
_cell_volume   1320.91663207
_cell_formula_units_Z   4
loop_
 _symmetry_equiv_pos_site_id
 _symmetry_equiv_pos_as_xyz
  1  'x, y, z'
loop_
 _atom_site_type_symbol
 _atom_site_label
 _atom_site_symmetry_multiplicity
 _atom_site_fract_x
 _atom_site_fract_y
 _atom_site_fract_z
 _atom_site_occupancy
  Zn  Zn0  1  0.35970000  0.17447000  0.11179000  1.0
  Zn  Zn1  1  0.64030000  0.82553000  0.88821000  1.0
  Zn  Zn2  1  0.25372000  0.95512000  0.28517000  1.0
  Zn  Zn3  1  0.74628000  0.04488000  0.71483000  1.0
  H  H4  1  0.91346000  0.23053000  0.41248000  1.0
  H  H5  1  0.08654000  0.76947000  0.58752000  1.0
  H  H6  1  0.75435000  0.42230000  0.48369000  1.0
  H  H7  1  0.24565000  0.57770000  0.51631000  1.0
  H  H8  1  0.83552000  0.65769000  0.44324000  1.0
  H  H9  1  0.16448000  0.34232000  0.55676000  1.0
  H  H10  1  0.22780000  0.50396000  0.26297000  1.0
  H  H11  1  0.77221000  0.49604000  0.73702000  1.0
  H  H12  1  0.11884000  0.78500000  0.12563000  1.0
  H  H13  1  0.88116000  0.21500000  0.87437000  1.0
  H  H14  1  0.90494000  0.63736000  0.17509000  1.0
  H  H15  1  0.09506000  0.36264000  0.82491000  1.0
  H  H16  1  0.65382000  0.73887000  0.20822000  1.0
  H  H17  1  0.34618000  0.26113000  0.79177000  1.0
  H  H18  1  0.82863000  0.12528000  0.11851000  1.0
  H  H19  1  0.17137000  0.87472000  0.88149000  1.0
  H  H20  1  0.65377000  0.33291000  0.80479000  1.0
  H  H21  1  0.34623000  0.66709000  0.19521000  1.0
  H  H22  1  0.62768000  0.18148000  0.94663000  1.0
  H  H23  1  0.37232000  0.81852000  0.05337000  1.0
  H  H24  1  0.47862000  0.56638000  0.75045000  1.0
  H  H25  1  0.52138000  0.43362000  0.24955000  1.0
  H  H26  1  0.23996000  0.68501000  0.80904000  1.0
  H  H27  1  0.76004000  0.31499000  0.19096000  1.0
  H  H28  1  0.08735000  0.63127000  0.96506000  1.0
  H  H29  1  0.91265000  0.36873000  0.03495000  1.0
  H  H30  1  0.16239000  0.44493000  0.06670000  1.0
  H  H31  1  0.83761000  0.55507000  0.93330000  1.0
  H  H32  1  0.21594000  0.03770000  0.63785000  1.0
  H  H33  1  0.78406000  0.96229000  0.36215000  1.0
  H  H34  1  0.13580000  0.10314000  0.48963000  1.0
  H  H35  1  0.86420000  0.89686000  0.51037000  1.0
  H  H36  1  0.43182000  0.83372000  0.68927000  1.0
  H  H37  1  0.56818000  0.16628000  0.31073000  1.0
  H  H38  1  0.59174000  0.64640000  0.61385000  1.0
  H  H39  1  0.40826000  0.35360000  0.38615000  1.0
  H  H40  1  0.60446000  0.58940000  0.44658000  1.0
  H  H41  1  0.39554000  0.41060000  0.55342000  1.0
  H  H42  1  0.46763000  0.72758000  0.34588000  1.0
  H  H43  1  0.53237000  0.27241000  0.65413000  1.0
  C  C44  1  0.17389000  0.24360000  0.28838000  1.0
  C  C45  1  0.82611000  0.75640000  0.71162000  1.0
  C  C46  1  0.07939000  0.35702000  0.33351000  1.0
  C  C47  1  0.92061000  0.64298000  0.66648000  1.0
  C  C48  1  0.94617000  0.33349000  0.39585000  1.0
  C  C49  1  0.05383000  0.66651000  0.60415000  1.0
  C  C50  1  0.85781000  0.44139000  0.43516000  1.0
  C  C51  1  0.14219000  0.55861000  0.56484000  1.0
  C  C52  1  0.90269000  0.57218000  0.41299000  1.0
  C  C53  1  0.09731000  0.42782000  0.58701000  1.0
  C  C54  1  0.03659000  0.59692000  0.35135000  1.0
  C  C55  1  0.96341000  0.40308000  0.64865000  1.0
  C  C56  1  0.12404000  0.48860000  0.31171000  1.0
  C  C57  1  0.87596000  0.51140000  0.68828000  1.0
  C  C58  1  0.08238000  0.73865000  0.33046000  1.0
  C  C59  1  0.91762000  0.26135000  0.66953000  1.0
  C  C60  1  0.11199000  0.05833000  0.10845000  1.0
  C  C61  1  0.88801000  0.94167000  0.89156000  1.0
  C  C62  1  0.98698000  0.96547000  0.12414000  1.0
  C  C63  1  0.01302000  0.03453000  0.87586000  1.0
  C  C64  1  0.00817000  0.82698000  0.13598000  1.0
  C  C65  1  0.99183000  0.17303000  0.86402000  1.0
  C  C66  1  0.88880000  0.74472000  0.16463000  1.0
  C  C67  1  0.11120000  0.25528000  0.83538000  1.0
  C  C68  1  0.74779000  0.80068000  0.18217000  1.0
  C  C69  1  0.25221000  0.19932000  0.81783000  1.0
  C  C70  1  0.72486000  0.93706000  0.16316000  1.0
  C  C71  1  0.27514000  0.06294000  0.83684000  1.0
  C  C72  1  0.84488000  0.01908000  0.13316000  1.0
  C  C73  1  0.15512000  0.98092000  0.86684000  1.0
  C  C74  1  0.57252000  0.99308000  0.17281000  1.0
  C  C75  1  0.42748000  0.00692000  0.82719000  1.0
  C  C76  1  0.55235000  0.26444000  0.93950000  1.0
  C  C77  1  0.44766000  0.73556000  0.06050000  1.0
  C  C78  1  0.45250000  0.43862000  0.87634000  1.0
  C  C79  1  0.54750000  0.56138000  0.12366000  1.0
  C  C80  1  0.41071000  0.54013000  0.81862000  1.0
  C  C81  1  0.58929000  0.45987000  0.18138000  1.0
  C  C82  1  0.27771000  0.60667000  0.85267000  1.0
  C  C83  1  0.72229000  0.39333000  0.14733000  1.0
  C  C84  1  0.19004000  0.57506000  0.94179000  1.0
  C  C85  1  0.80996000  0.42494000  0.05821000  1.0
  C  C86  1  0.23129000  0.47301000  0.99909000  1.0
  C  C87  1  0.76871000  0.52699000  0.00091000  1.0
  C  C88  1  0.36323000  0.40350000  0.96482000  1.0
  C  C89  1  0.63677000  0.59650000  0.03518000  1.0
  C  C90  1  0.21620000  0.02402000  0.49390000  1.0
  C  C91  1  0.78380000  0.97598000  0.50610000  1.0
  C  C92  1  0.35901000  0.88490000  0.55876000  1.0
  C  C93  1  0.64098000  0.11509000  0.44124000  1.0
  C  C94  1  0.43792000  0.81082000  0.61541000  1.0
  C  C95  1  0.56208000  0.18918000  0.38459000  1.0
  C  C96  1  0.52687000  0.70553000  0.57245000  1.0
  C  C97  1  0.47312000  0.29447000  0.42755000  1.0
  C  C98  1  0.53630000  0.67435000  0.47684000  1.0
  C  C99  1  0.46370000  0.32565000  0.52316000  1.0
  C  C100  1  0.45988000  0.74946000  0.42001000  1.0
  C  C101  1  0.54011000  0.25054000  0.57999000  1.0
  C  C102  1  0.37120000  0.85616000  0.46178000  1.0
  C  C103  1  0.62880000  0.14384000  0.53822000  1.0
  N  N104  1  0.42952000  0.29350000  0.00185000  1.0
  N  N105  1  0.57049000  0.70650000  0.99815000  1.0
  N  N106  1  0.57106000  0.34879000  0.86382000  1.0
  N  N107  1  0.42894000  0.65121000  0.13618000  1.0
  N  N108  1  0.25916000  0.99185000  0.57579000  1.0
  N  N109  1  0.74083000  0.00815000  0.42421000  1.0
  N  N110  1  0.28158000  0.94600000  0.42376000  1.0
  N  N111  1  0.71842000  0.05400000  0.57624000  1.0
  O  O112  1  0.29218000  0.27400000  0.23067000  1.0
  O  O113  1  0.70782000  0.72600000  0.76933000  1.0
  O  O114  1  0.13099000  0.12488000  0.31026000  1.0
  O  O115  1  0.86902000  0.87512000  0.68974000  1.0
  O  O116  1  0.21176000  0.75735000  0.27727000  1.0
  O  O117  1  0.78824000  0.24265000  0.72273000  1.0
  O  O118  1  0.99960000  0.83413000  0.36376000  1.0
  O  O119  1  0.00040000  0.16587000  0.63624000  1.0
  O  O120  1  0.09743000  0.17943000  0.08774000  1.0
  O  O121  1  0.90257000  0.82057000  0.91226000  1.0
  O  O122  1  0.23783000  0.00782000  0.12279000  1.0
  O  O123  1  0.76217000  0.99218000  0.87721000  1.0
  O  O124  1  0.47160000  0.93445000  0.23098000  1.0
  O  O125  1  0.52840000  0.06555000  0.76901000  1.0
  O  O126  1  0.55592000  0.09532000  0.12122000  1.0
  O  O127  1  0.44408000  0.90468000  0.87878000  1.0
