# generated using pymatgen
data_CuH18PdC16(N5O)2
_symmetry_space_group_name_H-M   'P 1'
_cell_length_a   10.17260000
_cell_length_b   10.24900000
_cell_length_c   11.40830000
_cell_angle_alpha   95.20660000
_cell_angle_beta   89.99970000
_cell_angle_gamma   119.75400000
_symmetry_Int_Tables_number   1
_chemical_formula_structural   CuH18PdC16(N5O)2
_chemical_formula_sum   'Cu2 H36 Pd2 C32 N20 O4'
_cell_volume   1026.95347450
_cell_formula_units_Z   2
loop_
 _symmetry_equiv_pos_site_id
 _symmetry_equiv_pos_as_xyz
  1  'x, y, z'
loop_
 _atom_site_type_symbol
 _atom_site_label
 _atom_site_symmetry_multiplicity
 _atom_site_fract_x
 _atom_site_fract_y
 _atom_site_fract_z
 _atom_site_occupancy
  Cu  Cu0  1  0.13699000  0.00000000  0.75000000  1.0
  Cu  Cu1  1  0.86302000  0.00000000  0.25000000  1.0
  H  H2  1  0.12234000  0.14058000  0.58089000  1.0
  H  H3  1  0.98176000  0.85942000  0.91910000  1.0
  H  H4  1  0.87766000  0.85942000  0.41910000  1.0
  H  H5  1  0.01823000  0.14057000  0.08090000  1.0
  H  H6  1  0.27206000  0.26168000  0.66871000  1.0
  H  H7  1  0.01038000  0.73832000  0.83129000  1.0
  H  H8  1  0.72794000  0.73832000  0.33129000  1.0
  H  H9  1  0.98962000  0.26168000  0.16871000  1.0
  H  H10  1  0.28392000  0.13869000  0.57266000  1.0
  H  H11  1  0.14523000  0.86131000  0.92734000  1.0
  H  H12  1  0.71609000  0.86131000  0.42734000  1.0
  H  H13  1  0.85477000  0.13869000  0.07266000  1.0
  H  H14  1  0.27859000  0.53510000  0.26846000  1.0
  H  H15  1  0.74348000  0.46489000  0.23154000  1.0
  H  H16  1  0.72142000  0.46490000  0.73154000  1.0
  H  H17  1  0.25652000  0.53511000  0.76846000  1.0
  H  H18  1  0.43338000  0.63583000  0.37219000  1.0
  H  H19  1  0.79756000  0.36417000  0.12781000  1.0
  H  H20  1  0.56662000  0.36417000  0.62781000  1.0
  H  H21  1  0.20245000  0.63583000  0.87219000  1.0
  H  H22  1  0.38981000  0.11178000  0.96269000  1.0
  H  H23  1  0.27803000  0.88822000  0.53731000  1.0
  H  H24  1  0.61019000  0.88823000  0.03731000  1.0
  H  H25  1  0.72197000  0.11178000  0.46269000  1.0
  H  H26  1  0.51392000  0.28750000  0.14427000  1.0
  H  H27  1  0.22642000  0.71250000  0.35572000  1.0
  H  H28  1  0.48608000  0.71250000  0.85572000  1.0
  H  H29  1  0.77358000  0.28750000  0.64428000  1.0
  H  H30  1  0.24860000  0.49899000  0.07418000  1.0
  H  H31  1  0.74960000  0.50100000  0.42582000  1.0
  H  H32  1  0.75141000  0.50101000  0.92582000  1.0
  H  H33  1  0.25040000  0.49899000  0.57418000  1.0
  H  H34  1  0.13326000  0.31180000  0.89742000  1.0
  H  H35  1  0.82146000  0.68819000  0.60258000  1.0
  H  H36  1  0.86674000  0.68820000  0.10259000  1.0
  H  H37  1  0.17854000  0.31180000  0.39742000  1.0
  Pd  Pd38  1  0.63562000  0.00000000  0.75000000  1.0
  Pd  Pd39  1  0.36438000  0.00000000  0.25000000  1.0
  C  C40  1  0.55657000  0.85220000  0.60673000  1.0
  C  C41  1  0.70437000  0.14780000  0.89327000  1.0
  C  C42  1  0.44342000  0.14780000  0.39327000  1.0
  C  C43  1  0.29562000  0.85220000  0.10673000  1.0
  C  C44  1  0.44348000  0.99999000  0.75000000  1.0
  C  C45  1  0.55652000  0.00000000  0.25000000  1.0
  C  C46  1  0.82969000  0.00001000  0.75000000  1.0
  C  C47  1  0.17032000  0.00000000  0.25000000  1.0
  C  C48  1  0.36038000  0.19827000  0.99063000  1.0
  C  C49  1  0.16211000  0.80172000  0.50937000  1.0
  C  C50  1  0.63961000  0.80173000  0.00937000  1.0
  C  C51  1  0.83789000  0.19828000  0.49063000  1.0
  C  C52  1  0.43051000  0.29708000  0.09160000  1.0
  C  C53  1  0.13344000  0.70291000  0.40840000  1.0
  C  C54  1  0.56948000  0.70291000  0.90839000  1.0
  C  C55  1  0.86657000  0.29709000  0.59161000  1.0
  C  C56  1  0.38997000  0.40628000  0.12567000  1.0
  C  C57  1  0.98369000  0.59371000  0.37432000  1.0
  C  C58  1  0.61003000  0.59372000  0.87433000  1.0
  C  C59  1  0.01631000  0.40628000  0.62567000  1.0
  C  C60  1  0.28289000  0.41442000  0.05411000  1.0
  C  C61  1  0.86847000  0.58557000  0.44589000  1.0
  C  C62  1  0.71711000  0.58559000  0.94590000  1.0
  C  C63  1  0.13153000  0.41442000  0.55411000  1.0
  C  C64  1  0.21870000  0.31019000  0.95435000  1.0
  C  C65  1  0.90851000  0.68981000  0.54565000  1.0
  C  C66  1  0.78130000  0.68982000  0.04566000  1.0
  C  C67  1  0.09149000  0.31019000  0.45435000  1.0
  C  C68  1  0.46536000  0.51004000  0.23591000  1.0
  C  C69  1  0.95531000  0.48995000  0.26409000  1.0
  C  C70  1  0.53465000  0.48996000  0.76409000  1.0
  C  C71  1  0.04469000  0.51004000  0.73591000  1.0
  N  N72  1  0.50745000  0.76804000  0.52063000  1.0
  N  N73  1  0.73941000  0.23196000  0.97938000  1.0
  N  N74  1  0.49255000  0.23196000  0.47937000  1.0
  N  N75  1  0.26059000  0.76804000  0.02063000  1.0
  N  N76  1  0.32875000  0.00000000  0.75000000  1.0
  N  N77  1  0.67125000  0.00000000  0.25000000  1.0
  N  N78  1  0.94467000  0.00000000  0.75000000  1.0
  N  N79  1  0.05534000  0.00000000  0.25000000  1.0
  N  N80  1  0.21207000  0.15155000  0.62944000  1.0
  N  N81  1  0.06051000  0.84845000  0.87055000  1.0
  N  N82  1  0.78794000  0.84845000  0.37055000  1.0
  N  N83  1  0.93949000  0.15155000  0.12944000  1.0
  N  N84  1  0.25493000  0.20287000  0.92311000  1.0
  N  N85  1  0.05205000  0.79712000  0.57688000  1.0
  N  N86  1  0.74507000  0.79713000  0.07689000  1.0
  N  N87  1  0.94794000  0.20287000  0.42311000  1.0
  N  N88  1  0.38775000  0.56693000  0.29431000  1.0
  N  N89  1  0.82083000  0.43307000  0.20568000  1.0
  N  N90  1  0.61225000  0.43308000  0.70569000  1.0
  N  N91  1  0.17918000  0.56693000  0.79431000  1.0
  O  O92  1  0.59554000  0.53856000  0.26949000  1.0
  O  O93  1  0.05698000  0.46144000  0.23050000  1.0
  O  O94  1  0.40446000  0.46145000  0.73051000  1.0
  O  O95  1  0.94302000  0.53856000  0.76950000  1.0
