# generated using pymatgen
data_InH11C9I2
_symmetry_space_group_name_H-M   'P 1'
_cell_length_a   7.62790000
_cell_length_b   8.12800000
_cell_length_c   19.53630000
_cell_angle_alpha   90.00030000
_cell_angle_beta   90.00040000
_cell_angle_gamma   90.67060000
_symmetry_Int_Tables_number   1
_chemical_formula_structural   InH11C9I2
_chemical_formula_sum   'In4 H44 C36 I8'
_cell_volume   1211.15926104
_cell_formula_units_Z   4
loop_
 _symmetry_equiv_pos_site_id
 _symmetry_equiv_pos_as_xyz
  1  'x, y, z'
loop_
 _atom_site_type_symbol
 _atom_site_label
 _atom_site_symmetry_multiplicity
 _atom_site_fract_x
 _atom_site_fract_y
 _atom_site_fract_z
 _atom_site_occupancy
  In  In0  1  0.25594000  0.44435000  0.45708000  1.0
  In  In1  1  0.24411000  0.55559000  0.95706000  1.0
  In  In2  1  0.74403000  0.55564000  0.54291000  1.0
  In  In3  1  0.75584000  0.44442000  0.04294000  1.0
  H  H4  1  0.07819000  0.94022000  0.30672000  1.0
  H  H5  1  0.42182000  0.05979000  0.80671000  1.0
  H  H6  1  0.92180000  0.05975000  0.69328000  1.0
  H  H7  1  0.57818000  0.94024000  0.19329000  1.0
  H  H8  1  0.32576000  0.33041000  0.19224000  1.0
  H  H9  1  0.17419000  0.66959000  0.69224000  1.0
  H  H10  1  0.67423000  0.66958000  0.80776000  1.0
  H  H11  1  0.82576000  0.33043000  0.30777000  1.0
  H  H12  1  0.97925000  0.15721000  0.45000000  1.0
  H  H13  1  0.52076000  0.84278000  0.94999000  1.0
  H  H14  1  0.02074000  0.84277000  0.55000000  1.0
  H  H15  1  0.47926000  0.15722000  0.05000000  1.0
  H  H16  1  0.18889000  0.08140000  0.47196000  1.0
  H  H17  1  0.31112000  0.91859000  0.97196000  1.0
  H  H18  1  0.81110000  0.91858000  0.52804000  1.0
  H  H19  1  0.68891000  0.08140000  0.02804000  1.0
  H  H20  1  0.04020000  0.95647000  0.42485000  1.0
  H  H21  1  0.45982000  0.04354000  0.92486000  1.0
  H  H22  1  0.95977000  0.04351000  0.57515000  1.0
  H  H23  1  0.54022000  0.95647000  0.07514000  1.0
  H  H24  1  0.20790000  0.10088000  0.13151000  1.0
  H  H25  1  0.29211000  0.89912000  0.63151000  1.0
  H  H26  1  0.79210000  0.89911000  0.86849000  1.0
  H  H27  1  0.70791000  0.10089000  0.36850000  1.0
  H  H28  1  0.02680000  0.99925000  0.17075000  1.0
  H  H29  1  0.47320000  0.00076000  0.67075000  1.0
  H  H30  1  0.97320000  0.00074000  0.82925000  1.0
  H  H31  1  0.52681000  0.99925000  0.32926000  1.0
  H  H32  1  0.23865000  0.91351000  0.17636000  1.0
  H  H33  1  0.26136000  0.08651000  0.67636000  1.0
  H  H34  1  0.76136000  0.08648000  0.82364000  1.0
  H  H35  1  0.73866000  0.91352000  0.32364000  1.0
  H  H36  1  0.42611000  0.59238000  0.34504000  1.0
  H  H37  1  0.07388000  0.40763000  0.84504000  1.0
  H  H38  1  0.57386000  0.40760000  0.65496000  1.0
  H  H39  1  0.92611000  0.59236000  0.15496000  1.0
  H  H40  1  0.30748000  0.62791000  0.26848000  1.0
  H  H41  1  0.19252000  0.37210000  0.76847000  1.0
  H  H42  1  0.69249000  0.37206000  0.73152000  1.0
  H  H43  1  0.80749000  0.62792000  0.23153000  1.0
  H  H44  1  0.51384000  0.53014000  0.26525000  1.0
  H  H45  1  0.98617000  0.46989000  0.76524000  1.0
  H  H46  1  0.48614000  0.46985000  0.73475000  1.0
  H  H47  1  0.01385000  0.53015000  0.23476000  1.0
  C  C48  1  0.24303000  0.30674000  0.36262000  1.0
  C  C49  1  0.25698000  0.69330000  0.86262000  1.0
  C  C50  1  0.75696000  0.69323000  0.63738000  1.0
  C  C51  1  0.74303000  0.30674000  0.13739000  1.0
  C  C52  1  0.16116000  0.15058000  0.36539000  1.0
  C  C53  1  0.33884000  0.84945000  0.86539000  1.0
  C  C54  1  0.83882000  0.84939000  0.63461000  1.0
  C  C55  1  0.66118000  0.15057000  0.13462000  1.0
  C  C56  1  0.14239000  0.06107000  0.30474000  1.0
  C  C57  1  0.35761000  0.93895000  0.80473000  1.0
  C  C58  1  0.85759000  0.93890000  0.69526000  1.0
  C  C59  1  0.64241000  0.06109000  0.19526000  1.0
  C  C60  1  0.19797000  0.12502000  0.24161000  1.0
  C  C61  1  0.30202000  0.87497000  0.74160000  1.0
  C  C62  1  0.80201000  0.87496000  0.75839000  1.0
  C  C63  1  0.69799000  0.12503000  0.25840000  1.0
  C  C64  1  0.27920000  0.27969000  0.24083000  1.0
  C  C65  1  0.22078000  0.72033000  0.74082000  1.0
  C  C66  1  0.72079000  0.72029000  0.75917000  1.0
  C  C67  1  0.77922000  0.27969000  0.25918000  1.0
  C  C68  1  0.30411000  0.37308000  0.30072000  1.0
  C  C69  1  0.19589000  0.62693000  0.80073000  1.0
  C  C70  1  0.69588000  0.62690000  0.69927000  1.0
  C  C71  1  0.80412000  0.37309000  0.19929000  1.0
  C  C72  1  0.08920000  0.08283000  0.43121000  1.0
  C  C73  1  0.41081000  0.91718000  0.93121000  1.0
  C  C74  1  0.91078000  0.91715000  0.56879000  1.0
  C  C75  1  0.58922000  0.08283000  0.06879000  1.0
  C  C76  1  0.16679000  0.03015000  0.17666000  1.0
  C  C77  1  0.33321000  0.96986000  0.67666000  1.0
  C  C78  1  0.83321000  0.96984000  0.82333000  1.0
  C  C79  1  0.66680000  0.03016000  0.32334000  1.0
  C  C80  1  0.39210000  0.53927000  0.29501000  1.0
  C  C81  1  0.10791000  0.46074000  0.79501000  1.0
  C  C82  1  0.60788000  0.46070000  0.70499000  1.0
  C  C83  1  0.89209000  0.53928000  0.20500000  1.0
  I  I84  1  0.10152000  0.38884000  0.58617000  1.0
  I  I85  1  0.39850000  0.61114000  0.08617000  1.0
  I  I86  1  0.89850000  0.61113000  0.41382000  1.0
  I  I87  1  0.60156000  0.38888000  0.91383000  1.0
  I  I88  1  0.41728000  0.74892000  0.48604000  1.0
  I  I89  1  0.08273000  0.25107000  0.98603000  1.0
  I  I90  1  0.58271000  0.25107000  0.51396000  1.0
  I  I91  1  0.91731000  0.74896000  0.01397000  1.0
