# generated using pymatgen
data_AlH12C21S3NO15
_symmetry_space_group_name_H-M   'P 1'
_cell_length_a   4.34401000
_cell_length_b   13.26595000
_cell_length_c   13.26590000
_cell_angle_alpha   60.00037404
_cell_angle_beta   89.99890000
_cell_angle_gamma   89.99970001
_symmetry_Int_Tables_number   1
_chemical_formula_structural   AlH12C21S3NO15
_chemical_formula_sum   'Al1 H12 C21 S3 N1 O15'
_cell_volume   662.06123545
_cell_formula_units_Z   1
loop_
 _symmetry_equiv_pos_site_id
 _symmetry_equiv_pos_as_xyz
  1  'x, y, z'
loop_
 _atom_site_type_symbol
 _atom_site_label
 _atom_site_symmetry_multiplicity
 _atom_site_fract_x
 _atom_site_fract_y
 _atom_site_fract_z
 _atom_site_occupancy
  Al  Al0  1  0.89279000  0.50001000  1.00000000  1.0
  H  H1  1  0.71206000  0.24650000  0.96291000  1.0
  H  H2  1  0.78585000  0.12574000  0.87214000  1.0
  H  H3  1  0.25388000  0.37150000  0.57557000  1.0
  H  H4  1  0.25389000  0.05295000  0.87149000  1.0
  H  H5  1  0.71202000  0.79061000  0.74648000  1.0
  H  H6  1  0.78582000  0.00213000  0.62573000  1.0
  H  H7  1  0.25388000  0.07558000  0.55294000  1.0
  H  H8  1  0.71204000  0.46291000  0.29060000  1.0
  H  H9  1  0.78584000  0.37215000  0.50212000  1.0
  H  H10  1  0.62020000  0.58707000  0.54374000  1.0
  H  H11  1  0.62020000  0.86922000  0.08705000  1.0
  H  H12  1  0.62018000  0.04373000  0.36922000  1.0
  C  C13  1  0.39880000  0.67024000  0.94491000  1.0
  C  C14  1  0.39879000  0.38485000  0.17023000  1.0
  C  C15  1  0.39879000  0.44494000  0.88484000  1.0
  C  C16  1  0.61271000  0.27431000  0.87743000  1.0
  C  C17  1  0.65541000  0.20643000  0.82583000  1.0
  C  C18  1  0.52188000  0.23868000  0.71710000  1.0
  C  C19  1  0.35762000  0.34308000  0.66013000  1.0
  C  C20  1  0.32918000  0.41330000  0.71022000  1.0
  C  C21  1  0.44618000  0.37908000  0.82092000  1.0
  C  C22  1  0.35765000  0.99682000  0.84307000  1.0
  C  C23  1  0.32920000  0.87651000  0.91327000  1.0
  C  C24  1  0.44619000  0.80002000  0.87907000  1.0
  C  C25  1  0.61268000  0.84827000  0.77430000  1.0
  C  C26  1  0.65541000  0.96774000  0.70642000  1.0
  C  C27  1  0.52190000  0.04422000  0.73867000  1.0
  C  C28  1  0.35763000  0.16013000  0.49681000  1.0
  C  C29  1  0.32919000  0.21023000  0.37650000  1.0
  C  C30  1  0.44619000  0.32092000  0.30001000  1.0
  C  C31  1  0.61270000  0.37744000  0.34826000  1.0
  C  C32  1  0.65540000  0.32585000  0.46773000  1.0
  C  C33  1  0.52187000  0.21712000  0.54422000  1.0
  S  S34  1  0.15616000  0.55169000  0.62179000  1.0
  S  S35  1  0.15615000  0.82654000  0.05168000  1.0
  S  S36  1  0.15616000  0.12178000  0.32655000  1.0
  N  N37  1  0.54941000  0.16667000  0.66667000  1.0
  O  O38  1  0.14839000  0.42301000  0.94140000  1.0
  O  O39  1  0.14838000  0.63560000  0.92300000  1.0
  O  O40  1  0.14839000  0.44141000  0.13560000  1.0
  O  O41  1  0.61781000  0.50998000  0.88110000  1.0
  O  O42  1  0.61780000  0.38110000  0.10893000  1.0
  O  O43  1  0.61778000  0.60895000  0.00997000  1.0
  O  O44  1  0.90701000  0.53130000  0.55851000  1.0
  O  O45  1  0.07388000  0.60534000  0.68876000  1.0
  O  O46  1  0.39857000  0.62430000  0.52855000  1.0
  O  O47  1  0.90701000  0.91023000  0.03129000  1.0
  O  O48  1  0.07386000  0.70593000  0.10532000  1.0
  O  O49  1  0.39857000  0.84716000  0.12429000  1.0
  O  O50  1  0.90700000  0.05850000  0.41021000  1.0
  O  O51  1  0.07387000  0.18875000  0.20592000  1.0
  O  O52  1  0.39857000  0.02855000  0.34717000  1.0
