# generated using pymatgen
data_AlH8C16N3O7
_symmetry_space_group_name_H-M   'P 1'
_cell_length_a   6.62758000
_cell_length_b   21.61590000
_cell_length_c   24.65670000
_cell_angle_alpha   109.60900000
_cell_angle_beta   92.37720000
_cell_angle_gamma   91.49950000
_symmetry_Int_Tables_number   1
_chemical_formula_structural   AlH8C16N3O7
_chemical_formula_sum   'Al4 H32 C64 N12 O28'
_cell_volume   3321.60616847
_cell_formula_units_Z   4
loop_
 _symmetry_equiv_pos_site_id
 _symmetry_equiv_pos_as_xyz
  1  'x, y, z'
loop_
 _atom_site_type_symbol
 _atom_site_label
 _atom_site_symmetry_multiplicity
 _atom_site_fract_x
 _atom_site_fract_y
 _atom_site_fract_z
 _atom_site_occupancy
  Al  Al0  1  0.12077000  0.49961000  0.49980000  1.0
  Al  Al1  1  0.62126000  0.50055000  0.50018000  1.0
  Al  Al2  1  0.66910000  0.99953000  0.99905000  1.0
  Al  Al3  1  0.16925000  0.99890000  0.00052000  1.0
  H  H4  1  0.14436000  0.21339000  0.07268000  1.0
  H  H5  1  0.33653000  0.77458000  0.93850000  1.0
  H  H6  1  0.11342000  0.39544000  0.24427000  1.0
  H  H7  1  0.42331000  0.59684000  0.76574000  1.0
  H  H8  1  0.17253000  0.32425000  0.14951000  1.0
  H  H9  1  0.37289000  0.66454000  0.86376000  1.0
  H  H10  1  0.71594000  0.28119000  0.44266000  1.0
  H  H11  1  0.32704000  0.72096000  0.54946000  1.0
  H  H12  1  0.81395000  0.14520000  0.27608000  1.0
  H  H13  1  0.30866000  0.85140000  0.72247000  1.0
  H  H14  1  0.98912000  0.41581000  0.34110000  1.0
  H  H15  1  0.45088000  0.58317000  0.66308000  1.0
  H  H16  1  0.60185000  0.86600000  0.08205000  1.0
  H  H17  1  0.10705000  0.13052000  0.91333000  1.0
  H  H18  1  0.59978000  0.79572000  0.14490000  1.0
  H  H19  1  0.10702000  0.20275000  0.85227000  1.0
  H  H20  1  0.22317000  0.85435000  0.19831000  1.0
  H  H21  1  0.70691000  0.14419000  0.80211000  1.0
  H  H22  1  0.22609000  0.92215000  0.13346000  1.0
  H  H23  1  0.71093000  0.07567000  0.86603000  1.0
  H  H24  1  0.56947000  0.65089000  0.30355000  1.0
  H  H25  1  0.08661000  0.35346000  0.69700000  1.0
  H  H26  1  0.55543000  0.58730000  0.37189000  1.0
  H  H27  1  0.07208000  0.41561000  0.62742000  1.0
  H  H28  1  0.18631000  0.63481000  0.41949000  1.0
  H  H29  1  0.68354000  0.36706000  0.58461000  1.0
  H  H30  1  0.19840000  0.70183000  0.35413000  1.0
  H  H31  1  0.69433000  0.30102000  0.65091000  1.0
  H  H32  1  0.35807000  0.45351000  0.42696000  1.0
  H  H33  1  0.88758000  0.54638000  0.57327000  1.0
  H  H34  1  0.43606000  0.03529000  0.07618000  1.0
  H  H35  1  0.91228000  0.98897000  0.92554000  1.0
  C  C36  1  0.37245000  0.43699000  0.56502000  1.0
  C  C37  1  0.86988000  0.56395000  0.43550000  1.0
  C  C38  1  0.39309000  0.60887000  0.57208000  1.0
  C  C39  1  0.84694000  0.39187000  0.42671000  1.0
  C  C40  1  0.09761000  0.28265000  0.15718000  1.0
  C  C41  1  0.37789000  0.70901000  0.85217000  1.0
  C  C42  1  0.96952000  0.17024000  0.12356000  1.0
  C  C43  1  0.38387000  0.82691000  0.87905000  1.0
  C  C44  1  0.76320000  0.27328000  0.39920000  1.0
  C  C45  1  0.34879000  0.72819000  0.59519000  1.0
  C  C46  1  0.76218000  0.20957000  0.35925000  1.0
  C  C47  1  0.32219000  0.79023000  0.63589000  1.0
  C  C48  1  0.81433000  0.19661000  0.30294000  1.0
  C  C49  1  0.34239000  0.80241000  0.69459000  1.0
  C  C50  1  0.87311000  0.24859000  0.28359000  1.0
  C  C51  1  0.39229000  0.75129000  0.71569000  1.0
  C  C52  1  0.89348000  0.31370000  0.32525000  1.0
  C  C53  1  0.41074000  0.68668000  0.67492000  1.0
  C  C54  1  0.92451000  0.23879000  0.22443000  1.0
  C  C55  1  0.40581000  0.75986000  0.77681000  1.0
  C  C56  1  0.02275000  0.29201000  0.21208000  1.0
  C  C57  1  0.40042000  0.70280000  0.79381000  1.0
  C  C58  1  0.04318000  0.35548000  0.25553000  1.0
  C  C59  1  0.41905000  0.63938000  0.75136000  1.0
  C  C60  1  0.97514000  0.36661000  0.30922000  1.0
  C  C61  1  0.43220000  0.63183000  0.69449000  1.0
  C  C62  1  0.88887000  0.17997000  0.17682000  1.0
  C  C63  1  0.41433000  0.82114000  0.82219000  1.0
  C  C64  1  0.07975000  0.22209000  0.11439000  1.0
  C  C65  1  0.35999000  0.76974000  0.89377000  1.0
  C  C66  1  0.83323000  0.32449000  0.38234000  1.0
  C  C67  1  0.39149000  0.67708000  0.61502000  1.0
  C  C68  1  0.73715000  0.86241000  0.10731000  1.0
  C  C69  1  0.23860000  0.13461000  0.88941000  1.0
  C  C70  1  0.73578000  0.82382000  0.14236000  1.0
  C  C71  1  0.23793000  0.17438000  0.85526000  1.0
  C  C72  1  0.91189000  0.82045000  0.17501000  1.0
  C  C73  1  0.40820000  0.17862000  0.82422000  1.0
  C  C74  1  0.08852000  0.85667000  0.17227000  1.0
  C  C75  1  0.57780000  0.14190000  0.82739000  1.0
  C  C76  1  0.08990000  0.89434000  0.13635000  1.0
  C  C77  1  0.57978000  0.10381000  0.86286000  1.0
  C  C78  1  0.91468000  0.89727000  0.10354000  1.0
  C  C79  1  0.41109000  0.10019000  0.89432000  1.0
  C  C80  1  0.89758000  0.71318000  0.28161000  1.0
  C  C81  1  0.40380000  0.28964000  0.72068000  1.0
  C  C82  1  0.91089000  0.77892000  0.21148000  1.0
  C  C83  1  0.41105000  0.22161000  0.78908000  1.0
  C  C84  1  0.70310000  0.64762000  0.32960000  1.0
  C  C85  1  0.21543000  0.35597000  0.67164000  1.0
  C  C86  1  0.69571000  0.61208000  0.36724000  1.0
  C  C87  1  0.20793000  0.39082000  0.63348000  1.0
  C  C88  1  0.87131000  0.60631000  0.39871000  1.0
  C  C89  1  0.37781000  0.39582000  0.60285000  1.0
  C  C90  1  0.05203000  0.63918000  0.39422000  1.0
  C  C91  1  0.55318000  0.36330000  0.60903000  1.0
  C  C92  1  0.05895000  0.67608000  0.35782000  1.0
  C  C93  1  0.55968000  0.32690000  0.64599000  1.0
  C  C94  1  0.88565000  0.67915000  0.32402000  1.0
  C  C95  1  0.39225000  0.32414000  0.67855000  1.0
  C  C96  1  0.39121000  0.89286000  0.92600000  1.0
  C  C97  1  0.94761000  0.10576000  0.07515000  1.0
  C  C98  1  0.41788000  0.06053000  0.93340000  1.0
  C  C99  1  0.91458000  0.93732000  0.06475000  1.0
  N  N100  1  0.08168000  0.77812000  0.24347000  1.0
  N  N101  1  0.57737000  0.22277000  0.75910000  1.0
  N  N102  1  0.07466000  0.74468000  0.27915000  1.0
  N  N103  1  0.57351000  0.25730000  0.72427000  1.0
  N  N104  1  0.73802000  0.70596000  0.24353000  1.0
  N  N105  1  0.25263000  0.29685000  0.75737000  1.0
  N  N106  1  0.74486000  0.73947000  0.20784000  1.0
  N  N107  1  0.25616000  0.26215000  0.79219000  1.0
  N  N108  1  0.75678000  0.12532000  0.18072000  1.0
  N  N109  1  0.47202000  0.88275000  0.81197000  1.0
  N  N110  1  0.70557000  0.15379000  0.37838000  1.0
  N  N111  1  0.25982000  0.84388000  0.61503000  1.0
  O  O112  1  0.56109000  0.58547000  0.55434000  1.0
  O  O113  1  0.02179000  0.41958000  0.44119000  1.0
  O  O114  1  0.19904000  0.45020000  0.54846000  1.0
  O  O115  1  0.69917000  0.54356000  0.44654000  1.0
  O  O116  1  0.22032000  0.57996000  0.55717000  1.0
  O  O117  1  0.68190000  0.41569000  0.44678000  1.0
  O  O118  1  0.04211000  0.54979000  0.45205000  1.0
  O  O119  1  0.54216000  0.45726000  0.55323000  1.0
  O  O120  1  0.36514000  0.48750000  0.46459000  1.0
  O  O121  1  0.87735000  0.51273000  0.53546000  1.0
  O  O122  1  0.25031000  0.03915000  0.94529000  1.0
  O  O123  1  0.74403000  0.94520000  0.04278000  1.0
  O  O124  1  0.56329000  0.92252000  0.93778000  1.0
  O  O125  1  0.11192000  0.08545000  0.05226000  1.0
  O  O126  1  0.59268000  0.05131000  0.95238000  1.0
  O  O127  1  0.08369000  0.96113000  0.05621000  1.0
  O  O128  1  0.77275000  0.07811000  0.06138000  1.0
  O  O129  1  0.22786000  0.91184000  0.94981000  1.0
  O  O130  1  0.42646000  0.01149000  0.03504000  1.0
  O  O131  1  0.91425000  0.98824000  0.96464000  1.0
  O  O132  1  0.83758000  0.07370000  0.17867000  1.0
  O  O133  1  0.57415000  0.13533000  0.18459000  1.0
  O  O134  1  0.63623000  0.88465000  0.79044000  1.0
  O  O135  1  0.35511000  0.92858000  0.82738000  1.0
  O  O136  1  0.65366000  0.16729000  0.42867000  1.0
  O  O137  1  0.71399000  0.09756000  0.34316000  1.0
  O  O138  1  0.24308000  0.83118000  0.56205000  1.0
  O  O139  1  0.22707000  0.89755000  0.65161000  1.0
