# generated using pymatgen
data_AgH5C7N2
_symmetry_space_group_name_H-M   'P 1'
_cell_length_a   4.51367000
_cell_length_b   11.19620000
_cell_length_c   12.34560000
_cell_angle_alpha   90.00000000
_cell_angle_beta   90.00000000
_cell_angle_gamma   96.16710000
_symmetry_Int_Tables_number   1
_chemical_formula_structural   AgH5C7N2
_chemical_formula_sum   'Ag4 H20 C28 N8'
_cell_volume   620.28604418
_cell_formula_units_Z   4
loop_
 _symmetry_equiv_pos_site_id
 _symmetry_equiv_pos_as_xyz
  1  'x, y, z'
loop_
 _atom_site_type_symbol
 _atom_site_label
 _atom_site_symmetry_multiplicity
 _atom_site_fract_x
 _atom_site_fract_y
 _atom_site_fract_z
 _atom_site_occupancy
  Ag  Ag0  1  0.98321000  0.09467000  0.23688000  1.0
  Ag  Ag1  1  0.51679000  0.40533000  0.73687000  1.0
  Ag  Ag2  1  0.01679000  0.90533000  0.76313000  1.0
  Ag  Ag3  1  0.48321000  0.59467000  0.26312000  1.0
  H  H4  1  0.20042000  0.46818000  0.46954000  1.0
  H  H5  1  0.29958000  0.03182000  0.96954000  1.0
  H  H6  1  0.79958000  0.53182000  0.53046000  1.0
  H  H7  1  0.70042000  0.96818000  0.03046000  1.0
  H  H8  1  0.50456000  0.05140000  0.42138000  1.0
  H  H9  1  0.99544000  0.44860000  0.92138000  1.0
  H  H10  1  0.49544000  0.94860000  0.57862000  1.0
  H  H11  1  0.00456000  0.55140000  0.07862000  1.0
  H  H12  1  0.93332000  0.38661000  0.18089000  1.0
  H  H13  1  0.56668000  0.11339000  0.68089000  1.0
  H  H14  1  0.06668000  0.61339000  0.81911000  1.0
  H  H15  1  0.43332000  0.88661000  0.31911000  1.0
  H  H16  1  0.98710000  0.29890000  0.58785000  1.0
  H  H17  1  0.51290000  0.20110000  0.08785000  1.0
  H  H18  1  0.01290000  0.70110000  0.41215000  1.0
  H  H19  1  0.48710000  0.79890000  0.91215000  1.0
  H  H20  1  0.12945000  0.09362000  0.56237000  1.0
  H  H21  1  0.37055000  0.40638000  0.06237000  1.0
  H  H22  1  0.87055000  0.90638000  0.43763000  1.0
  H  H23  1  0.62945000  0.59362000  0.93763000  1.0
  C  C24  1  0.78789000  0.35557000  0.24748000  1.0
  C  C25  1  0.71211000  0.14443000  0.74748000  1.0
  C  C26  1  0.21211000  0.64443000  0.75252000  1.0
  C  C27  1  0.28789000  0.85557000  0.25252000  1.0
  C  C28  1  0.46920000  0.35349000  0.37957000  1.0
  C  C29  1  0.03080000  0.14651000  0.87957000  1.0
  C  C30  1  0.53080000  0.64651000  0.62043000  1.0
  C  C31  1  0.96920000  0.85349000  0.12043000  1.0
  C  C32  1  0.26522000  0.37788000  0.45969000  1.0
  C  C33  1  0.23477000  0.12212000  0.95969000  1.0
  C  C34  1  0.73477000  0.62212000  0.54031000  1.0
  C  C35  1  0.76523000  0.87788000  0.04031000  1.0
  C  C36  1  0.14951000  0.28318000  0.52554000  1.0
  C  C37  1  0.35049000  0.21682000  0.02554000  1.0
  C  C38  1  0.85049000  0.71682000  0.47446000  1.0
  C  C39  1  0.64951000  0.78318000  0.97446000  1.0
  C  C40  1  0.23181000  0.16607000  0.51106000  1.0
  C  C41  1  0.26818000  0.33393000  0.01106000  1.0
  C  C42  1  0.76818000  0.83393000  0.48894000  1.0
  C  C43  1  0.73182000  0.66607000  0.98894000  1.0
  C  C44  1  0.43685000  0.14125000  0.43190000  1.0
  C  C45  1  0.06315000  0.35875000  0.93190000  1.0
  C  C46  1  0.56315000  0.85875000  0.56810000  1.0
  C  C47  1  0.93685000  0.64125000  0.06810000  1.0
  C  C48  1  0.55796000  0.23659000  0.36661000  1.0
  C  C49  1  0.94204000  0.26341000  0.86661000  1.0
  C  C50  1  0.44204000  0.76341000  0.63339000  1.0
  C  C51  1  0.05796000  0.73659000  0.13339000  1.0
  N  N52  1  0.76235000  0.24085000  0.28243000  1.0
  N  N53  1  0.73765000  0.25915000  0.78243000  1.0
  N  N54  1  0.23765000  0.75915000  0.71757000  1.0
  N  N55  1  0.26235000  0.74085000  0.21757000  1.0
  N  N56  1  0.61726000  0.42726000  0.30209000  1.0
  N  N57  1  0.88274000  0.07274000  0.80209000  1.0
  N  N58  1  0.38274000  0.57274000  0.69791000  1.0
  N  N59  1  0.11726000  0.92726000  0.19791000  1.0
