# generated using pymatgen
data_Zn4H48C76N12O13
_symmetry_space_group_name_H-M   'P 1'
_cell_length_a   15.03340000
_cell_length_b   17.54190000
_cell_length_c   19.89100000
_cell_angle_alpha   115.11300000
_cell_angle_beta   92.59100000
_cell_angle_gamma   105.27500000
_symmetry_Int_Tables_number   1
_chemical_formula_structural   Zn4H48C76N12O13
_chemical_formula_sum   'Zn8 H96 C152 N24 O26'
_cell_volume   4507.26434270
_cell_formula_units_Z   2
loop_
 _symmetry_equiv_pos_site_id
 _symmetry_equiv_pos_as_xyz
  1  'x, y, z'
loop_
 _atom_site_type_symbol
 _atom_site_label
 _atom_site_symmetry_multiplicity
 _atom_site_fract_x
 _atom_site_fract_y
 _atom_site_fract_z
 _atom_site_occupancy
  Zn  Zn0  1  0.73549000  0.64144000  0.34314000  1.0
  Zn  Zn1  1  0.79612000  0.70067000  0.94578000  1.0
  Zn  Zn2  1  0.86028000  0.77766000  0.67878000  1.0
  Zn  Zn3  1  0.66832000  0.56393000  0.60962000  1.0
  Zn  Zn4  1  0.26451000  0.35855000  0.65686000  1.0
  Zn  Zn5  1  0.20388000  0.29933000  0.05422000  1.0
  Zn  Zn6  1  0.13971000  0.22235000  0.32121000  1.0
  Zn  Zn7  1  0.33168000  0.43607000  0.39038000  1.0
  H  H8  1  0.51784000  0.59744000  0.58827000  1.0
  H  H9  1  0.51359000  0.57081000  0.65722000  1.0
  H  H10  1  0.68781000  0.20196000  0.17037000  1.0
  H  H11  1  0.60660000  0.67577000  0.99079000  1.0
  H  H12  1  0.52975000  0.59976000  0.27722000  1.0
  H  H13  1  0.41918000  0.68551000  0.28906000  1.0
  H  H14  1  0.34217000  0.12170000  0.42028000  1.0
  H  H15  1  0.62318000  0.12108000  0.47115000  1.0
  H  H16  1  0.57389000  0.98837000  0.40422000  1.0
  H  H17  1  0.40265000  0.28490000  0.46254000  1.0
  H  H18  1  0.64497000  0.06620000  0.10987000  1.0
  H  H19  1  0.77577000  0.06289000  0.73676000  1.0
  H  H20  1  0.67914000  0.56059000  0.77278000  1.0
  H  H21  1  0.33109000  0.76316000  0.34916000  1.0
  H  H22  1  0.87980000  0.96757000  0.70779000  1.0
  H  H23  1  0.73056000  0.36540000  0.23630000  1.0
  H  H24  1  0.46812000  0.90139000  0.71051000  1.0
  H  H25  1  0.81844000  0.89086000  0.00541000  1.0
  H  H26  1  0.69892000  0.14404000  0.81139000  1.0
  H  H27  1  0.89588000  0.80156000  0.84995000  1.0
  H  H28  1  0.64671000  0.92149000  0.43608000  1.0
  H  H29  1  0.67435000  0.76415000  0.71882000  1.0
  H  H30  1  0.56346000  0.84914000  0.74781000  1.0
  H  H31  1  0.64150000  0.53086000  0.43617000  1.0
  H  H32  1  0.86077000  0.77124000  0.51390000  1.0
  H  H33  1  0.40779000  0.82906000  0.02223000  1.0
  H  H34  1  0.39725000  0.18388000  0.13017000  1.0
  H  H35  1  0.73585000  0.27006000  0.82523000  1.0
  H  H36  1  0.49990000  0.76511000  0.03690000  1.0
  H  H37  1  0.44893000  0.25844000  0.84473000  1.0
  H  H38  1  0.09329000  0.72414000  0.98655000  1.0
  H  H39  1  0.68120000  0.28341000  0.52012000  1.0
  H  H40  1  0.44095000  0.34876000  0.19838000  1.0
  H  H41  1  0.25868000  0.04644000  0.09030000  1.0
  H  H42  1  0.74945000  0.82597000  0.41305000  1.0
  H  H43  1  0.77954000  0.43263000  0.87203000  1.0
  H  H44  1  0.49285000  0.42204000  0.88595000  1.0
  H  H45  1  0.26676000  0.77931000  0.01376000  1.0
  H  H46  1  0.71864000  0.98894000  0.04679000  1.0
  H  H47  1  0.08353000  0.98878000  0.05472000  1.0
  H  H48  1  0.15681000  0.80294000  0.71575000  1.0
  H  H49  1  0.33073000  0.86608000  0.74365000  1.0
  H  H50  1  0.30896000  0.08878000  0.71178000  1.0
  H  H51  1  0.13401000  0.01983000  0.67628000  1.0
  H  H52  1  0.02442000  0.93155000  0.44304000  1.0
  H  H53  1  0.19637000  0.98622000  0.44518000  1.0
  H  H54  1  0.18883000  0.71946000  0.29697000  1.0
  H  H55  1  0.01722000  0.66700000  0.29292000  1.0
  H  H56  1  0.48217000  0.40256000  0.41173000  1.0
  H  H57  1  0.48642000  0.42920000  0.34278000  1.0
  H  H58  1  0.31219000  0.79804000  0.82963000  1.0
  H  H59  1  0.39340000  0.32423000  0.00921000  1.0
  H  H60  1  0.47025000  0.40024000  0.72277000  1.0
  H  H61  1  0.58082000  0.31449000  0.71095000  1.0
  H  H62  1  0.65784000  0.87830000  0.57972000  1.0
  H  H63  1  0.37682000  0.87892000  0.52885000  1.0
  H  H64  1  0.42611000  0.01163000  0.59579000  1.0
  H  H65  1  0.59736000  0.71509000  0.53746000  1.0
  H  H66  1  0.35503000  0.93381000  0.89013000  1.0
  H  H67  1  0.22423000  0.93711000  0.26324000  1.0
  H  H68  1  0.32086000  0.43941000  0.22721000  1.0
  H  H69  1  0.66890000  0.23684000  0.65084000  1.0
  H  H70  1  0.12020000  0.03244000  0.29221000  1.0
  H  H71  1  0.26944000  0.63461000  0.76370000  1.0
  H  H72  1  0.53189000  0.09861000  0.28949000  1.0
  H  H73  1  0.18156000  0.10914000  0.99459000  1.0
  H  H74  1  0.30108000  0.85596000  0.18861000  1.0
  H  H75  1  0.10412000  0.19844000  0.15005000  1.0
  H  H76  1  0.35329000  0.07851000  0.56392000  1.0
  H  H77  1  0.32565000  0.23585000  0.28118000  1.0
  H  H78  1  0.43655000  0.15086000  0.25219000  1.0
  H  H79  1  0.35850000  0.46913000  0.56383000  1.0
  H  H80  1  0.13922000  0.22876000  0.48609000  1.0
  H  H81  1  0.59221000  0.17094000  0.97777000  1.0
  H  H82  1  0.60275000  0.81612000  0.86983000  1.0
  H  H83  1  0.26414000  0.72994000  0.17477000  1.0
  H  H84  1  0.50011000  0.23490000  0.96310000  1.0
  H  H85  1  0.55107000  0.74156000  0.15528000  1.0
  H  H86  1  0.90671000  0.27586000  0.01345000  1.0
  H  H87  1  0.31880000  0.71658000  0.47988000  1.0
  H  H88  1  0.55904000  0.65124000  0.80162000  1.0
  H  H89  1  0.74132000  0.95356000  0.90969000  1.0
  H  H90  1  0.25055000  0.17402000  0.58695000  1.0
  H  H91  1  0.22046000  0.56737000  0.12798000  1.0
  H  H92  1  0.50715000  0.57796000  0.11406000  1.0
  H  H93  1  0.73324000  0.22069000  0.98623000  1.0
  H  H94  1  0.28136000  0.01106000  0.95321000  1.0
  H  H95  1  0.91647000  0.01122000  0.94527000  1.0
  H  H96  1  0.84320000  0.19706000  0.28425000  1.0
  H  H97  1  0.66927000  0.13392000  0.25635000  1.0
  H  H98  1  0.69104000  0.91123000  0.28823000  1.0
  H  H99  1  0.86599000  0.98017000  0.32373000  1.0
  H  H100  1  0.97558000  0.06845000  0.55695000  1.0
  H  H101  1  0.80363000  0.01378000  0.55483000  1.0
  H  H102  1  0.81117000  0.28054000  0.70304000  1.0
  H  H103  1  0.98278000  0.33301000  0.70709000  1.0
  C  C104  1  0.52280000  0.81252000  0.36341000  1.0
  C  C105  1  0.63265000  0.23292000  0.17596000  1.0
  C  C106  1  0.62918000  0.74622000  0.00616000  1.0
  C  C107  1  0.55291000  0.67151000  0.31083000  1.0
  C  C108  1  0.54589000  0.29458000  0.49390000  1.0
  C  C109  1  0.47787000  0.10950000  0.44125000  1.0
  C  C110  1  0.49123000  0.72029000  0.31894000  1.0
  C  C111  1  0.61218000  0.46476000  0.27274000  1.0
  C  C112  1  0.41668000  0.15759000  0.44046000  1.0
  C  C113  1  0.57388000  0.15596000  0.46879000  1.0
  C  C114  1  0.49900000  0.95928000  0.39911000  1.0
  C  C115  1  0.59273000  0.01614000  0.75951000  1.0
  C  C116  1  0.45041000  0.24851000  0.46474000  1.0
  C  C117  1  0.56978000  0.03310000  0.09683000  1.0
  C  C118  1  0.75069000  0.99792000  0.73519000  1.0
  C  C119  1  0.53480000  0.94044000  0.06466000  1.0
  C  C120  1  0.44017000  0.01247000  0.41469000  1.0
  C  C121  1  0.73241000  0.61687000  0.77400000  1.0
  C  C122  1  0.36341000  0.83317000  0.36530000  1.0
  C  C123  1  0.80966000  0.94571000  0.71898000  1.0
  C  C124  1  0.65740000  0.32509000  0.21339000  1.0
  C  C125  1  0.55913000  0.15518000  0.80142000  1.0
  C  C126  1  0.27531000  0.91757000  0.05249000  1.0
  C  C127  1  0.46085000  0.86820000  0.37520000  1.0
  C  C128  1  0.58863000  0.25286000  0.83244000  1.0
  C  C129  1  0.58811000  0.36708000  0.22412000  1.0
  C  C130  1  0.50718000  0.08248000  0.11201000  1.0
  C  C131  1  0.49581000  0.97342000  0.73906000  1.0
  C  C132  1  0.58161000  0.39254000  0.52218000  1.0
  C  C133  1  0.53816000  0.18076000  0.14714000  1.0
  C  C134  1  0.74706000  0.86682000  0.01359000  1.0
  C  C135  1  0.62427000  0.10870000  0.79214000  1.0
  C  C136  1  0.84196000  0.73975000  0.81293000  1.0
  C  C137  1  0.61747000  0.85096000  0.39815000  1.0
  C  C138  1  0.69521000  0.83120000  0.72428000  1.0
  C  C139  1  0.63261000  0.87923000  0.73990000  1.0
  C  C140  1  0.69862000  0.59045000  0.47155000  1.0
  C  C141  1  0.80978000  0.71275000  0.51143000  1.0
  C  C142  1  0.43756000  0.90086000  0.04931000  1.0
  C  C143  1  0.47001000  0.22424000  0.15437000  1.0
  C  C144  1  0.65939000  0.96489000  0.74556000  1.0
  C  C145  1  0.68211000  0.30262000  0.84030000  1.0
  C  C146  1  0.37883000  0.95431000  0.06679000  1.0
  C  C147  1  0.43459000  0.02421000  0.75139000  1.0
  C  C148  1  0.07807000  0.85285000  0.01803000  1.0
  C  C149  1  0.30829000  0.88991000  0.38071000  1.0
  C  C150  1  0.56931000  0.79674000  0.03033000  1.0
  C  C151  1  0.52125000  0.29745000  0.85132000  1.0
  C  C152  1  0.13026000  0.79467000  0.00836000  1.0
  C  C153  1  0.60721000  0.24751000  0.49639000  1.0
  C  C154  1  0.49429000  0.31585000  0.19282000  1.0
  C  C155  1  0.22169000  0.97580000  0.06638000  1.0
  C  C156  1  0.67535000  0.79866000  0.38723000  1.0
  C  C157  1  0.70711000  0.39377000  0.86544000  1.0
  C  C158  1  0.54572000  0.38809000  0.87429000  1.0
  C  C159  1  0.22789000  0.82646000  0.02417000  1.0
  C  C160  1  0.69056000  0.92074000  0.03739000  1.0
  C  C161  1  0.90921000  0.76412000  0.37285000  1.0
  C  C162  1  0.59847000  0.88601000  0.04500000  1.0
  C  C163  1  0.63877000  0.43693000  0.88108000  1.0
  C  C164  1  0.12461000  0.94398000  0.04787000  1.0
  C  C165  1  0.66426000  0.53321000  0.89972000  1.0
  C  C166  1  0.97393000  0.81927000  0.99265000  1.0
  C  C167  1  0.13493000  0.90791000  0.69494000  1.0
  C  C168  1  0.19094000  0.86467000  0.71356000  1.0
  C  C169  1  0.28816000  0.90060000  0.72945000  1.0
  C  C170  1  0.33161000  0.98242000  0.73011000  1.0
  C  C171  1  0.27509000  0.02533000  0.71119000  1.0
  C  C172  1  0.17804000  0.98764000  0.69231000  1.0
  C  C173  1  0.03024000  0.87076000  0.67972000  1.0
  C  C174  1  0.06131000  0.88603000  0.41077000  1.0
  C  C175  1  0.15695000  0.91623000  0.41233000  1.0
  C  C176  1  0.20521000  0.85677000  0.37326000  1.0
  C  C177  1  0.15369000  0.76671000  0.32947000  1.0
  C  C178  1  0.05743000  0.73669000  0.32668000  1.0
  C  C179  1  0.01081000  0.79580000  0.36865000  1.0
  C  C180  1  0.47720000  0.18747000  0.63659000  1.0
  C  C181  1  0.36735000  0.76708000  0.82403000  1.0
  C  C182  1  0.37082000  0.25378000  0.99384000  1.0
  C  C183  1  0.44708000  0.32849000  0.68917000  1.0
  C  C184  1  0.45412000  0.70542000  0.50610000  1.0
  C  C185  1  0.52213000  0.89050000  0.55876000  1.0
  C  C186  1  0.50876000  0.27971000  0.68106000  1.0
  C  C187  1  0.38782000  0.53524000  0.72725000  1.0
  C  C188  1  0.58333000  0.84241000  0.55954000  1.0
  C  C189  1  0.42613000  0.84404000  0.53122000  1.0
  C  C190  1  0.50099000  0.04072000  0.60090000  1.0
  C  C191  1  0.40727000  0.98386000  0.24049000  1.0
  C  C192  1  0.54959000  0.75149000  0.53526000  1.0
  C  C193  1  0.43022000  0.96690000  0.90317000  1.0
  C  C194  1  0.24931000  0.00208000  0.26481000  1.0
  C  C195  1  0.46520000  0.05956000  0.93534000  1.0
  C  C196  1  0.55983000  0.98753000  0.58532000  1.0
  C  C197  1  0.26759000  0.38313000  0.22600000  1.0
  C  C198  1  0.63659000  0.16682000  0.63470000  1.0
  C  C199  1  0.19034000  0.05429000  0.28102000  1.0
  C  C200  1  0.34260000  0.67491000  0.78660000  1.0
  C  C201  1  0.44087000  0.84482000  0.19858000  1.0
  C  C202  1  0.72469000  0.08243000  0.94750000  1.0
  C  C203  1  0.53915000  0.13179000  0.62480000  1.0
  C  C204  1  0.41137000  0.74714000  0.16757000  1.0
  C  C205  1  0.41188000  0.63291000  0.77587000  1.0
  C  C206  1  0.49281000  0.91752000  0.88799000  1.0
  C  C207  1  0.50419000  0.02658000  0.26094000  1.0
  C  C208  1  0.41840000  0.60746000  0.47782000  1.0
  C  C209  1  0.46184000  0.81924000  0.85286000  1.0
  C  C210  1  0.25293000  0.13318000  0.98640000  1.0
  C  C211  1  0.37573000  0.89130000  0.20786000  1.0
  C  C212  1  0.15804000  0.26025000  0.18707000  1.0
  C  C213  1  0.38253000  0.14904000  0.60185000  1.0
  C  C214  1  0.30480000  0.16880000  0.27571000  1.0
  C  C215  1  0.36739000  0.12077000  0.26010000  1.0
  C  C216  1  0.30138000  0.40955000  0.52845000  1.0
  C  C217  1  0.19021000  0.28725000  0.48856000  1.0
  C  C218  1  0.56244000  0.09914000  0.95069000  1.0
  C  C219  1  0.52999000  0.77576000  0.84563000  1.0
  C  C220  1  0.34061000  0.03511000  0.25444000  1.0
  C  C221  1  0.31789000  0.69738000  0.15971000  1.0
  C  C222  1  0.62117000  0.04569000  0.93321000  1.0
  C  C223  1  0.56541000  0.97579000  0.24860000  1.0
  C  C224  1  0.92193000  0.14715000  0.98196000  1.0
  C  C225  1  0.69171000  0.11009000  0.61929000  1.0
  C  C226  1  0.43069000  0.20327000  0.96967000  1.0
  C  C227  1  0.47875000  0.70255000  0.14869000  1.0
  C  C228  1  0.86974000  0.20532000  0.99163000  1.0
  C  C229  1  0.39279000  0.75249000  0.50362000  1.0
  C  C230  1  0.50571000  0.68415000  0.80718000  1.0
  C  C231  1  0.77831000  0.02420000  0.93361000  1.0
  C  C232  1  0.32464000  0.20134000  0.61277000  1.0
  C  C233  1  0.29289000  0.60623000  0.13457000  1.0
  C  C234  1  0.45428000  0.61191000  0.12572000  1.0
  C  C235  1  0.77211000  0.17354000  0.97582000  1.0
  C  C236  1  0.30944000  0.07926000  0.96261000  1.0
  C  C237  1  0.09078000  0.23588000  0.62715000  1.0
  C  C238  1  0.40154000  0.11400000  0.95500000  1.0
  C  C239  1  0.36123000  0.56307000  0.11893000  1.0
  C  C240  1  0.87539000  0.05602000  0.95212000  1.0
  C  C241  1  0.33574000  0.46679000  0.10029000  1.0
  C  C242  1  0.02607000  0.18073000  0.00735000  1.0
  C  C243  1  0.86506000  0.09209000  0.30506000  1.0
  C  C244  1  0.80906000  0.13532000  0.28644000  1.0
  C  C245  1  0.71184000  0.09940000  0.27055000  1.0
  C  C246  1  0.66839000  0.01758000  0.26989000  1.0
  C  C247  1  0.72490000  0.97467000  0.28881000  1.0
  C  C248  1  0.82196000  0.01236000  0.30770000  1.0
  C  C249  1  0.96976000  0.12924000  0.32027000  1.0
  C  C250  1  0.93869000  0.11397000  0.58923000  1.0
  C  C251  1  0.84305000  0.08377000  0.58767000  1.0
  C  C252  1  0.79479000  0.14323000  0.62675000  1.0
  C  C253  1  0.84631000  0.23330000  0.67053000  1.0
  C  C254  1  0.94257000  0.26332000  0.67332000  1.0
  C  C255  1  0.98919000  0.20421000  0.63134000  1.0
  N  N256  1  0.64393000  0.70988000  0.34425000  1.0
  N  N257  1  0.72623000  0.61751000  0.54480000  1.0
  N  N258  1  0.46620000  0.11307000  0.78138000  1.0
  N  N259  1  0.78248000  0.86325000  0.71352000  1.0
  N  N260  1  0.81778000  0.70918000  0.73880000  1.0
  N  N261  1  0.34681000  0.97797000  0.40592000  1.0
  N  N262  1  0.41406000  0.04293000  0.09695000  1.0
  N  N263  1  0.74738000  0.63005000  0.71372000  1.0
  N  N264  1  0.79782000  0.69619000  0.57039000  1.0
  N  N265  1  0.71661000  0.78010000  0.99678000  1.0
  N  N266  1  0.74903000  0.64798000  0.44845000  1.0
  N  N267  1  0.79002000  0.68407000  0.83725000  1.0
  N  N268  1  0.35607000  0.29012000  0.65575000  1.0
  N  N269  1  0.27377000  0.38249000  0.45520000  1.0
  N  N270  1  0.53380000  0.88693000  0.21863000  1.0
  N  N271  1  0.21753000  0.13675000  0.28648000  1.0
  N  N272  1  0.18223000  0.29082000  0.26120000  1.0
  N  N273  1  0.65319000  0.02202000  0.59409000  1.0
  N  N274  1  0.58594000  0.95707000  0.90305000  1.0
  N  N275  1  0.25262000  0.36995000  0.28628000  1.0
  N  N276  1  0.20218000  0.30381000  0.42961000  1.0
  N  N277  1  0.28339000  0.21991000  0.00321000  1.0
  N  N278  1  0.25096000  0.35202000  0.55155000  1.0
  N  N279  1  0.20997000  0.31593000  0.16274000  1.0
  O  O280  1  0.64792000  0.43695000  0.58067000  1.0
  O  O281  1  0.68996000  0.51422000  0.26933000  1.0
  O  O282  1  0.55646000  0.60596000  0.63516000  1.0
  O  O283  1  0.55644000  0.49317000  0.31602000  1.0
  O  O284  1  0.74853000  0.58073000  0.93693000  1.0
  O  O285  1  0.93009000  0.74411000  0.99101000  1.0
  O  O286  1  0.54754000  0.42998000  0.49030000  1.0
  O  O287  1  0.86204000  0.68349000  0.32410000  1.0
  O  O288  1  0.93594000  0.86410000  0.97280000  1.0
  O  O289  1  0.60593000  0.56043000  0.87685000  1.0
  O  O290  1  0.87633000  0.81516000  0.42356000  1.0
  O  O291  1  0.99633000  0.81172000  0.70322000  1.0
  O  O292  1  0.97953000  0.89623000  0.64745000  1.0
  O  O293  1  0.35209000  0.56305000  0.41932000  1.0
  O  O294  1  0.31004000  0.48578000  0.73067000  1.0
  O  O295  1  0.44355000  0.39404000  0.36484000  1.0
  O  O296  1  0.44356000  0.50684000  0.68398000  1.0
  O  O297  1  0.25147000  0.41928000  0.06307000  1.0
  O  O298  1  0.06991000  0.25588000  0.00898000  1.0
  O  O299  1  0.45246000  0.57002000  0.50970000  1.0
  O  O300  1  0.13795000  0.31651000  0.67590000  1.0
  O  O301  1  0.06405000  0.13590000  0.02720000  1.0
  O  O302  1  0.39407000  0.43956000  0.12315000  1.0
  O  O303  1  0.12366000  0.18484000  0.57643000  1.0
  O  O304  1  0.00366000  0.18828000  0.29677000  1.0
  O  O305  1  0.02047000  0.10377000  0.35255000  1.0
