# generated using pymatgen
data_CdH15C15S2N7
_symmetry_space_group_name_H-M   'P 1'
_cell_length_a   9.34382000
_cell_length_b   10.20750000
_cell_length_c   10.47320000
_cell_angle_alpha   95.83530000
_cell_angle_beta   98.43980000
_cell_angle_gamma   109.81500000
_symmetry_Int_Tables_number   1
_chemical_formula_structural   CdH15C15S2N7
_chemical_formula_sum   'Cd2 H30 C30 S4 N14'
_cell_volume   917.19459274
_cell_formula_units_Z   2
loop_
 _symmetry_equiv_pos_site_id
 _symmetry_equiv_pos_as_xyz
  1  'x, y, z'
loop_
 _atom_site_type_symbol
 _atom_site_label
 _atom_site_symmetry_multiplicity
 _atom_site_fract_x
 _atom_site_fract_y
 _atom_site_fract_z
 _atom_site_occupancy
  Cd  Cd0  1  0.63369000  0.30794000  0.11820000  1.0
  Cd  Cd1  1  0.36631000  0.69206000  0.88180000  1.0
  H  H2  1  0.65446000  0.62678000  0.25584000  1.0
  H  H3  1  0.34555000  0.37322000  0.74416000  1.0
  H  H4  1  0.69802000  0.72910000  0.52035000  1.0
  H  H5  1  0.30199000  0.27091000  0.47965000  1.0
  H  H6  1  0.63781000  0.56004000  0.71623000  1.0
  H  H7  1  0.36219000  0.43996000  0.28377000  1.0
  H  H8  1  0.72587000  0.43010000  0.70574000  1.0
  H  H9  1  0.27413000  0.56990000  0.29426000  1.0
  H  H10  1  0.69986000  0.82732000  0.74481000  1.0
  H  H11  1  0.30013000  0.17268000  0.25519000  1.0
  H  H12  1  0.84667000  0.08392000  0.82089000  1.0
  H  H13  1  0.15332000  0.91607000  0.17911000  1.0
  H  H14  1  0.12794000  0.17662000  0.89832000  1.0
  H  H15  1  0.87205000  0.82338000  0.10169000  1.0
  H  H16  1  0.28049000  0.01801000  0.91043000  1.0
  H  H17  1  0.71951000  0.98199000  0.08957000  1.0
  H  H18  1  0.64868000  0.19506000  0.38758000  1.0
  H  H19  1  0.35132000  0.80494000  0.61242000  1.0
  H  H20  1  0.62694000  0.23242000  0.55041000  1.0
  H  H21  1  0.37306000  0.76758000  0.44959000  1.0
  H  H22  1  0.90816000  0.32970000  0.63037000  1.0
  H  H23  1  0.09183000  0.67030000  0.36963000  1.0
  H  H24  1  0.94462000  0.33598000  0.47077000  1.0
  H  H25  1  0.05538000  0.66402000  0.52923000  1.0
  H  H26  1  0.83935000  0.07282000  0.41681000  1.0
  H  H27  1  0.16065000  0.92718000  0.58319000  1.0
  H  H28  1  0.78356000  0.05976000  0.57139000  1.0
  H  H29  1  0.21644000  0.94024000  0.42861000  1.0
  H  H30  1  0.98261000  0.12563000  0.56293000  1.0
  H  H31  1  0.01739000  0.87436000  0.43707000  1.0
  C  C32  1  0.66948000  0.57612000  0.34035000  1.0
  C  C33  1  0.33053000  0.42389000  0.65965000  1.0
  C  C34  1  0.69025000  0.62806000  0.47009000  1.0
  C  C35  1  0.30976000  0.37194000  0.52991000  1.0
  C  C36  1  0.72889000  0.53174000  0.67888000  1.0
  C  C37  1  0.27111000  0.46826000  0.32112000  1.0
  C  C38  1  0.91300000  0.78030000  0.77830000  1.0
  C  C39  1  0.08699000  0.21970000  0.22170000  1.0
  C  C40  1  0.82550000  0.86773000  0.77542000  1.0
  C  C41  1  0.17450000  0.13227000  0.22458000  1.0
  C  C42  1  0.90822000  0.01034000  0.81947000  1.0
  C  C43  1  0.09178000  0.98966000  0.18053000  1.0
  C  C44  1  0.07049000  0.06371000  0.86512000  1.0
  C  C45  1  0.92951000  0.93629000  0.13488000  1.0
  C  C46  1  0.15643000  0.97672000  0.87172000  1.0
  C  C47  1  0.84357000  0.02328000  0.12829000  1.0
  C  C48  1  0.07471000  0.83223000  0.82665000  1.0
  C  C49  1  0.92529000  0.16777000  0.17336000  1.0
  C  C50  1  0.69141000  0.40798000  0.44778000  1.0
  C  C51  1  0.30859000  0.59202000  0.55222000  1.0
  C  C52  1  0.70025000  0.27134000  0.47874000  1.0
  C  C53  1  0.29975000  0.72866000  0.52126000  1.0
  C  C54  1  0.86535000  0.27425000  0.52882000  1.0
  C  C55  1  0.13465000  0.72575000  0.47118000  1.0
  C  C56  1  0.86809000  0.12488000  0.51927000  1.0
  C  C57  1  0.13191000  0.87512000  0.48073000  1.0
  C  C58  1  0.68295000  0.60168000  0.98237000  1.0
  C  C59  1  0.31704000  0.39832000  0.01763000  1.0
  C  C60  1  0.54371000  0.03744000  0.84466000  1.0
  C  C61  1  0.45628000  0.96256000  0.15534000  1.0
  S  S62  1  0.82060000  0.54909000  0.04399000  1.0
  S  S63  1  0.17940000  0.45091000  0.95602000  1.0
  S  S64  1  0.61633000  0.20836000  0.85421000  1.0
  S  S65  1  0.38366000  0.79165000  0.14579000  1.0
  N  N66  1  0.66933000  0.43987000  0.32766000  1.0
  N  N67  1  0.33068000  0.56014000  0.67234000  1.0
  N  N68  1  0.70455000  0.52141000  0.53743000  1.0
  N  N69  1  0.29546000  0.47859000  0.46257000  1.0
  N  N70  1  0.87693000  0.63806000  0.74172000  1.0
  N  N71  1  0.12307000  0.36194000  0.25828000  1.0
  N  N72  1  0.00455000  0.60339000  0.76494000  1.0
  N  N73  1  0.99546000  0.39661000  0.23506000  1.0
  N  N74  1  0.12264000  0.71835000  0.81626000  1.0
  N  N75  1  0.87736000  0.28165000  0.18374000  1.0
  N  N76  1  0.58750000  0.64419000  0.93561000  1.0
  N  N77  1  0.41250000  0.35580000  0.06440000  1.0
  N  N78  1  0.49257000  0.91314000  0.83749000  1.0
  N  N79  1  0.50743000  0.08687000  0.16250000  1.0
