# generated using pymatgen
data_ZnH6C8S(NO)4
_symmetry_space_group_name_H-M   'P 1'
_cell_length_a   8.81273000
_cell_length_b   9.90389319
_cell_length_c   13.55220000
_cell_angle_alpha   90.00000000
_cell_angle_beta   90.00000000
_cell_angle_gamma   115.25038550
_symmetry_Int_Tables_number   1
_chemical_formula_structural   ZnH6C8S(NO)4
_chemical_formula_sum   'Zn4 H24 C32 S4 N16 O16'
_cell_volume   1069.82285194
_cell_formula_units_Z   4
loop_
 _symmetry_equiv_pos_site_id
 _symmetry_equiv_pos_as_xyz
  1  'x, y, z'
loop_
 _atom_site_type_symbol
 _atom_site_label
 _atom_site_symmetry_multiplicity
 _atom_site_fract_x
 _atom_site_fract_y
 _atom_site_fract_z
 _atom_site_occupancy
  Zn  Zn0  1  0.54541000  0.76569000  0.61167000  1.0
  Zn  Zn1  1  0.95459000  0.73431000  0.11167000  1.0
  Zn  Zn2  1  0.45459000  0.23431000  0.38834000  1.0
  Zn  Zn3  1  0.04541000  0.26569000  0.88833000  1.0
  H  H4  1  0.12479000  0.25676000  0.33817000  1.0
  H  H5  1  0.37521000  0.24324000  0.83817000  1.0
  H  H6  1  0.87521000  0.74324000  0.66184000  1.0
  H  H7  1  0.62479000  0.75676000  0.16183000  1.0
  H  H8  1  0.01282000  0.45743000  0.36506000  1.0
  H  H9  1  0.48718000  0.04257000  0.86506000  1.0
  H  H10  1  0.98719000  0.54257000  0.63495000  1.0
  H  H11  1  0.51281000  0.95743000  0.13495000  1.0
  H  H12  1  0.18495000  0.67276000  0.47368000  1.0
  H  H13  1  0.31506000  0.82724000  0.97368000  1.0
  H  H14  1  0.81505000  0.32724000  0.52632000  1.0
  H  H15  1  0.68494000  0.17276000  0.02632000  1.0
  H  H16  1  0.18646000  0.15311000  0.58766000  1.0
  H  H17  1  0.31354000  0.34688000  0.08766000  1.0
  H  H18  1  0.81354000  0.84688000  0.41234000  1.0
  H  H19  1  0.68645000  0.65311000  0.91234000  1.0
  H  H20  1  0.09750000  0.95599000  0.72177000  1.0
  H  H21  1  0.40250000  0.54401000  0.22177000  1.0
  H  H22  1  0.90250000  0.04401000  0.27823000  1.0
  H  H23  1  0.59750000  0.45599000  0.77823000  1.0
  H  H24  1  0.25503000  0.78960000  0.72896000  1.0
  H  H25  1  0.24497000  0.71040000  0.22896000  1.0
  H  H26  1  0.74497000  0.21040000  0.27104000  1.0
  H  H27  1  0.75502000  0.28959000  0.77104000  1.0
  C  C28  1  0.41870000  0.49151000  0.47931000  1.0
  C  C29  1  0.08130000  0.00849000  0.97931000  1.0
  C  C30  1  0.58131000  0.50849000  0.52069000  1.0
  C  C31  1  0.91869000  0.99151000  0.02069000  1.0
  C  C32  1  0.18767000  0.35523000  0.38445000  1.0
  C  C33  1  0.31232000  0.14476000  0.88445000  1.0
  C  C34  1  0.81233000  0.64477000  0.61555000  1.0
  C  C35  1  0.68768000  0.85524000  0.11555000  1.0
  C  C36  1  0.12803000  0.46326000  0.39892000  1.0
  C  C37  1  0.37197000  0.03674000  0.89893000  1.0
  C  C38  1  0.87197000  0.53674000  0.60107000  1.0
  C  C39  1  0.62803000  0.96326000  0.10107000  1.0
  C  C40  1  0.22464000  0.58449000  0.45825000  1.0
  C  C41  1  0.27536000  0.91551000  0.95825000  1.0
  C  C42  1  0.77537000  0.41552000  0.54175000  1.0
  C  C43  1  0.72463000  0.08449000  0.04175000  1.0
  C  C44  1  0.43493000  0.99395000  0.53699000  1.0
  C  C45  1  0.06505000  0.50604000  0.03700000  1.0
  C  C46  1  0.56506000  0.00604000  0.46300000  1.0
  C  C47  1  0.93493000  0.49395000  0.96301000  1.0
  C  C48  1  0.24328000  0.07498000  0.59429000  1.0
  C  C49  1  0.25672000  0.42502000  0.09429000  1.0
  C  C50  1  0.75673000  0.92502000  0.40571000  1.0
  C  C51  1  0.74327000  0.57498000  0.90571000  1.0
  C  C52  1  0.19595000  0.96744000  0.66884000  1.0
  C  C53  1  0.30405000  0.53256000  0.16884000  1.0
  C  C54  1  0.80405000  0.03256000  0.33115000  1.0
  C  C55  1  0.69595000  0.46744000  0.83116000  1.0
  C  C56  1  0.27941000  0.87567000  0.67302000  1.0
  C  C57  1  0.22059000  0.62433000  0.17302000  1.0
  C  C58  1  0.72059000  0.12433000  0.32698000  1.0
  C  C59  1  0.77941000  0.37567000  0.82698000  1.0
  S  S60  1  0.29883000  0.47849000  0.72850000  1.0
  S  S61  1  0.20117000  0.02151000  0.22850000  1.0
  S  S62  1  0.70117000  0.52151000  0.27150000  1.0
  S  S63  1  0.79883000  0.97849000  0.77150000  1.0
  N  N64  1  0.36971000  0.59900000  0.49834000  1.0
  N  N65  1  0.13029000  0.90100000  0.99833000  1.0
  N  N66  1  0.63030000  0.40100000  0.50167000  1.0
  N  N67  1  0.86971000  0.09900000  0.00166000  1.0
  N  N68  1  0.66810000  0.63074000  0.57452000  1.0
  N  N69  1  0.83190000  0.86926000  0.07452000  1.0
  N  N70  1  0.33190000  0.36926000  0.42548000  1.0
  N  N71  1  0.16809000  0.13074000  0.92548000  1.0
  N  N72  1  0.39867000  0.88906000  0.60695000  1.0
  N  N73  1  0.10132000  0.61094000  0.10695000  1.0
  N  N74  1  0.60133000  0.11094000  0.39305000  1.0
  N  N75  1  0.89867000  0.38906000  0.89305000  1.0
  N  N76  1  0.63720000  0.91228000  0.47130000  1.0
  N  N77  1  0.86280000  0.58772000  0.97130000  1.0
  N  N78  1  0.36280000  0.08772000  0.52870000  1.0
  N  N79  1  0.13720000  0.41228000  0.02870000  1.0
  O  O80  1  0.42606000  0.64049000  0.73141000  1.0
  O  O81  1  0.07394000  0.85951000  0.23140000  1.0
  O  O82  1  0.57394000  0.35951000  0.26860000  1.0
  O  O83  1  0.92606000  0.14049000  0.76859000  1.0
  O  O84  1  0.25933000  0.43536000  0.83573000  1.0
  O  O85  1  0.24066000  0.06463000  0.33573000  1.0
  O  O86  1  0.74067000  0.56464000  0.16427000  1.0
  O  O87  1  0.75934000  0.93537000  0.66427000  1.0
  O  O88  1  0.14727000  0.46343000  0.67511000  1.0
  O  O89  1  0.35274000  0.03657000  0.17511000  1.0
  O  O90  1  0.85274000  0.53657000  0.32489000  1.0
  O  O91  1  0.64726000  0.96343000  0.82489000  1.0
  O  O92  1  0.37693000  0.38594000  0.68445000  1.0
  O  O93  1  0.12307000  0.11406000  0.18444000  1.0
  O  O94  1  0.62307000  0.61406000  0.31556000  1.0
  O  O95  1  0.87693000  0.88594000  0.81555000  1.0
