# generated using pymatgen
data_CuH13C11(NO3)2
_symmetry_space_group_name_H-M   'P 1'
_cell_length_a   8.19509000
_cell_length_b   8.52386000
_cell_length_c   10.00610000
_cell_angle_alpha   71.39800000
_cell_angle_beta   89.99890000
_cell_angle_gamma   89.99950000
_symmetry_Int_Tables_number   1
_chemical_formula_structural   CuH13C11(NO3)2
_chemical_formula_sum   'Cu2 H26 C22 N4 O12'
_cell_volume   662.44831738
_cell_formula_units_Z   2
loop_
 _symmetry_equiv_pos_site_id
 _symmetry_equiv_pos_as_xyz
  1  'x, y, z'
loop_
 _atom_site_type_symbol
 _atom_site_label
 _atom_site_symmetry_multiplicity
 _atom_site_fract_x
 _atom_site_fract_y
 _atom_site_fract_z
 _atom_site_occupancy
  Cu  Cu0  1  0.40530000  0.06574000  0.55518000  1.0
  Cu  Cu1  1  0.90531000  0.93425000  0.44483000  1.0
  H  H2  1  0.61266000  0.58529000  0.77932000  1.0
  H  H3  1  0.11266000  0.41471000  0.22068000  1.0
  H  H4  1  0.47248000  0.57089000  0.20082000  1.0
  H  H5  1  0.97250000  0.42911000  0.79918000  1.0
  H  H6  1  0.38798000  0.85669000  0.11040000  1.0
  H  H7  1  0.88799000  0.14331000  0.88960000  1.0
  H  H8  1  0.68013000  0.36491000  0.24707000  1.0
  H  H9  1  0.18012000  0.63511000  0.75294000  1.0
  H  H10  1  0.64430000  0.18643000  0.19475000  1.0
  H  H11  1  0.14428000  0.81357000  0.80526000  1.0
  H  H12  1  0.47488000  0.30397000  0.22437000  1.0
  H  H13  1  0.97488000  0.69603000  0.77564000  1.0
  H  H14  1  0.47141000  0.26507000  0.91455000  1.0
  H  H15  1  0.97141000  0.73494000  0.08544000  1.0
  H  H16  1  0.41611000  0.08443000  0.05189000  1.0
  H  H17  1  0.91608000  0.91557000  0.94811000  1.0
  H  H18  1  0.26274000  0.20913000  0.94302000  1.0
  H  H19  1  0.76274000  0.79085000  0.05700000  1.0
  H  H20  1  0.45543000  0.39205000  0.63021000  1.0
  H  H21  1  0.95544000  0.60796000  0.36978000  1.0
  H  H22  1  0.27222000  0.36369000  0.73313000  1.0
  H  H23  1  0.77221000  0.63630000  0.26688000  1.0
  H  H24  1  0.11737000  0.29684000  0.54683000  1.0
  H  H25  1  0.61737000  0.70315000  0.45318000  1.0
  H  H26  1  0.23250000  0.47939000  0.45788000  1.0
  H  H27  1  0.73251000  0.52059000  0.54213000  1.0
  C  C28  1  0.50887000  0.81016000  0.79598000  1.0
  C  C29  1  0.00888000  0.18983000  0.20401000  1.0
  C  C30  1  0.56146000  0.64486000  0.85119000  1.0
  C  C31  1  0.06147000  0.35514000  0.14881000  1.0
  C  C32  1  0.55387000  0.56047000  0.99547000  1.0
  C  C33  1  0.05387000  0.43954000  0.00453000  1.0
  C  C34  1  0.48803000  0.63782000  0.08919000  1.0
  C  C35  1  0.98805000  0.36217000  0.91080000  1.0
  C  C36  1  0.43968000  0.80111000  0.03610000  1.0
  C  C37  1  0.93969000  0.19888000  0.96390000  1.0
  C  C38  1  0.45031000  0.89337000  0.89137000  1.0
  C  C39  1  0.95031000  0.10661000  0.10863000  1.0
  C  C40  1  0.40256000  0.06487000  0.84138000  1.0
  C  C41  1  0.90258000  0.93511000  0.15862000  1.0
  C  C42  1  0.60065000  0.31069000  0.18514000  1.0
  C  C43  1  0.10064000  0.68931000  0.81487000  1.0
  C  C44  1  0.38671000  0.15979000  0.94423000  1.0
  C  C45  1  0.88670000  0.84020000  0.05577000  1.0
  C  C46  1  0.33891000  0.32422000  0.65415000  1.0
  C  C47  1  0.83892000  0.67579000  0.34583000  1.0
  C  C48  1  0.24220000  0.34675000  0.52038000  1.0
  C  C49  1  0.74221000  0.65324000  0.47962000  1.0
  N  N50  1  0.37525000  0.14507000  0.70756000  1.0
  N  N51  1  0.87524000  0.85494000  0.29244000  1.0
  N  N52  1  0.29554000  0.86477000  0.41545000  1.0
  N  N53  1  0.79554000  0.13524000  0.58456000  1.0
  O  O54  1  0.52173000  0.88123000  0.65911000  1.0
  O  O55  1  0.02175000  0.11875000  0.34089000  1.0
  O  O56  1  0.32642000  0.26486000  0.43915000  1.0
  O  O57  1  0.82643000  0.73513000  0.56085000  1.0
  O  O58  1  0.40785000  0.98063000  0.39760000  1.0
  O  O59  1  0.90784000  0.01937000  0.60239000  1.0
  O  O60  1  0.61098000  0.40346000  0.03745000  1.0
  O  O61  1  0.11098000  0.59655000  0.96255000  1.0
  O  O62  1  0.28666000  0.79448000  0.32435000  1.0
  O  O63  1  0.78665000  0.20553000  0.67566000  1.0
  O  O64  1  0.20497000  0.83264000  0.52102000  1.0
  O  O65  1  0.70498000  0.16738000  0.47898000  1.0
