# generated using pymatgen
data_K3H3CS3O10
_symmetry_space_group_name_H-M   'P 1'
_cell_length_a   9.35884000
_cell_length_b   9.40536000
_cell_length_c   12.26310000
_cell_angle_alpha   90.00000000
_cell_angle_beta   90.00030000
_cell_angle_gamma   89.99990000
_symmetry_Int_Tables_number   1
_chemical_formula_structural   K3H3CS3O10
_chemical_formula_sum   'K12 H12 C4 S12 O40'
_cell_volume   1079.43803212
_cell_formula_units_Z   4
loop_
 _symmetry_equiv_pos_site_id
 _symmetry_equiv_pos_as_xyz
  1  'x, y, z'
loop_
 _atom_site_type_symbol
 _atom_site_label
 _atom_site_symmetry_multiplicity
 _atom_site_fract_x
 _atom_site_fract_y
 _atom_site_fract_z
 _atom_site_occupancy
  K  K0  1  0.99958000  0.01294000  0.06250000  1.0
  K  K1  1  0.00042000  0.48706000  0.56250000  1.0
  K  K2  1  0.50042000  0.51293000  0.93750000  1.0
  K  K3  1  0.49958000  0.98707000  0.43750000  1.0
  K  K4  1  0.34639000  0.24978000  0.16558000  1.0
  K  K5  1  0.65360000  0.25022000  0.66558000  1.0
  K  K6  1  0.15360000  0.74979000  0.83442000  1.0
  K  K7  1  0.84640000  0.75022000  0.33442000  1.0
  K  K8  1  0.27168000  0.70550000  0.21545000  1.0
  K  K9  1  0.72832000  0.79450000  0.71544000  1.0
  K  K10  1  0.22832000  0.20550000  0.78456000  1.0
  K  K11  1  0.77168000  0.29450000  0.28456000  1.0
  H  H12  1  0.63315000  0.87006000  0.99296000  1.0
  H  H13  1  0.36685000  0.62994000  0.49296000  1.0
  H  H14  1  0.86685000  0.37007000  0.00704000  1.0
  H  H15  1  0.13315000  0.12994000  0.50704000  1.0
  H  H16  1  0.98721000  0.99606000  0.74994000  1.0
  H  H17  1  0.01279000  0.50394000  0.24994000  1.0
  H  H18  1  0.51279000  0.49606000  0.25006000  1.0
  H  H19  1  0.48721000  0.00394000  0.75006000  1.0
  H  H20  1  0.87840000  0.05002000  0.83509000  1.0
  H  H21  1  0.12160000  0.44998000  0.33509000  1.0
  H  H22  1  0.62160000  0.55002000  0.16491000  1.0
  H  H23  1  0.37840000  0.94998000  0.66491000  1.0
  C  C24  1  0.56932000  0.95734000  0.02767000  1.0
  C  C25  1  0.43068000  0.54266000  0.52767000  1.0
  C  C26  1  0.93068000  0.45735000  0.97233000  1.0
  C  C27  1  0.06932000  0.04265000  0.47233000  1.0
  S  S28  1  0.38301000  0.91437000  0.99803000  1.0
  S  S29  1  0.61700000  0.58563000  0.49803000  1.0
  S  S30  1  0.11699000  0.41436000  0.00198000  1.0
  S  S31  1  0.88301000  0.08563000  0.50197000  1.0
  S  S32  1  0.62786000  0.12138000  0.95982000  1.0
  S  S33  1  0.37214000  0.37862000  0.45982000  1.0
  S  S34  1  0.87213000  0.62138000  0.04018000  1.0
  S  S35  1  0.12786000  0.87862000  0.54018000  1.0
  S  S36  1  0.61481000  0.95490000  0.17323000  1.0
  S  S37  1  0.38520000  0.54510000  0.67323000  1.0
  S  S38  1  0.88519000  0.45490000  0.82677000  1.0
  S  S39  1  0.11480000  0.04510000  0.32677000  1.0
  O  O40  1  0.29545000  0.98546000  0.08058000  1.0
  O  O41  1  0.70455000  0.51454000  0.58057000  1.0
  O  O42  1  0.20455000  0.48546000  0.91942000  1.0
  O  O43  1  0.79545000  0.01454000  0.41943000  1.0
  O  O44  1  0.35470000  0.96440000  0.88653000  1.0
  O  O45  1  0.64530000  0.53560000  0.38652000  1.0
  O  O46  1  0.14530000  0.46440000  0.11348000  1.0
  O  O47  1  0.85470000  0.03560000  0.61348000  1.0
  O  O48  1  0.37581000  0.75868000  0.00619000  1.0
  O  O49  1  0.62419000  0.74133000  0.50619000  1.0
  O  O50  1  0.12420000  0.25867000  0.99381000  1.0
  O  O51  1  0.87581000  0.24132000  0.49381000  1.0
  O  O52  1  0.75873000  0.16657000  0.01527000  1.0
  O  O53  1  0.24126000  0.33343000  0.51527000  1.0
  O  O54  1  0.74127000  0.66657000  0.98474000  1.0
  O  O55  1  0.25873000  0.83343000  0.48473000  1.0
  O  O56  1  0.50956000  0.22244000  0.96885000  1.0
  O  O57  1  0.49043000  0.27756000  0.46885000  1.0
  O  O58  1  0.99044000  0.72244000  0.03115000  1.0
  O  O59  1  0.00956000  0.77756000  0.53115000  1.0
  O  O60  1  0.65629000  0.07287000  0.84698000  1.0
  O  O61  1  0.34370000  0.42713000  0.34698000  1.0
  O  O62  1  0.84371000  0.57287000  0.15302000  1.0
  O  O63  1  0.15630000  0.92713000  0.65302000  1.0
  O  O64  1  0.57641000  0.09496000  0.21757000  1.0
  O  O65  1  0.42358000  0.40504000  0.71757000  1.0
  O  O66  1  0.92359000  0.59496000  0.78243000  1.0
  O  O67  1  0.07641000  0.90504000  0.28243000  1.0
  O  O68  1  0.53381000  0.83857000  0.22348000  1.0
  O  O69  1  0.46619000  0.66142000  0.72348000  1.0
  O  O70  1  0.96620000  0.33858000  0.77652000  1.0
  O  O71  1  0.03381000  0.16142000  0.27652000  1.0
  O  O72  1  0.76852000  0.92811000  0.17179000  1.0
  O  O73  1  0.23147000  0.57190000  0.67179000  1.0
  O  O74  1  0.73148000  0.42811000  0.82821000  1.0
  O  O75  1  0.26853000  0.07189000  0.32821000  1.0
  O  O76  1  0.96558000  0.99286000  0.82828000  1.0
  O  O77  1  0.03442000  0.50714000  0.32828000  1.0
  O  O78  1  0.53442000  0.49286000  0.17173000  1.0
  O  O79  1  0.46558000  0.00714000  0.67173000  1.0
