# generated using pymatgen
data_AgH3(CN2)2
_symmetry_space_group_name_H-M   'P 1'
_cell_length_a   6.43408000
_cell_length_b   8.62477000
_cell_length_c   8.62473000
_cell_angle_alpha   82.59260000
_cell_angle_beta   69.21700000
_cell_angle_gamma   69.21600000
_symmetry_Int_Tables_number   1
_chemical_formula_structural   AgH3(CN2)2
_chemical_formula_sum   'Ag4 H12 C8 N16'
_cell_volume   418.34361682
_cell_formula_units_Z   4
loop_
 _symmetry_equiv_pos_site_id
 _symmetry_equiv_pos_as_xyz
  1  'x, y, z'
loop_
 _atom_site_type_symbol
 _atom_site_label
 _atom_site_symmetry_multiplicity
 _atom_site_fract_x
 _atom_site_fract_y
 _atom_site_fract_z
 _atom_site_occupancy
  Ag  Ag0  1  0.88304000  0.23546000  0.99317000  1.0
  Ag  Ag1  1  0.61696000  0.00683000  0.76455000  1.0
  Ag  Ag2  1  0.11697000  0.76455000  0.00683000  1.0
  Ag  Ag3  1  0.38303000  0.99318000  0.23545000  1.0
  H  H4  1  0.00416000  0.38528000  0.64752000  1.0
  H  H5  1  0.49579000  0.35248000  0.61470000  1.0
  H  H6  1  0.99583000  0.61472000  0.35248000  1.0
  H  H7  1  0.50421000  0.64753000  0.38529000  1.0
  H  H8  1  0.93961000  0.32082000  0.48632000  1.0
  H  H9  1  0.56033000  0.51370000  0.67916000  1.0
  H  H10  1  0.06038000  0.67916000  0.51367000  1.0
  H  H11  1  0.43967000  0.48632000  0.32084000  1.0
  H  H12  1  0.22869000  0.31677000  0.45132000  1.0
  H  H13  1  0.27124000  0.54868000  0.68323000  1.0
  H  H14  1  0.77132000  0.68322000  0.54867000  1.0
  H  H15  1  0.72875000  0.45133000  0.31678000  1.0
  C  C16  1  0.13378000  0.12453000  0.60725000  1.0
  C  C17  1  0.36621000  0.39276000  0.87546000  1.0
  C  C18  1  0.86621000  0.87546000  0.39276000  1.0
  C  C19  1  0.63378000  0.60725000  0.12454000  1.0
  C  C20  1  0.07318000  0.29704000  0.54591000  1.0
  C  C21  1  0.42678000  0.45410000  0.70294000  1.0
  C  C22  1  0.92682000  0.70295000  0.45409000  1.0
  C  C23  1  0.57323000  0.54592000  0.29705000  1.0
  N  N24  1  0.07889000  0.07732000  0.76692000  1.0
  N  N25  1  0.42108000  0.23309000  0.92267000  1.0
  N  N26  1  0.92111000  0.92267000  0.23308000  1.0
  N  N27  1  0.57892000  0.76692000  0.07734000  1.0
  N  N28  1  0.16652000  0.90882000  0.76506000  1.0
  N  N29  1  0.33348000  0.23494000  0.09117000  1.0
  N  N30  1  0.83347000  0.09117000  0.23494000  1.0
  N  N31  1  0.66653000  0.76506000  0.90883000  1.0
  N  N32  1  0.26957000  0.85608000  0.61103000  1.0
  N  N33  1  0.23047000  0.38897000  0.14391000  1.0
  N  N34  1  0.73042000  0.14391000  0.38897000  1.0
  N  N35  1  0.76954000  0.61103000  0.85609000  1.0
  N  N36  1  0.25117000  0.98926000  0.50983000  1.0
  N  N37  1  0.24883000  0.49017000  0.01073000  1.0
  N  N38  1  0.74883000  0.01073000  0.49017000  1.0
  N  N39  1  0.75121000  0.50983000  0.98928000  1.0
