# generated using pymatgen
data_CuH18C10(SO3)2
_symmetry_space_group_name_H-M   'P 1'
_cell_length_a   4.94719000
_cell_length_b   8.94851000
_cell_length_c   16.01000000
_cell_angle_alpha   103.49100000
_cell_angle_beta   89.99970000
_cell_angle_gamma   89.99840000
_symmetry_Int_Tables_number   1
_chemical_formula_structural   CuH18C10(SO3)2
_chemical_formula_sum   'Cu2 H36 C20 S4 O12'
_cell_volume   689.20518732
_cell_formula_units_Z   2
loop_
 _symmetry_equiv_pos_site_id
 _symmetry_equiv_pos_as_xyz
  1  'x, y, z'
loop_
 _atom_site_type_symbol
 _atom_site_label
 _atom_site_symmetry_multiplicity
 _atom_site_fract_x
 _atom_site_fract_y
 _atom_site_fract_z
 _atom_site_occupancy
  Cu  Cu0  1  0.49999000  0.49999000  0.00000000  1.0
  Cu  Cu1  1  0.00000000  0.00000000  0.00000000  1.0
  H  H2  1  0.94101000  0.41258000  0.06453000  1.0
  H  H3  1  0.44100000  0.08742000  0.93547000  1.0
  H  H4  1  0.05899000  0.58741000  0.93547000  1.0
  H  H5  1  0.55900000  0.91258000  0.06453000  1.0
  H  H6  1  0.76483000  0.26406000  0.13851000  1.0
  H  H7  1  0.26481000  0.23594000  0.86149000  1.0
  H  H8  1  0.23519000  0.73592000  0.86149000  1.0
  H  H9  1  0.73519000  0.76407000  0.13851000  1.0
  H  H10  1  0.50387000  0.56987000  0.23055000  1.0
  H  H11  1  0.00385000  0.93012000  0.76945000  1.0
  H  H12  1  0.49614000  0.43012000  0.76944000  1.0
  H  H13  1  0.99615000  0.06988000  0.23055000  1.0
  H  H14  1  0.50937000  0.40110000  0.27163000  1.0
  H  H15  1  0.00934000  0.09891000  0.72838000  1.0
  H  H16  1  0.49064000  0.59890000  0.72838000  1.0
  H  H17  1  0.99066000  0.90109000  0.27162000  1.0
  H  H18  1  0.02438000  0.55168000  0.22179000  1.0
  H  H19  1  0.52437000  0.94831000  0.77821000  1.0
  H  H20  1  0.97562000  0.44832000  0.77821000  1.0
  H  H21  1  0.47563000  0.05169000  0.22179000  1.0
  H  H22  1  0.00341000  0.40384000  0.27954000  1.0
  H  H23  1  0.50339000  0.09616000  0.72047000  1.0
  H  H24  1  0.99660000  0.59617000  0.72047000  1.0
  H  H25  1  0.49662000  0.90384000  0.27953000  1.0
  H  H26  1  0.49477000  0.57845000  0.41749000  1.0
  H  H27  1  0.99479000  0.92157000  0.58251000  1.0
  H  H28  1  0.50521000  0.42155000  0.58251000  1.0
  H  H29  1  0.00522000  0.07845000  0.41749000  1.0
  H  H30  1  0.72656000  0.66487000  0.50020000  1.0
  H  H31  1  0.22658000  0.83515000  0.49980000  1.0
  H  H32  1  0.27342000  0.33513000  0.49980000  1.0
  H  H33  1  0.77343000  0.16488000  0.50020000  1.0
  H  H34  1  0.77889000  0.47062000  0.44165000  1.0
  H  H35  1  0.27892000  0.02939000  0.55835000  1.0
  H  H36  1  0.22109000  0.52938000  0.55835000  1.0
  H  H37  1  0.72111000  0.97063000  0.44165000  1.0
  C  C38  1  0.35857000  0.30838000  0.10602000  1.0
  C  C39  1  0.85852000  0.19162000  0.89399000  1.0
  C  C40  1  0.64143000  0.69161000  0.89398000  1.0
  C  C41  1  0.14147000  0.80839000  0.10601000  1.0
  C  C42  1  0.63645000  0.36495000  0.14022000  1.0
  C  C43  1  0.13643000  0.13505000  0.85978000  1.0
  C  C44  1  0.36356000  0.63503000  0.85978000  1.0
  C  C45  1  0.86357000  0.86496000  0.14021000  1.0
  C  C46  1  0.61950000  0.46548000  0.23175000  1.0
  C  C47  1  0.11949000  0.03452000  0.76825000  1.0
  C  C48  1  0.38051000  0.53451000  0.76825000  1.0
  C  C49  1  0.88051000  0.96548000  0.23175000  1.0
  C  C50  1  0.90237000  0.50657000  0.26788000  1.0
  C  C51  1  0.40237000  0.99342000  0.73212000  1.0
  C  C52  1  0.09763000  0.49343000  0.73213000  1.0
  C  C53  1  0.59763000  0.00658000  0.26788000  1.0
  C  C54  1  0.70802000  0.58460000  0.43713000  1.0
  C  C55  1  0.20805000  0.91542000  0.56287000  1.0
  C  C56  1  0.29196000  0.41540000  0.56287000  1.0
  C  C57  1  0.79197000  0.08460000  0.43713000  1.0
  S  S58  1  0.91609000  0.65966000  0.36393000  1.0
  S  S59  1  0.41611000  0.84036000  0.63608000  1.0
  S  S60  1  0.08389000  0.34034000  0.63607000  1.0
  S  S61  1  0.58389000  0.15965000  0.36392000  1.0
  O  O62  1  0.25617000  0.36950000  0.04570000  1.0
  O  O63  1  0.75617000  0.13049000  0.95430000  1.0
  O  O64  1  0.74382000  0.63048000  0.95430000  1.0
  O  O65  1  0.24383000  0.86951000  0.04569000  1.0
  O  O66  1  0.23459000  0.21192000  0.13547000  1.0
  O  O67  1  0.73457000  0.28808000  0.86454000  1.0
  O  O68  1  0.76541000  0.78806000  0.86453000  1.0
  O  O69  1  0.26543000  0.71192000  0.13547000  1.0
  O  O70  1  0.75635000  0.45456000  0.08495000  1.0
  O  O71  1  0.25636000  0.04543000  0.91505000  1.0
  O  O72  1  0.24364000  0.54542000  0.91505000  1.0
  O  O73  1  0.74364000  0.95458000  0.08495000  1.0
