# generated using pymatgen
data_CdH15C24N2O5
_symmetry_space_group_name_H-M   'P 1'
_cell_length_a   7.62616000
_cell_length_b   12.08350000
_cell_length_c   12.33580000
_cell_angle_alpha   80.49850000
_cell_angle_beta   74.91460000
_cell_angle_gamma   84.65580000
_symmetry_Int_Tables_number   1
_chemical_formula_structural   CdH15C24N2O5
_chemical_formula_sum   'Cd2 H30 C48 N4 O10'
_cell_volume   1081.01787558
_cell_formula_units_Z   2
loop_
 _symmetry_equiv_pos_site_id
 _symmetry_equiv_pos_as_xyz
  1  'x, y, z'
loop_
 _atom_site_type_symbol
 _atom_site_label
 _atom_site_symmetry_multiplicity
 _atom_site_fract_x
 _atom_site_fract_y
 _atom_site_fract_z
 _atom_site_occupancy
  Cd  Cd0  1  0.74081000  0.03079000  0.49575000  1.0
  Cd  Cd1  1  0.25920000  0.96920000  0.50425000  1.0
  H  H2  1  0.94281000  0.07332000  0.69220000  1.0
  H  H3  1  0.05718000  0.92667000  0.30780000  1.0
  H  H4  1  0.44910000  0.91060000  0.76178000  1.0
  H  H5  1  0.55089000  0.08940000  0.23823000  1.0
  H  H6  1  0.56833000  0.88819000  0.96003000  1.0
  H  H7  1  0.43167000  0.11182000  0.03998000  1.0
  H  H8  1  0.95254000  0.79633000  0.83664000  1.0
  H  H9  1  0.04748000  0.20367000  0.16335000  1.0
  H  H10  1  0.16588000  0.64004000  0.88078000  1.0
  H  H11  1  0.83412000  0.35996000  0.11922000  1.0
  H  H12  1  0.35003000  0.65127000  0.01832000  1.0
  H  H13  1  0.64997000  0.34873000  0.98168000  1.0
  H  H14  1  0.31938000  0.81870000  0.11333000  1.0
  H  H15  1  0.68063000  0.18130000  0.88667000  1.0
  H  H16  1  0.32920000  0.21133000  0.40635000  1.0
  H  H17  1  0.67080000  0.78867000  0.59365000  1.0
  H  H18  1  0.54661000  0.35353000  0.29752000  1.0
  H  H19  1  0.45339000  0.64646000  0.70248000  1.0
  H  H20  1  0.89789000  0.40062000  0.28133000  1.0
  H  H21  1  0.10211000  0.59938000  0.71867000  1.0
  H  H22  1  0.11582000  0.54781000  0.17427000  1.0
  H  H23  1  0.88418000  0.45219000  0.82573000  1.0
  H  H24  1  0.31879000  0.57162000  0.38214000  1.0
  H  H25  1  0.68121000  0.42839000  0.61786000  1.0
  H  H26  1  0.40691000  0.72193000  0.46943000  1.0
  H  H27  1  0.59309000  0.27807000  0.53057000  1.0
  H  H28  1  0.79726000  0.83038000  0.15784000  1.0
  H  H29  1  0.20274000  0.16962000  0.84216000  1.0
  H  H30  1  0.71226000  0.67780000  0.06865000  1.0
  H  H31  1  0.28774000  0.32220000  0.93134000  1.0
  C  C32  1  0.82189000  0.02810000  0.73563000  1.0
  C  C33  1  0.17811000  0.97190000  0.26437000  1.0
  C  C34  1  0.56944000  0.94073000  0.77618000  1.0
  C  C35  1  0.43054000  0.05927000  0.22383000  1.0
  C  C36  1  0.62503000  0.92942000  0.87488000  1.0
  C  C37  1  0.37497000  0.07059000  0.12513000  1.0
  C  C38  1  0.89499000  0.99299000  0.92410000  1.0
  C  C39  1  0.10501000  0.00701000  0.07590000  1.0
  C  C40  1  0.01287000  0.90108000  0.94845000  1.0
  C  C41  1  0.98714000  0.09893000  0.05154000  1.0
  C  C42  1  0.03168000  0.80182000  0.89713000  1.0
  C  C43  1  0.96832000  0.19819000  0.10287000  1.0
  C  C44  1  0.15082000  0.71481000  0.92178000  1.0
  C  C45  1  0.84918000  0.28519000  0.07821000  1.0
  C  C46  1  0.25607000  0.72115000  0.99991000  1.0
  C  C47  1  0.74393000  0.27885000  0.00009000  1.0
  C  C48  1  0.24018000  0.81479000  0.05226000  1.0
  C  C49  1  0.75982000  0.18521000  0.94774000  1.0
  C  C50  1  0.87919000  0.09189000  0.97262000  1.0
  C  C51  1  0.12081000  0.90811000  0.02737000  1.0
  C  C52  1  0.97291000  0.20477000  0.40875000  1.0
  C  C53  1  0.02709000  0.79523000  0.59125000  1.0
  C  C54  1  0.09980000  0.29540000  0.34912000  1.0
  C  C55  1  0.90019000  0.70459000  0.65088000  1.0
  C  C56  1  0.28209000  0.28363000  0.35435000  1.0
  C  C57  1  0.71790000  0.71637000  0.64565000  1.0
  C  C58  1  0.40453000  0.36389000  0.29394000  1.0
  C  C59  1  0.59547000  0.63611000  0.70606000  1.0
  C  C60  1  0.04032000  0.39089000  0.28388000  1.0
  C  C61  1  0.95968000  0.60911000  0.71612000  1.0
  C  C62  1  0.16117000  0.47263000  0.22392000  1.0
  C  C63  1  0.83883000  0.52737000  0.77609000  1.0
  C  C64  1  0.34290000  0.45751000  0.22895000  1.0
  C  C65  1  0.65710000  0.54249000  0.77104000  1.0
  C  C66  1  0.51075000  0.61621000  0.22022000  1.0
  C  C67  1  0.48924000  0.38379000  0.77978000  1.0
  C  C68  1  0.42427000  0.62769000  0.33308000  1.0
  C  C69  1  0.57572000  0.37231000  0.66691000  1.0
  C  C70  1  0.47406000  0.71200000  0.38178000  1.0
  C  C71  1  0.52594000  0.28800000  0.61822000  1.0
  C  C72  1  0.60804000  0.78561000  0.31898000  1.0
  C  C73  1  0.39196000  0.21439000  0.68102000  1.0
  C  C74  1  0.69342000  0.77279000  0.20596000  1.0
  C  C75  1  0.30658000  0.22721000  0.79404000  1.0
  C  C76  1  0.64621000  0.68853000  0.15627000  1.0
  C  C77  1  0.35378000  0.31148000  0.84373000  1.0
  C  C78  1  0.65713000  0.87711000  0.37066000  1.0
  C  C79  1  0.34288000  0.12288000  0.62933000  1.0
  N  N80  1  0.69373000  0.00207000  0.69033000  1.0
  N  N81  1  0.30627000  0.99792000  0.30967000  1.0
  N  N82  1  0.78555000  0.98505000  0.84786000  1.0
  N  N83  1  0.21445000  0.01495000  0.15214000  1.0
  O  O84  1  0.02068000  0.12609000  0.48051000  1.0
  O  O85  1  0.97932000  0.87392000  0.51950000  1.0
  O  O86  1  0.81934000  0.20642000  0.38498000  1.0
  O  O87  1  0.18066000  0.79358000  0.61501000  1.0
  O  O88  1  0.56641000  0.88970000  0.47318000  1.0
  O  O89  1  0.43359000  0.11030000  0.52681000  1.0
  O  O90  1  0.78299000  0.94111000  0.31692000  1.0
  O  O91  1  0.21701000  0.05889000  0.68308000  1.0
  O  O92  1  0.46690000  0.53636000  0.16494000  1.0
  O  O93  1  0.53310000  0.46364000  0.83506000  1.0
