# generated using pymatgen
data_Zr3H24C26N10ClO16
_symmetry_space_group_name_H-M   'P 1'
_cell_length_a   14.79681252
_cell_length_b   14.85160000
_cell_length_c   14.87980977
_cell_angle_alpha   90.18616163
_cell_angle_beta   119.80461208
_cell_angle_gamma   119.85973358
_symmetry_Int_Tables_number   1
_chemical_formula_structural   Zr3H24C26N10ClO16
_chemical_formula_sum   'Zr6 H48 C52 N20 Cl2 O32'
_cell_volume   2320.14539646
_cell_formula_units_Z   2
loop_
 _symmetry_equiv_pos_site_id
 _symmetry_equiv_pos_as_xyz
  1  'x, y, z'
loop_
 _atom_site_type_symbol
 _atom_site_label
 _atom_site_symmetry_multiplicity
 _atom_site_fract_x
 _atom_site_fract_y
 _atom_site_fract_z
 _atom_site_occupancy
  Zr  Zr0  1  0.76145000  0.38152000  0.87984000  1.0
  Zr  Zr1  1  0.23628000  0.61815000  0.11801000  1.0
  Zr  Zr2  1  0.99795000  0.61847000  0.11758000  1.0
  Zr  Zr3  1  0.99856000  0.38202000  0.87964000  1.0
  Zr  Zr4  1  0.99877000  0.38221000  0.11660000  1.0
  Zr  Zr5  1  0.99987000  0.61899000  0.88220000  1.0
  H  H6  1  0.81222000  0.40676000  0.09371000  1.0
  H  H7  1  0.18680000  0.40682000  0.09384000  1.0
  H  H8  1  0.18625000  0.78004000  0.09360000  1.0
  H  H9  1  0.81340000  0.40848000  0.71958000  1.0
  H  H10  1  0.56787000  0.30763000  0.99317000  1.0
  H  H11  1  0.41240000  0.14872000  0.00726000  1.0
  H  H12  1  0.23876000  0.31166000  0.00331000  1.0
  H  H13  1  0.24692000  0.15084000  0.01333000  1.0
  H  H14  1  0.51353000  0.83624000  0.15546000  1.0
  H  H15  1  0.66505000  0.92707000  0.19260000  1.0
  H  H16  1  0.49297000  0.12131000  0.80585000  1.0
  H  H17  1  0.34961000  0.99729000  0.74208000  1.0
  H  H18  1  0.81817000  0.17688000  0.18399000  1.0
  H  H19  1  0.76015000  0.09874000  0.24951000  1.0
  H  H20  1  0.18213000  0.85419000  0.84150000  1.0
  H  H21  1  0.23781000  0.96629000  0.80182000  1.0
  H  H22  1  0.50800000  0.67959000  0.35980000  1.0
  H  H23  1  0.65670000  0.74511000  0.47884000  1.0
  H  H24  1  0.48918000  0.35803000  0.67491000  1.0
  H  H25  1  0.33971000  0.32709000  0.58843000  1.0
  H  H26  1  0.81719000  0.64886000  0.63612000  1.0
  H  H27  1  0.76022000  0.67601000  0.51665000  1.0
  H  H28  1  0.18099000  0.31875000  0.33083000  1.0
  H  H29  1  0.23763000  0.25773000  0.41756000  1.0
  H  H30  1  0.93969000  0.81336000  0.80885000  1.0
  H  H31  1  0.89336000  0.89019000  0.74196000  1.0
  H  H32  1  0.96679000  0.13866000  0.14753000  1.0
  H  H33  1  0.94974000  0.02710000  0.18770000  1.0
  H  H34  1  0.99861000  0.15163000  0.83197000  1.0
  H  H35  1  0.02536000  0.06237000  0.79692000  1.0
  H  H36  1  0.04159000  0.86872000  0.18436000  1.0
  H  H37  1  0.08898000  0.99436000  0.24881000  1.0
  H  H38  1  0.04307000  0.35915000  0.36681000  1.0
  H  H39  1  0.07487000  0.32904000  0.48458000  1.0
  H  H40  1  0.03971000  0.68572000  0.67329000  1.0
  H  H41  1  0.07156000  0.74843000  0.58812000  1.0
  H  H42  1  0.98561000  0.32969000  0.64661000  1.0
  H  H43  1  0.94295000  0.26151000  0.52503000  1.0
  H  H44  1  0.96633000  0.64986000  0.33010000  1.0
  H  H45  1  0.93432000  0.67998000  0.41712000  1.0
  H  H46  1  0.17975000  0.82516000  0.36697000  1.0
  H  H47  1  0.23464000  0.91264000  0.48316000  1.0
  H  H48  1  0.81629000  0.13889000  0.66829000  1.0
  H  H49  1  0.76361000  0.01927000  0.58790000  1.0
  H  H50  1  0.48503000  0.17070000  0.63358000  1.0
  H  H51  1  0.33709000  0.08374000  0.51616000  1.0
  H  H52  1  0.50966000  0.85978000  0.33173000  1.0
  H  H53  1  0.65707000  0.97961000  0.41453000  1.0
  C  C54  1  0.69610000  0.19207000  0.99645000  1.0
  C  C55  1  0.30227000  0.50084000  0.30566000  1.0
  C  C56  1  0.30547000  0.80204000  0.99810000  1.0
  C  C57  1  0.69537000  0.50458000  0.69787000  1.0
  C  C58  1  0.69315000  0.50323000  0.99117000  1.0
  C  C59  1  0.69286000  0.19340000  0.69565000  1.0
  C  C60  1  0.30034000  0.50354000  0.99228000  1.0
  C  C61  1  0.30312000  0.80073000  0.30731000  1.0
  C  C62  1  0.00267000  0.50330000  0.30551000  1.0
  C  C63  1  0.99303000  0.80142000  0.99773000  1.0
  C  C64  1  0.00651000  0.50509000  0.69829000  1.0
  C  C65  1  0.99067000  0.19143000  0.99287000  1.0
  C  C66  1  0.40496000  0.90033000  0.99742000  1.0
  C  C67  1  0.59789000  0.09174000  0.99595000  1.0
  C  C68  1  0.53673000  0.95226000  0.08253000  1.0
  C  C69  1  0.46700000  0.03442000  0.90617000  1.0
  C  C70  1  0.63114000  0.05106000  0.08577000  1.0
  C  C71  1  0.37139000  0.94571000  0.91159000  1.0
  C  C72  1  0.40167000  0.50160000  0.40498000  1.0
  C  C73  1  0.59576000  0.50408000  0.59894000  1.0
  C  C74  1  0.53333000  0.58636000  0.45543000  1.0
  C  C75  1  0.46401000  0.42353000  0.55262000  1.0
  C  C76  1  0.62881000  0.58280000  0.54641000  1.0
  C  C77  1  0.36882000  0.41764000  0.45279000  1.0
  C  C78  1  0.99152000  0.89972000  0.99603000  1.0
  C  C79  1  0.98865000  0.09123000  0.99261000  1.0
  C  C80  1  0.97539000  0.93944000  0.90552000  1.0
  C  C81  1  0.99465000  0.04640000  0.07858000  1.0
  C  C82  1  0.98222000  0.03778000  0.90748000  1.0
  C  C83  1  0.00613000  0.95707000  0.08467000  1.0
  C  C84  1  0.00361000  0.50383000  0.40495000  1.0
  C  C85  1  0.00665000  0.50521000  0.59931000  1.0
  C  C86  1  0.01004000  0.42446000  0.45669000  1.0
  C  C87  1  0.00888000  0.58901000  0.55162000  1.0
  C  C88  1  0.00314000  0.42080000  0.54833000  1.0
  C  C89  1  0.99863000  0.58393000  0.45195000  1.0
  C  C90  1  0.58884000  0.50126000  0.98724000  1.0
  C  C91  1  0.49795000  0.40641000  0.99368000  1.0
  C  C92  1  0.58130000  0.59053000  0.97746000  1.0
  C  C93  1  0.49900000  0.31123000  0.99863000  1.0
  C  C94  1  0.41043000  0.22117000  0.00529000  1.0
  C  C95  1  0.39897000  0.50158000  0.98856000  1.0
  C  C96  1  0.48468000  0.59012000  0.97714000  1.0
  C  C97  1  0.40213000  0.40711000  0.99553000  1.0
  C  C98  1  0.31337000  0.31321000  0.00385000  1.0
  C  C99  1  0.31716000  0.22230000  0.00838000  1.0
  C  C100  1  0.40190000  0.90024000  0.40577000  1.0
  C  C101  1  0.59408000  0.09499000  0.59621000  1.0
  C  C102  1  0.36774000  0.94769000  0.45614000  1.0
  C  C103  1  0.62827000  0.04406000  0.54950000  1.0
  C  C104  1  0.46214000  0.04800000  0.54501000  1.0
  C  C105  1  0.53365000  0.95227000  0.45165000  1.0
  N  N106  1  0.58145000  0.91496000  0.16996000  1.0
  N  N107  1  0.42324000  0.06320000  0.81229000  1.0
  N  N108  1  0.75517000  0.10070000  0.17880000  1.0
  N  N109  1  0.24647000  0.90525000  0.82607000  1.0
  N  N110  1  0.57758000  0.67280000  0.41745000  1.0
  N  N111  1  0.41956000  0.34297000  0.59709000  1.0
  N  N112  1  0.75346000  0.66287000  0.58094000  1.0
  N  N113  1  0.24398000  0.32838000  0.40914000  1.0
  N  N114  1  0.95762000  0.88934000  0.81326000  1.0
  N  N115  1  0.99590000  0.08789000  0.16369000  1.0
  N  N116  1  0.97564000  0.07364000  0.81903000  1.0
  N  N117  1  0.02628000  0.92858000  0.17846000  1.0
  N  N118  1  0.01888000  0.34410000  0.42088000  1.0
  N  N119  1  0.01487000  0.67701000  0.59503000  1.0
  N  N120  1  0.00015000  0.33457000  0.58633000  1.0
  N  N121  1  0.98963000  0.66450000  0.40793000  1.0
  N  N122  1  0.24251000  0.90378000  0.41994000  1.0
  N  N123  1  0.75355000  0.08201000  0.59176000  1.0
  N  N124  1  0.41646000  0.09234000  0.58004000  1.0
  N  N125  1  0.57932000  0.91603000  0.40859000  1.0
  Cl  Cl126  1  0.47260000  0.69900000  0.95800000  1.0
  Cl  Cl127  1  0.68528000  0.70104000  0.96169000  1.0
  O  O128  1  0.66214000  0.23418000  0.92081000  1.0
  O  O129  1  0.33504000  0.57677000  0.26335000  1.0
  O  O130  1  0.33819000  0.75906000  0.07329000  1.0
  O  O131  1  0.66212000  0.42868000  0.73994000  1.0
  O  O132  1  0.80728000  0.57698000  0.07088000  1.0
  O  O133  1  0.81151000  0.23552000  0.73908000  1.0
  O  O134  1  0.18450000  0.42807000  0.91612000  1.0
  O  O135  1  0.18461000  0.75757000  0.26527000  1.0
  O  O136  1  0.00443000  0.42856000  0.26343000  1.0
  O  O137  1  0.99297000  0.75839000  0.92221000  1.0
  O  O138  1  0.00787000  0.58139000  0.74209000  1.0
  O  O139  1  0.99063000  0.23445000  0.06813000  1.0
  O  O140  1  0.99551000  0.76072000  0.07480000  1.0
  O  O141  1  0.00312000  0.42766000  0.73886000  1.0
  O  O142  1  0.99509000  0.23570000  0.91905000  1.0
  O  O143  1  0.99863000  0.57718000  0.26125000  1.0
  O  O144  1  0.65755000  0.42756000  0.91514000  1.0
  O  O145  1  0.33695000  0.75939000  0.26392000  1.0
  O  O146  1  0.33962000  0.57732000  0.07208000  1.0
  O  O147  1  0.65910000  0.23635000  0.73753000  1.0
  O  O148  1  0.81387000  0.57987000  0.73983000  1.0
  O  O149  1  0.81449000  0.23710000  0.07412000  1.0
  O  O150  1  0.18366000  0.42347000  0.26155000  1.0
  O  O151  1  0.18733000  0.76139000  0.92394000  1.0
  O  O152  1  0.86592000  0.43422000  0.79917000  1.0
  O  O153  1  0.13298000  0.70025000  0.06701000  1.0
  O  O154  1  0.13315000  0.43317000  0.06487000  1.0
  O  O155  1  0.86321000  0.43316000  0.06470000  1.0
  O  O156  1  0.09689000  0.54924000  0.14649000  1.0
  O  O157  1  0.90060000  0.35296000  0.94945000  1.0
  O  O158  1  0.09829000  0.54944000  0.95074000  1.0
  O  O159  1  0.90026000  0.54927000  0.95052000  1.0
