# generated using pymatgen
data_CuH15C20N7O6
_symmetry_space_group_name_H-M   'P 1'
_cell_length_a   7.54193000
_cell_length_b   11.67100000
_cell_length_c   12.29310000
_cell_angle_alpha   75.33650000
_cell_angle_beta   72.77960000
_cell_angle_gamma   84.36100000
_symmetry_Int_Tables_number   1
_chemical_formula_structural   CuH15C20N7O6
_chemical_formula_sum   'Cu2 H30 C40 N14 O12'
_cell_volume   999.57389205
_cell_formula_units_Z   2
loop_
 _symmetry_equiv_pos_site_id
 _symmetry_equiv_pos_as_xyz
  1  'x, y, z'
loop_
 _atom_site_type_symbol
 _atom_site_label
 _atom_site_symmetry_multiplicity
 _atom_site_fract_x
 _atom_site_fract_y
 _atom_site_fract_z
 _atom_site_occupancy
  Cu  Cu0  1  0.50001000  0.49999000  0.00000000  1.0
  Cu  Cu1  1  0.50000000  0.00000000  0.50000000  1.0
  H  H2  1  0.82042000  0.30412000  0.64718000  1.0
  H  H3  1  0.17957000  0.69589000  0.35282000  1.0
  H  H4  1  0.75024000  0.50734000  0.67459000  1.0
  H  H5  1  0.24976000  0.49267000  0.32540000  1.0
  H  H6  1  0.68448000  0.66880000  0.51158000  1.0
  H  H7  1  0.31552000  0.33121000  0.48841000  1.0
  H  H8  1  0.69815000  0.62289000  0.32322000  1.0
  H  H9  1  0.30185000  0.37712000  0.67677000  1.0
  H  H10  1  0.79742000  0.32864000  0.25203000  1.0
  H  H11  1  0.20260000  0.67136000  0.74797000  1.0
  H  H12  1  0.66209000  0.46265000  0.22822000  1.0
  H  H13  1  0.33792000  0.53735000  0.77178000  1.0
  H  H14  1  0.77392000  0.16135000  0.54720000  1.0
  H  H15  1  0.22608000  0.83866000  0.45280000  1.0
  H  H16  1  0.78904000  0.19652000  0.39581000  1.0
  H  H17  1  0.21096000  0.80348000  0.60419000  1.0
  H  H18  1  0.17512000  0.70772000  0.01520000  1.0
  H  H19  1  0.82490000  0.29228000  0.98480000  1.0
  H  H20  1  0.14776000  0.33894000  0.14839000  1.0
  H  H21  1  0.85225000  0.66105000  0.85162000  1.0
  H  H22  1  0.44662000  0.19324000  0.26492000  1.0
  H  H23  1  0.55338000  0.80676000  0.73508000  1.0
  H  H24  1  0.06594000  0.06895000  0.59634000  1.0
  H  H25  1  0.93406000  0.93106000  0.40366000  1.0
  H  H26  1  0.53479000  0.78559000  0.24812000  1.0
  H  H27  1  0.46520000  0.21441000  0.75188000  1.0
  H  H28  1  0.82129000  0.10664000  0.04823000  1.0
  H  H29  1  0.17870000  0.89336000  0.95177000  1.0
  H  H30  1  0.69736000  0.86219000  0.87146000  1.0
  H  H31  1  0.30264000  0.13780000  0.12854000  1.0
  C  C32  1  0.77079000  0.43888000  0.37657000  1.0
  C  C33  1  0.22921000  0.56112000  0.62342000  1.0
  C  C34  1  0.80288000  0.34756000  0.46906000  1.0
  C  C35  1  0.19712000  0.65245000  0.53094000  1.0
  C  C36  1  0.79522000  0.37451000  0.57535000  1.0
  C  C37  1  0.20477000  0.62550000  0.42465000  1.0
  C  C38  1  0.75644000  0.48929000  0.59090000  1.0
  C  C39  1  0.24356000  0.51072000  0.40909000  1.0
  C  C40  1  0.72029000  0.57895000  0.50016000  1.0
  C  C41  1  0.27971000  0.42106000  0.49983000  1.0
  C  C42  1  0.72690000  0.55358000  0.39437000  1.0
  C  C43  1  0.27310000  0.44643000  0.60561000  1.0
  C  C44  1  0.78378000  0.42186000  0.25628000  1.0
  C  C45  1  0.21623000  0.57814000  0.74372000  1.0
  C  C46  1  0.84051000  0.21950000  0.46210000  1.0
  C  C47  1  0.15949000  0.78051000  0.53790000  1.0
  C  C48  1  0.12223000  0.62058000  0.06130000  1.0
  C  C49  1  0.87779000  0.37942000  0.93870000  1.0
  C  C50  1  0.11325000  0.43232000  0.12579000  1.0
  C  C51  1  0.88676000  0.56768000  0.87421000  1.0
  C  C52  1  0.31947000  0.17815000  0.33636000  1.0
  C  C53  1  0.68053000  0.82185000  0.66364000  1.0
  C  C54  1  0.12977000  0.11280000  0.50558000  1.0
  C  C55  1  0.87023000  0.88720000  0.49442000  1.0
  C  C56  1  0.61052000  0.81041000  0.06091000  1.0
  C  C57  1  0.38948000  0.18959000  0.93909000  1.0
  C  C58  1  0.60069000  0.84387000  0.16406000  1.0
  C  C59  1  0.39929000  0.15613000  0.83595000  1.0
  C  C60  1  0.67444000  0.95092000  0.15985000  1.0
  C  C61  1  0.32555000  0.04908000  0.84015000  1.0
  C  C62  1  0.76085000  0.02457000  0.05168000  1.0
  C  C63  1  0.23913000  0.97543000  0.94832000  1.0
  C  C64  1  0.76505000  0.99113000  0.94983000  1.0
  C  C65  1  0.23495000  0.00886000  0.05018000  1.0
  C  C66  1  0.69080000  0.88554000  0.95263000  1.0
  C  C67  1  0.30919000  0.11446000  0.04738000  1.0
  C  C68  1  0.54034000  0.69229000  0.06701000  1.0
  C  C69  1  0.45967000  0.30771000  0.93300000  1.0
  C  C70  1  0.65793000  0.99012000  0.27019000  1.0
  C  C71  1  0.34206000  0.00987000  0.72981000  1.0
  N  N72  1  0.94678000  0.48095000  0.16807000  1.0
  N  N73  1  0.05324000  0.51905000  0.83192000  1.0
  N  N74  1  0.94937000  0.60123000  0.12750000  1.0
  N  N75  1  0.05065000  0.39877000  0.87251000  1.0
  N  N76  1  0.22856000  0.51885000  0.05730000  1.0
  N  N77  1  0.77146000  0.48115000  0.94270000  1.0
  N  N78  1  0.03888000  0.18578000  0.43559000  1.0
  N  N79  1  0.96113000  0.81422000  0.56440000  1.0
  N  N80  1  0.15716000  0.22833000  0.32812000  1.0
  N  N81  1  0.84285000  0.77167000  0.67188000  1.0
  N  N82  1  0.30850000  0.10551000  0.44445000  1.0
  N  N83  1  0.69150000  0.89449000  0.55556000  1.0
  N  N84  1  0.84632000  0.06957000  0.83526000  1.0
  N  N85  1  0.15367000  0.93043000  0.16475000  1.0
  O  O86  1  0.53190000  0.67558000  0.96783000  1.0
  O  O87  1  0.46811000  0.32441000  0.03218000  1.0
  O  O88  1  0.49921000  0.61703000  0.16221000  1.0
  O  O89  1  0.50079000  0.38297000  0.83779000  1.0
  O  O90  1  0.54888000  0.92712000  0.36415000  1.0
  O  O91  1  0.45111000  0.07287000  0.63585000  1.0
  O  O92  1  0.74182000  0.07953000  0.26616000  1.0
  O  O93  1  0.25817000  0.92046000  0.73384000  1.0
  O  O94  1  0.92727000  0.15876000  0.83105000  1.0
  O  O95  1  0.07273000  0.84124000  0.16895000  1.0
  O  O96  1  0.82839000  0.04281000  0.74716000  1.0
  O  O97  1  0.17160000  0.95719000  0.25284000  1.0
