# generated using pymatgen
data_HoH6C7O9
_symmetry_space_group_name_H-M   'P 1'
_cell_length_a   9.82521000
_cell_length_b   9.82557000
_cell_length_c   13.06420000
_cell_angle_alpha   108.93100000
_cell_angle_beta   95.40000000
_cell_angle_gamma   116.29600000
_symmetry_Int_Tables_number   1
_chemical_formula_structural   HoH6C7O9
_chemical_formula_sum   'Ho4 H24 C28 O36'
_cell_volume   1026.60170922
_cell_formula_units_Z   4
loop_
 _symmetry_equiv_pos_site_id
 _symmetry_equiv_pos_as_xyz
  1  'x, y, z'
loop_
 _atom_site_type_symbol
 _atom_site_label
 _atom_site_symmetry_multiplicity
 _atom_site_fract_x
 _atom_site_fract_y
 _atom_site_fract_z
 _atom_site_occupancy
  Ho  Ho0  1  0.26382000  0.53889000  0.99669000  1.0
  Ho  Ho1  1  0.54222000  0.76723000  0.50341000  1.0
  Ho  Ho2  1  0.73618000  0.46111000  0.00331000  1.0
  Ho  Ho3  1  0.45778000  0.23277000  0.49659000  1.0
  H  H4  1  0.06535000  0.30901000  0.76662000  1.0
  H  H5  1  0.54224000  0.79833000  0.73344000  1.0
  H  H6  1  0.93465000  0.69099000  0.23337000  1.0
  H  H7  1  0.45777000  0.20168000  0.26656000  1.0
  H  H8  1  0.95017000  0.36303000  0.81858000  1.0
  H  H9  1  0.54422000  0.63120000  0.68134000  1.0
  H  H10  1  0.04983000  0.63697000  0.18142000  1.0
  H  H11  1  0.45579000  0.36880000  0.31866000  1.0
  H  H12  1  0.16043000  0.21498000  0.14752000  1.0
  H  H13  1  0.06769000  0.51314000  0.35276000  1.0
  H  H14  1  0.83957000  0.78502000  0.85248000  1.0
  H  H15  1  0.93231000  0.48686000  0.64724000  1.0
  H  H16  1  0.02233000  0.94575000  0.19837000  1.0
  H  H17  1  0.74764000  0.32425000  0.30188000  1.0
  H  H18  1  0.97767000  0.05426000  0.80164000  1.0
  H  H19  1  0.25237000  0.67575000  0.69812000  1.0
  H  H20  1  0.46733000  0.76651000  0.91833000  1.0
  H  H21  1  0.84830000  0.04892000  0.58178000  1.0
  H  H22  1  0.53267000  0.23348000  0.08167000  1.0
  H  H23  1  0.15170000  0.95109000  0.41822000  1.0
  H  H24  1  0.48279000  0.60949000  0.86070000  1.0
  H  H25  1  0.74895000  0.12210000  0.63938000  1.0
  H  H26  1  0.51721000  0.39051000  0.13930000  1.0
  H  H27  1  0.25104000  0.87790000  0.36061000  1.0
  C  C28  1  0.91325000  0.25976000  0.03145000  1.0
  C  C29  1  0.22842000  0.38185000  0.46871000  1.0
  C  C30  1  0.08674000  0.74024000  0.96855000  1.0
  C  C31  1  0.77158000  0.61815000  0.53129000  1.0
  C  C32  1  0.80137000  0.92529000  0.11878000  1.0
  C  C33  1  0.80667000  0.18268000  0.38132000  1.0
  C  C34  1  0.19863000  0.07472000  0.88123000  1.0
  C  C35  1  0.19333000  0.81733000  0.61868000  1.0
  C  C36  1  0.03506000  0.13248000  0.13127000  1.0
  C  C37  1  0.00141000  0.40393000  0.36892000  1.0
  C  C38  1  0.96494000  0.86752000  0.86873000  1.0
  C  C39  1  0.99859000  0.59608000  0.63108000  1.0
  C  C40  1  0.66434000  0.76962000  0.10726000  1.0
  C  C41  1  0.66243000  0.05720000  0.39280000  1.0
  C  C42  1  0.33566000  0.23038000  0.89274000  1.0
  C  C43  1  0.33757000  0.94280000  0.60720000  1.0
  C  C44  1  0.96257000  0.99211000  0.15725000  1.0
  C  C45  1  0.83508000  0.30550000  0.34291000  1.0
  C  C46  1  0.03743000  0.00790000  0.84276000  1.0
  C  C47  1  0.16492000  0.69450000  0.65709000  1.0
  C  C48  1  0.32012000  0.66401000  0.26352000  1.0
  C  C49  1  0.40054000  0.55691000  0.23665000  1.0
  C  C50  1  0.67988000  0.33598000  0.73648000  1.0
  C  C51  1  0.59947000  0.44309000  0.76335000  1.0
  C  C52  1  0.91442000  0.14337000  0.07843000  1.0
  C  C53  1  0.06507000  0.33602000  0.42171000  1.0
  C  C54  1  0.08558000  0.85663000  0.92158000  1.0
  C  C55  1  0.93493000  0.66398000  0.57829000  1.0
  O  O56  1  0.04206000  0.35505000  0.01762000  1.0
  O  O57  1  0.33751000  0.52450000  0.48258000  1.0
  O  O58  1  0.95794000  0.64495000  0.98238000  1.0
  O  O59  1  0.66249000  0.47550000  0.51742000  1.0
  O  O60  1  0.78422000  0.25905000  0.00883000  1.0
  O  O61  1  0.25031000  0.27541000  0.49132000  1.0
  O  O62  1  0.21577000  0.74095000  0.99116000  1.0
  O  O63  1  0.74969000  0.72459000  0.50869000  1.0
  O  O64  1  0.24585000  0.66716000  0.18042000  1.0
  O  O65  1  0.48683000  0.56579000  0.31974000  1.0
  O  O66  1  0.75415000  0.33283000  0.81958000  1.0
  O  O67  1  0.51318000  0.43422000  0.68025000  1.0
  O  O68  1  0.69396000  0.65865000  0.11543000  1.0
  O  O69  1  0.54326000  0.07859000  0.38444000  1.0
  O  O70  1  0.30604000  0.34136000  0.88457000  1.0
  O  O71  1  0.45674000  0.92141000  0.61555000  1.0
  O  O72  1  0.77082000  0.01869000  0.07198000  1.0
  O  O73  1  0.94681000  0.19884000  0.42811000  1.0
  O  O74  1  0.22917000  0.98131000  0.92803000  1.0
  O  O75  1  0.05318000  0.80116000  0.57189000  1.0
  O  O76  1  0.52761000  0.75261000  0.08655000  1.0
  O  O77  1  0.66605000  0.94122000  0.41361000  1.0
  O  O78  1  0.47239000  0.24738000  0.91345000  1.0
  O  O79  1  0.33394000  0.05878000  0.58638000  1.0
  O  O80  1  0.32953000  0.73600000  0.36599000  1.0
  O  O81  1  0.37015000  0.46389000  0.13420000  1.0
  O  O82  1  0.67047000  0.26399000  0.63401000  1.0
  O  O83  1  0.62985000  0.53611000  0.86580000  1.0
  O  O84  1  0.06178000  0.40478000  0.81657000  1.0
  O  O85  1  0.58809000  0.74488000  0.68345000  1.0
  O  O86  1  0.93822000  0.59521000  0.18343000  1.0
  O  O87  1  0.41192000  0.25513000  0.31655000  1.0
  O  O88  1  0.40606000  0.64984000  0.86469000  1.0
  O  O89  1  0.78528000  0.04138000  0.63546000  1.0
  O  O90  1  0.59394000  0.35016000  0.13531000  1.0
  O  O91  1  0.21471000  0.95861000  0.36453000  1.0
