# generated using pymatgen
data_CdH10C14(NO)6
_symmetry_space_group_name_H-M   'P 1'
_cell_length_a   8.32664000
_cell_length_b   8.32659000
_cell_length_c   12.21810000
_cell_angle_alpha   99.33290000
_cell_angle_beta   99.33320000
_cell_angle_gamma   91.36070000
_symmetry_Int_Tables_number   1
_chemical_formula_structural   CdH10C14(NO)6
_chemical_formula_sum   'Cd2 H20 C28 N12 O12'
_cell_volume   823.74227570
_cell_formula_units_Z   2
loop_
 _symmetry_equiv_pos_site_id
 _symmetry_equiv_pos_as_xyz
  1  'x, y, z'
loop_
 _atom_site_type_symbol
 _atom_site_label
 _atom_site_symmetry_multiplicity
 _atom_site_fract_x
 _atom_site_fract_y
 _atom_site_fract_z
 _atom_site_occupancy
  Cd  Cd0  1  0.18830000  0.81170000  0.25000000  1.0
  Cd  Cd1  1  0.81170000  0.18830000  0.75000000  1.0
  H  H2  1  0.41242000  0.14756000  0.34690000  1.0
  H  H3  1  0.14756000  0.41242000  0.84690000  1.0
  H  H4  1  0.58758000  0.85244000  0.65310000  1.0
  H  H5  1  0.85244000  0.58758000  0.15310000  1.0
  H  H6  1  0.43147000  0.65735000  0.65448000  1.0
  H  H7  1  0.65735000  0.43147000  0.15448000  1.0
  H  H8  1  0.56852000  0.34266000  0.34552000  1.0
  H  H9  1  0.34265000  0.56852000  0.84552000  1.0
  H  H10  1  0.28068000  0.38565000  0.63102000  1.0
  H  H11  1  0.38566000  0.28068000  0.13102000  1.0
  H  H12  1  0.71932000  0.61435000  0.36898000  1.0
  H  H13  1  0.61434000  0.71932000  0.86898000  1.0
  H  H14  1  0.11482000  0.27142000  0.44350000  1.0
  H  H15  1  0.27142000  0.11482000  0.94350000  1.0
  H  H16  1  0.88518000  0.72858000  0.55650000  1.0
  H  H17  1  0.72859000  0.88518000  0.05650000  1.0
  H  H18  1  0.10904000  0.42995000  0.28605000  1.0
  H  H19  1  0.42995000  0.10903000  0.78605000  1.0
  H  H20  1  0.89096000  0.57005000  0.71395000  1.0
  H  H21  1  0.57005000  0.89096000  0.21395000  1.0
  C  C22  1  0.42880000  0.84849000  0.49095000  1.0
  C  C23  1  0.84849000  0.42880000  0.99095000  1.0
  C  C24  1  0.57120000  0.15151000  0.50905000  1.0
  C  C25  1  0.15151000  0.57120000  0.00905000  1.0
  C  C26  1  0.45468000  0.08291000  0.41593000  1.0
  C  C27  1  0.08292000  0.45468000  0.91594000  1.0
  C  C28  1  0.54532000  0.91709000  0.58407000  1.0
  C  C29  1  0.91709000  0.54532000  0.08406000  1.0
  C  C30  1  0.34649000  0.68682000  0.48210000  1.0
  C  C31  1  0.68682000  0.34649000  0.98210000  1.0
  C  C32  1  0.65350000  0.31318000  0.51790000  1.0
  C  C33  1  0.31318000  0.65350000  0.01790000  1.0
  C  C34  1  0.35868000  0.60395000  0.57399000  1.0
  C  C35  1  0.60395000  0.35869000  0.07399000  1.0
  C  C36  1  0.64131000  0.39605000  0.42601000  1.0
  C  C37  1  0.39605000  0.64131000  0.92601000  1.0
  C  C38  1  0.27541000  0.45340000  0.56138000  1.0
  C  C39  1  0.45340000  0.27540000  0.06138000  1.0
  C  C40  1  0.72459000  0.54660000  0.43862000  1.0
  C  C41  1  0.54660000  0.72459000  0.93862000  1.0
  C  C42  1  0.18254000  0.38864000  0.45722000  1.0
  C  C43  1  0.38865000  0.18254000  0.95722000  1.0
  C  C44  1  0.81746000  0.61136000  0.54278000  1.0
  C  C45  1  0.61136000  0.81746000  0.04278000  1.0
  C  C46  1  0.17745000  0.47784000  0.36949000  1.0
  C  C47  1  0.47785000  0.17745000  0.86949000  1.0
  C  C48  1  0.82255000  0.52216000  0.63051000  1.0
  C  C49  1  0.52216000  0.82255000  0.13051000  1.0
  N  N50  1  0.38692000  0.93415000  0.40731000  1.0
  N  N51  1  0.93416000  0.38692000  0.90731000  1.0
  N  N52  1  0.61308000  0.06584000  0.59269000  1.0
  N  N53  1  0.06585000  0.61308000  0.09269000  1.0
  N  N54  1  0.25645000  0.62360000  0.38155000  1.0
  N  N55  1  0.62360000  0.25645000  0.88155000  1.0
  N  N56  1  0.74355000  0.37640000  0.61845000  1.0
  N  N57  1  0.37640000  0.74355000  0.11845000  1.0
  N  N58  1  0.08817000  0.10057000  0.14792000  1.0
  N  N59  1  0.10057000  0.08817000  0.64792000  1.0
  N  N60  1  0.91183000  0.89943000  0.85207000  1.0
  N  N61  1  0.89943000  0.91183000  0.35207000  1.0
  O  O62  1  0.23350000  0.07594000  0.19641000  1.0
  O  O63  1  0.07594000  0.23350000  0.69641000  1.0
  O  O64  1  0.76650000  0.92406000  0.80359000  1.0
  O  O65  1  0.92406000  0.76650000  0.30359000  1.0
  O  O66  1  0.98269000  0.98346000  0.12709000  1.0
  O  O67  1  0.98346000  0.98269000  0.62709000  1.0
  O  O68  1  0.01731000  0.01654000  0.87291000  1.0
  O  O69  1  0.01654000  0.01731000  0.37291000  1.0
  O  O70  1  0.05712000  0.23799000  0.12387000  1.0
  O  O71  1  0.23798000  0.05712000  0.62387000  1.0
  O  O72  1  0.94288000  0.76201000  0.87613000  1.0
  O  O73  1  0.76202000  0.94288000  0.37613000  1.0
