# generated using pymatgen
data_MnH6C8N8O
_symmetry_space_group_name_H-M   'P 1'
_cell_length_a   7.37543000
_cell_length_b   8.91485000
_cell_length_c   18.43140000
_cell_angle_alpha   89.99990000
_cell_angle_beta   89.99940000
_cell_angle_gamma   70.74500000
_symmetry_Int_Tables_number   1
_chemical_formula_structural   MnH6C8N8O
_chemical_formula_sum   'Mn4 H24 C32 N32 O4'
_cell_volume   1144.08797242
_cell_formula_units_Z   4
loop_
 _symmetry_equiv_pos_site_id
 _symmetry_equiv_pos_as_xyz
  1  'x, y, z'
loop_
 _atom_site_type_symbol
 _atom_site_label
 _atom_site_symmetry_multiplicity
 _atom_site_fract_x
 _atom_site_fract_y
 _atom_site_fract_z
 _atom_site_occupancy
  Mn  Mn0  1  0.02264000  0.82792000  0.37490000  1.0
  Mn  Mn1  1  0.97736000  0.67207000  0.87490000  1.0
  Mn  Mn2  1  0.97735000  0.17207000  0.62510000  1.0
  Mn  Mn3  1  0.02264000  0.32793000  0.12511000  1.0
  H  H4  1  0.67896000  0.02867000  0.43238000  1.0
  H  H5  1  0.32104000  0.47133000  0.93239000  1.0
  H  H6  1  0.32104000  0.97132000  0.56761000  1.0
  H  H7  1  0.67896000  0.52867000  0.06761000  1.0
  H  H8  1  0.83745000  0.08451000  0.47247000  1.0
  H  H9  1  0.16255000  0.41549000  0.97247000  1.0
  H  H10  1  0.16255000  0.91548000  0.52753000  1.0
  H  H11  1  0.83745000  0.58452000  0.02753000  1.0
  H  H12  1  0.42970000  0.86124000  0.41534000  1.0
  H  H13  1  0.57029000  0.63878000  0.91534000  1.0
  H  H14  1  0.57030000  0.13876000  0.58466000  1.0
  H  H15  1  0.42970000  0.36123000  0.08466000  1.0
  H  H16  1  0.42980000  0.32407000  0.39335000  1.0
  H  H17  1  0.57019000  0.17595000  0.89335000  1.0
  H  H18  1  0.57020000  0.67593000  0.60665000  1.0
  H  H19  1  0.42981000  0.82406000  0.10664000  1.0
  H  H20  1  0.09709000  0.40383000  0.33681000  1.0
  H  H21  1  0.90290000  0.09618000  0.83681000  1.0
  H  H22  1  0.90292000  0.59616000  0.66319000  1.0
  H  H23  1  0.09709000  0.90383000  0.16319000  1.0
  H  H24  1  0.94597000  0.18690000  0.32441000  1.0
  H  H25  1  0.05403000  0.31311000  0.82441000  1.0
  H  H26  1  0.05404000  0.81310000  0.67559000  1.0
  H  H27  1  0.94597000  0.68689000  0.17558000  1.0
  C  C28  1  0.40564000  0.57084000  0.30019000  1.0
  C  C29  1  0.59435000  0.92916000  0.80019000  1.0
  C  C30  1  0.59435000  0.42916000  0.69981000  1.0
  C  C31  1  0.40565000  0.07084000  0.19980000  1.0
  C  C32  1  0.70938000  0.46021000  0.24847000  1.0
  C  C33  1  0.29063000  0.03979000  0.74846000  1.0
  C  C34  1  0.29063000  0.53979000  0.75153000  1.0
  C  C35  1  0.70937000  0.96021000  0.25154000  1.0
  C  C36  1  0.23668000  0.61049000  0.50756000  1.0
  C  C37  1  0.76333000  0.88951000  0.00756000  1.0
  C  C38  1  0.76332000  0.38950000  0.49244000  1.0
  C  C39  1  0.23668000  0.11050000  0.99244000  1.0
  C  C40  1  0.21887000  0.40084000  0.57647000  1.0
  C  C41  1  0.78113000  0.09916000  0.07647000  1.0
  C  C42  1  0.78112000  0.59916000  0.42353000  1.0
  C  C43  1  0.21887000  0.90086000  0.92353000  1.0
  C  C44  1  0.35512000  0.98326000  0.39822000  1.0
  C  C45  1  0.64488000  0.51676000  0.89823000  1.0
  C  C46  1  0.64488000  0.01674000  0.60178000  1.0
  C  C47  1  0.35512000  0.48324000  0.10177000  1.0
  C  C48  1  0.35350000  0.23917000  0.38575000  1.0
  C  C49  1  0.64649000  0.26084000  0.88575000  1.0
  C  C50  1  0.64650000  0.76082000  0.61425000  1.0
  C  C51  1  0.35351000  0.73916000  0.11425000  1.0
  C  C52  1  0.17072000  0.28322000  0.35548000  1.0
  C  C53  1  0.82927000  0.21678000  0.85548000  1.0
  C  C54  1  0.82928000  0.71678000  0.64452000  1.0
  C  C55  1  0.17074000  0.78321000  0.14452000  1.0
  C  C56  1  0.08748000  0.16462000  0.34854000  1.0
  C  C57  1  0.91252000  0.33539000  0.84854000  1.0
  C  C58  1  0.91252000  0.83538000  0.65146000  1.0
  C  C59  1  0.08749000  0.66462000  0.15146000  1.0
  N  N60  1  0.25629000  0.66162000  0.31845000  1.0
  N  N61  1  0.74371000  0.83838000  0.81845000  1.0
  N  N62  1  0.74370000  0.33839000  0.68155000  1.0
  N  N63  1  0.25629000  0.16161000  0.18155000  1.0
  N  N64  1  0.56070000  0.45715000  0.28421000  1.0
  N  N65  1  0.43931000  0.04285000  0.78420000  1.0
  N  N66  1  0.43930000  0.54286000  0.71580000  1.0
  N  N67  1  0.56070000  0.95714000  0.21579000  1.0
  N  N68  1  0.85465000  0.44495000  0.21740000  1.0
  N  N69  1  0.14536000  0.05505000  0.71740000  1.0
  N  N70  1  0.14535000  0.55505000  0.78261000  1.0
  N  N71  1  0.85464000  0.94495000  0.28261000  1.0
  N  N72  1  0.18362000  0.73496000  0.47752000  1.0
  N  N73  1  0.81638000  0.76503000  0.97752000  1.0
  N  N74  1  0.81638000  0.26502000  0.52248000  1.0
  N  N75  1  0.18362000  0.23498000  0.02248000  1.0
  N  N76  1  0.30995000  0.47377000  0.53774000  1.0
  N  N77  1  0.69006000  0.02623000  0.03774000  1.0
  N  N78  1  0.69005000  0.52622000  0.46226000  1.0
  N  N79  1  0.30994000  0.97379000  0.96226000  1.0
  N  N80  1  0.15111000  0.32455000  0.61311000  1.0
  N  N81  1  0.84889000  0.17544000  0.11311000  1.0
  N  N82  1  0.84888000  0.67544000  0.38690000  1.0
  N  N83  1  0.15111000  0.82457000  0.88690000  1.0
  N  N84  1  0.17847000  0.01483000  0.37062000  1.0
  N  N85  1  0.82153000  0.48518000  0.87062000  1.0
  N  N86  1  0.82153000  0.98517000  0.62938000  1.0
  N  N87  1  0.17846000  0.51482000  0.12938000  1.0
  N  N88  1  0.44671000  0.08865000  0.40634000  1.0
  N  N89  1  0.55328000  0.41136000  0.90634000  1.0
  N  N90  1  0.55329000  0.91135000  0.59366000  1.0
  N  N91  1  0.44672000  0.58863000  0.09365000  1.0
  O  O92  1  0.81867000  0.99255000  0.44744000  1.0
  O  O93  1  0.18133000  0.50745000  0.94744000  1.0
  O  O94  1  0.18133000  0.00744000  0.55256000  1.0
  O  O95  1  0.81867000  0.49256000  0.05256000  1.0
