# generated using pymatgen
data_NiH8C9N3O4
_symmetry_space_group_name_H-M   'P 1'
_cell_length_a   7.40237000
_cell_length_b   14.02820000
_cell_length_c   14.02820000
_cell_angle_alpha   97.32520000
_cell_angle_beta   101.88600000
_cell_angle_gamma   101.88600000
_symmetry_Int_Tables_number   1
_chemical_formula_structural   NiH8C9N3O4
_chemical_formula_sum   'Ni4 H32 C36 N12 O16'
_cell_volume   1372.78143050
_cell_formula_units_Z   4
loop_
 _symmetry_equiv_pos_site_id
 _symmetry_equiv_pos_as_xyz
  1  'x, y, z'
loop_
 _atom_site_type_symbol
 _atom_site_label
 _atom_site_symmetry_multiplicity
 _atom_site_fract_x
 _atom_site_fract_y
 _atom_site_fract_z
 _atom_site_occupancy
  Ni  Ni0  1  0.75000000  0.41234000  0.58766000  1.0
  Ni  Ni1  1  0.25000000  0.58766000  0.41234000  1.0
  Ni  Ni2  1  0.50000000  0.00000000  0.00000000  1.0
  Ni  Ni3  1  0.00000000  0.00000000  0.00000000  1.0
  H  H4  1  0.12390000  0.48630000  0.60693000  1.0
  H  H5  1  0.37610000  0.39307000  0.51370000  1.0
  H  H6  1  0.87610000  0.51370000  0.39307000  1.0
  H  H7  1  0.62390000  0.60693000  0.48630000  1.0
  H  H8  1  0.05528000  0.40160000  0.51404000  1.0
  H  H9  1  0.44472000  0.48596000  0.59840000  1.0
  H  H10  1  0.94472000  0.59840000  0.48596000  1.0
  H  H11  1  0.55528000  0.51404000  0.40160000  1.0
  H  H12  1  0.96512000  0.95445000  0.78832000  1.0
  H  H13  1  0.53489000  0.21168000  0.04555000  1.0
  H  H14  1  0.03488000  0.04555000  0.21168000  1.0
  H  H15  1  0.46511000  0.78832000  0.95445000  1.0
  H  H16  1  0.90559000  0.80773000  0.65237000  1.0
  H  H17  1  0.59441000  0.34763000  0.19227000  1.0
  H  H18  1  0.09441000  0.19227000  0.34763000  1.0
  H  H19  1  0.40559000  0.65237000  0.80773000  1.0
  H  H20  1  0.85963000  0.62085000  0.87087000  1.0
  H  H21  1  0.64037000  0.12913000  0.37915000  1.0
  H  H22  1  0.14037000  0.37914000  0.12913000  1.0
  H  H23  1  0.35963000  0.87087000  0.62085000  1.0
  H  H24  1  0.91261000  0.77427000  0.99740000  1.0
  H  H25  1  0.58739000  0.00260000  0.22573000  1.0
  H  H26  1  0.08739000  0.22573000  0.00260000  1.0
  H  H27  1  0.41261000  0.99740000  0.77427000  1.0
  H  H28  1  0.60075000  0.39169000  0.76344000  1.0
  H  H29  1  0.89926000  0.23657000  0.60832000  1.0
  H  H30  1  0.39925000  0.60831000  0.23656000  1.0
  H  H31  1  0.10074000  0.76343000  0.39168000  1.0
  H  H32  1  0.58880000  0.27340000  0.88407000  1.0
  H  H33  1  0.91120000  0.11593000  0.72660000  1.0
  H  H34  1  0.41119000  0.72660000  0.11593000  1.0
  H  H35  1  0.08881000  0.88407000  0.27340000  1.0
  C  C36  1  0.94108000  0.87922000  0.80313000  1.0
  C  C37  1  0.55892000  0.19687000  0.12078000  1.0
  C  C38  1  0.05892000  0.12078000  0.19687000  1.0
  C  C39  1  0.44108000  0.80313000  0.87922000  1.0
  C  C40  1  0.90823000  0.79822000  0.72840000  1.0
  C  C41  1  0.59177000  0.27160000  0.20178000  1.0
  C  C42  1  0.09178000  0.20178000  0.27160000  1.0
  C  C43  1  0.40822000  0.72840000  0.79822000  1.0
  C  C44  1  0.87935000  0.70332000  0.75173000  1.0
  C  C45  1  0.62065000  0.24827000  0.29668000  1.0
  C  C46  1  0.12065000  0.29668000  0.24827000  1.0
  C  C47  1  0.37935000  0.75173000  0.70332000  1.0
  C  C48  1  0.88198000  0.69383000  0.85009000  1.0
  C  C49  1  0.61802000  0.14991000  0.30617000  1.0
  C  C50  1  0.11802000  0.30617000  0.14991000  1.0
  C  C51  1  0.38198000  0.85009000  0.69383000  1.0
  C  C52  1  0.91242000  0.77868000  0.92030000  1.0
  C  C53  1  0.58758000  0.07970000  0.22132000  1.0
  C  C54  1  0.08758000  0.22132000  0.07970000  1.0
  C  C55  1  0.41242000  0.92030000  0.77868000  1.0
  C  C56  1  0.84457000  0.61501000  0.67170000  1.0
  C  C57  1  0.65543000  0.32830000  0.38499000  1.0
  C  C58  1  0.15543000  0.38499000  0.32830000  1.0
  C  C59  1  0.34457000  0.67170000  0.61501000  1.0
  C  C60  1  0.66643000  0.32911000  0.75830000  1.0
  C  C61  1  0.83358000  0.24170000  0.67089000  1.0
  C  C62  1  0.33357000  0.67089000  0.24170000  1.0
  C  C63  1  0.16642000  0.75830000  0.32911000  1.0
  C  C64  1  0.66236000  0.26424000  0.82522000  1.0
  C  C65  1  0.83765000  0.17478000  0.73576000  1.0
  C  C66  1  0.33764000  0.73576000  0.17478000  1.0
  C  C67  1  0.16236000  0.82522000  0.26424000  1.0
  C  C68  1  0.75000000  0.18554000  0.81446000  1.0
  C  C69  1  0.25000000  0.81446000  0.18554000  1.0
  C  C70  1  0.75000000  0.11403000  0.88597000  1.0
  C  C71  1  0.25000000  0.88597000  0.11403000  1.0
  N  N72  1  0.94288000  0.87024000  0.89771000  1.0
  N  N73  1  0.55712000  0.10229000  0.12976000  1.0
  N  N74  1  0.05712000  0.12976000  0.10229000  1.0
  N  N75  1  0.44288000  0.89771000  0.87024000  1.0
  N  N76  1  0.75001000  0.31762000  0.68238000  1.0
  N  N77  1  0.25000000  0.68238000  0.31762000  1.0
  N  N78  1  0.25000000  0.04744000  0.95256000  1.0
  N  N79  1  0.75000000  0.95255000  0.04745000  1.0
  N  N80  1  0.25000000  0.10485000  0.89515000  1.0
  N  N81  1  0.75000000  0.89515000  0.10485000  1.0
  N  N82  1  0.25000000  0.16032000  0.83967000  1.0
  N  N83  1  0.75000000  0.83967000  0.16033000  1.0
  O  O84  1  0.02827000  0.42310000  0.57867000  1.0
  O  O85  1  0.47173000  0.42133000  0.57690000  1.0
  O  O86  1  0.97173000  0.57690000  0.42133000  1.0
  O  O87  1  0.52827000  0.57867000  0.42310000  1.0
  O  O88  1  0.82743000  0.53092000  0.69898000  1.0
  O  O89  1  0.67257000  0.30102000  0.46908000  1.0
  O  O90  1  0.17257000  0.46908000  0.30102000  1.0
  O  O91  1  0.32743000  0.69898000  0.53092000  1.0
  O  O92  1  0.83316000  0.62897000  0.58302000  1.0
  O  O93  1  0.66684000  0.41697000  0.37103000  1.0
  O  O94  1  0.16684000  0.37103000  0.41698000  1.0
  O  O95  1  0.33316000  0.58303000  0.62897000  1.0
  O  O96  1  0.63044000  0.11329000  0.93903000  1.0
  O  O97  1  0.86955000  0.06097000  0.88671000  1.0
  O  O98  1  0.36956000  0.88671000  0.06097000  1.0
  O  O99  1  0.13045000  0.93903000  0.11329000  1.0
