# generated using pymatgen
data_Mn4H53C65N3O19
_symmetry_space_group_name_H-M   'P 1'
_cell_length_a   13.59390000
_cell_length_b   15.42630000
_cell_length_c   24.10790000
_cell_angle_alpha   100.17200000
_cell_angle_beta   93.54370000
_cell_angle_gamma   102.05700000
_symmetry_Int_Tables_number   1
_chemical_formula_structural   Mn4H53C65N3O19
_chemical_formula_sum   'Mn8 H106 C130 N6 O38'
_cell_volume   4840.63064760
_cell_formula_units_Z   2
loop_
 _symmetry_equiv_pos_site_id
 _symmetry_equiv_pos_as_xyz
  1  'x, y, z'
loop_
 _atom_site_type_symbol
 _atom_site_label
 _atom_site_symmetry_multiplicity
 _atom_site_fract_x
 _atom_site_fract_y
 _atom_site_fract_z
 _atom_site_occupancy
  Mn  Mn0  1  0.82499000  0.35488000  0.67452000  1.0
  Mn  Mn1  1  0.17500000  0.64512000  0.32548000  1.0
  Mn  Mn2  1  0.63232000  0.44411000  0.72647000  1.0
  Mn  Mn3  1  0.36768000  0.55589000  0.27353000  1.0
  Mn  Mn4  1  0.39166000  0.34287000  0.67065000  1.0
  Mn  Mn5  1  0.60834000  0.65713000  0.32935000  1.0
  Mn  Mn6  1  0.18216000  0.29627000  0.73484000  1.0
  Mn  Mn7  1  0.81783000  0.70373000  0.26515000  1.0
  H  H8  1  0.69279000  0.64154000  0.68725000  1.0
  H  H9  1  0.30721000  0.35846000  0.31274000  1.0
  H  H10  1  0.72252000  0.80672000  0.68838000  1.0
  H  H11  1  0.27748000  0.19328000  0.31162000  1.0
  H  H12  1  0.03256000  0.81172000  0.65790000  1.0
  H  H13  1  0.96744000  0.18828000  0.34210000  1.0
  H  H14  1  0.00186000  0.64651000  0.65781000  1.0
  H  H15  1  0.99814000  0.35349000  0.34219000  1.0
  H  H16  1  0.74902000  0.91404000  0.63427000  1.0
  H  H17  1  0.25098000  0.08595000  0.36573000  1.0
  H  H18  1  0.77878000  0.07953000  0.63953000  1.0
  H  H19  1  0.22122000  0.92046000  0.36047000  1.0
  H  H20  1  0.07714000  0.11385000  0.72231000  1.0
  H  H21  1  0.92285000  0.88615000  0.27769000  1.0
  H  H22  1  0.04773000  0.94943000  0.71770000  1.0
  H  H23  1  0.95228000  0.05057000  0.28230000  1.0
  H  H24  1  0.76622000  0.52339000  0.89606000  1.0
  H  H25  1  0.23378000  0.47662000  0.10394000  1.0
  H  H26  1  0.85045000  0.55461000  0.99342000  1.0
  H  H27  1  0.14956000  0.44539000  0.00658000  1.0
  H  H28  1  0.08338000  0.42199000  0.93068000  1.0
  H  H29  1  0.91661000  0.57800000  0.06931000  1.0
  H  H30  1  0.99318000  0.38554000  0.83525000  1.0
  H  H31  1  0.00682000  0.61446000  0.16474000  1.0
  H  H32  1  0.43638000  0.24182000  0.55774000  1.0
  H  H33  1  0.56360000  0.75818000  0.44226000  1.0
  H  H34  1  0.39031000  0.09837000  0.48997000  1.0
  H  H35  1  0.60969000  0.90164000  0.51003000  1.0
  H  H36  1  0.64870000  0.01659000  0.56088000  1.0
  H  H37  1  0.35130000  0.98341000  0.43912000  1.0
  H  H38  1  0.69219000  0.16136000  0.62924000  1.0
  H  H39  1  0.30781000  0.83864000  0.37075000  1.0
  H  H40  1  0.31017000  0.43779000  0.85576000  1.0
  H  H41  1  0.68985000  0.56222000  0.14425000  1.0
  H  H42  1  0.33769000  0.50070000  0.95840000  1.0
  H  H43  1  0.66232000  0.49930000  0.04160000  1.0
  H  H44  1  0.63980000  0.45158000  0.96165000  1.0
  H  H45  1  0.36021000  0.54841000  0.03835000  1.0
  H  H46  1  0.61114000  0.39259000  0.85900000  1.0
  H  H47  1  0.38887000  0.60741000  0.14100000  1.0
  H  H48  1  0.29049000  0.57843000  0.68503000  1.0
  H  H49  1  0.70952000  0.42156000  0.31497000  1.0
  H  H50  1  0.24165000  0.72468000  0.67998000  1.0
  H  H51  1  0.75834000  0.27532000  0.32001000  1.0
  H  H52  1  0.55158000  0.86635000  0.72987000  1.0
  H  H53  1  0.44842000  0.13366000  0.27014000  1.0
  H  H54  1  0.59740000  0.72036000  0.73887000  1.0
  H  H55  1  0.40259000  0.27964000  0.26113000  1.0
  H  H56  1  0.23590000  0.87168000  0.74372000  1.0
  H  H57  1  0.76411000  0.12832000  0.25628000  1.0
  H  H58  1  0.20168000  0.02365000  0.73915000  1.0
  H  H59  1  0.79833000  0.97635000  0.26085000  1.0
  H  H60  1  0.45809000  0.08309000  0.64636000  1.0
  H  H61  1  0.54191000  0.91691000  0.35363000  1.0
  H  H62  1  0.49531000  0.93318000  0.65152000  1.0
  H  H63  1  0.50469000  0.06682000  0.34848000  1.0
  H  H64  1  0.24907000  0.39634000  0.50751000  1.0
  H  H65  1  0.75093000  0.60366000  0.49249000  1.0
  H  H66  1  0.14167000  0.46919000  0.45334000  1.0
  H  H67  1  0.85833000  0.53081000  0.54666000  1.0
  H  H68  1  0.94372000  0.47300000  0.58726000  1.0
  H  H69  1  0.05628000  0.52700000  0.41274000  1.0
  H  H70  1  0.05163000  0.40021000  0.63974000  1.0
  H  H71  1  0.94837000  0.59979000  0.36026000  1.0
  H  H72  1  0.86027000  0.24036000  0.55340000  1.0
  H  H73  1  0.13972000  0.75964000  0.44661000  1.0
  H  H74  1  0.66564000  0.35031000  0.51302000  1.0
  H  H75  1  0.33436000  0.64969000  0.48698000  1.0
  H  H76  1  0.61520000  0.25768000  0.45530000  1.0
  H  H77  1  0.38480000  0.74232000  0.54470000  1.0
  H  H78  1  0.71137000  0.35033000  0.44485000  1.0
  H  H79  1  0.28864000  0.64968000  0.55515000  1.0
  H  H80  1  0.81573000  0.22400000  0.41406000  1.0
  H  H81  1  0.18427000  0.77601000  0.58594000  1.0
  H  H82  1  0.71941000  0.13930000  0.43258000  1.0
  H  H83  1  0.28060000  0.86070000  0.56742000  1.0
  H  H84  1  0.84458000  0.16478000  0.46803000  1.0
  H  H85  1  0.15543000  0.83523000  0.53197000  1.0
  H  H86  1  0.05490000  0.45362000  0.73927000  1.0
  H  H87  1  0.94510000  0.54638000  0.26074000  1.0
  H  H88  1  0.18490000  0.61575000  0.88364000  1.0
  H  H89  1  0.81510000  0.38425000  0.11636000  1.0
  H  H90  1  0.24909000  0.67519000  0.83410000  1.0
  H  H91  1  0.75091000  0.32481000  0.16590000  1.0
  H  H92  1  0.26981000  0.56658000  0.84074000  1.0
  H  H93  1  0.73019000  0.43342000  0.15925000  1.0
  H  H94  1  0.00404000  0.57778000  0.74904000  1.0
  H  H95  1  0.99596000  0.42222000  0.25096000  1.0
  H  H96  1  0.09800000  0.68038000  0.77235000  1.0
  H  H97  1  0.90199000  0.31962000  0.22765000  1.0
  H  H98  1  0.01846000  0.63496000  0.82154000  1.0
  H  H99  1  0.98154000  0.36504000  0.17846000  1.0
  H  H100  1  0.28036000  0.27019000  0.86122000  1.0
  H  H101  1  0.71964000  0.72981000  0.13878000  1.0
  H  H102  1  0.03193000  0.14406000  0.92194000  1.0
  H  H103  1  0.96808000  0.85594000  0.07807000  1.0
  H  H104  1  0.01314000  0.20674000  0.86767000  1.0
  H  H105  1  0.98686000  0.79326000  0.13233000  1.0
  H  H106  1  0.02602000  0.26027000  0.94079000  1.0
  H  H107  1  0.97398000  0.73973000  0.05921000  1.0
  H  H108  1  0.20754000  0.29426000  0.99303000  1.0
  H  H109  1  0.79246000  0.70575000  0.00698000  1.0
  H  H110  1  0.30503000  0.27001000  0.95054000  1.0
  H  H111  1  0.69496000  0.72999000  0.04946000  1.0
  H  H112  1  0.21860000  0.18019000  0.97183000  1.0
  H  H113  1  0.78140000  0.81981000  0.02817000  1.0
  C  C114  1  0.22632000  0.24562000  0.95833000  1.0
  C  C115  1  0.77368000  0.75438000  0.04167000  1.0
  C  C116  1  0.84570000  0.63428000  0.67323000  1.0
  C  C117  1  0.15429000  0.36572000  0.32677000  1.0
  C  C118  1  0.76676000  0.67974000  0.68075000  1.0
  C  C119  1  0.23323000  0.32026000  0.31925000  1.0
  C  C120  1  0.78384000  0.77174000  0.68109000  1.0
  C  C121  1  0.21616000  0.22826000  0.31890000  1.0
  C  C122  1  0.87983000  0.82131000  0.67372000  1.0
  C  C123  1  0.12017000  0.17869000  0.32628000  1.0
  C  C124  1  0.95831000  0.77493000  0.66537000  1.0
  C  C125  1  0.04169000  0.22506000  0.33463000  1.0
  C  C126  1  0.94154000  0.68267000  0.66514000  1.0
  C  C127  1  0.05846000  0.31733000  0.33486000  1.0
  C  C128  1  0.89674000  0.91939000  0.67554000  1.0
  C  C129  1  0.10326000  0.08061000  0.32446000  1.0
  C  C130  1  0.82090000  0.95783000  0.65406000  1.0
  C  C131  1  0.17910000  0.04216000  0.34594000  1.0
  C  C132  1  0.83745000  0.05055000  0.65666000  1.0
  C  C133  1  0.16254000  0.94945000  0.34335000  1.0
  C  C134  1  0.92958000  0.10854000  0.68113000  1.0
  C  C135  1  0.07041000  0.89146000  0.31887000  1.0
  C  C136  1  0.00499000  0.07072000  0.70313000  1.0
  C  C137  1  0.99500000  0.92928000  0.29687000  1.0
  C  C138  1  0.98870000  0.97778000  0.69997000  1.0
  C  C139  1  0.01129000  0.02222000  0.30003000  1.0
  C  C140  1  0.82478000  0.53581000  0.67380000  1.0
  C  C141  1  0.17522000  0.46418000  0.32620000  1.0
  C  C142  1  0.94573000  0.20858000  0.68348000  1.0
  C  C143  1  0.05426000  0.79142000  0.31652000  1.0
  C  C144  1  0.87398000  0.45255000  0.85942000  1.0
  C  C145  1  0.12602000  0.54745000  0.14058000  1.0
  C  C146  1  0.83533000  0.50066000  0.90464000  1.0
  C  C147  1  0.16467000  0.49934000  0.09535000  1.0
  C  C148  1  0.88385000  0.51836000  0.95923000  1.0
  C  C149  1  0.11615000  0.48164000  0.04077000  1.0
  C  C150  1  0.97416000  0.49054000  0.97089000  1.0
  C  C151  1  0.02584000  0.50946000  0.02911000  1.0
  C  C152  1  0.01295000  0.44386000  0.92458000  1.0
  C  C153  1  0.98704000  0.55613000  0.07542000  1.0
  C  C154  1  0.96336000  0.42396000  0.87011000  1.0
  C  C155  1  0.03664000  0.57604000  0.12989000  1.0
  C  C156  1  0.82034000  0.43190000  0.80083000  1.0
  C  C157  1  0.17965000  0.56810000  0.19917000  1.0
  C  C158  1  0.56741000  0.21045000  0.59827000  1.0
  C  C159  1  0.43258000  0.78955000  0.40173000  1.0
  C  C160  1  0.48306000  0.19240000  0.55806000  1.0
  C  C161  1  0.51693000  0.80760000  0.44193000  1.0
  C  C162  1  0.45745000  0.11061000  0.51983000  1.0
  C  C163  1  0.54254000  0.88939000  0.48017000  1.0
  C  C164  1  0.51468000  0.04404000  0.51982000  1.0
  C  C165  1  0.48531000  0.95596000  0.48017000  1.0
  C  C166  1  0.60090000  0.06483000  0.55955000  1.0
  C  C167  1  0.39910000  0.93517000  0.44044000  1.0
  C  C168  1  0.62635000  0.14604000  0.59814000  1.0
  C  C169  1  0.37365000  0.85396000  0.40185000  1.0
  C  C170  1  0.59272000  0.29379000  0.64204000  1.0
  C  C171  1  0.40727000  0.70620000  0.35796000  1.0
  C  C172  1  0.45826000  0.40975000  0.85117000  1.0
  C  C173  1  0.54176000  0.59025000  0.14883000  1.0
  C  C174  1  0.38187000  0.44081000  0.87988000  1.0
  C  C175  1  0.61814000  0.55918000  0.12013000  1.0
  C  C176  1  0.39839000  0.47616000  0.93770000  1.0
  C  C177  1  0.60162000  0.52384000  0.06230000  1.0
  C  C178  1  0.49116000  0.48118000  0.96923000  1.0
  C  C179  1  0.50885000  0.51881000  0.03077000  1.0
  C  C180  1  0.56675000  0.44931000  0.93949000  1.0
  C  C181  1  0.43326000  0.55070000  0.06051000  1.0
  C  C182  1  0.55121000  0.41503000  0.88162000  1.0
  C  C183  1  0.44880000  0.58498000  0.11839000  1.0
  C  C184  1  0.44238000  0.37388000  0.78909000  1.0
  C  C185  1  0.55762000  0.62612000  0.21091000  1.0
  C  C186  1  0.44710000  0.64081000  0.71156000  1.0
  C  C187  1  0.55290000  0.35919000  0.28844000  1.0
  C  C188  1  0.34648000  0.64233000  0.69571000  1.0
  C  C189  1  0.65353000  0.35767000  0.30428000  1.0
  C  C190  1  0.31995000  0.72397000  0.69275000  1.0
  C  C191  1  0.68005000  0.27603000  0.30724000  1.0
  C  C192  1  0.39384000  0.80542000  0.70362000  1.0
  C  C193  1  0.60616000  0.19458000  0.29638000  1.0
  C  C194  1  0.49427000  0.80317000  0.71997000  1.0
  C  C195  1  0.50573000  0.19684000  0.28003000  1.0
  C  C196  1  0.52021000  0.72211000  0.72491000  1.0
  C  C197  1  0.47979000  0.27790000  0.27509000  1.0
  C  C198  1  0.36844000  0.89215000  0.69829000  1.0
  C  C199  1  0.63156000  0.10784000  0.30171000  1.0
  C  C200  1  0.28402000  0.91753000  0.72168000  1.0
  C  C201  1  0.71598000  0.08246000  0.27832000  1.0
  C  C202  1  0.26452000  0.00195000  0.71924000  1.0
  C  C203  1  0.73547000  0.99804000  0.28076000  1.0
  C  C204  1  0.32733000  0.06214000  0.69233000  1.0
  C  C205  1  0.67266000  0.93786000  0.30767000  1.0
  C  C206  1  0.41001000  0.03627000  0.66757000  1.0
  C  C207  1  0.58999000  0.96373000  0.33243000  1.0
  C  C208  1  0.43059000  0.95263000  0.67083000  1.0
  C  C209  1  0.56940000  0.04737000  0.32917000  1.0
  C  C210  1  0.47646000  0.55249000  0.71161000  1.0
  C  C211  1  0.52355000  0.44751000  0.28839000  1.0
  C  C212  1  0.30892000  0.15434000  0.69126000  1.0
  C  C213  1  0.69108000  0.84566000  0.30874000  1.0
  C  C214  1  0.15745000  0.39367000  0.57710000  1.0
  C  C215  1  0.84255000  0.60633000  0.42290000  1.0
  C  C216  1  0.18116000  0.41304000  0.52413000  1.0
  C  C217  1  0.81884000  0.58697000  0.47588000  1.0
  C  C218  1  0.12004000  0.45429000  0.49397000  1.0
  C  C219  1  0.87996000  0.54571000  0.50603000  1.0
  C  C220  1  0.03276000  0.47757000  0.51557000  1.0
  C  C221  1  0.96724000  0.52242000  0.48443000  1.0
  C  C222  1  0.00980000  0.45684000  0.56852000  1.0
  C  C223  1  0.99020000  0.54316000  0.43148000  1.0
  C  C224  1  0.07059000  0.41561000  0.59874000  1.0
  C  C225  1  0.92941000  0.58439000  0.40126000  1.0
  C  C226  1  0.22709000  0.35649000  0.61139000  1.0
  C  C227  1  0.77291000  0.64351000  0.38861000  1.0
  C  C228  1  0.80473000  0.28075000  0.54534000  1.0
  C  C229  1  0.19527000  0.71925000  0.45466000  1.0
  C  C230  1  0.68353000  0.30794000  0.47529000  1.0
  C  C231  1  0.31648000  0.69206000  0.52471000  1.0
  C  C232  1  0.78630000  0.19364000  0.44940000  1.0
  C  C233  1  0.21370000  0.80637000  0.55060000  1.0
  C  C234  1  0.11956000  0.47852000  0.77217000  1.0
  C  C235  1  0.88043000  0.52148000  0.22783000  1.0
  C  C236  1  0.21357000  0.60808000  0.84168000  1.0
  C  C237  1  0.78643000  0.39192000  0.15832000  1.0
  C  C238  1  0.05886000  0.61752000  0.78438000  1.0
  C  C239  1  0.94114000  0.38248000  0.21562000  1.0
  C  C240  1  0.19692000  0.25252000  0.85847000  1.0
  C  C241  1  0.80308000  0.74748000  0.14154000  1.0
  C  C242  1  0.05126000  0.21046000  0.90967000  1.0
  C  C243  1  0.94874000  0.78954000  0.09033000  1.0
  N  N244  1  0.76027000  0.26175000  0.49223000  1.0
  N  N245  1  0.23973000  0.73826000  0.50777000  1.0
  N  N246  1  0.13160000  0.56526000  0.79746000  1.0
  N  N247  1  0.86840000  0.43473000  0.20254000  1.0
  N  N248  1  0.15985000  0.23707000  0.90722000  1.0
  N  N249  1  0.84015000  0.76293000  0.09278000  1.0
  O  O250  1  0.73278000  0.49390000  0.67172000  1.0
  O  O251  1  0.26721000  0.50610000  0.32828000  1.0
  O  O252  1  0.89813000  0.49560000  0.67590000  1.0
  O  O253  1  0.10187000  0.50440000  0.32410000  1.0
  O  O254  1  0.87388000  0.23571000  0.65948000  1.0
  O  O255  1  0.12611000  0.76430000  0.34053000  1.0
  O  O256  1  0.02653000  0.26179000  0.70816000  1.0
  O  O257  1  0.97346000  0.73821000  0.29184000  1.0
  O  O258  1  0.74329000  0.46542000  0.79395000  1.0
  O  O259  1  0.25672000  0.53458000  0.20606000  1.0
  O  O260  1  0.85586000  0.38275000  0.76261000  1.0
  O  O261  1  0.14413000  0.61725000  0.23739000  1.0
  O  O262  1  0.66726000  0.30599000  0.68027000  1.0
  O  O263  1  0.33274000  0.69401000  0.31972000  1.0
  O  O264  1  0.53909000  0.35320000  0.64298000  1.0
  O  O265  1  0.46090000  0.64680000  0.35702000  1.0
  O  O266  1  0.51933000  0.36399000  0.76284000  1.0
  O  O267  1  0.48067000  0.63601000  0.23716000  1.0
  O  O268  1  0.35331000  0.35521000  0.76339000  1.0
  O  O269  1  0.64670000  0.64479000  0.23661000  1.0
  O  O270  1  0.41171000  0.48208000  0.68764000  1.0
  O  O271  1  0.58830000  0.51792000  0.31237000  1.0
  O  O272  1  0.56444000  0.55430000  0.73465000  1.0
  O  O273  1  0.43557000  0.44570000  0.26535000  1.0
  O  O274  1  0.37220000  0.20599000  0.66811000  1.0
  O  O275  1  0.62779000  0.79400000  0.33189000  1.0
  O  O276  1  0.23257000  0.17490000  0.71396000  1.0
  O  O277  1  0.76742000  0.82510000  0.28604000  1.0
  O  O278  1  0.30421000  0.33439000  0.59072000  1.0
  O  O279  1  0.69580000  0.66561000  0.40929000  1.0
  O  O280  1  0.21108000  0.35324000  0.66318000  1.0
  O  O281  1  0.78893000  0.64676000  0.33682000  1.0
  O  O282  1  0.78576000  0.33912000  0.58391000  1.0
  O  O283  1  0.21423000  0.66089000  0.41609000  1.0
  O  O284  1  0.17576000  0.42862000  0.78485000  1.0
  O  O285  1  0.82424000  0.57138000  0.21515000  1.0
  O  O286  1  0.14277000  0.24822000  0.81405000  1.0
  O  O287  1  0.85723000  0.75178000  0.18595000  1.0
