# generated using pymatgen
data_Zn4H11C28S2Br2ClO13
_symmetry_space_group_name_H-M   'P 1'
_cell_length_a   18.54570000
_cell_length_b   19.71800000
_cell_length_c   32.75350000
_cell_angle_alpha   85.97450000
_cell_angle_beta   73.62930000
_cell_angle_gamma   62.07730000
_symmetry_Int_Tables_number   1
_chemical_formula_structural   Zn4H11C28S2Br2ClO13
_chemical_formula_sum   'Zn16 H44 C112 S8 Br8 Cl4 O52'
_cell_volume   10126.96692582
_cell_formula_units_Z   4
loop_
 _symmetry_equiv_pos_site_id
 _symmetry_equiv_pos_as_xyz
  1  'x, y, z'
loop_
 _atom_site_type_symbol
 _atom_site_label
 _atom_site_symmetry_multiplicity
 _atom_site_fract_x
 _atom_site_fract_y
 _atom_site_fract_z
 _atom_site_occupancy
  Zn  Zn0  1  0.87300000  0.55466000  0.51857000  1.0
  Zn  Zn1  1  0.03869000  0.48390000  0.43864000  1.0
  Zn  Zn2  1  0.04385000  0.39843000  0.52362000  1.0
  Zn  Zn3  1  0.04474000  0.56234000  0.51786000  1.0
  Zn  Zn4  1  0.62592000  0.19088000  0.73249000  1.0
  Zn  Zn5  1  0.46424000  0.34993000  0.72535000  1.0
  Zn  Zn6  1  0.45606000  0.26619000  0.81262000  1.0
  Zn  Zn7  1  0.45452000  0.19243000  0.72869000  1.0
  Zn  Zn8  1  0.46207000  0.76429000  0.31279000  1.0
  Zn  Zn9  1  0.45368000  0.69114000  0.23164000  1.0
  Zn  Zn10  1  0.62573000  0.69357000  0.22926000  1.0
  Zn  Zn11  1  0.45660000  0.85139000  0.22623000  1.0
  Zn  Zn12  1  0.03732000  0.89902000  0.02409000  1.0
  Zn  Zn13  1  0.04941000  0.05758000  0.01894000  1.0
  Zn  Zn14  1  0.87602000  0.05847000  0.01971000  1.0
  Zn  Zn15  1  0.03766000  0.98526000  0.93736000  1.0
  H  H16  1  0.80549000  0.96401000  0.65508000  1.0
  H  H17  1  0.31190000  0.97489000  0.40212000  1.0
  H  H18  1  0.81155000  0.24259000  0.65404000  1.0
  H  H19  1  0.54551000  0.48483000  0.62008000  1.0
  H  H20  1  0.55113000  0.52507000  0.66542000  1.0
  H  H21  1  0.65203000  0.56852000  0.61709000  1.0
  H  H22  1  0.64635000  0.52834000  0.57178000  1.0
  H  H23  1  0.29391000  0.60311000  0.29601000  1.0
  H  H24  1  0.34973000  0.67302000  0.43526000  1.0
  H  H25  1  0.25941000  0.76140000  0.43249000  1.0
  H  H26  1  0.16220000  0.71134000  0.47772000  1.0
  H  H27  1  0.25234000  0.62302000  0.48056000  1.0
  H  H28  1  0.80895000  0.60221000  0.29517000  1.0
  H  H29  1  0.54839000  0.76164000  0.43073000  1.0
  H  H30  1  0.54268000  0.67363000  0.43332000  1.0
  H  H31  1  0.64322000  0.62324000  0.47937000  1.0
  H  H32  1  0.64906000  0.71119000  0.47673000  1.0
  H  H33  1  0.30833000  0.45674000  0.64637000  1.0
  H  H34  1  0.32840000  0.18020000  0.62961000  1.0
  H  H35  1  0.23773000  0.22089000  0.67503000  1.0
  H  H36  1  0.14213000  0.27423000  0.62635000  1.0
  H  H37  1  0.23296000  0.23357000  0.58109000  1.0
  H  H38  1  0.18843000  0.65916000  0.96284000  1.0
  H  H39  1  0.69027000  0.14731000  0.95555000  1.0
  H  H40  1  0.95440000  0.07814000  0.81647000  1.0
  H  H41  1  0.94956000  0.98971000  0.81906000  1.0
  H  H42  1  0.84776000  0.03992000  0.77369000  1.0
  H  H43  1  0.85255000  0.12833000  0.77119000  1.0
  H  H44  1  0.19212000  0.05230000  0.84499000  1.0
  H  H45  1  0.17153000  0.21561000  0.97527000  1.0
  H  H46  1  0.26252000  0.12747000  0.97749000  1.0
  H  H47  1  0.35757000  0.17413000  0.92645000  1.0
  H  H48  1  0.26652000  0.26217000  0.92433000  1.0
  H  H49  1  0.92816000  0.28358000  0.09459000  1.0
  H  H50  1  0.19253000  0.79449000  0.10306000  1.0
  H  H51  1  0.26154000  0.03142000  0.07472000  1.0
  H  H52  1  0.17054000  0.07176000  0.12002000  1.0
  H  H53  1  0.26564000  0.01891000  0.16871000  1.0
  H  H54  1  0.35668000  0.97869000  0.12352000  1.0
  H  H55  1  0.69048000  0.00650000  0.09628000  1.0
  H  H56  1  0.95007000  0.72312000  0.08526000  1.0
  H  H57  1  0.95479000  0.76350000  0.13086000  1.0
  H  H58  1  0.85296000  0.72073000  0.17860000  1.0
  H  H59  1  0.84850000  0.67995000  0.13311000  1.0
  C  C60  1  0.86272000  0.56735000  0.43049000  1.0
  C  C61  1  0.12484000  0.31500000  0.43882000  1.0
  C  C62  1  0.86564000  0.42757000  0.56841000  1.0
  C  C63  1  0.13894000  0.43508000  0.56808000  1.0
  C  C64  1  0.87208000  0.68438000  0.56051000  1.0
  C  C65  1  0.13768000  0.56890000  0.43071000  1.0
  C  C66  1  0.63974000  0.31743000  0.68139000  1.0
  C  C67  1  0.37658000  0.43511000  0.81041000  1.0
  C  C68  1  0.63389000  0.18191000  0.82071000  1.0
  C  C69  1  0.36111000  0.18072000  0.81704000  1.0
  C  C70  1  0.62584000  0.06534000  0.68840000  1.0
  C  C71  1  0.36305000  0.31912000  0.68051000  1.0
  C  C72  1  0.36283000  0.68151000  0.32016000  1.0
  C  C73  1  0.62360000  0.56570000  0.18861000  1.0
  C  C74  1  0.63741000  0.68169000  0.31877000  1.0
  C  C75  1  0.63439000  0.82107000  0.18036000  1.0
  C  C76  1  0.37532000  0.93334000  0.31220000  1.0
  C  C77  1  0.36134000  0.81706000  0.18115000  1.0
  C  C78  1  0.13815000  0.93149000  0.06856000  1.0
  C  C79  1  0.88052000  0.18426000  0.06144000  1.0
  C  C80  1  0.86211000  0.93114000  0.06914000  1.0
  C  C81  1  0.86198000  0.06932000  0.93127000  1.0
  C  C82  1  0.12193000  0.81528000  0.93913000  1.0
  C  C83  1  0.13839000  0.06857000  0.93097000  1.0
  C  C84  1  0.73389000  0.80371000  0.60110000  1.0
  C  C85  1  0.76170000  0.94636000  0.64915000  1.0
  C  C86  1  0.82168000  0.75875000  0.58579000  1.0
  C  C87  1  0.67424000  0.99032000  0.66374000  1.0
  C  C88  1  0.78366000  0.87820000  0.62619000  1.0
  C  C89  1  0.71216000  0.87193000  0.62406000  1.0
  C  C90  1  0.20237000  0.22632000  0.36921000  1.0
  C  C91  1  0.29891000  0.02135000  0.38084000  1.0
  C  C92  1  0.17417000  0.24101000  0.41340000  1.0
  C  C93  1  0.32617000  0.00827000  0.33689000  1.0
  C  C94  1  0.25371000  0.10101000  0.39282000  1.0
  C  C95  1  0.24778000  0.14643000  0.35752000  1.0
  C  C96  1  0.69699000  0.34538000  0.65294000  1.0
  C  C97  1  0.81181000  0.39646000  0.59743000  1.0
  C  C98  1  0.66725000  0.41727000  0.63625000  1.0
  C  C99  1  0.84146000  0.32341000  0.61493000  1.0
  C  C100  1  0.72313000  0.44113000  0.60956000  1.0
  C  C101  1  0.78580000  0.29909000  0.64155000  1.0
  C  C102  1  0.58871000  0.49126000  0.63469000  1.0
  C  C103  1  0.65181000  0.51849000  0.60445000  1.0
  C  C104  1  0.30603000  0.65298000  0.34839000  1.0
  C  C105  1  0.19438000  0.59624000  0.40102000  1.0
  C  C106  1  0.27995000  0.66416000  0.39272000  1.0
  C  C107  1  0.22133000  0.58516000  0.35572000  1.0
  C  C108  1  0.22612000  0.63660000  0.41768000  1.0
  C  C109  1  0.27518000  0.61270000  0.33057000  1.0
  C  C110  1  0.28581000  0.69850000  0.43085000  1.0
  C  C111  1  0.22489000  0.66721000  0.45922000  1.0
  C  C112  1  0.69439000  0.65281000  0.34712000  1.0
  C  C113  1  0.80888000  0.59514000  0.40051000  1.0
  C  C114  1  0.66453000  0.66393000  0.39147000  1.0
  C  C115  1  0.83877000  0.58417000  0.35520000  1.0
  C  C116  1  0.72026000  0.63590000  0.41679000  1.0
  C  C117  1  0.78315000  0.61211000  0.32969000  1.0
  C  C118  1  0.58592000  0.69872000  0.42924000  1.0
  C  C119  1  0.64888000  0.66713000  0.45806000  1.0
  C  C120  1  0.30559000  0.34861000  0.65243000  1.0
  C  C121  1  0.19563000  0.40916000  0.59672000  1.0
  C  C122  1  0.27159000  0.30671000  0.63966000  1.0
  C  C123  1  0.23047000  0.45151000  0.61011000  1.0
  C  C124  1  0.21878000  0.33643000  0.61284000  1.0
  C  C125  1  0.28328000  0.42209000  0.63699000  1.0
  C  C126  1  0.26737000  0.23159000  0.64287000  1.0
  C  C127  1  0.20758000  0.26500000  0.61248000  1.0
  C  C128  1  0.29835000  0.58399000  0.82034000  1.0
  C  C129  1  0.20099000  0.66827000  0.92899000  1.0
  C  C130  1  0.32732000  0.51028000  0.83481000  1.0
  C  C131  1  0.17234000  0.74088000  0.91381000  1.0
  C  C132  1  0.24702000  0.61077000  0.89492000  1.0
  C  C133  1  0.25239000  0.64126000  0.85462000  1.0
  C  C134  1  0.80439000  0.09764000  0.90320000  1.0
  C  C135  1  0.68829000  0.15450000  0.85052000  1.0
  C  C136  1  0.83342000  0.08672000  0.85885000  1.0
  C  C137  1  0.65933000  0.16495000  0.89584000  1.0
  C  C138  1  0.77696000  0.11444000  0.83387000  1.0
  C  C139  1  0.71558000  0.13762000  0.92101000  1.0
  C  C140  1  0.91155000  0.05260000  0.82077000  1.0
  C  C141  1  0.84782000  0.08399000  0.79237000  1.0
  C  C142  1  0.19503000  0.09688000  0.90223000  1.0
  C  C143  1  0.30408000  0.15108000  0.84421000  1.0
  C  C144  1  0.22853000  0.13737000  0.91690000  1.0
  C  C145  1  0.26943000  0.10979000  0.82956000  1.0
  C  C146  1  0.28088000  0.16316000  0.88866000  1.0
  C  C147  1  0.21705000  0.08373000  0.85770000  1.0
  C  C148  1  0.23263000  0.17022000  0.95611000  1.0
  C  C149  1  0.29209000  0.19943000  0.92421000  1.0
  C  C150  1  0.64383000  0.44664000  0.14867000  1.0
  C  C151  1  0.86064000  0.30217000  0.10069000  1.0
  C  C152  1  0.67262000  0.49122000  0.16356000  1.0
  C  C153  1  0.83028000  0.25900000  0.08634000  1.0
  C  C154  1  0.79269000  0.37088000  0.12349000  1.0
  C  C155  1  0.71236000  0.37807000  0.12583000  1.0
  C  C156  1  0.19496000  0.90271000  0.09692000  1.0
  C  C157  1  0.30449000  0.84297000  0.15270000  1.0
  C  C158  1  0.22824000  0.94514000  0.10983000  1.0
  C  C159  1  0.27023000  0.80009000  0.13928000  1.0
  C  C160  1  0.28079000  0.91581000  0.13674000  1.0
  C  C161  1  0.21744000  0.82929000  0.11240000  1.0
  C  C162  1  0.23178000  0.02056000  0.10680000  1.0
  C  C163  1  0.29137000  0.98752000  0.13730000  1.0
  C  C164  1  0.80466000  0.90312000  0.09733000  1.0
  C  C165  1  0.68880000  0.85220000  0.15194000  1.0
  C  C166  1  0.83383000  0.83113000  0.11393000  1.0
  C  C167  1  0.65972000  0.92549000  0.13471000  1.0
  C  C168  1  0.77745000  0.80739000  0.14023000  1.0
  C  C169  1  0.71586000  0.94976000  0.10853000  1.0
  C  C170  1  0.91200000  0.75711000  0.11591000  1.0
  C  C171  1  0.84835000  0.73012000  0.14579000  1.0
  S  S172  1  0.87721000  0.80013000  0.59970000  1.0
  S  S173  1  0.61814000  0.94959000  0.64995000  1.0
  S  S174  1  0.20344000  0.15708000  0.44031000  1.0
  S  S175  1  0.29748000  0.09179000  0.30978000  1.0
  S  S176  1  0.29836000  0.51155000  0.89031000  1.0
  S  S177  1  0.20097000  0.74014000  0.85842000  1.0
  S  S178  1  0.78329000  0.44903000  0.14939000  1.0
  S  S179  1  0.71987000  0.30097000  0.10023000  1.0
  Br  Br180  1  0.95897000  0.25051000  0.60462000  1.0
  Br  Br181  1  0.18678000  0.53389000  0.32404000  1.0
  Br  Br182  1  0.95608000  0.53124000  0.32388000  1.0
  Br  Br183  1  0.21049000  0.55201000  0.59304000  1.0
  Br  Br184  1  0.54206000  0.21633000  0.92756000  1.0
  Br  Br185  1  0.28857000  0.08612000  0.77070000  1.0
  Br  Br186  1  0.29032000  0.69972000  0.15636000  1.0
  Br  Br187  1  0.54246000  0.99881000  0.14477000  1.0
  Cl  Cl188  1  0.65811000  0.78308000  0.59421000  1.0
  Cl  Cl189  1  0.18727000  0.29264000  0.33186000  1.0
  Cl  Cl190  1  0.31312000  0.60716000  0.76848000  1.0
  Cl  Cl191  1  0.54061000  0.46793000  0.15546000  1.0
  O  O192  1  0.99821000  0.50068000  0.50105000  1.0
  O  O193  1  0.82279000  0.58179000  0.47032000  1.0
  O  O194  1  0.10103000  0.37538000  0.41843000  1.0
  O  O195  1  0.94587000  0.38623000  0.55810000  1.0
  O  O196  1  0.94289000  0.53193000  0.41461000  1.0
  O  O197  1  0.82493000  0.49471000  0.55622000  1.0
  O  O198  1  0.11004000  0.31201000  0.47941000  1.0
  O  O199  1  0.11826000  0.38565000  0.55900000  1.0
  O  O200  1  0.95291000  0.65827000  0.55058000  1.0
  O  O201  1  0.11571000  0.50233000  0.55510000  1.0
  O  O202  1  0.83215000  0.65295000  0.55085000  1.0
  O  O203  1  0.11777000  0.52502000  0.41515000  1.0
  O  O204  1  0.11404000  0.59185000  0.47014000  1.0
  O  O205  1  0.50100000  0.24959000  0.75000000  1.0
  O  O206  1  0.67446000  0.25082000  0.69505000  1.0
  O  O207  1  0.40001000  0.43498000  0.76990000  1.0
  O  O208  1  0.55379000  0.22032000  0.83624000  1.0
  O  O209  1  0.56011000  0.36346000  0.68956000  1.0
  O  O210  1  0.67418000  0.16386000  0.78104000  1.0
  O  O211  1  0.39139000  0.37617000  0.83247000  1.0
  O  O212  1  0.38013000  0.22092000  0.83694000  1.0
  O  O213  1  0.54488000  0.09584000  0.69651000  1.0
  O  O214  1  0.38668000  0.16393000  0.77708000  1.0
  O  O215  1  0.66807000  0.09314000  0.69935000  1.0
  O  O216  1  0.38877000  0.36378000  0.69035000  1.0
  O  O217  1  0.38176000  0.25111000  0.69222000  1.0
  O  O218  1  0.50077000  0.75039000  0.25025000  1.0
  O  O219  1  0.38725000  0.71852000  0.33866000  1.0
  O  O220  1  0.54292000  0.59400000  0.20001000  1.0
  O  O221  1  0.67243000  0.66798000  0.27864000  1.0
  O  O222  1  0.38207000  0.66666667  0.28009000  1.0
  O  O223  1  0.55780000  0.71798000  0.33762000  1.0
  O  O224  1  0.66695000  0.59539000  0.19680000  1.0
  O  O225  1  0.67445000  0.75300000  0.19167000  1.0
  O  O226  1  0.39220000  0.93525000  0.27160000  1.0
  O  O227  1  0.55424000  0.86320000  0.19110000  1.0
  O  O228  1  0.39649000  0.87363000  0.33342000  1.0
  O  O229  1  0.38692000  0.74879000  0.19275000  1.0
  O  O230  1  0.38023000  0.86696000  0.19148000  1.0
  O  O231  1  0.00075000  0.99999000  0.99997000  1.0
  O  O232  1  0.11197000  0.88681000  0.05920000  1.0
  O  O233  1  0.96137000  0.15534000  0.05154000  1.0
  O  O234  1  0.82735000  0.99902000  0.05696000  1.0
  O  O235  1  0.12057000  0.99890000  0.05614000  1.0
  O  O236  1  0.94170000  0.88430000  0.05957000  1.0
  O  O237  1  0.83790000  0.15513000  0.05197000  1.0
  O  O238  1  0.82722000  0.08491000  0.97135000  1.0
  O  O239  1  0.10224000  0.87529000  0.91791000  1.0
  O  O240  1  0.94156000  0.03164000  0.91253000  1.0
  O  O241  1  0.10245000  0.81328000  0.97965000  1.0
  O  O242  1  0.12059000  0.08409000  0.97090000  1.0
  O  O243  1  0.11256000  0.03169000  0.91343000  1.0
