# generated using pymatgen
data_CdH19C23(NO)4
_symmetry_space_group_name_H-M   'P 1'
_cell_length_a   9.81774000
_cell_length_b   10.15970000
_cell_length_c   10.95500000
_cell_angle_alpha   70.49040000
_cell_angle_beta   77.05730000
_cell_angle_gamma   84.74920000
_symmetry_Int_Tables_number   1
_chemical_formula_structural   CdH19C23(NO)4
_chemical_formula_sum   'Cd2 H38 C46 N8 O8'
_cell_volume   1003.63925648
_cell_formula_units_Z   2
loop_
 _symmetry_equiv_pos_site_id
 _symmetry_equiv_pos_as_xyz
  1  'x, y, z'
loop_
 _atom_site_type_symbol
 _atom_site_label
 _atom_site_symmetry_multiplicity
 _atom_site_fract_x
 _atom_site_fract_y
 _atom_site_fract_z
 _atom_site_occupancy
  Cd  Cd0  1  0.10069000  0.51532000  0.83253000  1.0
  Cd  Cd1  1  0.89931000  0.48468000  0.16747000  1.0
  H  H2  1  0.15862000  0.59786000  0.44960000  1.0
  H  H3  1  0.84138000  0.40214000  0.55040000  1.0
  H  H4  1  0.41257000  0.29545000  0.68965000  1.0
  H  H5  1  0.58743000  0.70455000  0.31035000  1.0
  H  H6  1  0.18049000  0.02123000  0.79591000  1.0
  H  H7  1  0.81951000  0.97877000  0.20409000  1.0
  H  H8  1  0.22216000  0.18580000  0.41721000  1.0
  H  H9  1  0.77784000  0.81420000  0.58279000  1.0
  H  H10  1  0.43321000  0.65886000  0.69558000  1.0
  H  H11  1  0.56679000  0.34114000  0.30442000  1.0
  H  H12  1  0.51939000  0.53348000  0.62344000  1.0
  H  H13  1  0.48061000  0.46652000  0.37656000  1.0
  H  H14  1  0.64884000  0.42979000  0.79862000  1.0
  H  H15  1  0.35116000  0.57021000  0.20138000  1.0
  H  H16  1  0.19197000  0.30804000  0.10000000  1.0
  H  H17  1  0.80803000  0.69196000  0.90000000  1.0
  H  H18  1  0.89333000  0.76990000  0.13293000  1.0
  H  H19  1  0.10667000  0.23010000  0.86706000  1.0
  H  H20  1  0.44706000  0.91925000  0.72871000  1.0
  H  H21  1  0.55294000  0.08075000  0.27129000  1.0
  H  H22  1  0.39693000  0.06045000  0.78846000  1.0
  H  H23  1  0.60307000  0.93955000  0.21154000  1.0
  H  H24  1  0.64262000  0.28038000  0.03474000  1.0
  H  H25  1  0.35738000  0.71962000  0.96526000  1.0
  H  H26  1  0.40722000  0.22092000  0.18868000  1.0
  H  H27  1  0.59278000  0.77908000  0.81132000  1.0
  H  H28  1  0.58901000  0.09371000  0.86702000  1.0
  H  H29  1  0.41099000  0.90629000  0.13298000  1.0
  H  H30  1  0.88464000  0.11231000  0.43615000  1.0
  H  H31  1  0.11536000  0.88769000  0.56385000  1.0
  H  H32  1  0.84288000  0.14899000  0.82362000  1.0
  H  H33  1  0.15712000  0.85101000  0.17638000  1.0
  H  H34  1  0.99412000  0.15728000  0.60329000  1.0
  H  H35  1  0.00588000  0.84272000  0.39671000  1.0
  H  H36  1  0.36153000  0.02352000  0.54613000  1.0
  H  H37  1  0.63847000  0.97648000  0.45387000  1.0
  H  H38  1  0.27401000  0.65310000  0.58680000  1.0
  H  H39  1  0.72599000  0.34690000  0.41320000  1.0
  C  C40  1  0.08915000  0.42961000  0.32674000  1.0
  C  C41  1  0.91085000  0.57039000  0.67326000  1.0
  C  C42  1  0.18450000  0.39526000  0.42306000  1.0
  C  C43  1  0.81550000  0.60474000  0.57694000  1.0
  C  C44  1  0.04316000  0.88256000  0.95966000  1.0
  C  C45  1  0.95684000  0.11744000  0.04034000  1.0
  C  C46  1  0.28738000  0.45651000  0.57676000  1.0
  C  C47  1  0.71262000  0.54349000  0.42324000  1.0
  C  C48  1  0.09240000  0.75972000  0.91357000  1.0
  C  C49  1  0.90760000  0.24028000  0.08643000  1.0
  C  C50  1  0.32776000  0.22329000  0.55680000  1.0
  C  C51  1  0.67224000  0.77671000  0.44320000  1.0
  C  C52  1  0.20723000  0.49457000  0.47902000  1.0
  C  C53  1  0.79277000  0.50543000  0.52098000  1.0
  C  C54  1  0.34860000  0.32278000  0.61514000  1.0
  C  C55  1  0.65140000  0.67722000  0.38486000  1.0
  C  C56  1  0.42382000  0.45130000  0.82864000  1.0
  C  C57  1  0.57618000  0.54870000  0.17136000  1.0
  C  C58  1  0.10291000  0.01296000  0.88623000  1.0
  C  C59  1  0.89709000  0.98704000  0.11377000  1.0
  C  C60  1  0.24390000  0.26169000  0.46055000  1.0
  C  C61  1  0.75610000  0.73832000  0.53945000  1.0
  C  C62  1  0.42506000  0.55323000  0.69141000  1.0
  C  C63  1  0.57494000  0.44677000  0.30859000  1.0
  C  C64  1  0.54974000  0.40179000  0.86898000  1.0
  C  C65  1  0.45026000  0.59820000  0.13102000  1.0
  C  C66  1  0.60538000  0.07297000  0.67434000  1.0
  C  C67  1  0.39461000  0.92703000  0.32565000  1.0
  C  C68  1  0.29550000  0.33316000  0.03734000  1.0
  C  C69  1  0.70450000  0.66684000  0.96266000  1.0
  C  C70  1  0.93917000  0.87076000  0.07370000  1.0
  C  C71  1  0.06084000  0.12924000  0.92630000  1.0
  C  C72  1  0.45345000  0.03345000  0.70053000  1.0
  C  C73  1  0.54655000  0.96655000  0.29947000  1.0
  C  C74  1  0.54612000  0.31775000  0.99947000  1.0
  C  C75  1  0.45388000  0.68225000  0.00053000  1.0
  C  C76  1  0.41644000  0.28409000  0.08527000  1.0
  C  C77  1  0.58356000  0.71591000  0.91473000  1.0
  C  C78  1  0.65848000  0.09708000  0.77309000  1.0
  C  C79  1  0.34152000  0.90292000  0.22691000  1.0
  C  C80  1  0.82280000  0.10686000  0.53385000  1.0
  C  C81  1  0.17720000  0.89314000  0.46615000  1.0
  C  C82  1  0.79954000  0.12698000  0.74945000  1.0
  C  C83  1  0.20046000  0.87303000  0.25054000  1.0
  C  C84  1  0.88386000  0.13163000  0.62736000  1.0
  C  C85  1  0.11614000  0.86838000  0.37264000  1.0
  N  N86  1  0.29980000  0.41534000  0.91151000  1.0
  N  N87  1  0.70020000  0.58466000  0.08849000  1.0
  N  N88  1  0.29878000  0.55436000  0.64102000  1.0
  N  N89  1  0.70122000  0.44564000  0.35897000  1.0
  N  N90  1  0.38338000  0.09073000  0.59190000  1.0
  N  N91  1  0.61663000  0.90927000  0.40810000  1.0
  N  N92  1  0.68644000  0.07820000  0.55619000  1.0
  N  N93  1  0.31355000  0.92180000  0.44381000  1.0
  O  O94  1  0.06209000  0.55718000  0.26612000  1.0
  O  O95  1  0.93791000  0.44282000  0.73388000  1.0
  O  O96  1  0.03525000  0.32815000  0.31059000  1.0
  O  O97  1  0.96475000  0.67185000  0.68941000  1.0
  O  O98  1  0.01950000  0.64710000  0.96922000  1.0
  O  O99  1  0.98050000  0.35289000  0.03078000  1.0
  O  O100  1  0.19856000  0.76881000  0.82252000  1.0
  O  O101  1  0.80144000  0.23119000  0.17748000  1.0
