# generated using pymatgen
data_Zn4C40Br4Cl16O13
_symmetry_space_group_name_H-M   'P 1'
_cell_length_a   24.00392572
_cell_length_b   24.00430000
_cell_length_c   24.00240000
_cell_angle_alpha   66.55920000
_cell_angle_beta   72.47300463
_cell_angle_gamma   107.52274366
_symmetry_Int_Tables_number   1
_chemical_formula_structural   Zn4C40Br4Cl16O13
_chemical_formula_sum   'Zn8 C80 Br8 Cl32 O26'
_cell_volume   10607.51518604
_cell_formula_units_Z   2
loop_
 _symmetry_equiv_pos_site_id
 _symmetry_equiv_pos_as_xyz
  1  'x, y, z'
loop_
 _atom_site_type_symbol
 _atom_site_label
 _atom_site_symmetry_multiplicity
 _atom_site_fract_x
 _atom_site_fract_y
 _atom_site_fract_z
 _atom_site_occupancy
  Zn  Zn0  1  0.05681000  0.09916000  0.45764000  1.0
  Zn  Zn1  1  0.05681000  0.95765000  0.48554000  1.0
  Zn  Zn2  1  0.94319000  0.95765000  0.59916000  1.0
  Zn  Zn3  1  0.94320000  0.98555000  0.45764000  1.0
  Zn  Zn4  1  0.94319000  0.40084000  0.04236000  1.0
  Zn  Zn5  1  0.05682000  0.54236000  0.90083000  1.0
  Zn  Zn6  1  0.94319000  0.54235000  0.01446000  1.0
  Zn  Zn7  1  0.05680000  0.51445000  0.04236000  1.0
  C  C8  1  0.18099000  0.09048000  0.40950000  1.0
  C  C9  1  1.00000000  0.86315000  0.63684000  1.0
  C  C10  1  0.99999000  0.09048000  0.59050000  1.0
  C  C11  1  0.81902000  0.90952000  0.59047000  1.0
  C  C12  1  0.00001000  0.13685000  0.36314000  1.0
  C  C13  1  0.00000000  0.90951000  0.40950000  1.0
  C  C14  1  1.00000000  0.40952000  0.90950000  1.0
  C  C15  1  0.00000000  0.63685000  0.86315000  1.0
  C  C16  1  0.81901000  0.40952000  0.09051000  1.0
  C  C17  1  0.99999000  0.59050000  0.09049000  1.0
  C  C18  1  0.00000000  0.36316000  0.13685000  1.0
  C  C19  1  0.18099000  0.59050000  0.90952000  1.0
  C  C20  1  0.00000000  0.19491000  0.30509000  1.0
  C  C21  1  1.00000000  0.30509000  0.19491000  1.0
  C  C22  1  0.95722000  0.18032000  0.27690000  1.0
  C  C23  1  0.04278000  0.31968000  0.22310000  1.0
  C  C24  1  0.95722000  0.23412000  0.22310000  1.0
  C  C25  1  0.04278000  0.26588000  0.27690000  1.0
  C  C26  1  0.00000000  0.80509000  0.69491000  1.0
  C  C27  1  0.00001000  0.69491000  0.80508000  1.0
  C  C28  1  0.95722000  0.77690000  0.76588000  1.0
  C  C29  1  0.04278000  0.72310000  0.73412000  1.0
  C  C30  1  0.95722000  0.72309000  0.81969000  1.0
  C  C31  1  0.04278000  0.77690000  0.68031000  1.0
  C  C32  1  0.00000000  0.37179000  0.87177000  1.0
  C  C33  1  0.95684000  0.29906000  0.90765000  1.0
  C  C34  1  0.95716000  0.26439000  0.87223000  1.0
  C  C35  1  0.99999000  0.30028000  0.80027000  1.0
  C  C36  1  0.04282000  0.37223000  0.76438000  1.0
  C  C37  1  0.04316000  0.40766000  0.79903000  1.0
  C  C38  1  0.99999000  0.26521000  0.76519000  1.0
  C  C39  1  0.99998000  0.23480000  0.73479000  1.0
  C  C40  1  0.99997000  0.19972000  0.69973000  1.0
  C  C41  1  0.95716000  0.12778000  0.73562000  1.0
  C  C42  1  0.95683000  0.09234000  0.70097000  1.0
  C  C43  1  0.99998000  0.12822000  0.62822000  1.0
  C  C44  1  0.04312000  0.20096000  0.59233000  1.0
  C  C45  1  0.04278000  0.23561000  0.62777000  1.0
  C  C46  1  0.00000000  0.62824000  0.12820000  1.0
  C  C47  1  0.04317000  0.63553000  0.15777000  1.0
  C  C48  1  0.04284000  0.67064000  0.19275000  1.0
  C  C49  1  0.00000000  0.69974000  0.19971000  1.0
  C  C50  1  0.95717000  0.69280000  0.17059000  1.0
  C  C51  1  0.95684000  0.65781000  0.13548000  1.0
  C  C52  1  0.00000000  0.73481000  0.23479000  1.0
  C  C53  1  0.99999000  0.76520000  0.26520000  1.0
  C  C54  1  0.99998000  0.80026000  0.30029000  1.0
  C  C55  1  0.04279000  0.80717000  0.32943000  1.0
  C  C56  1  0.04312000  0.84216000  0.36454000  1.0
  C  C57  1  0.99998000  0.87176000  0.37179000  1.0
  C  C58  1  0.95683000  0.86449000  0.34221000  1.0
  C  C59  1  0.95716000  0.82939000  0.30722000  1.0
  C  C60  1  0.74356000  0.37179000  0.12822000  1.0
  C  C61  1  0.70670000  0.29905000  0.15781000  1.0
  C  C62  1  0.63661000  0.26439000  0.19281000  1.0
  C  C63  1  0.60055000  0.30028000  0.19974000  1.0
  C  C64  1  0.63661000  0.37223000  0.17060000  1.0
  C  C65  1  0.70670000  0.40767000  0.13549000  1.0
  C  C66  1  0.53040000  0.26520000  0.23482000  1.0
  C  C67  1  0.46960000  0.23479000  0.26522000  1.0
  C  C68  1  0.39945000  0.19971000  0.30031000  1.0
  C  C69  1  0.36339000  0.12776000  0.32943000  1.0
  C  C70  1  0.29330000  0.09233000  0.36453000  1.0
  C  C71  1  0.25645000  0.12821000  0.37180000  1.0
  C  C72  1  0.29330000  0.20094000  0.34224000  1.0
  C  C73  1  0.36339000  0.23560000  0.30725000  1.0
  C  C74  1  0.25644000  0.62823000  0.87180000  1.0
  C  C75  1  0.29331000  0.65784000  0.79904000  1.0
  C  C76  1  0.36340000  0.69284000  0.76438000  1.0
  C  C77  1  0.39945000  0.69975000  0.80029000  1.0
  C  C78  1  0.36339000  0.67060000  0.87224000  1.0
  C  C79  1  0.29329000  0.63549000  0.90769000  1.0
  C  C80  1  0.46960000  0.73482000  0.76520000  1.0
  C  C81  1  0.53040000  0.76522000  0.73479000  1.0
  C  C82  1  0.60055000  0.80030000  0.69971000  1.0
  C  C83  1  0.63662000  0.82943000  0.62775000  1.0
  C  C84  1  0.70671000  0.86452000  0.59232000  1.0
  C  C85  1  0.74356000  0.87180000  0.62820000  1.0
  C  C86  1  0.70669000  0.84222000  0.70095000  1.0
  C  C87  1  0.63661000  0.80724000  0.73560000  1.0
  Br  Br88  1  0.89696000  0.08820000  0.30877000  1.0
  Br  Br89  1  0.10305000  0.41181000  0.19122000  1.0
  Br  Br90  1  0.89695000  0.20572000  0.19124000  1.0
  Br  Br91  1  0.10305000  0.29427000  0.30876000  1.0
  Br  Br92  1  0.89696000  0.80876000  0.79429000  1.0
  Br  Br93  1  0.10305000  0.69125000  0.70569000  1.0
  Br  Br94  1  0.89696000  0.69122000  0.91183000  1.0
  Br  Br95  1  0.10304000  0.80878000  0.58817000  1.0
  Cl  Cl96  1  0.90179000  0.24771000  0.99491000  1.0
  Cl  Cl97  1  0.09820000  0.49490000  0.74768000  1.0
  Cl  Cl98  1  0.09434000  0.41482000  0.67718000  1.0
  Cl  Cl99  1  0.90564000  0.17720000  0.91484000  1.0
  Cl  Cl100  1  0.90566000  0.08517000  0.82283000  1.0
  Cl  Cl101  1  0.09429000  0.32281000  0.58515000  1.0
  Cl  Cl102  1  0.09812000  0.25230000  0.50508000  1.0
  Cl  Cl103  1  0.90180000  0.00510000  0.75232000  1.0
  Cl  Cl104  1  0.09823000  0.60336000  0.15404000  1.0
  Cl  Cl105  1  0.90182000  0.65413000  0.10327000  1.0
  Cl  Cl106  1  0.90565000  0.72847000  0.17951000  1.0
  Cl  Cl107  1  0.09436000  0.67956000  0.22842000  1.0
  Cl  Cl108  1  0.09429000  0.77148000  0.32053000  1.0
  Cl  Cl109  1  0.90566000  0.82050000  0.27152000  1.0
  Cl  Cl110  1  0.90179000  0.89669000  0.34591000  1.0
  Cl  Cl111  1  0.09812000  0.84581000  0.39678000  1.0
  Cl  Cl112  1  0.74260000  0.24771000  0.15413000  1.0
  Cl  Cl113  1  0.74259000  0.49490000  0.10327000  1.0
  Cl  Cl114  1  0.59201000  0.41483000  0.17950000  1.0
  Cl  Cl115  1  0.59202000  0.17719000  0.22850000  1.0
  Cl  Cl116  1  0.40799000  0.08517000  0.32050000  1.0
  Cl  Cl117  1  0.40798000  0.32279000  0.27159000  1.0
  Cl  Cl118  1  0.25740000  0.25227000  0.34598000  1.0
  Cl  Cl119  1  0.25741000  0.00510000  0.39674000  1.0
  Cl  Cl120  1  0.25742000  0.65418000  0.74769000  1.0
  Cl  Cl121  1  0.25739000  0.60327000  0.99493000  1.0
  Cl  Cl122  1  0.40797000  0.67949000  0.91486000  1.0
  Cl  Cl123  1  0.40799000  0.72853000  0.67718000  1.0
  Cl  Cl124  1  0.59203000  0.82051000  0.58514000  1.0
  Cl  Cl125  1  0.59201000  0.77156000  0.82280000  1.0
  Cl  Cl126  1  0.74259000  0.84593000  0.75229000  1.0
  Cl  Cl127  1  0.74261000  0.89673000  0.50507000  1.0
  O  O128  1  0.00000000  0.00000000  0.50000000  1.0
  O  O129  1  0.15159000  0.12579000  0.41416000  1.0
  O  O130  1  0.03949000  0.88567000  0.57485000  1.0
  O  O131  1  0.96001000  0.02579000  0.62579000  1.0
  O  O132  1  0.15159000  0.02579000  0.43421000  1.0
  O  O133  1  0.03999000  0.12577000  0.52581000  1.0
  O  O134  1  0.96050000  0.88565000  0.65383000  1.0
  O  O135  1  0.84841000  0.91418000  0.62578000  1.0
  O  O136  1  0.96053000  0.07486000  0.38565000  1.0
  O  O137  1  0.84842000  0.93424000  0.52578000  1.0
  O  O138  1  0.03948000  0.15382000  0.38567000  1.0
  O  O139  1  0.03998000  0.91420000  0.43421000  1.0
  O  O140  1  0.96002000  0.93423000  0.41419000  1.0
  O  O141  1  0.00000000  0.50000000  0.00000000  1.0
  O  O142  1  0.96003000  0.37423000  0.97419000  1.0
  O  O143  1  0.03951000  0.61435000  0.84616000  1.0
  O  O144  1  0.84841000  0.47420000  0.06580000  1.0
  O  O145  1  0.03998000  0.47422000  0.87419000  1.0
  O  O146  1  0.84842000  0.37423000  0.08581000  1.0
  O  O147  1  0.96051000  0.61433000  0.92515000  1.0
  O  O148  1  0.96002000  0.58582000  0.06577000  1.0
  O  O149  1  0.03947000  0.42514000  0.11435000  1.0
  O  O150  1  0.03995000  0.56576000  0.08583000  1.0
  O  O151  1  0.96051000  0.34617000  0.11434000  1.0
  O  O152  1  0.15159000  0.58580000  0.87423000  1.0
  O  O153  1  0.15158000  0.56579000  0.97422000  1.0
