# generated using pymatgen
data_Cu2H36C28N6O7
_symmetry_space_group_name_H-M   'P 1'
_cell_length_a   13.41470000
_cell_length_b   14.34280000
_cell_length_c   16.09540000
_cell_angle_alpha   90.00000000
_cell_angle_beta   90.00010000
_cell_angle_gamma   89.99990000
_symmetry_Int_Tables_number   1
_chemical_formula_structural   Cu2H36C28N6O7
_chemical_formula_sum   'Cu8 H144 C112 N24 O28'
_cell_volume   3096.82512241
_cell_formula_units_Z   4
loop_
 _symmetry_equiv_pos_site_id
 _symmetry_equiv_pos_as_xyz
  1  'x, y, z'
loop_
 _atom_site_type_symbol
 _atom_site_label
 _atom_site_symmetry_multiplicity
 _atom_site_fract_x
 _atom_site_fract_y
 _atom_site_fract_z
 _atom_site_occupancy
  Cu  Cu0  1  0.70874000  0.79286000  0.66091000  1.0
  Cu  Cu1  1  0.79126000  0.20714000  0.16091000  1.0
  Cu  Cu2  1  0.20874000  0.70714000  0.33909000  1.0
  Cu  Cu3  1  0.29126000  0.29286000  0.83909000  1.0
  Cu  Cu4  1  0.43460000  0.54291000  0.58795000  1.0
  Cu  Cu5  1  0.06541000  0.45709000  0.08795000  1.0
  Cu  Cu6  1  0.93460000  0.95709000  0.41204000  1.0
  Cu  Cu7  1  0.56540000  0.04291000  0.91205000  1.0
  H  H8  1  0.78224000  0.12114000  0.33028000  1.0
  H  H9  1  0.71776000  0.87886000  0.83029000  1.0
  H  H10  1  0.28224000  0.37886000  0.66972000  1.0
  H  H11  1  0.21776000  0.62114000  0.16971000  1.0
  H  H12  1  0.36391000  0.55454000  0.41531000  1.0
  H  H13  1  0.13609000  0.44546000  0.91531000  1.0
  H  H14  1  0.86391000  0.94546000  0.58469000  1.0
  H  H15  1  0.63609000  0.05454000  0.08469000  1.0
  H  H16  1  0.49035000  0.84586000  0.47464000  1.0
  H  H17  1  0.00965000  0.15415000  0.97464000  1.0
  H  H18  1  0.99035000  0.65414000  0.52536000  1.0
  H  H19  1  0.50965000  0.34586000  0.02536000  1.0
  H  H20  1  0.57741000  0.91540000  0.41741000  1.0
  H  H21  1  0.92260000  0.08460000  0.91740000  1.0
  H  H22  1  0.07741000  0.58460000  0.58259000  1.0
  H  H23  1  0.42260000  0.41541000  0.08260000  1.0
  H  H24  1  0.56599000  0.92918000  0.52756000  1.0
  H  H25  1  0.93401000  0.07083000  0.02756000  1.0
  H  H26  1  0.06599000  0.57082000  0.47244000  1.0
  H  H27  1  0.43402000  0.42918000  0.97244000  1.0
  H  H28  1  0.64541000  0.75403000  0.43859000  1.0
  H  H29  1  0.85458000  0.24598000  0.93859000  1.0
  H  H30  1  0.14541000  0.74597000  0.56141000  1.0
  H  H31  1  0.35459000  0.25403000  0.06141000  1.0
  H  H32  1  0.52687000  0.54811000  0.80255000  1.0
  H  H33  1  0.97313000  0.45189000  0.30255000  1.0
  H  H34  1  0.02687000  0.95189000  0.19745000  1.0
  H  H35  1  0.47313000  0.04811000  0.69745000  1.0
  H  H36  1  0.44035000  0.69761000  0.82789000  1.0
  H  H37  1  0.05965000  0.30239000  0.32789000  1.0
  H  H38  1  0.94036000  0.80239000  0.17211000  1.0
  H  H39  1  0.55964000  0.19761000  0.67211000  1.0
  H  H40  1  0.37087000  0.60354000  0.87199000  1.0
  H  H41  1  0.12913000  0.39646000  0.37199000  1.0
  H  H42  1  0.87087000  0.89646000  0.12802000  1.0
  H  H43  1  0.62913000  0.10354000  0.62802000  1.0
  H  H44  1  0.33139000  0.65527000  0.77659000  1.0
  H  H45  1  0.16861000  0.34473000  0.27659000  1.0
  H  H46  1  0.83139000  0.84473000  0.22342000  1.0
  H  H47  1  0.66861000  0.15528000  0.72342000  1.0
  H  H48  1  0.68975000  0.06392000  0.46245000  1.0
  H  H49  1  0.81026000  0.93608000  0.96245000  1.0
  H  H50  1  0.18974000  0.43608000  0.53755000  1.0
  H  H51  1  0.31026000  0.56392000  0.03755000  1.0
  H  H52  1  0.57077000  0.11243000  0.48657000  1.0
  H  H53  1  0.92923000  0.88757000  0.98657000  1.0
  H  H54  1  0.07077000  0.38757000  0.51343000  1.0
  H  H55  1  0.42923000  0.61243000  0.01343000  1.0
  H  H56  1  0.68082000  0.17712000  0.50627000  1.0
  H  H57  1  0.81918000  0.82288000  0.00627000  1.0
  H  H58  1  0.18082000  0.32288000  0.49373000  1.0
  H  H59  1  0.31918000  0.67712000  0.99373000  1.0
  H  H60  1  0.60141000  0.27610000  0.12862000  1.0
  H  H61  1  0.89859000  0.72390000  0.62862000  1.0
  H  H62  1  0.10142000  0.22390000  0.87138000  1.0
  H  H63  1  0.39859000  0.77610000  0.37137000  1.0
  H  H64  1  0.55871000  0.36504000  0.19744000  1.0
  H  H65  1  0.94129000  0.63496000  0.69745000  1.0
  H  H66  1  0.05871000  0.13496000  0.80255000  1.0
  H  H67  1  0.44129000  0.86504000  0.30255000  1.0
  H  H68  1  0.48209000  0.26713000  0.17536000  1.0
  H  H69  1  0.01791000  0.73287000  0.67536000  1.0
  H  H70  1  0.98209000  0.23287000  0.82464000  1.0
  H  H71  1  0.51791000  0.76713000  0.32464000  1.0
  H  H72  1  0.44071000  0.19746000  0.41495000  1.0
  H  H73  1  0.05929000  0.80254000  0.91496000  1.0
  H  H74  1  0.94071000  0.30254000  0.58504000  1.0
  H  H75  1  0.55929000  0.69746000  0.08504000  1.0
  H  H76  1  0.41113000  0.23647000  0.31455000  1.0
  H  H77  1  0.08887000  0.76353000  0.81455000  1.0
  H  H78  1  0.91113000  0.26353000  0.68545000  1.0
  H  H79  1  0.58887000  0.73647000  0.18545000  1.0
  H  H80  1  0.50110000  0.35408000  0.61044000  1.0
  H  H81  1  0.99890000  0.64592000  0.11044000  1.0
  H  H82  1  0.00110000  0.14593000  0.38956000  1.0
  H  H83  1  0.49890000  0.85408000  0.88956000  1.0
  H  H84  1  0.59408000  0.31227000  0.54082000  1.0
  H  H85  1  0.90592000  0.68773000  0.04081000  1.0
  H  H86  1  0.09408000  0.18773000  0.45919000  1.0
  H  H87  1  0.40592000  0.81227000  0.95919000  1.0
  H  H88  1  0.48087000  0.24901000  0.55470000  1.0
  H  H89  1  0.01913000  0.75099000  0.05470000  1.0
  H  H90  1  0.98087000  0.25099000  0.44530000  1.0
  H  H91  1  0.51913000  0.74901000  0.94530000  1.0
  H  H92  1  0.35343000  0.37165000  0.24128000  1.0
  H  H93  1  0.14658000  0.62835000  0.74128000  1.0
  H  H94  1  0.85342000  0.12835000  0.75873000  1.0
  H  H95  1  0.64658000  0.87165000  0.25873000  1.0
  H  H96  1  0.42264000  0.47676000  0.23686000  1.0
  H  H97  1  0.07737000  0.52324000  0.73686000  1.0
  H  H98  1  0.92263000  0.02324000  0.76314000  1.0
  H  H99  1  0.57737000  0.97676000  0.26314000  1.0
  H  H100  1  0.29867000  0.47818000  0.27427000  1.0
  H  H101  1  0.20134000  0.52182000  0.77428000  1.0
  H  H102  1  0.79866000  0.02182000  0.72572000  1.0
  H  H103  1  0.70134000  0.97818000  0.22572000  1.0
  H  H104  1  0.88447000  0.53718000  0.83867000  1.0
  H  H105  1  0.61553000  0.46282000  0.33866000  1.0
  H  H106  1  0.38447000  0.96282000  0.16134000  1.0
  H  H107  1  0.11553000  0.03718000  0.66134000  1.0
  H  H108  1  0.90546000  0.39753000  0.74874000  1.0
  H  H109  1  0.59454000  0.60247000  0.24874000  1.0
  H  H110  1  0.40546000  0.10247000  0.25126000  1.0
  H  H111  1  0.09454000  0.89754000  0.75126000  1.0
  H  H112  1  0.76544000  0.28336000  0.73402000  1.0
  H  H113  1  0.73455000  0.71664000  0.23402000  1.0
  H  H114  1  0.26544000  0.21664000  0.26598000  1.0
  H  H115  1  0.23455000  0.78336000  0.76598000  1.0
  H  H116  1  0.60746000  0.30835000  0.81151000  1.0
  H  H117  1  0.89253000  0.69165000  0.31151000  1.0
  H  H118  1  0.10746000  0.19165000  0.18849000  1.0
  H  H119  1  0.39253000  0.80835000  0.68849000  1.0
  H  H120  1  0.58710000  0.44819000  0.90041000  1.0
  H  H121  1  0.91289000  0.55181000  0.40041000  1.0
  H  H122  1  0.08710000  0.05181000  0.09959000  1.0
  H  H123  1  0.41289000  0.94819000  0.59959000  1.0
  H  H124  1  0.64690000  0.66061000  0.84128000  1.0
  H  H125  1  0.85310000  0.33939000  0.34128000  1.0
  H  H126  1  0.14689000  0.83939000  0.15872000  1.0
  H  H127  1  0.35310000  0.16061000  0.65872000  1.0
  H  H128  1  0.70059000  0.63143000  0.05412000  1.0
  H  H129  1  0.79940000  0.36857000  0.55411000  1.0
  H  H130  1  0.20059000  0.86857000  0.94588000  1.0
  H  H131  1  0.29941000  0.13143000  0.44588000  1.0
  H  H132  1  0.62464000  0.53680000  0.02345000  1.0
  H  H133  1  0.87536000  0.46320000  0.52345000  1.0
  H  H134  1  0.12464000  0.96320000  0.97655000  1.0
  H  H135  1  0.37536000  0.03680000  0.47655000  1.0
  H  H136  1  0.79198000  0.62904000  0.92452000  1.0
  H  H137  1  0.70801000  0.37095000  0.42452000  1.0
  H  H138  1  0.29198000  0.87095000  0.07548000  1.0
  H  H139  1  0.20801000  0.12905000  0.57548000  1.0
  H  H140  1  0.76165000  0.49044000  0.12548000  1.0
  H  H141  1  0.73835000  0.50956000  0.62548000  1.0
  H  H142  1  0.26165000  0.00956000  0.87453000  1.0
  H  H143  1  0.23835000  0.99044000  0.37453000  1.0
  H  H144  1  0.85221000  0.52036000  0.04952000  1.0
  H  H145  1  0.64779000  0.47964000  0.54952000  1.0
  H  H146  1  0.35221000  0.97964000  0.95048000  1.0
  H  H147  1  0.14779000  0.02036000  0.45048000  1.0
  H  H148  1  0.76851000  0.42762000  0.03034000  1.0
  H  H149  1  0.73148000  0.57238000  0.53034000  1.0
  H  H150  1  0.26851000  0.07238000  0.96967000  1.0
  H  H151  1  0.23149000  0.92762000  0.46966000  1.0
  C  C152  1  0.74657000  0.85230000  0.49538000  1.0
  C  C153  1  0.75343000  0.14770000  0.99537000  1.0
  C  C154  1  0.24657000  0.64770000  0.50462000  1.0
  C  C155  1  0.25343000  0.35230000  0.00463000  1.0
  C  C156  1  0.56405000  0.87881000  0.47618000  1.0
  C  C157  1  0.93595000  0.12120000  0.97618000  1.0
  C  C158  1  0.06405000  0.62119000  0.52382000  1.0
  C  C159  1  0.43595000  0.37881000  0.02382000  1.0
  C  C160  1  0.64461000  0.80422000  0.49057000  1.0
  C  C161  1  0.85539000  0.19579000  0.99057000  1.0
  C  C162  1  0.14460000  0.69578000  0.50943000  1.0
  C  C163  1  0.35540000  0.30422000  0.00943000  1.0
  C  C164  1  0.56425000  0.69044000  0.58147000  1.0
  C  C165  1  0.93575000  0.30957000  0.08147000  1.0
  C  C166  1  0.06425000  0.80956000  0.41853000  1.0
  C  C167  1  0.43575000  0.19044000  0.91853000  1.0
  C  C168  1  0.55797000  0.66240000  0.67210000  1.0
  C  C169  1  0.94203000  0.33760000  0.17209000  1.0
  C  C170  1  0.05797000  0.83760000  0.32790000  1.0
  C  C171  1  0.44203000  0.16241000  0.82791000  1.0
  C  C172  1  0.46020000  0.56521000  0.76556000  1.0
  C  C173  1  0.03980000  0.43479000  0.26556000  1.0
  C  C174  1  0.96020000  0.93480000  0.23444000  1.0
  C  C175  1  0.53980000  0.06521000  0.73444000  1.0
  C  C176  1  0.39640000  0.63524000  0.81391000  1.0
  C  C177  1  0.10360000  0.36476000  0.31391000  1.0
  C  C178  1  0.89640000  0.86476000  0.18609000  1.0
  C  C179  1  0.60360000  0.13525000  0.68609000  1.0
  C  C180  1  0.40143000  0.47520000  0.75188000  1.0
  C  C181  1  0.09857000  0.52479000  0.25188000  1.0
  C  C182  1  0.90143000  0.02480000  0.24812000  1.0
  C  C183  1  0.59857000  0.97521000  0.74812000  1.0
  C  C184  1  0.64544000  0.12829000  0.46265000  1.0
  C  C185  1  0.85457000  0.87172000  0.96265000  1.0
  C  C186  1  0.14543000  0.37172000  0.53735000  1.0
  C  C187  1  0.35457000  0.62828000  0.03735000  1.0
  C  C188  1  0.63963000  0.16895000  0.37777000  1.0
  C  C189  1  0.86038000  0.83106000  0.87777000  1.0
  C  C190  1  0.13963000  0.33106000  0.62223000  1.0
  C  C191  1  0.36037000  0.66894000  0.12223000  1.0
  C  C192  1  0.56576000  0.22052000  0.33656000  1.0
  C  C193  1  0.93424000  0.77948000  0.83656000  1.0
  C  C194  1  0.06576000  0.27948000  0.66344000  1.0
  C  C195  1  0.43424000  0.72052000  0.16344000  1.0
  C  C196  1  0.60464000  0.23801000  0.25648000  1.0
  C  C197  1  0.89536000  0.76199000  0.75648000  1.0
  C  C198  1  0.10464000  0.26199000  0.74352000  1.0
  C  C199  1  0.39536000  0.73800000  0.24352000  1.0
  C  C200  1  0.55942000  0.28946000  0.18583000  1.0
  C  C201  1  0.94058000  0.71054000  0.68584000  1.0
  C  C202  1  0.05942000  0.21054000  0.81417000  1.0
  C  C203  1  0.44058000  0.78946000  0.31416000  1.0
  C  C204  1  0.46342000  0.24698000  0.36629000  1.0
  C  C205  1  0.03658000  0.75302000  0.86629000  1.0
  C  C206  1  0.96343000  0.25302000  0.63371000  1.0
  C  C207  1  0.53658000  0.74698000  0.13371000  1.0
  C  C208  1  0.51327000  0.31918000  0.55073000  1.0
  C  C209  1  0.98673000  0.68082000  0.05073000  1.0
  C  C210  1  0.01327000  0.18082000  0.44927000  1.0
  C  C211  1  0.48673000  0.81918000  0.94927000  1.0
  C  C212  1  0.46625000  0.37264000  0.48206000  1.0
  C  C213  1  0.03375000  0.62736000  0.98206000  1.0
  C  C214  1  0.96625000  0.12736000  0.51794000  1.0
  C  C215  1  0.53375000  0.87264000  0.01794000  1.0
  C  C216  1  0.44797000  0.34393000  0.39937000  1.0
  C  C217  1  0.05203000  0.65607000  0.89937000  1.0
  C  C218  1  0.94797000  0.15607000  0.60063000  1.0
  C  C219  1  0.55203000  0.84393000  0.10063000  1.0
  C  C220  1  0.40426000  0.42108000  0.36005000  1.0
  C  C221  1  0.09574000  0.57892000  0.86004000  1.0
  C  C222  1  0.90426000  0.07892000  0.63996000  1.0
  C  C223  1  0.59574000  0.92108000  0.13996000  1.0
  C  C224  1  0.36785000  0.43740000  0.27380000  1.0
  C  C225  1  0.13216000  0.56260000  0.77380000  1.0
  C  C226  1  0.86784000  0.06260000  0.72620000  1.0
  C  C227  1  0.63216000  0.93740000  0.22620000  1.0
  C  C228  1  0.82350000  0.48722000  0.83182000  1.0
  C  C229  1  0.67650000  0.51278000  0.33182000  1.0
  C  C230  1  0.32350000  0.01278000  0.16818000  1.0
  C  C231  1  0.17650000  0.98722000  0.66818000  1.0
  C  C232  1  0.83526000  0.40847000  0.78162000  1.0
  C  C233  1  0.66473000  0.59152000  0.28162000  1.0
  C  C234  1  0.33526000  0.09153000  0.21838000  1.0
  C  C235  1  0.16473000  0.90848000  0.71838000  1.0
  C  C236  1  0.75737000  0.34448000  0.77375000  1.0
  C  C237  1  0.74263000  0.65552000  0.27375000  1.0
  C  C238  1  0.25737000  0.15552000  0.22625000  1.0
  C  C239  1  0.24263000  0.84448000  0.72625000  1.0
  C  C240  1  0.66805000  0.35875000  0.81679000  1.0
  C  C241  1  0.83194000  0.64125000  0.31679000  1.0
  C  C242  1  0.16805000  0.14125000  0.18321000  1.0
  C  C243  1  0.33194000  0.85875000  0.68321000  1.0
  C  C244  1  0.65679000  0.43740000  0.86682000  1.0
  C  C245  1  0.84321000  0.56260000  0.36681000  1.0
  C  C246  1  0.15679000  0.06260000  0.13319000  1.0
  C  C247  1  0.34321000  0.93740000  0.63319000  1.0
  C  C248  1  0.73413000  0.50275000  0.87440000  1.0
  C  C249  1  0.76586000  0.49725000  0.37440000  1.0
  C  C250  1  0.23413000  0.99725000  0.12560000  1.0
  C  C251  1  0.26586000  0.00275000  0.62560000  1.0
  C  C252  1  0.70089000  0.56527000  0.01942000  1.0
  C  C253  1  0.79911000  0.43473000  0.51942000  1.0
  C  C254  1  0.20089000  0.93473000  0.98058000  1.0
  C  C255  1  0.29911000  0.06527000  0.48058000  1.0
  C  C256  1  0.72178000  0.58860000  0.92816000  1.0
  C  C257  1  0.77822000  0.41140000  0.42816000  1.0
  C  C258  1  0.22178000  0.91140000  0.07185000  1.0
  C  C259  1  0.27822000  0.08860000  0.57184000  1.0
  C  C260  1  0.77486000  0.49718000  0.05837000  1.0
  C  C261  1  0.72514000  0.50281000  0.55837000  1.0
  C  C262  1  0.27486000  0.00281000  0.94163000  1.0
  C  C263  1  0.22514000  0.99719000  0.44163000  1.0
  N  N264  1  0.62835000  0.75780000  0.56889000  1.0
  N  N265  1  0.87164000  0.24221000  0.06889000  1.0
  N  N266  1  0.12835000  0.74221000  0.43111000  1.0
  N  N267  1  0.37165000  0.25779000  0.93111000  1.0
  N  N268  1  0.48731000  0.60139000  0.68517000  1.0
  N  N269  1  0.01269000  0.39861000  0.18516000  1.0
  N  N270  1  0.98732000  0.89861000  0.31483000  1.0
  N  N271  1  0.51269000  0.10139000  0.81484000  1.0
  N  N272  1  0.69567000  0.19944000  0.24996000  1.0
  N  N273  1  0.80433000  0.80056000  0.74996000  1.0
  N  N274  1  0.19567000  0.30057000  0.75004000  1.0
  N  N275  1  0.30433000  0.69943000  0.25003000  1.0
  N  N276  1  0.71613000  0.15901000  0.32378000  1.0
  N  N277  1  0.78387000  0.84099000  0.82378000  1.0
  N  N278  1  0.21613000  0.34099000  0.67622000  1.0
  N  N279  1  0.28387000  0.65901000  0.17622000  1.0
  N  N280  1  0.39871000  0.48945000  0.41781000  1.0
  N  N281  1  0.10130000  0.51054000  0.91780000  1.0
  N  N282  1  0.89871000  0.01055000  0.58219000  1.0
  N  N283  1  0.60129000  0.98945000  0.08219000  1.0
  N  N284  1  0.43456000  0.46093000  0.49195000  1.0
  N  N285  1  0.06544000  0.53907000  0.99194000  1.0
  N  N286  1  0.93456000  0.03907000  0.50805000  1.0
  N  N287  1  0.56544000  0.96093000  0.00805000  1.0
  O  O288  1  0.77984000  0.89290000  0.43254000  1.0
  O  O289  1  0.72017000  0.10710000  0.93254000  1.0
  O  O290  1  0.27984000  0.60710000  0.56745000  1.0
  O  O291  1  0.22017000  0.39290000  0.06746000  1.0
  O  O292  1  0.79117000  0.85099000  0.56726000  1.0
  O  O293  1  0.70883000  0.14901000  0.06726000  1.0
  O  O294  1  0.29117000  0.64901000  0.43274000  1.0
  O  O295  1  0.20883000  0.35099000  0.93275000  1.0
  O  O296  1  0.61700000  0.70003000  0.72567000  1.0
  O  O297  1  0.88299000  0.29997000  0.22566000  1.0
  O  O298  1  0.11701000  0.79997000  0.27433000  1.0
  O  O299  1  0.38299000  0.20003000  0.77434000  1.0
  O  O300  1  0.50849000  0.64981000  0.52794000  1.0
  O  O301  1  0.99151000  0.35019000  0.02793000  1.0
  O  O302  1  0.00849000  0.85019000  0.47206000  1.0
  O  O303  1  0.49152000  0.14981000  0.97207000  1.0
  O  O304  1  0.38293000  0.45101000  0.67549000  1.0
  O  O305  1  0.11706000  0.54899000  0.17549000  1.0
  O  O306  1  0.88294000  0.04900000  0.32451000  1.0
  O  O307  1  0.61706000  0.95100000  0.82451000  1.0
  O  O308  1  0.37193000  0.43076000  0.81394000  1.0
  O  O309  1  0.12807000  0.56924000  0.31393000  1.0
  O  O310  1  0.87193000  0.06925000  0.18606000  1.0
  O  O311  1  0.62807000  0.93076000  0.68606000  1.0
  O  O312  1  0.63985000  0.64566000  0.90074000  1.0
  O  O313  1  0.86015000  0.35434000  0.40073000  1.0
  O  O314  1  0.13985000  0.85434000  0.09926000  1.0
  O  O315  1  0.36015000  0.14566000  0.59927000  1.0
