# generated using pymatgen
data_ZnH8C6(NCl)2
_symmetry_space_group_name_H-M   'P 1'
_cell_length_a   4.71092000
_cell_length_b   6.00381000
_cell_length_c   15.92870000
_cell_angle_alpha   81.43680000
_cell_angle_beta   83.85800000
_cell_angle_gamma   70.84340000
_symmetry_Int_Tables_number   1
_chemical_formula_structural   ZnH8C6(NCl)2
_chemical_formula_sum   'Zn2 H16 C12 N4 Cl4'
_cell_volume   420.01161864
_cell_formula_units_Z   2
loop_
 _symmetry_equiv_pos_site_id
 _symmetry_equiv_pos_as_xyz
  1  'x, y, z'
loop_
 _atom_site_type_symbol
 _atom_site_label
 _atom_site_symmetry_multiplicity
 _atom_site_fract_x
 _atom_site_fract_y
 _atom_site_fract_z
 _atom_site_occupancy
  Zn  Zn0  1  0.96500000  0.68430000  0.74544000  1.0
  Zn  Zn1  1  0.03500000  0.31572000  0.25456000  1.0
  H  H2  1  0.81447000  0.33323000  0.82643000  1.0
  H  H3  1  0.53589000  0.01875000  0.67527000  1.0
  H  H4  1  0.18558000  0.66678000  0.17357000  1.0
  H  H5  1  0.46407000  0.98123000  0.32474000  1.0
  H  H6  1  0.54176000  0.58801000  0.84264000  1.0
  H  H7  1  0.56059000  0.76411000  0.64081000  1.0
  H  H8  1  0.45827000  0.41198000  0.15736000  1.0
  H  H9  1  0.43939000  0.23586000  0.35920000  1.0
  H  H10  1  0.28589000  0.20381000  0.90266000  1.0
  H  H11  1  0.97260000  0.19278000  0.62953000  1.0
  H  H12  1  0.71415000  0.79620000  0.09734000  1.0
  H  H13  1  0.02735000  0.80724000  0.37046000  1.0
  H  H14  1  0.50659000  0.79153000  0.96056000  1.0
  H  H15  1  0.74939000  0.69354000  0.50122000  1.0
  H  H16  1  0.49347000  0.20846000  0.03944000  1.0
  H  H17  1  0.25054000  0.30647000  0.49878000  1.0
  C  C18  1  0.88325000  0.49731000  0.92330000  1.0
  C  C19  1  0.84111000  0.93710000  0.57388000  1.0
  C  C20  1  0.11680000  0.50270000  0.07670000  1.0
  C  C21  1  0.15882000  0.06291000  0.42612000  1.0
  C  C22  1  0.16094000  0.33355000  0.94545000  1.0
  C  C23  1  0.98233000  0.10936000  0.57259000  1.0
  C  C24  1  0.83912000  0.66644000  0.05455000  1.0
  C  C25  1  0.01762000  0.89066000  0.42741000  1.0
  C  C26  1  0.72342000  0.66429000  0.97786000  1.0
  C  C27  1  0.86017000  0.82715000  0.50121000  1.0
  C  C28  1  0.27665000  0.33571000  0.02214000  1.0
  C  C29  1  0.13977000  0.17284000  0.49878000  1.0
  N  N30  1  0.77003000  0.50218000  0.84246000  1.0
  N  N31  1  0.68332000  0.87038000  0.65101000  1.0
  N  N32  1  0.23001000  0.49782000  0.15755000  1.0
  N  N33  1  0.31666000  0.12962000  0.34899000  1.0
  Cl  Cl34  1  0.37588000  0.43679000  0.68266000  1.0
  Cl  Cl35  1  0.11107000  0.94138000  0.80771000  1.0
  Cl  Cl36  1  0.62410000  0.56321000  0.31733000  1.0
  Cl  Cl37  1  0.88894000  0.05863000  0.19228000  1.0
