# generated using pymatgen
data_ZnH8C9N5O2
_symmetry_space_group_name_H-M   'P 1'
_cell_length_a   7.64952000
_cell_length_b   9.38246000
_cell_length_c   14.94840000
_cell_angle_alpha   74.74600000
_cell_angle_beta   89.99990000
_cell_angle_gamma   89.99990000
_symmetry_Int_Tables_number   1
_chemical_formula_structural   ZnH8C9N5O2
_chemical_formula_sum   'Zn4 H32 C36 N20 O8'
_cell_volume   1035.06813309
_cell_formula_units_Z   4
loop_
 _symmetry_equiv_pos_site_id
 _symmetry_equiv_pos_as_xyz
  1  'x, y, z'
loop_
 _atom_site_type_symbol
 _atom_site_label
 _atom_site_symmetry_multiplicity
 _atom_site_fract_x
 _atom_site_fract_y
 _atom_site_fract_z
 _atom_site_occupancy
  Zn  Zn0  1  0.51037000  0.10345000  0.21462000  1.0
  Zn  Zn1  1  0.01037000  0.39655000  0.78538000  1.0
  Zn  Zn2  1  0.48963000  0.89655000  0.78538000  1.0
  Zn  Zn3  1  0.98962000  0.60345000  0.21462000  1.0
  H  H4  1  0.47444000  0.85962000  0.09321000  1.0
  H  H5  1  0.97444000  0.64038000  0.90679000  1.0
  H  H6  1  0.52555000  0.14038000  0.90679000  1.0
  H  H7  1  0.02555000  0.35962000  0.09321000  1.0
  H  H8  1  0.32480000  0.71528000  0.09774000  1.0
  H  H9  1  0.82480000  0.78472000  0.90226000  1.0
  H  H10  1  0.67520000  0.28472000  0.90226000  1.0
  H  H11  1  0.17519000  0.21528000  0.09774000  1.0
  H  H12  1  0.22353000  0.04404000  0.02792000  1.0
  H  H13  1  0.72353000  0.45596000  0.97208000  1.0
  H  H14  1  0.77646000  0.95596000  0.97208000  1.0
  H  H15  1  0.27646000  0.54404000  0.02792000  1.0
  H  H16  1  0.09340000  0.89071000  0.02403000  1.0
  H  H17  1  0.59340000  0.60929000  0.97597000  1.0
  H  H18  1  0.90660000  0.10929000  0.97597000  1.0
  H  H19  1  0.40660000  0.39071000  0.02403000  1.0
  H  H20  1  0.85403000  0.22607000  0.24285000  1.0
  H  H21  1  0.35403000  0.27393000  0.75715000  1.0
  H  H22  1  0.14597000  0.77394000  0.75715000  1.0
  H  H23  1  0.64597000  0.72607000  0.24285000  1.0
  H  H24  1  0.08436000  0.17882000  0.36386000  1.0
  H  H25  1  0.58437000  0.32118000  0.63614000  1.0
  H  H26  1  0.91564000  0.82118000  0.63614000  1.0
  H  H27  1  0.41563000  0.67882000  0.36386000  1.0
  H  H28  1  0.73177000  0.86507000  0.53966000  1.0
  H  H29  1  0.23178000  0.63493000  0.46034000  1.0
  H  H30  1  0.26822000  0.13492000  0.46034000  1.0
  H  H31  1  0.76823000  0.36508000  0.53966000  1.0
  H  H32  1  0.52154000  0.92119000  0.41077000  1.0
  H  H33  1  0.02155000  0.57882000  0.58923000  1.0
  H  H34  1  0.47845000  0.07881000  0.58923000  1.0
  H  H35  1  0.97846000  0.42119000  0.41077000  1.0
  C  C36  1  0.27221000  0.84361000  0.19177000  1.0
  C  C37  1  0.77221000  0.65639000  0.80822000  1.0
  C  C38  1  0.72779000  0.15639000  0.80822000  1.0
  C  C39  1  0.22779000  0.34361000  0.19178000  1.0
  C  C40  1  0.33529000  0.83096000  0.10011000  1.0
  C  C41  1  0.83529000  0.66904000  0.89989000  1.0
  C  C42  1  0.66471000  0.16904000  0.89989000  1.0
  C  C43  1  0.16471000  0.33096000  0.10011000  1.0
  C  C44  1  0.22917000  0.93051000  0.02077000  1.0
  C  C45  1  0.72917000  0.56949000  0.97923000  1.0
  C  C46  1  0.77082000  0.06949000  0.97923000  1.0
  C  C47  1  0.27082000  0.43050000  0.02077000  1.0
  C  C48  1  0.29879000  0.94125000  0.92415000  1.0
  C  C49  1  0.79879000  0.55875000  0.07585000  1.0
  C  C50  1  0.70121000  0.05875000  0.07585000  1.0
  C  C51  1  0.20120000  0.44125000  0.92415000  1.0
  C  C52  1  0.83538000  0.14461000  0.30922000  1.0
  C  C53  1  0.33538000  0.35539000  0.69078000  1.0
  C  C54  1  0.16462000  0.85539000  0.69078000  1.0
  C  C55  1  0.66462000  0.64461000  0.30922000  1.0
  C  C56  1  0.96184000  0.11901000  0.37800000  1.0
  C  C57  1  0.46185000  0.38099000  0.62201000  1.0
  C  C58  1  0.03815000  0.88100000  0.62200000  1.0
  C  C59  1  0.53816000  0.61901000  0.37800000  1.0
  C  C60  1  0.93230000  0.01581000  0.46341000  1.0
  C  C61  1  0.43231000  0.48419000  0.53660000  1.0
  C  C62  1  0.06769000  0.98420000  0.53659000  1.0
  C  C63  1  0.56769000  0.51581000  0.46341000  1.0
  C  C64  1  0.76906000  0.94461000  0.47542000  1.0
  C  C65  1  0.26906000  0.55539000  0.52458000  1.0
  C  C66  1  0.23094000  0.05539000  0.52457000  1.0
  C  C67  1  0.73094000  0.44461000  0.47542000  1.0
  C  C68  1  0.64907000  0.97502000  0.40330000  1.0
  C  C69  1  0.14907000  0.52498000  0.59670000  1.0
  C  C70  1  0.35093000  0.02498000  0.59670000  1.0
  C  C71  1  0.85093000  0.47503000  0.40330000  1.0
  N  N72  1  0.33463000  0.93512000  0.23993000  1.0
  N  N73  1  0.83462000  0.56488000  0.76007000  1.0
  N  N74  1  0.66537000  0.06488000  0.76007000  1.0
  N  N75  1  0.16537000  0.43512000  0.23993000  1.0
  N  N76  1  0.23785000  0.91174000  0.31891000  1.0
  N  N77  1  0.73785000  0.58826000  0.68109000  1.0
  N  N78  1  0.76215000  0.08826000  0.68109000  1.0
  N  N79  1  0.26215000  0.41174000  0.31891000  1.0
  N  N80  1  0.12099000  0.81066000  0.31877000  1.0
  N  N81  1  0.62099000  0.68934000  0.68122000  1.0
  N  N82  1  0.87900000  0.18934000  0.68123000  1.0
  N  N83  1  0.37901000  0.31066000  0.31877000  1.0
  N  N84  1  0.13933000  0.76661000  0.23988000  1.0
  N  N85  1  0.63933000  0.73339000  0.76011000  1.0
  N  N86  1  0.86067000  0.23339000  0.76012000  1.0
  N  N87  1  0.36067000  0.26661000  0.23988000  1.0
  N  N88  1  0.68175000  0.07203000  0.32106000  1.0
  N  N89  1  0.18176000  0.42797000  0.67895000  1.0
  N  N90  1  0.31824000  0.92797000  0.67894000  1.0
  N  N91  1  0.81825000  0.57203000  0.32106000  1.0
  O  O92  1  0.41897000  0.84654000  0.91654000  1.0
  O  O93  1  0.91897000  0.65345000  0.08346000  1.0
  O  O94  1  0.58103000  0.15346000  0.08346000  1.0
  O  O95  1  0.08102000  0.34654000  0.91654000  1.0
  O  O96  1  0.24221000  0.03964000  0.85669000  1.0
  O  O97  1  0.74221000  0.46036000  0.14331000  1.0
  O  O98  1  0.75778000  0.96036000  0.14330000  1.0
  O  O99  1  0.25778000  0.53964000  0.85670000  1.0
