# generated using pymatgen
data_FeH10Pt(C7N3)2
_symmetry_space_group_name_H-M   'P 1'
_cell_length_a   7.06437000
_cell_length_b   7.19240000
_cell_length_c   8.42915000
_cell_angle_alpha   64.76000000
_cell_angle_beta   89.99880000
_cell_angle_gamma   89.99640000
_symmetry_Int_Tables_number   1
_chemical_formula_structural   FeH10Pt(C7N3)2
_chemical_formula_sum   'Fe1 H10 Pt1 C14 N6'
_cell_volume   387.39483499
_cell_formula_units_Z   1
loop_
 _symmetry_equiv_pos_site_id
 _symmetry_equiv_pos_as_xyz
  1  'x, y, z'
loop_
 _atom_site_type_symbol
 _atom_site_label
 _atom_site_symmetry_multiplicity
 _atom_site_fract_x
 _atom_site_fract_y
 _atom_site_fract_z
 _atom_site_occupancy
  Fe  Fe0  1  0.50000000  0.51006000  0.97968000  1.0
  H  H1  1  0.20764000  0.34550000  0.30805000  1.0
  H  H2  1  0.20708000  0.65103000  0.69822000  1.0
  H  H3  1  0.79295000  0.65101000  0.69823000  1.0
  H  H4  1  0.79236000  0.34548000  0.30806000  1.0
  H  H5  1  0.19463000  0.18063000  0.63882000  1.0
  H  H6  1  0.19483000  0.81562000  0.36940000  1.0
  H  H7  1  0.80517000  0.81559000  0.36943000  1.0
  H  H8  1  0.80534000  0.18059000  0.63883000  1.0
  H  H9  1  0.49998000  0.09745000  0.80591000  1.0
  H  H10  1  0.50001000  0.89987000  0.20074000  1.0
  Pt  Pt11  1  0.00000000  0.99959000  0.00068000  1.0
  C  C12  1  0.80446000  0.19765000  0.99649000  1.0
  C  C13  1  0.80437000  0.80584000  0.99640000  1.0
  C  C14  1  0.19552000  0.19767000  0.99649000  1.0
  C  C15  1  0.19561000  0.80583000  0.99637000  1.0
  C  C16  1  0.33584000  0.30573000  0.38774000  1.0
  C  C17  1  0.33555000  0.69055000  0.61949000  1.0
  C  C18  1  0.66448000  0.69051000  0.61951000  1.0
  C  C19  1  0.66414000  0.30573000  0.38773000  1.0
  C  C20  1  0.33001000  0.21477000  0.57019000  1.0
  C  C21  1  0.33062000  0.78163000  0.43733000  1.0
  C  C22  1  0.66939000  0.78160000  0.43735000  1.0
  C  C23  1  0.66996000  0.21476000  0.57020000  1.0
  C  C24  1  0.49999000  0.16849000  0.66321000  1.0
  C  C25  1  0.50001000  0.82836000  0.34353000  1.0
  N  N26  1  0.68943000  0.31902000  0.98803000  1.0
  N  N27  1  0.68948000  0.69272000  0.98813000  1.0
  N  N28  1  0.31056000  0.31903000  0.98798000  1.0
  N  N29  1  0.31054000  0.69270000  0.98814000  1.0
  N  N30  1  0.50000000  0.34969000  0.29980000  1.0
  N  N31  1  0.50000000  0.64529000  0.70986000  1.0
