# generated using pymatgen
data_ZnH22C24(N3O4)2
_symmetry_space_group_name_H-M   'P 1'
_cell_length_a   6.61351000
_cell_length_b   13.15610000
_cell_length_c   15.74893312
_cell_angle_alpha   65.73410495
_cell_angle_beta   77.90764920
_cell_angle_gamma   75.44300000
_symmetry_Int_Tables_number   1
_chemical_formula_structural   ZnH22C24(N3O4)2
_chemical_formula_sum   'Zn2 H44 C48 N12 O16'
_cell_volume   1200.32559962
_cell_formula_units_Z   2
loop_
 _symmetry_equiv_pos_site_id
 _symmetry_equiv_pos_as_xyz
  1  'x, y, z'
loop_
 _atom_site_type_symbol
 _atom_site_label
 _atom_site_symmetry_multiplicity
 _atom_site_fract_x
 _atom_site_fract_y
 _atom_site_fract_z
 _atom_site_occupancy
  Zn  Zn0  1  0.81586000  0.24970000  0.75013000  1.0
  Zn  Zn1  1  0.18413000  0.75030000  0.24987000  1.0
  H  H2  1  0.39134000  0.30468000  0.66071000  1.0
  H  H3  1  0.35710000  0.19480000  0.83966000  1.0
  H  H4  1  0.60864000  0.69532000  0.33930000  1.0
  H  H5  1  0.64289000  0.80519000  0.16034000  1.0
  H  H6  1  0.66428000  0.52018000  0.72396000  1.0
  H  H7  1  0.90834000  0.97918000  0.77634000  1.0
  H  H8  1  0.33571000  0.47983000  0.27604000  1.0
  H  H9  1  0.09166000  0.02081000  0.22367000  1.0
  H  H10  1  0.29154000  0.64025000  0.64747000  1.0
  H  H11  1  0.57918000  0.85927000  0.85275000  1.0
  H  H12  1  0.70845000  0.35976000  0.35253000  1.0
  H  H13  1  0.42083000  0.14072000  0.14725000  1.0
  H  H14  1  0.99182000  0.44131000  0.66337000  1.0
  H  H15  1  0.09678000  0.05820000  0.83666000  1.0
  H  H16  1  0.00817000  0.55869000  0.33663000  1.0
  H  H17  1  0.90321000  0.94179000  0.16334000  1.0
  H  H18  1  0.00537000  0.58714000  0.60571000  1.0
  H  H19  1  0.19845000  0.91240000  0.89463000  1.0
  H  H20  1  0.99463000  0.41287000  0.39429000  1.0
  H  H21  1  0.80155000  0.08759000  0.10537000  1.0
  H  H22  1  0.20141000  0.40909000  0.51823000  1.0
  H  H23  1  0.12882000  0.09087000  0.98168000  1.0
  H  H24  1  0.79859000  0.59091000  0.48177000  1.0
  H  H25  1  0.87117000  0.90912000  0.01832000  1.0
  H  H26  1  0.19475000  0.55704000  0.46264000  1.0
  H  H27  1  0.21432000  0.94296000  0.03753000  1.0
  H  H28  1  0.80525000  0.44296000  0.53736000  1.0
  H  H29  1  0.78567000  0.05704000  0.96247000  1.0
  H  H30  1  0.45950000  0.14158000  0.62715000  1.0
  H  H31  1  0.22885000  0.35837000  0.87259000  1.0
  H  H32  1  0.54051000  0.85843000  0.37284000  1.0
  H  H33  1  0.77118000  0.64163000  0.12741000  1.0
  H  H34  1  0.76908000  0.09538000  0.51979000  1.0
  H  H35  1  0.38521000  0.40487000  0.97979000  1.0
  H  H36  1  0.23092000  0.90462000  0.48021000  1.0
  H  H37  1  0.61480000  0.59513000  0.02022000  1.0
  H  H38  1  0.35977000  0.16555000  0.31415000  1.0
  H  H39  1  0.84142000  0.33444000  0.18567000  1.0
  H  H40  1  0.64023000  0.83445000  0.68585000  1.0
  H  H41  1  0.15858000  0.66557000  0.81433000  1.0
  H  H42  1  0.04969000  0.21253000  0.42279000  1.0
  H  H43  1  0.68676000  0.28708000  0.07727000  1.0
  H  H44  1  0.95030000  0.78747000  0.57721000  1.0
  H  H45  1  0.31324000  0.71292000  0.92273000  1.0
  C  C46  1  0.42058000  0.37842000  0.66729000  1.0
  C  C47  1  0.46653000  0.12106000  0.83301000  1.0
  C  C48  1  0.57941000  0.62158000  0.33272000  1.0
  C  C49  1  0.53347000  0.87894000  0.16699000  1.0
  C  C50  1  0.55489000  0.49296000  0.69889000  1.0
  C  C51  1  0.74676000  0.00643000  0.80142000  1.0
  C  C52  1  0.44509000  0.50705000  0.30111000  1.0
  C  C53  1  0.25324000  0.99357000  0.19858000  1.0
  C  C54  1  0.37039000  0.55320000  0.66220000  1.0
  C  C55  1  0.58575000  0.94628000  0.83805000  1.0
  C  C56  1  0.62961000  0.44681000  0.33780000  1.0
  C  C57  1  0.41425000  0.05371000  0.16195000  1.0
  C  C58  1  0.08458000  0.50185000  0.60953000  1.0
  C  C59  1  0.19612000  0.99777000  0.89064000  1.0
  C  C60  1  0.91541000  0.49816000  0.39047000  1.0
  C  C61  1  0.80388000  0.00223000  0.10936000  1.0
  C  C62  1  0.10754000  0.49233000  0.51474000  1.0
  C  C63  1  0.11460000  0.00761000  0.98529000  1.0
  C  C64  1  0.89246000  0.50767000  0.48526000  1.0
  C  C65  1  0.88538000  0.99239000  0.01471000  1.0
  C  C66  1  0.04365000  0.21239000  0.59324000  1.0
  C  C67  1  0.85042000  0.28731000  0.90668000  1.0
  C  C68  1  0.95634000  0.78762000  0.40676000  1.0
  C  C69  1  0.14959000  0.71269000  0.09332000  1.0
  C  C70  1  0.23530000  0.18200000  0.53069000  1.0
  C  C71  1  0.94921000  0.31777000  0.96921000  1.0
  C  C72  1  0.76469000  0.81800000  0.46931000  1.0
  C  C73  1  0.05081000  0.68223000  0.03078000  1.0
  C  C74  1  0.43781000  0.14798000  0.55838000  1.0
  C  C75  1  0.14517000  0.35192000  0.94140000  1.0
  C  C76  1  0.56218000  0.85202000  0.44162000  1.0
  C  C77  1  0.85485000  0.64808000  0.05860000  1.0
  C  C78  1  0.61172000  0.12133000  0.49886000  1.0
  C  C79  1  0.23312000  0.37869000  0.00083000  1.0
  C  C80  1  0.38828000  0.87868000  0.50114000  1.0
  C  C81  1  0.76689000  0.62131000  0.99917000  1.0
  C  C82  1  0.57911000  0.12964000  0.41127000  1.0
  C  C83  1  0.12159000  0.37044000  0.08843000  1.0
  C  C84  1  0.42089000  0.87036000  0.58873000  1.0
  C  C85  1  0.87841000  0.62956000  0.91157000  1.0
  C  C86  1  0.37897000  0.16251000  0.38207000  1.0
  C  C87  1  0.92531000  0.33742000  0.11777000  1.0
  C  C88  1  0.62103000  0.83749000  0.61793000  1.0
  C  C89  1  0.07469000  0.66259000  0.88223000  1.0
  C  C90  1  0.20796000  0.18839000  0.44249000  1.0
  C  C91  1  0.84045000  0.31135000  0.05745000  1.0
  C  C92  1  0.79204000  0.81161000  0.55751000  1.0
  C  C93  1  0.15955000  0.68865000  0.94255000  1.0
  N  N94  1  0.28742000  0.47950000  0.64320000  1.0
  N  N95  1  0.41025000  0.02003000  0.85708000  1.0
  N  N96  1  0.71257000  0.52050000  0.35680000  1.0
  N  N97  1  0.58974000  0.97996000  0.14292000  1.0
  N  N98  1  0.58486000  0.38384000  0.70130000  1.0
  N  N99  1  0.67019000  0.11557000  0.79900000  1.0
  N  N100  1  0.41513000  0.61617000  0.29871000  1.0
  N  N101  1  0.32980000  0.88443000  0.20100000  1.0
  N  N102  1  0.76006000  0.10184000  0.34786000  1.0
  N  N103  1  0.21125000  0.39869000  0.15163000  1.0
  N  N104  1  0.23994000  0.89816000  0.65213000  1.0
  N  N105  1  0.78876000  0.60131000  0.84837000  1.0
  O  O106  1  0.08087000  0.21378000  0.67066000  1.0
  O  O107  1  0.96632000  0.28574000  0.82931000  1.0
  O  O108  1  0.91913000  0.78622000  0.32933000  1.0
  O  O109  1  0.03371000  0.71426000  0.17068000  1.0
  O  O110  1  0.86515000  0.23569000  0.56806000  1.0
  O  O111  1  0.67011000  0.26401000  0.93184000  1.0
  O  O112  1  0.13485000  0.76431000  0.43193000  1.0
  O  O113  1  0.32994000  0.73598000  0.06815000  1.0
  O  O114  1  0.72759000  0.10968000  0.27003000  1.0
  O  O115  1  0.10880000  0.39125000  0.22936000  1.0
  O  O116  1  0.27240000  0.89032000  0.72997000  1.0
  O  O117  1  0.89121000  0.60876000  0.77064000  1.0
  O  O118  1  0.93773000  0.07206000  0.37415000  1.0
  O  O119  1  0.38532000  0.42855000  0.12525000  1.0
  O  O120  1  0.06226000  0.92794000  0.62585000  1.0
  O  O121  1  0.61469000  0.57145000  0.87475000  1.0
