# generated using pymatgen
data_HoH10C10N2O9
_symmetry_space_group_name_H-M   'P 1'
_cell_length_a   6.50403000
_cell_length_b   9.80429000
_cell_length_c   10.78190000
_cell_angle_alpha   100.20100000
_cell_angle_beta   102.92100000
_cell_angle_gamma   107.45600000
_symmetry_Int_Tables_number   1
_chemical_formula_structural   HoH10C10N2O9
_chemical_formula_sum   'Ho2 H20 C20 N4 O18'
_cell_volume   616.82617004
_cell_formula_units_Z   2
loop_
 _symmetry_equiv_pos_site_id
 _symmetry_equiv_pos_as_xyz
  1  'x, y, z'
loop_
 _atom_site_type_symbol
 _atom_site_label
 _atom_site_symmetry_multiplicity
 _atom_site_fract_x
 _atom_site_fract_y
 _atom_site_fract_z
 _atom_site_occupancy
  Ho  Ho0  1  0.32811000  0.40875000  0.19986000  1.0
  Ho  Ho1  1  0.67188000  0.59125000  0.80013000  1.0
  H  H2  1  0.28926000  0.60314000  0.02560000  1.0
  H  H3  1  0.71074000  0.39686000  0.97439000  1.0
  H  H4  1  0.55502000  0.64067000  0.07852000  1.0
  H  H5  1  0.44499000  0.35933000  0.92148000  1.0
  H  H6  1  0.94708000  0.16343000  0.24911000  1.0
  H  H7  1  0.05292000  0.83657000  0.75089000  1.0
  H  H8  1  0.94844000  0.15390000  0.09484000  1.0
  H  H9  1  0.05156000  0.84610000  0.90516000  1.0
  H  H10  1  0.31820000  0.06677000  0.11034000  1.0
  H  H11  1  0.68181000  0.93323000  0.88965000  1.0
  H  H12  1  0.50593000  0.17530000  0.06549000  1.0
  H  H13  1  0.49407000  0.82470000  0.93451000  1.0
  H  H14  1  0.34699000  0.83893000  0.71045000  1.0
  H  H15  1  0.65302000  0.16107000  0.28955000  1.0
  H  H16  1  0.45845000  0.11883000  0.77985000  1.0
  H  H17  1  0.54156000  0.88117000  0.22014000  1.0
  H  H18  1  0.01549000  0.60500000  0.47258000  1.0
  H  H19  1  0.98451000  0.39500000  0.52743000  1.0
  H  H20  1  0.20382000  0.05637000  0.29940000  1.0
  H  H21  1  0.79617000  0.94362000  0.70060000  1.0
  C  C22  1  0.36433000  0.04929000  0.68074000  1.0
  C  C23  1  0.63568000  0.95071000  0.31926000  1.0
  C  C24  1  0.17243000  0.84396000  0.51889000  1.0
  C  C25  1  0.82757000  0.15604000  0.48111000  1.0
  C  C26  1  0.05370000  0.70297000  0.43517000  1.0
  C  C27  1  0.94630000  0.29703000  0.56483000  1.0
  C  C28  1  0.99732000  0.68954000  0.29970000  1.0
  C  C29  1  0.00268000  0.31046000  0.70030000  1.0
  C  C30  1  0.05531000  0.81644000  0.25031000  1.0
  C  C31  1  0.94469000  0.18356000  0.74969000  1.0
  C  C32  1  0.16190000  0.95863000  0.33648000  1.0
  C  C33  1  0.83808000  0.04136000  0.66352000  1.0
  C  C34  1  0.21685000  0.97232000  0.47137000  1.0
  C  C35  1  0.78314000  0.02768000  0.52863000  1.0
  C  C36  1  0.88984000  0.53589000  0.20854000  1.0
  C  C37  1  0.11017000  0.46411000  0.79147000  1.0
  C  C38  1  0.00099000  0.80055000  0.10598000  1.0
  C  C39  1  0.99900000  0.19944000  0.89401000  1.0
  C  C40  1  0.46713000  0.56903000  0.49897000  1.0
  C  C41  1  0.53287000  0.43098000  0.50104000  1.0
  N  N42  1  0.26813000  0.89495000  0.65522000  1.0
  N  N43  1  0.73188000  0.10505000  0.34478000  1.0
  N  N44  1  0.33118000  0.09890000  0.57600000  1.0
  N  N45  1  0.66882000  0.90111000  0.42400000  1.0
  O  O46  1  0.68424000  0.46535000  0.19713000  1.0
  O  O47  1  0.31577000  0.53465000  0.80287000  1.0
  O  O48  1  0.00211000  0.47862000  0.14741000  1.0
  O  O49  1  0.99790000  0.52138000  0.85259000  1.0
  O  O50  1  0.81770000  0.69714000  0.03033000  1.0
  O  O51  1  0.18229000  0.30285000  0.96966000  1.0
  O  O52  1  0.13594000  0.88820000  0.06064000  1.0
  O  O53  1  0.86404000  0.11179000  0.93934000  1.0
  O  O54  1  0.37214000  0.57786000  0.38614000  1.0
  O  O55  1  0.62786000  0.42214000  0.61388000  1.0
  O  O56  1  0.51100000  0.65839000  0.60962000  1.0
  O  O57  1  0.48899000  0.34161000  0.39039000  1.0
  O  O58  1  0.41313000  0.61676000  0.10348000  1.0
  O  O59  1  0.58687000  0.38324000  0.89650000  1.0
  O  O60  1  0.03661000  0.20054000  0.19184000  1.0
  O  O61  1  0.96338000  0.79947000  0.80816000  1.0
  O  O62  1  0.43562000  0.16815000  0.13598000  1.0
  O  O63  1  0.56438000  0.83184000  0.86402000  1.0
