# generated using pymatgen
data_ZnH17C23N3O4
_symmetry_space_group_name_H-M   'P 1'
_cell_length_a   7.67586000
_cell_length_b   9.79471000
_cell_length_c   15.45700000
_cell_angle_alpha   71.54960000
_cell_angle_beta   85.52280000
_cell_angle_gamma   75.69210000
_symmetry_Int_Tables_number   1
_chemical_formula_structural   ZnH17C23N3O4
_chemical_formula_sum   'Zn2 H34 C46 N6 O8'
_cell_volume   1068.17297431
_cell_formula_units_Z   2
loop_
 _symmetry_equiv_pos_site_id
 _symmetry_equiv_pos_as_xyz
  1  'x, y, z'
loop_
 _atom_site_type_symbol
 _atom_site_label
 _atom_site_symmetry_multiplicity
 _atom_site_fract_x
 _atom_site_fract_y
 _atom_site_fract_z
 _atom_site_occupancy
  Zn  Zn0  1  0.82862000  0.95202000  0.19427000  1.0
  Zn  Zn1  1  0.32919000  0.14609000  0.80576000  1.0
  H  H2  1  0.77405000  0.52991000  0.39697000  1.0
  H  H3  1  0.27372000  0.92702000  0.60307000  1.0
  H  H4  1  0.63402000  0.32935000  0.49771000  1.0
  H  H5  1  0.13382000  0.82706000  0.50229000  1.0
  H  H6  1  0.11294000  0.59005000  0.39235000  1.0
  H  H7  1  0.61269000  0.98265000  0.60747000  1.0
  H  H8  1  0.25192000  0.79133000  0.29589000  1.0
  H  H9  1  0.75155000  0.08745000  0.70407000  1.0
  H  H10  1  0.38690000  0.23423000  0.55333000  1.0
  H  H11  1  0.88666000  0.78735000  0.44672000  1.0
  H  H12  1  0.17994000  0.36104000  0.55384000  1.0
  H  H13  1  0.67974000  0.91478000  0.44603000  1.0
  H  H14  1  0.31570000  0.05641000  0.29924000  1.0
  H  H15  1  0.81562000  0.35586000  0.70073000  1.0
  H  H16  1  0.45452000  0.16351000  0.39412000  1.0
  H  H17  1  0.95433000  0.55778000  0.60585000  1.0
  H  H18  1  0.93163000  0.33206000  0.49248000  1.0
  H  H19  1  0.43131000  0.82467000  0.50771000  1.0
  H  H20  1  0.79083000  0.23645000  0.38924000  1.0
  H  H21  1  0.29063000  0.62597000  0.61100000  1.0
  H  H22  1  0.07836000  0.62451000  0.21023000  1.0
  H  H23  1  0.57864000  0.83466000  0.78972000  1.0
  H  H24  1  0.23541000  0.49141000  0.10044000  1.0
  H  H25  1  0.73525000  0.59153000  0.89938000  1.0
  H  H26  1  0.20654000  0.62811000  0.93194000  1.0
  H  H27  1  0.70634000  0.55956000  0.06793000  1.0
  H  H28  1  0.02340000  0.88968000  0.88046000  1.0
  H  H29  1  0.52349000  0.76960000  0.11957000  1.0
  H  H30  1  0.63766000  0.36721000  0.87583000  1.0
  H  H31  1  0.13742000  0.24298000  0.12407000  1.0
  H  H32  1  0.58747000  0.30310000  0.06502000  1.0
  H  H33  1  0.08770000  0.36776000  0.93486000  1.0
  H  H34  1  0.85726000  0.13897000  0.85425000  1.0
  H  H35  1  0.35704000  0.99310000  0.14583000  1.0
  C  C36  1  0.61135000  0.78713000  0.28148000  1.0
  C  C37  1  0.11120000  0.06880000  0.71855000  1.0
  C  C38  1  0.52311000  0.67073000  0.33945000  1.0
  C  C39  1  0.02281000  0.01042000  0.66053000  1.0
  C  C40  1  0.62964000  0.54088000  0.39682000  1.0
  C  C41  1  0.12930000  0.93791000  0.60316000  1.0
  C  C42  1  0.55129000  0.42975000  0.45205000  1.0
  C  C43  1  0.05105000  0.88188000  0.54792000  1.0
  C  C44  1  0.36534000  0.44507000  0.45097000  1.0
  C  C45  1  0.86509000  0.89621000  0.54893000  1.0
  C  C46  1  0.25856000  0.57609000  0.39376000  1.0
  C  C47  1  0.75830000  0.97016000  0.60608000  1.0
  C  C48  1  0.33593000  0.68845000  0.33855000  1.0
  C  C49  1  0.83561000  0.02726000  0.66139000  1.0
  C  C50  1  0.28341000  0.32058000  0.50864000  1.0
  C  C51  1  0.78315000  0.82923000  0.49132000  1.0
  C  C52  1  0.95555000  0.07926000  0.28189000  1.0
  C  C53  1  0.45531000  0.36150000  0.71816000  1.0
  C  C54  1  0.04324000  0.14242000  0.33758000  1.0
  C  C55  1  0.54309000  0.48023000  0.66254000  1.0
  C  C56  1  0.23115000  0.12024000  0.33983000  1.0
  C  C57  1  0.73100000  0.46029000  0.66022000  1.0
  C  C58  1  0.30866000  0.17822000  0.39458000  1.0
  C  C59  1  0.80845000  0.57300000  0.60549000  1.0
  C  C60  1  0.20121000  0.25558000  0.44986000  1.0
  C  C61  1  0.70096000  0.70559000  0.55020000  1.0
  C  C62  1  0.01458000  0.27508000  0.44794000  1.0
  C  C63  1  0.51432000  0.72320000  0.55224000  1.0
  C  C64  1  0.93591000  0.22104000  0.39165000  1.0
  C  C65  1  0.43573000  0.61292000  0.60855000  1.0
  C  C66  1  0.07073000  0.67820000  0.13660000  1.0
  C  C67  1  0.57100000  0.81460000  0.86337000  1.0
  C  C68  1  0.15682000  0.60514000  0.07517000  1.0
  C  C69  1  0.65683000  0.67998000  0.92472000  1.0
  C  C70  1  0.14043000  0.68142000  0.98189000  1.0
  C  C71  1  0.64041000  0.66291000  0.01802000  1.0
  C  C72  1  0.03892000  0.82691000  0.95256000  1.0
  C  C73  1  0.53905000  0.77909000  0.04744000  1.0
  C  C74  1  0.95706000  0.89250000  0.01856000  1.0
  C  C75  1  0.45737000  0.91079000  0.98150000  1.0
  C  C76  1  0.84457000  0.04232000  0.99899000  1.0
  C  C77  1  0.34482000  0.04103000  0.00108000  1.0
  C  C78  1  0.69159000  0.26984000  0.93202000  1.0
  C  C79  1  0.19147000  0.20162000  0.06795000  1.0
  C  C80  1  0.66735000  0.23624000  0.02543000  1.0
  C  C81  1  0.16748000  0.26135000  0.97451000  1.0
  N  N82  1  0.76234000  0.09439000  0.06611000  1.0
  N  N83  1  0.26268000  0.16014000  0.93390000  1.0
  N  N84  1  0.97438000  0.81834000  0.10887000  1.0
  N  N85  1  0.47481000  0.92699000  0.89118000  1.0
  N  N86  1  0.80270000  0.14668000  0.91705000  1.0
  N  N87  1  0.30265000  0.06353000  0.08299000  1.0
  O  O88  1  0.52246000  0.90294000  0.22337000  1.0
  O  O89  1  0.02237000  0.12656000  0.77665000  1.0
  O  O90  1  0.78195000  0.76795000  0.29021000  1.0
  O  O91  1  0.28183000  0.05819000  0.70985000  1.0
  O  O92  1  0.78470000  0.10752000  0.27632000  1.0
  O  O93  1  0.28450000  0.38428000  0.72374000  1.0
  O  O94  1  0.05503000  0.99372000  0.23954000  1.0
  O  O95  1  0.55477000  0.23353000  0.76042000  1.0
