# generated using pymatgen
data_AgHC4ClO2
_symmetry_space_group_name_H-M   'P 1'
_cell_length_a   6.24632000
_cell_length_b   10.81610000
_cell_length_c   14.74970000
_cell_angle_alpha   92.98930000
_cell_angle_beta   89.99990000
_cell_angle_gamma   90.00000000
_symmetry_Int_Tables_number   1
_chemical_formula_structural   AgHC4ClO2
_chemical_formula_sum   'Ag8 H8 C32 Cl8 O16'
_cell_volume   995.14590365
_cell_formula_units_Z   8
loop_
 _symmetry_equiv_pos_site_id
 _symmetry_equiv_pos_as_xyz
  1  'x, y, z'
loop_
 _atom_site_type_symbol
 _atom_site_label
 _atom_site_symmetry_multiplicity
 _atom_site_fract_x
 _atom_site_fract_y
 _atom_site_fract_z
 _atom_site_occupancy
  Ag  Ag0  1  0.04867000  0.29923000  0.55347000  1.0
  Ag  Ag1  1  0.54867000  0.20076000  0.44652000  1.0
  Ag  Ag2  1  0.95133000  0.70077000  0.44653000  1.0
  Ag  Ag3  1  0.45133000  0.79924000  0.55348000  1.0
  Ag  Ag4  1  0.66837000  0.44335000  0.58341000  1.0
  Ag  Ag5  1  0.16837000  0.05665000  0.41658000  1.0
  Ag  Ag6  1  0.33163000  0.55665000  0.41658000  1.0
  Ag  Ag7  1  0.83164000  0.94335000  0.58342000  1.0
  H  H8  1  0.19159000  0.88971000  0.72448000  1.0
  H  H9  1  0.69159000  0.61029000  0.27552000  1.0
  H  H10  1  0.80841000  0.11029000  0.27552000  1.0
  H  H11  1  0.30842000  0.38971000  0.72448000  1.0
  H  H12  1  0.82305000  0.12712000  0.84444000  1.0
  H  H13  1  0.32305000  0.37290000  0.15556000  1.0
  H  H14  1  0.17695000  0.87288000  0.15556000  1.0
  H  H15  1  0.67694000  0.62710000  0.84444000  1.0
  C  C16  1  0.42772000  0.90942000  0.83009000  1.0
  C  C17  1  0.92772000  0.59058000  0.16991000  1.0
  C  C18  1  0.57228000  0.09058000  0.16991000  1.0
  C  C19  1  0.07228000  0.40941000  0.83009000  1.0
  C  C20  1  0.33149000  0.94167000  0.74943000  1.0
  C  C21  1  0.83149000  0.55834000  0.25057000  1.0
  C  C22  1  0.66851000  0.05834000  0.25057000  1.0
  C  C23  1  0.16850000  0.44166000  0.74943000  1.0
  C  C24  1  0.41269000  0.04013000  0.70172000  1.0
  C  C25  1  0.91269000  0.45987000  0.29828000  1.0
  C  C26  1  0.58731000  0.95987000  0.29828000  1.0
  C  C27  1  0.08730000  0.54013000  0.70172000  1.0
  C  C28  1  0.58769000  0.10972000  0.73731000  1.0
  C  C29  1  0.08769000  0.39028000  0.26268000  1.0
  C  C30  1  0.41232000  0.89028000  0.26270000  1.0
  C  C31  1  0.91230000  0.60972000  0.73731000  1.0
  C  C32  1  0.68362000  0.07682000  0.81779000  1.0
  C  C33  1  0.18363000  0.42319000  0.18220000  1.0
  C  C34  1  0.31638000  0.92318000  0.18221000  1.0
  C  C35  1  0.81637000  0.57681000  0.81779000  1.0
  C  C36  1  0.60832000  0.97528000  0.86311000  1.0
  C  C37  1  0.10832000  0.52472000  0.13689000  1.0
  C  C38  1  0.39168000  0.02471000  0.13690000  1.0
  C  C39  1  0.89167000  0.47528000  0.86310000  1.0
  C  C40  1  0.32499000  0.06915000  0.61149000  1.0
  C  C41  1  0.82498000  0.43085000  0.38851000  1.0
  C  C42  1  0.67502000  0.93086000  0.38852000  1.0
  C  C43  1  0.17502000  0.56915000  0.61149000  1.0
  C  C44  1  0.68962000  0.20841000  0.68310000  1.0
  C  C45  1  0.18961000  0.29159000  0.31690000  1.0
  C  C46  1  0.31038000  0.79159000  0.31691000  1.0
  C  C47  1  0.81039000  0.70841000  0.68310000  1.0
  Cl  Cl48  1  0.32618000  0.78704000  0.88667000  1.0
  Cl  Cl49  1  0.82616000  0.71296000  0.11333000  1.0
  Cl  Cl50  1  0.67381000  0.21296000  0.11333000  1.0
  Cl  Cl51  1  0.17385000  0.28703000  0.88667000  1.0
  Cl  Cl52  1  0.74665000  0.92963000  0.95599000  1.0
  Cl  Cl53  1  0.24665000  0.57038000  0.04402000  1.0
  Cl  Cl54  1  0.25334000  0.07036000  0.04402000  1.0
  Cl  Cl55  1  0.75335000  0.42961000  0.95598000  1.0
  O  O56  1  0.64526000  0.32092000  0.70077000  1.0
  O  O57  1  0.14527000  0.17908000  0.29922000  1.0
  O  O58  1  0.35473000  0.67908000  0.29923000  1.0
  O  O59  1  0.85474000  0.82092000  0.70078000  1.0
  O  O60  1  0.82216000  0.16674000  0.62244000  1.0
  O  O61  1  0.32215000  0.33326000  0.37757000  1.0
  O  O62  1  0.17784000  0.83326000  0.37757000  1.0
  O  O63  1  0.67785000  0.66675000  0.62243000  1.0
  O  O64  1  0.34774000  0.17900000  0.58664000  1.0
  O  O65  1  0.84772000  0.32099000  0.41335000  1.0
  O  O66  1  0.65227000  0.82100000  0.41336000  1.0
  O  O67  1  0.15228000  0.67901000  0.58665000  1.0
  O  O68  1  0.23773000  0.98191000  0.56067000  1.0
  O  O69  1  0.73773000  0.51810000  0.43933000  1.0
  O  O70  1  0.76228000  0.01809000  0.43933000  1.0
  O  O71  1  0.26227000  0.48190000  0.56067000  1.0
