# generated using pymatgen
data_NaTbH12(CO)12
_symmetry_space_group_name_H-M   'P 1'
_cell_length_a   6.85277000
_cell_length_b   7.50111000
_cell_length_c   15.63859174
_cell_angle_alpha   89.99995618
_cell_angle_beta   77.34829254
_cell_angle_gamma   89.99990000
_symmetry_Int_Tables_number   1
_chemical_formula_structural   NaTbH12(CO)12
_chemical_formula_sum   'Na2 Tb2 H24 C24 O24'
_cell_volume   784.35797359
_cell_formula_units_Z   2
loop_
 _symmetry_equiv_pos_site_id
 _symmetry_equiv_pos_as_xyz
  1  'x, y, z'
loop_
 _atom_site_type_symbol
 _atom_site_label
 _atom_site_symmetry_multiplicity
 _atom_site_fract_x
 _atom_site_fract_y
 _atom_site_fract_z
 _atom_site_occupancy
  Na  Na0  1  0.14069000  0.24989000  0.71864000  1.0
  Na  Na1  1  0.85931000  0.74989000  0.28136000  1.0
  Tb  Tb2  1  0.30449000  0.75012000  0.39095000  1.0
  Tb  Tb3  1  0.69551000  0.25012000  0.60905000  1.0
  H  H4  1  0.86511000  0.25511000  0.89783000  1.0
  H  H5  1  0.13489000  0.75511000  0.10217000  1.0
  H  H6  1  0.76258000  0.74473000  0.10215000  1.0
  H  H7  1  0.23742000  0.24472000  0.89785000  1.0
  H  H8  1  0.78348000  0.26031000  0.06134000  1.0
  H  H9  1  0.21651000  0.76031000  0.93866000  1.0
  H  H10  1  0.84441000  0.73952000  0.93863000  1.0
  H  H11  1  0.15559000  0.23952000  0.06137000  1.0
  H  H12  1  0.06922000  0.26810000  0.41770000  1.0
  H  H13  1  0.93079000  0.76810000  0.58230000  1.0
  H  H14  1  0.48691000  0.73211000  0.58236000  1.0
  H  H15  1  0.51311000  0.23211000  0.41763000  1.0
  H  H16  1  0.45702000  0.38316000  0.30065000  1.0
  H  H17  1  0.54297000  0.88316000  0.69935000  1.0
  H  H18  1  0.75773000  0.61702000  0.69935000  1.0
  H  H19  1  0.24227000  0.11702000  0.30065000  1.0
  H  H20  1  0.99102000  0.90079000  0.79001000  1.0
  H  H21  1  0.00898000  0.40078000  0.20999000  1.0
  H  H22  1  0.78096000  0.09905000  0.21003000  1.0
  H  H23  1  0.21903000  0.59905000  0.78997000  1.0
  H  H24  1  0.21313000  0.91238000  0.80219000  1.0
  H  H25  1  0.78686000  0.41238000  0.19781000  1.0
  H  H26  1  0.01524000  0.08738000  0.19782000  1.0
  H  H27  1  0.98475000  0.58738000  0.80218000  1.0
  C  C28  1  0.55597000  0.24991000  0.88835000  1.0
  C  C29  1  0.44403000  0.74992000  0.11165000  1.0
  C  C30  1  0.60443000  0.25005000  0.79102000  1.0
  C  C31  1  0.39557000  0.75005000  0.20898000  1.0
  C  C32  1  0.13481000  0.08723000  0.51383000  1.0
  C  C33  1  0.86520000  0.58724000  0.48617000  1.0
  C  C34  1  0.64858000  0.91294000  0.48620000  1.0
  C  C35  1  0.35143000  0.41293000  0.51380000  1.0
  C  C36  1  0.19653000  0.18693000  0.42726000  1.0
  C  C37  1  0.80348000  0.68693000  0.57274000  1.0
  C  C38  1  0.62382000  0.81327000  0.57277000  1.0
  C  C39  1  0.37619000  0.31326000  0.42723000  1.0
  C  C40  1  0.71033000  0.25344000  0.93424000  1.0
  C  C41  1  0.28967000  0.75344000  0.06576000  1.0
  C  C42  1  0.64420000  0.74635000  0.06573000  1.0
  C  C43  1  0.35580000  0.24635000  0.93427000  1.0
  C  C44  1  0.46442000  0.24991000  0.07165000  1.0
  C  C45  1  0.53558000  0.74991000  0.92835000  1.0
  C  C46  1  0.66441000  0.25560000  0.02532000  1.0
  C  C47  1  0.33559000  0.75560000  0.97468000  1.0
  C  C48  1  0.68933000  0.74421000  0.97465000  1.0
  C  C49  1  0.31067000  0.24421000  0.02535000  1.0
  C  C50  1  0.41542000  0.24996000  0.16958000  1.0
  C  C51  1  0.58458000  0.74997000  0.83042000  1.0
  O  O52  1  0.78703000  0.24447000  0.74864000  1.0
  O  O53  1  0.21297000  0.74447000  0.25136000  1.0
  O  O54  1  0.53587000  0.75577000  0.25131000  1.0
  O  O55  1  0.46413000  0.25577000  0.74869000  1.0
  O  O56  1  0.19448000  0.92863000  0.51651000  1.0
  O  O57  1  0.80553000  0.42863000  0.48349000  1.0
  O  O58  1  0.71102000  0.07152000  0.48352000  1.0
  O  O59  1  0.28900000  0.57152000  0.51648000  1.0
  O  O60  1  0.39411000  0.44273000  0.35891000  1.0
  O  O61  1  0.60590000  0.94274000  0.64109000  1.0
  O  O62  1  0.75327000  0.55746000  0.64106000  1.0
  O  O63  1  0.24674000  0.05746000  0.35894000  1.0
  O  O64  1  0.02734000  0.16895000  0.57893000  1.0
  O  O65  1  0.97266000  0.66894000  0.42107000  1.0
  O  O66  1  0.60608000  0.83128000  0.42110000  1.0
  O  O67  1  0.39393000  0.33127000  0.57890000  1.0
  O  O68  1  0.09511000  0.98406000  0.79817000  1.0
  O  O69  1  0.90488000  0.48406000  0.20183000  1.0
  O  O70  1  0.89317000  0.01573000  0.20192000  1.0
  O  O71  1  0.10682000  0.51573000  0.79808000  1.0
  O  O72  1  0.23738000  0.21010000  0.21040000  1.0
  O  O73  1  0.76261000  0.71011000  0.78960000  1.0
  O  O74  1  0.44746000  0.78985000  0.78954000  1.0
  O  O75  1  0.55253000  0.28984000  0.21046000  1.0
