# generated using pymatgen
data_SmH14C7N10ClO6
_symmetry_space_group_name_H-M   'P 1'
_cell_length_a   8.81592000
_cell_length_b   10.02480000
_cell_length_c   10.07000000
_cell_angle_alpha   65.34070000
_cell_angle_beta   85.01770000
_cell_angle_gamma   70.79060000
_symmetry_Int_Tables_number   1
_chemical_formula_structural   SmH14C7N10ClO6
_chemical_formula_sum   'Sm2 H28 C14 N20 Cl2 O12'
_cell_volume   762.45235350
_cell_formula_units_Z   2
loop_
 _symmetry_equiv_pos_site_id
 _symmetry_equiv_pos_as_xyz
  1  'x, y, z'
loop_
 _atom_site_type_symbol
 _atom_site_label
 _atom_site_symmetry_multiplicity
 _atom_site_fract_x
 _atom_site_fract_y
 _atom_site_fract_z
 _atom_site_occupancy
  Sm  Sm0  1  0.10833000  0.17783000  0.05901000  1.0
  Sm  Sm1  1  0.89167000  0.82217000  0.94099000  1.0
  H  H2  1  0.21896000  0.84030000  0.10442000  1.0
  H  H3  1  0.78104000  0.15970000  0.89558000  1.0
  H  H4  1  0.36998000  0.89495000  0.06923000  1.0
  H  H5  1  0.63002000  0.10505000  0.93078000  1.0
  H  H6  1  0.84331000  0.36591000  0.81918000  1.0
  H  H7  1  0.15669000  0.63408000  0.18082000  1.0
  H  H8  1  0.49496000  0.81566000  0.74592000  1.0
  H  H9  1  0.50504000  0.18434000  0.25408000  1.0
  H  H10  1  0.55395000  0.71252000  0.63443000  1.0
  H  H11  1  0.44605000  0.28748000  0.36557000  1.0
  H  H12  1  0.42073000  0.31986000  0.77785000  1.0
  H  H13  1  0.57927000  0.68014000  0.22215000  1.0
  H  H14  1  0.53116000  0.24538000  0.65759000  1.0
  H  H15  1  0.46884000  0.75462000  0.34241000  1.0
  H  H16  1  0.18763000  0.22923000  0.60911000  1.0
  H  H17  1  0.81237000  0.77077000  0.39089000  1.0
  H  H18  1  0.35447000  0.07227000  0.71870000  1.0
  H  H19  1  0.64553000  0.92773000  0.28130000  1.0
  H  H20  1  0.10713000  0.75099000  0.61252000  1.0
  H  H21  1  0.89287000  0.24901000  0.38748000  1.0
  H  H22  1  0.29326000  0.62324000  0.71224000  1.0
  H  H23  1  0.70674000  0.37675000  0.28776000  1.0
  H  H24  1  0.59055000  0.44272000  0.89268000  1.0
  H  H25  1  0.40945000  0.55728000  0.10732000  1.0
  H  H26  1  0.71736000  0.51187000  0.96000000  1.0
  H  H27  1  0.28264000  0.48813000  0.04000000  1.0
  H  H28  1  0.66757000  0.34133000  0.07850000  1.0
  H  H29  1  0.33243000  0.65867000  0.92150000  1.0
  C  C30  1  0.12285000  0.04516000  0.77805000  1.0
  C  C31  1  0.87715000  0.95484000  0.22195000  1.0
  C  C32  1  0.23803000  0.10279000  0.66311000  1.0
  C  C33  1  0.76197000  0.89721000  0.33689000  1.0
  C  C34  1  0.36673000  0.91127000  0.54902000  1.0
  C  C35  1  0.63327000  0.08873000  0.45098000  1.0
  C  C36  1  0.09016000  0.54676000  0.79886000  1.0
  C  C37  1  0.90984000  0.45324000  0.20114000  1.0
  C  C38  1  0.17931000  0.62907000  0.66944000  1.0
  C  C39  1  0.82069000  0.37093000  0.33056000  1.0
  C  C40  1  0.33387000  0.43401000  0.56531000  1.0
  C  C41  1  0.66613000  0.56599000  0.43469000  1.0
  C  C42  1  0.69432000  0.40806000  0.96681000  1.0
  C  C43  1  0.30568000  0.59194000  0.03319000  1.0
  N  N44  1  0.23168000  0.05161000  0.34131000  1.0
  N  N45  1  0.76832000  0.94839000  0.65869000  1.0
  N  N46  1  0.17989000  0.13161000  0.41850000  1.0
  N  N47  1  0.82011000  0.86839000  0.58150000  1.0
  N  N48  1  0.26333000  0.04561000  0.55036000  1.0
  N  N49  1  0.73667000  0.95439000  0.44964000  1.0
  N  N50  1  0.34749000  0.91430000  0.41639000  1.0
  N  N51  1  0.65251000  0.08570000  0.58361000  1.0
  N  N52  1  0.46669000  0.79514000  0.66109000  1.0
  N  N53  1  0.53331000  0.20486000  0.33891000  1.0
  N  N54  1  0.21500000  0.56263000  0.56321000  1.0
  N  N55  1  0.78500000  0.43737000  0.43679000  1.0
  N  N56  1  0.12539000  0.63270000  0.43461000  1.0
  N  N57  1  0.87460000  0.36730000  0.56539000  1.0
  N  N58  1  0.19001000  0.54985000  0.36215000  1.0
  N  N59  1  0.80999000  0.45015000  0.63785000  1.0
  N  N60  1  0.31823000  0.42608000  0.43718000  1.0
  N  N61  1  0.68177000  0.57392000  0.56282000  1.0
  N  N62  1  0.44913000  0.33830000  0.67248000  1.0
  N  N63  1  0.55087000  0.66170000  0.32752000  1.0
  Cl  Cl64  1  0.42809000  0.17808000  0.04678000  1.0
  Cl  Cl65  1  0.57191000  0.82192000  0.95322000  1.0
  O  O66  1  0.07071000  0.94175000  0.77811000  1.0
  O  O67  1  0.92929000  0.05825000  0.22189000  1.0
  O  O68  1  0.08887000  0.10797000  0.86751000  1.0
  O  O69  1  0.91113000  0.89203000  0.13249000  1.0
  O  O70  1  0.12079000  0.40286000  0.83923000  1.0
  O  O71  1  0.87921000  0.59714000  0.16077000  1.0
  O  O72  1  0.99668000  0.62999000  0.85773000  1.0
  O  O73  1  0.00332000  0.37001000  0.14227000  1.0
  O  O74  1  0.27134000  0.90426000  0.12447000  1.0
  O  O75  1  0.72866000  0.09574000  0.87553000  1.0
  O  O76  1  0.83301000  0.30870000  0.92834000  1.0
  O  O77  1  0.16699000  0.69130000  0.07166000  1.0
