# generated using pymatgen
data_CuH17C15N5O
_symmetry_space_group_name_H-M   'P 1'
_cell_length_a   6.77641000
_cell_length_b   7.97772000
_cell_length_c   13.56100000
_cell_angle_alpha   76.42900000
_cell_angle_beta   89.99990000
_cell_angle_gamma   89.99930000
_symmetry_Int_Tables_number   1
_chemical_formula_structural   CuH17C15N5O
_chemical_formula_sum   'Cu2 H34 C30 N10 O2'
_cell_volume   712.64319065
_cell_formula_units_Z   2
loop_
 _symmetry_equiv_pos_site_id
 _symmetry_equiv_pos_as_xyz
  1  'x, y, z'
loop_
 _atom_site_type_symbol
 _atom_site_label
 _atom_site_symmetry_multiplicity
 _atom_site_fract_x
 _atom_site_fract_y
 _atom_site_fract_z
 _atom_site_occupancy
  Cu  Cu0  1  0.76864000  0.41129000  0.83934000  1.0
  Cu  Cu1  1  0.26863000  0.58871000  0.16067000  1.0
  H  H2  1  0.50146000  0.74878000  0.63146000  1.0
  H  H3  1  0.00145000  0.25122000  0.36854000  1.0
  H  H4  1  0.24881000  0.09600000  0.69809000  1.0
  H  H5  1  0.74881000  0.90401000  0.30192000  1.0
  H  H6  1  0.25740000  0.78643000  0.78818000  1.0
  H  H7  1  0.75740000  0.21357000  0.21182000  1.0
  H  H8  1  0.07006000  0.34472000  0.60546000  1.0
  H  H9  1  0.57007000  0.65528000  0.39454000  1.0
  H  H10  1  0.77888000  0.47567000  0.50432000  1.0
  H  H11  1  0.27889000  0.52433000  0.49568000  1.0
  H  H12  1  0.49887000  0.28425000  0.47825000  1.0
  H  H13  1  0.99887000  0.71574000  0.52174000  1.0
  H  H14  1  0.49935000  0.97992000  0.55897000  1.0
  H  H15  1  0.99934000  0.02007000  0.44102000  1.0
  H  H16  1  0.44720000  0.35143000  0.66834000  1.0
  H  H17  1  0.94719000  0.64858000  0.33167000  1.0
  H  H18  1  0.30108000  0.52754000  0.68672000  1.0
  H  H19  1  0.80107000  0.47247000  0.31328000  1.0
  H  H20  1  0.31975000  0.43055000  0.86986000  1.0
  H  H21  1  0.81974000  0.56945000  0.13014000  1.0
  H  H22  1  0.23680000  0.25282000  0.82379000  1.0
  H  H23  1  0.73679000  0.74719000  0.17621000  1.0
  H  H24  1  0.63362000  0.12239000  0.02361000  1.0
  H  H25  1  0.13360000  0.87761000  0.97638000  1.0
  H  H26  1  0.37689000  0.09465000  0.00268000  1.0
  H  H27  1  0.87687000  0.90533000  0.99732000  1.0
  H  H28  1  0.46767000  0.29910000  0.01700000  1.0
  H  H29  1  0.96767000  0.70089000  0.98301000  1.0
  H  H30  1  0.71836000  0.03020000  0.86995000  1.0
  H  H31  1  0.21835000  0.96980000  0.13004000  1.0
  H  H32  1  0.59935000  0.12707000  0.75396000  1.0
  H  H33  1  0.09934000  0.87293000  0.24603000  1.0
  H  H34  1  0.46162000  0.99221000  0.85506000  1.0
  H  H35  1  0.96161000  0.00779000  0.14493000  1.0
  C  C36  1  0.62556000  0.69026000  0.67932000  1.0
  C  C37  1  0.12555000  0.30974000  0.32067000  1.0
  C  C38  1  0.79331000  0.79714000  0.68430000  1.0
  C  C39  1  0.29330000  0.20286000  0.31570000  1.0
  C  C40  1  0.78859000  0.97722000  0.63084000  1.0
  C  C41  1  0.28859000  0.02278000  0.36916000  1.0
  C  C42  1  0.95284000  0.08631000  0.63940000  1.0
  C  C43  1  0.45285000  0.91369000  0.36060000  1.0
  C  C44  1  0.12240000  0.01269000  0.69530000  1.0
  C  C45  1  0.62240000  0.98732000  0.30470000  1.0
  C  C46  1  0.12876000  0.84280000  0.74438000  1.0
  C  C47  1  0.62877000  0.15720000  0.25563000  1.0
  C  C48  1  0.96372000  0.72997000  0.74297000  1.0
  C  C49  1  0.46371000  0.27004000  0.25703000  1.0
  C  C50  1  0.94542000  0.26479000  0.59401000  1.0
  C  C51  1  0.44542000  0.73521000  0.40599000  1.0
  C  C52  1  0.78379000  0.33753000  0.53779000  1.0
  C  C53  1  0.28379000  0.66246000  0.46221000  1.0
  C  C54  1  0.62525000  0.23045000  0.52491000  1.0
  C  C55  1  0.12525000  0.76954000  0.47508000  1.0
  C  C56  1  0.62708000  0.05569000  0.57056000  1.0
  C  C57  1  0.12707000  0.94430000  0.42944000  1.0
  C  C58  1  0.42103000  0.43863000  0.71927000  1.0
  C  C59  1  0.92102000  0.56137000  0.28074000  1.0
  C  C60  1  0.36345000  0.33877000  0.82519000  1.0
  C  C61  1  0.86344000  0.66123000  0.17481000  1.0
  C  C62  1  0.50079000  0.18633000  0.98701000  1.0
  C  C63  1  0.00077000  0.81366000  0.01299000  1.0
  C  C64  1  0.58051000  0.08878000  0.83633000  1.0
  C  C65  1  0.08050000  0.91122000  0.16367000  1.0
  N  N66  1  0.93506000  0.26455000  0.94290000  1.0
  N  N67  1  0.43505000  0.73545000  0.05710000  1.0
  N  N68  1  0.60401000  0.53022000  0.72784000  1.0
  N  N69  1  0.10399000  0.46979000  0.27216000  1.0
  N  N70  1  0.53489000  0.24039000  0.87686000  1.0
  N  N71  1  0.03488000  0.75961000  0.12314000  1.0
  N  N72  1  0.02124000  0.32722000  0.00281000  1.0
  N  N73  1  0.52123000  0.67278000  0.99719000  1.0
  N  N74  1  0.10891000  0.37979000  0.06377000  1.0
  N  N75  1  0.60889000  0.62022000  0.93623000  1.0
  O  O76  1  0.98436000  0.57234000  0.79547000  1.0
  O  O77  1  0.48435000  0.42766000  0.20454000  1.0
