# generated using pymatgen
data_CuH15C18N3O4
_symmetry_space_group_name_H-M   'P 1'
_cell_length_a   7.19609000
_cell_length_b   9.01617000
_cell_length_c   13.76886684
_cell_angle_alpha   71.34766664
_cell_angle_beta   80.62523519
_cell_angle_gamma   81.92220000
_symmetry_Int_Tables_number   1
_chemical_formula_structural   CuH15C18N3O4
_chemical_formula_sum   'Cu2 H30 C36 N6 O8'
_cell_volume   831.37018044
_cell_formula_units_Z   2
loop_
 _symmetry_equiv_pos_site_id
 _symmetry_equiv_pos_as_xyz
  1  'x, y, z'
loop_
 _atom_site_type_symbol
 _atom_site_label
 _atom_site_symmetry_multiplicity
 _atom_site_fract_x
 _atom_site_fract_y
 _atom_site_fract_z
 _atom_site_occupancy
  Cu  Cu0  1  0.50000000  0.00000000  0.00000000  1.0
  Cu  Cu1  1  0.49999000  0.00000000  0.50000000  1.0
  H  H2  1  0.32954000  0.93873000  0.84408000  1.0
  H  H3  1  0.67047000  0.06126000  0.15592000  1.0
  H  H4  1  0.32906000  0.93999000  0.71456000  1.0
  H  H5  1  0.67094000  0.06001000  0.28544000  1.0
  H  H6  1  0.24547000  0.41283000  0.87731000  1.0
  H  H7  1  0.75454000  0.58718000  0.12269000  1.0
  H  H8  1  0.97332000  0.28337000  0.98685000  1.0
  H  H9  1  0.02669000  0.71663000  0.01315000  1.0
  H  H10  1  0.99285000  0.56922000  0.89522000  1.0
  H  H11  1  0.00716000  0.43077000  0.10479000  1.0
  H  H12  1  0.72231000  0.73459000  0.81088000  1.0
  H  H13  1  0.27771000  0.26541000  0.18913000  1.0
  H  H14  1  0.42660000  0.61261000  0.82157000  1.0
  H  H15  1  0.57342000  0.38739000  0.17844000  1.0
  H  H16  1  0.22061000  0.41783000  0.44827000  1.0
  H  H17  1  0.77938000  0.58218000  0.55172000  1.0
  H  H18  1  0.98682000  0.27337000  0.33563000  1.0
  H  H19  1  0.01317000  0.72663000  0.66437000  1.0
  H  H20  1  0.99836000  0.56189000  0.28791000  1.0
  H  H21  1  0.00163000  0.43811000  0.71209000  1.0
  H  H22  1  0.70340000  0.73889000  0.30562000  1.0
  H  H23  1  0.29659000  0.26111000  0.69438000  1.0
  H  H24  1  0.39825000  0.62177000  0.37841000  1.0
  H  H25  1  0.60174000  0.37822000  0.62160000  1.0
  H  H26  1  0.89738000  0.07312000  0.85770000  1.0
  H  H27  1  0.10263000  0.92687000  0.14230000  1.0
  H  H28  1  0.07241000  0.11089000  0.67532000  1.0
  H  H29  1  0.92759000  0.88911000  0.32468000  1.0
  H  H30  1  0.88658000  0.08673000  0.54195000  1.0
  H  H31  1  0.11341000  0.91327000  0.45804000  1.0
  C  C32  1  0.35677000  0.32275000  0.91165000  1.0
  C  C33  1  0.64324000  0.67725000  0.08835000  1.0
  C  C34  1  0.53309000  0.38033000  0.90843000  1.0
  C  C35  1  0.46692000  0.61966000  0.09158000  1.0
  C  C36  1  0.68810000  0.28330000  0.95828000  1.0
  C  C37  1  0.31191000  0.71670000  0.04172000  1.0
  C  C38  1  0.85370000  0.35737000  0.95162000  1.0
  C  C39  1  0.14631000  0.64263000  0.04838000  1.0
  C  C40  1  0.86376000  0.51573000  0.89932000  1.0
  C  C41  1  0.13625000  0.48427000  0.10069000  1.0
  C  C42  1  0.71160000  0.61024000  0.85071000  1.0
  C  C43  1  0.28840000  0.38975000  0.14930000  1.0
  C  C44  1  0.54846000  0.54226000  0.85666000  1.0
  C  C45  1  0.45155000  0.45774000  0.14335000  1.0
  C  C46  1  0.33956000  0.32567000  0.44706000  1.0
  C  C47  1  0.66044000  0.67433000  0.55294000  1.0
  C  C48  1  0.51879000  0.38207000  0.39973000  1.0
  C  C49  1  0.48120000  0.61794000  0.60027000  1.0
  C  C50  1  0.68648000  0.27965000  0.38508000  1.0
  C  C51  1  0.31351000  0.72035000  0.61492000  1.0
  C  C52  1  0.85879000  0.35059000  0.34492000  1.0
  C  C53  1  0.14120000  0.64941000  0.65508000  1.0
  C  C54  1  0.86359000  0.51165000  0.31865000  1.0
  C  C55  1  0.13640000  0.48835000  0.68135000  1.0
  C  C56  1  0.69763000  0.61220000  0.32898000  1.0
  C  C57  1  0.30236000  0.38779000  0.67103000  1.0
  C  C58  1  0.52854000  0.54687000  0.36865000  1.0
  C  C59  1  0.47145000  0.45313000  0.63136000  1.0
  C  C60  1  0.56239000  0.01441000  0.74311000  1.0
  C  C61  1  0.43762000  0.98559000  0.25688000  1.0
  C  C62  1  0.82948000  0.06401000  0.79457000  1.0
  C  C63  1  0.17052000  0.93598000  0.20543000  1.0
  C  C64  1  0.92565000  0.08532000  0.69534000  1.0
  C  C65  1  0.07435000  0.91467000  0.30465000  1.0
  C  C66  1  0.82298000  0.07114000  0.62175000  1.0
  C  C67  1  0.17702000  0.92887000  0.37824000  1.0
  N  N68  1  0.38272000  0.97446000  0.76739000  1.0
  N  N69  1  0.61729000  0.02554000  0.23260000  1.0
  N  N70  1  0.64941000  0.03001000  0.81923000  1.0
  N  N71  1  0.35059000  0.96998000  0.18077000  1.0
  N  N72  1  0.64275000  0.03784000  0.64355000  1.0
  N  N73  1  0.35724000  0.96217000  0.35644000  1.0
  O  O74  1  0.31247000  0.18394000  0.94862000  1.0
  O  O75  1  0.68754000  0.81607000  0.05137000  1.0
  O  O76  1  0.68439000  0.13392000  0.00910000  1.0
  O  O77  1  0.31563000  0.86608000  0.99089000  1.0
  O  O78  1  0.30172000  0.18570000  0.48847000  1.0
  O  O79  1  0.69827000  0.81431000  0.51153000  1.0
  O  O80  1  0.68886000  0.12764000  0.40504000  1.0
  O  O81  1  0.31113000  0.87236000  0.59496000  1.0
