# generated using pymatgen
data_MnH8C10(N4O)2
_symmetry_space_group_name_H-M   'P 1'
_cell_length_a   6.36728000
_cell_length_b   7.08051000
_cell_length_c   7.60034000
_cell_angle_alpha   70.53100000
_cell_angle_beta   80.53350000
_cell_angle_gamma   87.19850000
_symmetry_Int_Tables_number   1
_chemical_formula_structural   MnH8C10(N4O)2
_chemical_formula_sum   'Mn1 H8 C10 N8 O2'
_cell_volume   318.65258375
_cell_formula_units_Z   1
loop_
 _symmetry_equiv_pos_site_id
 _symmetry_equiv_pos_as_xyz
  1  'x, y, z'
loop_
 _atom_site_type_symbol
 _atom_site_label
 _atom_site_symmetry_multiplicity
 _atom_site_fract_x
 _atom_site_fract_y
 _atom_site_fract_z
 _atom_site_occupancy
  Mn  Mn0  1  0.00000000  0.99999000  0.00001000  1.0
  H  H1  1  0.66834000  0.37378000  0.91947000  1.0
  H  H2  1  0.33169000  0.62623000  0.08050000  1.0
  H  H3  1  0.58579000  0.61996000  0.79174000  1.0
  H  H4  1  0.41423000  0.38003000  0.20828000  1.0
  H  H5  1  0.80865000  0.58499000  0.91533000  1.0
  H  H6  1  0.19137000  0.41499000  0.08465000  1.0
  H  H7  1  0.32249000  0.30256000  0.54942000  1.0
  H  H8  1  0.67751000  0.69743000  0.45057000  1.0
  C  C9  1  0.86444000  0.51617000  0.65803000  1.0
  C  C10  1  0.13549000  0.48386000  0.34194000  1.0
  C  C11  1  0.72319000  0.52545000  0.83041000  1.0
  C  C12  1  0.27676000  0.47455000  0.16965000  1.0
  C  C13  1  0.17921000  0.39048000  0.52255000  1.0
  C  C14  1  0.82080000  0.60955000  0.47736000  1.0
  C  C15  1  0.26160000  0.87629000  0.64282000  1.0
  C  C16  1  0.73842000  0.12371000  0.35720000  1.0
  C  C17  1  0.28395000  0.91110000  0.32786000  1.0
  C  C18  1  0.71606000  0.08888000  0.67216000  1.0
  N  N19  1  0.04810000  0.40506000  0.67846000  1.0
  N  N20  1  0.95191000  0.59492000  0.32150000  1.0
  N  N21  1  0.20424000  0.90310000  0.78815000  1.0
  N  N22  1  0.79578000  0.09692000  0.21187000  1.0
  N  N23  1  0.34095000  0.83326000  0.49272000  1.0
  N  N24  1  0.65907000  0.16673000  0.50731000  1.0
  N  N25  1  0.24471000  0.96976000  0.17226000  1.0
  N  N26  1  0.75529000  0.03024000  0.82776000  1.0
  O  O27  1  0.09575000  0.31119000  0.84712000  1.0
  O  O28  1  0.90424000  0.68879000  0.15291000  1.0
