# generated using pymatgen
data_Zn3H34(C7O2)6
_symmetry_space_group_name_H-M   'P 1'
_cell_length_a   18.19640000
_cell_length_b   18.19640000
_cell_length_c   24.77920000
_cell_angle_alpha   89.99980000
_cell_angle_beta   90.00000000
_cell_angle_gamma   60.00000000
_symmetry_Int_Tables_number   1
_chemical_formula_structural   Zn3H34(C7O2)6
_chemical_formula_sum   'Zn9 H102 C126 O36'
_cell_volume   7105.40541898
_cell_formula_units_Z   3
loop_
 _symmetry_equiv_pos_site_id
 _symmetry_equiv_pos_as_xyz
  1  'x, y, z'
loop_
 _atom_site_type_symbol
 _atom_site_label
 _atom_site_symmetry_multiplicity
 _atom_site_fract_x
 _atom_site_fract_y
 _atom_site_fract_z
 _atom_site_occupancy
  Zn  Zn0  1  0.67641000  0.00000000  1.00000000  1.0
  Zn  Zn1  1  0.00000000  0.32358000  0.33333333  1.0
  Zn  Zn2  1  0.32358000  0.67642000  0.66666667  1.0
  Zn  Zn3  1  0.77632000  0.94239000  0.10789000  1.0
  Zn  Zn4  1  0.94237000  0.28131000  0.44123000  1.0
  Zn  Zn5  1  0.28129000  0.77633000  0.77456000  1.0
  Zn  Zn6  1  0.71871000  0.05761000  0.89211000  1.0
  Zn  Zn7  1  0.05762000  0.22367000  0.22544000  1.0
  Zn  Zn8  1  0.22368000  0.71870000  0.55877000  1.0
  H  H9  1  0.43450000  0.11746000  0.95800000  1.0
  H  H10  1  0.11745000  0.44805000  0.29134000  1.0
  H  H11  1  0.44804000  0.43450000  0.62467000  1.0
  H  H12  1  0.55196000  0.88254000  0.04200000  1.0
  H  H13  1  0.88254000  0.56550000  0.37533000  1.0
  H  H14  1  0.56550000  0.55195000  0.70866000  1.0
  H  H15  1  0.51112000  0.14189000  0.93010000  1.0
  H  H16  1  0.14189000  0.34699000  0.26343000  1.0
  H  H17  1  0.34698000  0.51112000  0.59677000  1.0
  H  H18  1  0.65302000  0.85810000  0.06990000  1.0
  H  H19  1  0.85810000  0.48888000  0.40323000  1.0
  H  H20  1  0.48888000  0.65301000  0.73657000  1.0
  H  H21  1  0.43466000  0.21260000  0.97827000  1.0
  H  H22  1  0.21259000  0.35274000  0.31160000  1.0
  H  H23  1  0.35273000  0.43467000  0.64494000  1.0
  H  H24  1  0.64727000  0.78740000  0.02173000  1.0
  H  H25  1  0.78740000  0.56533000  0.35507000  1.0
  H  H26  1  0.56533000  0.64726000  0.68840000  1.0
  H  H27  1  0.37341000  0.16812000  0.04490000  1.0
  H  H28  1  0.16811000  0.45848000  0.37823000  1.0
  H  H29  1  0.45847000  0.37341000  0.71157000  1.0
  H  H30  1  0.54153000  0.83188000  0.95510000  1.0
  H  H31  1  0.83188000  0.62659000  0.28843000  1.0
  H  H32  1  0.62659000  0.54153000  0.62177000  1.0
  H  H33  1  0.45306000  0.09424000  0.20952000  1.0
  H  H34  1  0.09424000  0.45270000  0.54285000  1.0
  H  H35  1  0.45270000  0.45306000  0.87618000  1.0
  H  H36  1  0.54730000  0.90576000  0.79048000  1.0
  H  H37  1  0.90577000  0.54693000  0.12382000  1.0
  H  H38  1  0.54694000  0.54730000  0.45715000  1.0
  H  H39  1  0.60483000  0.02603000  0.18091000  1.0
  H  H40  1  0.02603000  0.36914000  0.51424000  1.0
  H  H41  1  0.36914000  0.60483000  0.84758000  1.0
  H  H42  1  0.63086000  0.97397000  0.81909000  1.0
  H  H43  1  0.97397000  0.39517000  0.15242000  1.0
  H  H44  1  0.39517000  0.63086000  0.48576000  1.0
  H  H45  1  0.30488000  0.16792000  0.18980000  1.0
  H  H46  1  0.16792000  0.52720000  0.52313000  1.0
  H  H47  1  0.52720000  0.30488000  0.85646000  1.0
  H  H48  1  0.47280000  0.83208000  0.81020000  1.0
  H  H49  1  0.83208000  0.69512000  0.14353000  1.0
  H  H50  1  0.69512000  0.47280000  0.47687000  1.0
  H  H51  1  0.25736000  0.16740000  0.07068000  1.0
  H  H52  1  0.16739000  0.57524000  0.40401000  1.0
  H  H53  1  0.57524000  0.25737000  0.73735000  1.0
  H  H54  1  0.42476000  0.83261000  0.92932000  1.0
  H  H55  1  0.83261000  0.74263000  0.26265000  1.0
  H  H56  1  0.74263000  0.42477000  0.59599000  1.0
  H  H57  1  0.12947000  0.17405000  0.06040000  1.0
  H  H58  1  0.17405000  0.69648000  0.39373000  1.0
  H  H59  1  0.69649000  0.12947000  0.72707000  1.0
  H  H60  1  0.30352000  0.82595000  0.93960000  1.0
  H  H61  1  0.82596000  0.87052000  0.27293000  1.0
  H  H62  1  0.87053000  0.30352000  0.60627000  1.0
  H  H63  1  0.01503000  0.16012000  0.03457000  1.0
  H  H64  1  0.16012000  0.82485000  0.36791000  1.0
  H  H65  1  0.82486000  0.01503000  0.70124000  1.0
  H  H66  1  0.17515000  0.83988000  0.96543000  1.0
  H  H67  1  0.83989000  0.98497000  0.29876000  1.0
  H  H68  1  0.98497000  0.17515000  0.63210000  1.0
  H  H69  1  0.89104000  0.19627000  0.12839000  1.0
  H  H70  1  0.19626000  0.91270000  0.46173000  1.0
  H  H71  1  0.91270000  0.89104000  0.79506000  1.0
  H  H72  1  0.08731000  0.80373000  0.87161000  1.0
  H  H73  1  0.80374000  0.10896000  0.20494000  1.0
  H  H74  1  0.10896000  0.08730000  0.53828000  1.0
  H  H75  1  0.77115000  0.18760000  0.11934000  1.0
  H  H76  1  0.18759000  0.04125000  0.45268000  1.0
  H  H77  1  0.04125000  0.77115000  0.78601000  1.0
  H  H78  1  0.95875000  0.81240000  0.88066000  1.0
  H  H79  1  0.81240000  0.22885000  0.21399000  1.0
  H  H80  1  0.22884000  0.95875000  0.54732000  1.0
  H  H81  1  0.67819000  0.14713000  0.06921000  1.0
  H  H82  1  0.14713000  0.17468000  0.40255000  1.0
  H  H83  1  0.17468000  0.67818000  0.73588000  1.0
  H  H84  1  0.82532000  0.85287000  0.93079000  1.0
  H  H85  1  0.85286000  0.32181000  0.26412000  1.0
  H  H86  1  0.32181000  0.82532000  0.59745000  1.0
  H  H87  1  0.93580000  0.12227000  0.98067000  1.0
  H  H88  1  0.12227000  0.94192000  0.31400000  1.0
  H  H89  1  0.94193000  0.93581000  0.64734000  1.0
  H  H90  1  0.05807000  0.87773000  0.01933000  1.0
  H  H91  1  0.87774000  0.06419000  0.35266000  1.0
  H  H92  1  0.06419000  0.05808000  0.68600000  1.0
  H  H93  1  0.91708000  0.12066000  0.88837000  1.0
  H  H94  1  0.12066000  0.96226000  0.22170000  1.0
  H  H95  1  0.96226000  0.91709000  0.55503000  1.0
  H  H96  1  0.03774000  0.87934000  0.11163000  1.0
  H  H97  1  0.87934000  0.08292000  0.44497000  1.0
  H  H98  1  0.08292000  0.03774000  0.77830000  1.0
  H  H99  1  0.90716000  0.04086000  0.85133000  1.0
  H  H100  1  0.04086000  0.05198000  0.18467000  1.0
  H  H101  1  0.05199000  0.90715000  0.51800000  1.0
  H  H102  1  0.94802000  0.95914000  0.14867000  1.0
  H  H103  1  0.95914000  0.09285000  0.48200000  1.0
  H  H104  1  0.09283000  0.94803000  0.81533000  1.0
  H  H105  1  0.96943000  0.01214000  0.91196000  1.0
  H  H106  1  0.01215000  0.01842000  0.24530000  1.0
  H  H107  1  0.01844000  0.96942000  0.57863000  1.0
  H  H108  1  0.98157000  0.98786000  0.08804000  1.0
  H  H109  1  0.98786000  0.03058000  0.42137000  1.0
  H  H110  1  0.03057000  0.98158000  0.75470000  1.0
  C  C111  1  0.47444000  0.14586000  0.96611000  1.0
  C  C112  1  0.14585000  0.37971000  0.29944000  1.0
  C  C113  1  0.37969000  0.47444000  0.63278000  1.0
  C  C114  1  0.62030000  0.85414000  0.03389000  1.0
  C  C115  1  0.85414000  0.52555000  0.36722000  1.0
  C  C116  1  0.52556000  0.62030000  0.70055000  1.0
  C  C117  1  0.57497000  0.05667000  0.09717000  1.0
  C  C118  1  0.05667000  0.36836000  0.43050000  1.0
  C  C119  1  0.36836000  0.57497000  0.76383000  1.0
  C  C120  1  0.63164000  0.94333000  0.90283000  1.0
  C  C121  1  0.94333000  0.42503000  0.23617000  1.0
  C  C122  1  0.42503000  0.63164000  0.56950000  1.0
  C  C123  1  0.50781000  0.09968000  0.05915000  1.0
  C  C124  1  0.09968000  0.39251000  0.39248000  1.0
  C  C125  1  0.39251000  0.50781000  0.72582000  1.0
  C  C126  1  0.60749000  0.90032000  0.94085000  1.0
  C  C127  1  0.90032000  0.49219000  0.27418000  1.0
  C  C128  1  0.49219000  0.60749000  0.60752000  1.0
  C  C129  1  0.42383000  0.13632000  0.07454000  1.0
  C  C130  1  0.13632000  0.43985000  0.40787000  1.0
  C  C131  1  0.43984000  0.42383000  0.74121000  1.0
  C  C132  1  0.56015000  0.86367000  0.92546000  1.0
  C  C133  1  0.86368000  0.57617000  0.25879000  1.0
  C  C134  1  0.57617000  0.56015000  0.59213000  1.0
  C  C135  1  0.40265000  0.13335000  0.12919000  1.0
  C  C136  1  0.13334000  0.46401000  0.46252000  1.0
  C  C137  1  0.46400000  0.40265000  0.79586000  1.0
  C  C138  1  0.53600000  0.86665000  0.87081000  1.0
  C  C139  1  0.86666000  0.59734000  0.20414000  1.0
  C  C140  1  0.59735000  0.53599000  0.53748000  1.0
  C  C141  1  0.46892000  0.09556000  0.16718000  1.0
  C  C142  1  0.09555000  0.43553000  0.50051000  1.0
  C  C143  1  0.43552000  0.46893000  0.83385000  1.0
  C  C144  1  0.56448000  0.90444000  0.83282000  1.0
  C  C145  1  0.90445000  0.53107000  0.16616000  1.0
  C  C146  1  0.53108000  0.56447000  0.49949000  1.0
  C  C147  1  0.55366000  0.05712000  0.15154000  1.0
  C  C148  1  0.05712000  0.38922000  0.48487000  1.0
  C  C149  1  0.38922000  0.55366000  0.81821000  1.0
  C  C150  1  0.61078000  0.94288000  0.84846000  1.0
  C  C151  1  0.94289000  0.44633000  0.18180000  1.0
  C  C152  1  0.44633000  0.61078000  0.51513000  1.0
  C  C153  1  0.31651000  0.16230000  0.14625000  1.0
  C  C154  1  0.16230000  0.52119000  0.47958000  1.0
  C  C155  1  0.52119000  0.31651000  0.81292000  1.0
  C  C156  1  0.47881000  0.83769000  0.85375000  1.0
  C  C157  1  0.83770000  0.68349000  0.18708000  1.0
  C  C158  1  0.68349000  0.47881000  0.52042000  1.0
  C  C159  1  0.24991000  0.17681000  0.11428000  1.0
  C  C160  1  0.17681000  0.57328000  0.44761000  1.0
  C  C161  1  0.57329000  0.24991000  0.78095000  1.0
  C  C162  1  0.42672000  0.82319000  0.88572000  1.0
  C  C163  1  0.82320000  0.75009000  0.21905000  1.0
  C  C164  1  0.75009000  0.42672000  0.55239000  1.0
  C  C165  1  0.16833000  0.19599000  0.13710000  1.0
  C  C166  1  0.19599000  0.63568000  0.47043000  1.0
  C  C167  1  0.63569000  0.16833000  0.80377000  1.0
  C  C168  1  0.36432000  0.80401000  0.86290000  1.0
  C  C169  1  0.80402000  0.83167000  0.19623000  1.0
  C  C170  1  0.83167000  0.36432000  0.52957000  1.0
  C  C171  1  0.10992000  0.18944000  0.10240000  1.0
  C  C172  1  0.18944000  0.70064000  0.43574000  1.0
  C  C173  1  0.70065000  0.10992000  0.76907000  1.0
  C  C174  1  0.29936000  0.81056000  0.89760000  1.0
  C  C175  1  0.81057000  0.89008000  0.23093000  1.0
  C  C176  1  0.89008000  0.29936000  0.56426000  1.0
  C  C177  1  0.03231000  0.19436000  0.11636000  1.0
  C  C178  1  0.19436000  0.77333000  0.44970000  1.0
  C  C179  1  0.77334000  0.03231000  0.78303000  1.0
  C  C180  1  0.22667000  0.80564000  0.88364000  1.0
  C  C181  1  0.80565000  0.96768000  0.21697000  1.0
  C  C182  1  0.96769000  0.22667000  0.55030000  1.0
  C  C183  1  0.98666000  0.17631000  0.07472000  1.0
  C  C184  1  0.17631000  0.83704000  0.40806000  1.0
  C  C185  1  0.83704000  0.98666000  0.74139000  1.0
  C  C186  1  0.16297000  0.82368000  0.92528000  1.0
  C  C187  1  0.82369000  0.01335000  0.25861000  1.0
  C  C188  1  0.01334000  0.16297000  0.59194000  1.0
  C  C189  1  0.91293000  0.17804000  0.08682000  1.0
  C  C190  1  0.17804000  0.90903000  0.42016000  1.0
  C  C191  1  0.90904000  0.91292000  0.75349000  1.0
  C  C192  1  0.09097000  0.82195000  0.91318000  1.0
  C  C193  1  0.82196000  0.08707000  0.24651000  1.0
  C  C194  1  0.08707000  0.09097000  0.57984000  1.0
  C  C195  1  0.86006000  0.15780000  0.05395000  1.0
  C  C196  1  0.15779000  0.98215000  0.38728000  1.0
  C  C197  1  0.98215000  0.86006000  0.72061000  1.0
  C  C198  1  0.01786000  0.84220000  0.94605000  1.0
  C  C199  1  0.84221000  0.13994000  0.27939000  1.0
  C  C200  1  0.13993000  0.01786000  0.61272000  1.0
  C  C201  1  0.78656000  0.16489000  0.07785000  1.0
  C  C202  1  0.16488000  0.04856000  0.41119000  1.0
  C  C203  1  0.04856000  0.78656000  0.74452000  1.0
  C  C204  1  0.95145000  0.83511000  0.92215000  1.0
  C  C205  1  0.83512000  0.21344000  0.25548000  1.0
  C  C206  1  0.21344000  0.95144000  0.58881000  1.0
  C  C207  1  0.73413000  0.14282000  0.05012000  1.0
  C  C208  1  0.14282000  0.12305000  0.38345000  1.0
  C  C209  1  0.12305000  0.73413000  0.71678000  1.0
  C  C210  1  0.87695000  0.85718000  0.94988000  1.0
  C  C211  1  0.85718000  0.26587000  0.28322000  1.0
  C  C212  1  0.26587000  0.87694000  0.61655000  1.0
  C  C213  1  0.75339000  0.11268000  0.99703000  1.0
  C  C214  1  0.11267000  0.13393000  0.33037000  1.0
  C  C215  1  0.13393000  0.75339000  0.66370000  1.0
  C  C216  1  0.86607000  0.88733000  0.00297000  1.0
  C  C217  1  0.88732000  0.24661000  0.33630000  1.0
  C  C218  1  0.24660000  0.86607000  0.66963000  1.0
  C  C219  1  0.82632000  0.10751000  0.97191000  1.0
  C  C220  1  0.10751000  0.06617000  0.30524000  1.0
  C  C221  1  0.06617000  0.82632000  0.63858000  1.0
  C  C222  1  0.93384000  0.89248000  0.02809000  1.0
  C  C223  1  0.89249000  0.17368000  0.36142000  1.0
  C  C224  1  0.17368000  0.93383000  0.69476000  1.0
  C  C225  1  0.87897000  0.12881000  0.99983000  1.0
  C  C226  1  0.12881000  0.99222000  0.33317000  1.0
  C  C227  1  0.99222000  0.87897000  0.66650000  1.0
  C  C228  1  0.00778000  0.87119000  0.00017000  1.0
  C  C229  1  0.87119000  0.12103000  0.33350000  1.0
  C  C230  1  0.12103000  0.00778000  0.66684000  1.0
  C  C231  1  0.91290000  0.06248000  0.89153000  1.0
  C  C232  1  0.06248000  0.02462000  0.22487000  1.0
  C  C233  1  0.02462000  0.91290000  0.55819000  1.0
  C  C234  1  0.97538000  0.93752000  0.10847000  1.0
  C  C235  1  0.93752000  0.08710000  0.44181000  1.0
  C  C236  1  0.08710000  0.97538000  0.77514000  1.0
  O  O237  1  0.53566000  0.09939000  0.00731000  1.0
  O  O238  1  0.09940000  0.36494000  0.34064000  1.0
  O  O239  1  0.36494000  0.53566000  0.67397000  1.0
  O  O240  1  0.63506000  0.90060000  0.99269000  1.0
  O  O241  1  0.90060000  0.46434000  0.32603000  1.0
  O  O242  1  0.46434000  0.63506000  0.65936000  1.0
  O  O243  1  0.65459000  0.01839000  0.07901000  1.0
  O  O244  1  0.01840000  0.32701000  0.41235000  1.0
  O  O245  1  0.32701000  0.65460000  0.74568000  1.0
  O  O246  1  0.67298000  0.98161000  0.92099000  1.0
  O  O247  1  0.98161000  0.34540000  0.25432000  1.0
  O  O248  1  0.34541000  0.67299000  0.58765000  1.0
  O  O249  1  0.15668000  0.21392000  0.18822000  1.0
  O  O250  1  0.21391000  0.62940000  0.52156000  1.0
  O  O251  1  0.62941000  0.15668000  0.85489000  1.0
  O  O252  1  0.37060000  0.78608000  0.81178000  1.0
  O  O253  1  0.78609000  0.84332000  0.14511000  1.0
  O  O254  1  0.84331000  0.37060000  0.47844000  1.0
  O  O255  1  0.99854000  0.21143000  0.16442000  1.0
  O  O256  1  0.21144000  0.79002000  0.49775000  1.0
  O  O257  1  0.79003000  0.99853000  0.83109000  1.0
  O  O258  1  0.20997000  0.78857000  0.83558000  1.0
  O  O259  1  0.78856000  0.00146000  0.16891000  1.0
  O  O260  1  0.00146000  0.20998000  0.50225000  1.0
  O  O261  1  0.70629000  0.08766000  0.96988000  1.0
  O  O262  1  0.08766000  0.20605000  0.30322000  1.0
  O  O263  1  0.20605000  0.70627000  0.63655000  1.0
  O  O264  1  0.79395000  0.91234000  0.03012000  1.0
  O  O265  1  0.91232000  0.29373000  0.36345000  1.0
  O  O266  1  0.29371000  0.79395000  0.69679000  1.0
  O  O267  1  0.83746000  0.07889000  0.91962000  1.0
  O  O268  1  0.07889000  0.08365000  0.25296000  1.0
  O  O269  1  0.08366000  0.83745000  0.58629000  1.0
  O  O270  1  0.91635000  0.92111000  0.08038000  1.0
  O  O271  1  0.92111000  0.16255000  0.41371000  1.0
  O  O272  1  0.16254000  0.91635000  0.74704000  1.0
