# generated using pymatgen
data_KCu2H27C38N6O5
_symmetry_space_group_name_H-M   'P 1'
_cell_length_a   8.24775000
_cell_length_b   19.80010000
_cell_length_c   22.23510000
_cell_angle_alpha   89.99960000
_cell_angle_beta   90.00000000
_cell_angle_gamma   89.99950000
_symmetry_Int_Tables_number   1
_chemical_formula_structural   KCu2H27C38N6O5
_chemical_formula_sum   'K4 Cu8 H108 C152 N24 O20'
_cell_volume   3631.13135002
_cell_formula_units_Z   4
loop_
 _symmetry_equiv_pos_site_id
 _symmetry_equiv_pos_as_xyz
  1  'x, y, z'
loop_
 _atom_site_type_symbol
 _atom_site_label
 _atom_site_symmetry_multiplicity
 _atom_site_fract_x
 _atom_site_fract_y
 _atom_site_fract_z
 _atom_site_occupancy
  K  K0  1  0.82475000  0.99762000  0.35154000  1.0
  K  K1  1  0.67525000  0.00238000  0.85153000  1.0
  K  K2  1  0.32475000  0.50238000  0.64846000  1.0
  K  K3  1  0.17526000  0.49762000  0.14846000  1.0
  Cu  Cu4  1  0.99733000  0.92599000  0.59138000  1.0
  Cu  Cu5  1  0.50266000  0.07401000  0.09139000  1.0
  Cu  Cu6  1  0.49733000  0.57401000  0.40862000  1.0
  Cu  Cu7  1  0.00265000  0.42599000  0.90861000  1.0
  Cu  Cu8  1  0.32019000  0.83013000  0.63382000  1.0
  Cu  Cu9  1  0.17979000  0.16986000  0.13381000  1.0
  Cu  Cu10  1  0.82020000  0.66986000  0.36618000  1.0
  Cu  Cu11  1  0.67979000  0.33013000  0.86618000  1.0
  H  H12  1  0.18242000  0.85119000  0.53707000  1.0
  H  H13  1  0.31756000  0.14880000  0.03707000  1.0
  H  H14  1  0.68243000  0.64881000  0.46292000  1.0
  H  H15  1  0.81756000  0.35119000  0.96293000  1.0
  H  H16  1  0.17520000  0.05651000  0.44700000  1.0
  H  H17  1  0.32481000  0.94349000  0.94700000  1.0
  H  H18  1  0.67520000  0.44349000  0.55300000  1.0
  H  H19  1  0.82480000  0.55651000  0.05300000  1.0
  H  H20  1  0.36460000  0.02892000  0.36415000  1.0
  H  H21  1  0.13542000  0.97108000  0.86415000  1.0
  H  H22  1  0.86461000  0.47109000  0.63585000  1.0
  H  H23  1  0.63540000  0.52892000  0.13585000  1.0
  H  H24  1  0.38945000  0.91086000  0.32718000  1.0
  H  H25  1  0.11056000  0.08913000  0.82718000  1.0
  H  H26  1  0.88947000  0.58914000  0.67282000  1.0
  H  H27  1  0.61054000  0.41087000  0.17282000  1.0
  H  H28  1  0.23310000  0.81919000  0.37820000  1.0
  H  H29  1  0.26690000  0.18080000  0.87819000  1.0
  H  H30  1  0.73311000  0.68081000  0.62180000  1.0
  H  H31  1  0.76689000  0.31919000  0.12181000  1.0
  H  H32  1  0.04363000  0.84651000  0.46108000  1.0
  H  H33  1  0.45636000  0.15349000  0.96108000  1.0
  H  H34  1  0.54365000  0.65350000  0.53892000  1.0
  H  H35  1  0.95635000  0.34651000  0.03892000  1.0
  H  H36  1  0.66975000  0.12505000  0.53530000  1.0
  H  H37  1  0.83027000  0.87497000  0.03530000  1.0
  H  H38  1  0.16975000  0.37496000  0.46471000  1.0
  H  H39  1  0.33026000  0.62503000  0.96470000  1.0
  H  H40  1  0.57167000  0.14702000  0.64129000  1.0
  H  H41  1  0.92834000  0.85298000  0.14129000  1.0
  H  H42  1  0.07168000  0.35299000  0.35871000  1.0
  H  H43  1  0.42832000  0.64701000  0.85871000  1.0
  H  H44  1  0.67238000  0.07379000  0.72559000  1.0
  H  H45  1  0.82763000  0.92620000  0.22560000  1.0
  H  H46  1  0.17238000  0.42621000  0.27441000  1.0
  H  H47  1  0.32762000  0.57379000  0.77440000  1.0
  H  H48  1  0.09453000  0.91150000  0.79174000  1.0
  H  H49  1  0.40546000  0.08850000  0.29175000  1.0
  H  H50  1  0.59453000  0.58850000  0.20826000  1.0
  H  H51  1  0.90545000  0.41150000  0.70825000  1.0
  H  H52  1  0.18118000  0.81246000  0.85150000  1.0
  H  H53  1  0.31881000  0.18755000  0.35150000  1.0
  H  H54  1  0.68118000  0.68755000  0.14850000  1.0
  H  H55  1  0.81881000  0.31245000  0.64850000  1.0
  H  H56  1  0.14407000  0.69573000  0.81074000  1.0
  H  H57  1  0.35592000  0.30428000  0.31073000  1.0
  H  H58  1  0.64407000  0.80428000  0.18927000  1.0
  H  H59  1  0.85593000  0.19573000  0.68926000  1.0
  H  H60  1  0.03284000  0.68098000  0.70739000  1.0
  H  H61  1  0.46715000  0.31903000  0.20738000  1.0
  H  H62  1  0.53282000  0.81903000  0.29262000  1.0
  H  H63  1  0.96716000  0.18097000  0.79261000  1.0
  H  H64  1  0.94982000  0.78077000  0.64733000  1.0
  H  H65  1  0.55017000  0.21923000  0.14733000  1.0
  H  H66  1  0.44981000  0.71923000  0.35267000  1.0
  H  H67  1  0.05017000  0.28077000  0.85267000  1.0
  H  H68  1  0.65937000  0.85565000  0.81701000  1.0
  H  H69  1  0.84064000  0.14435000  0.31700000  1.0
  H  H70  1  0.15938000  0.64435000  0.18299000  1.0
  H  H71  1  0.34064000  0.35565000  0.68299000  1.0
  H  H72  1  0.71274000  0.73123000  0.82635000  1.0
  H  H73  1  0.78728000  0.26877000  0.32636000  1.0
  H  H74  1  0.21274000  0.76877000  0.17364000  1.0
  H  H75  1  0.28726000  0.23123000  0.67364000  1.0
  H  H76  1  0.57695000  0.65056000  0.75474000  1.0
  H  H77  1  0.92306000  0.34943000  0.25474000  1.0
  H  H78  1  0.07694000  0.84943000  0.24525000  1.0
  H  H79  1  0.42306000  0.15057000  0.74526000  1.0
  H  H80  1  0.23217000  0.01255000  0.74725000  1.0
  H  H81  1  0.26784000  0.98744000  0.24726000  1.0
  H  H82  1  0.73217000  0.48744000  0.25274000  1.0
  H  H83  1  0.76783000  0.51256000  0.75274000  1.0
  H  H84  1  0.11242000  0.12130000  0.71559000  1.0
  H  H85  1  0.38758000  0.87870000  0.21559000  1.0
  H  H86  1  0.61242000  0.37870000  0.28441000  1.0
  H  H87  1  0.88758000  0.62130000  0.78442000  1.0
  H  H88  1  0.13018000  0.15874000  0.60864000  1.0
  H  H89  1  0.36983000  0.84126000  0.10863000  1.0
  H  H90  1  0.63017000  0.34126000  0.39137000  1.0
  H  H91  1  0.86982000  0.65873000  0.89137000  1.0
  H  H92  1  0.26895000  0.08445000  0.53382000  1.0
  H  H93  1  0.23106000  0.91556000  0.03382000  1.0
  H  H94  1  0.76895000  0.41556000  0.46618000  1.0
  H  H95  1  0.73105000  0.58444000  0.96618000  1.0
  H  H96  1  0.38050000  0.97391000  0.56491000  1.0
  H  H97  1  0.11950000  0.02609000  0.06491000  1.0
  H  H98  1  0.88050000  0.52609000  0.43509000  1.0
  H  H99  1  0.61950000  0.47390000  0.93509000  1.0
  H  H100  1  0.37472000  0.76673000  0.49992000  1.0
  H  H101  1  0.12526000  0.23328000  0.99991000  1.0
  H  H102  1  0.87474000  0.73327000  0.50008000  1.0
  H  H103  1  0.62526000  0.26672000  0.00009000  1.0
  H  H104  1  0.25594000  0.71346000  0.40865000  1.0
  H  H105  1  0.24406000  0.28655000  0.90864000  1.0
  H  H106  1  0.75595000  0.78653000  0.59135000  1.0
  H  H107  1  0.74406000  0.21346000  0.09136000  1.0
  H  H108  1  0.07101000  0.61522000  0.41751000  1.0
  H  H109  1  0.42899000  0.38478000  0.91751000  1.0
  H  H110  1  0.57101000  0.88478000  0.58249000  1.0
  H  H111  1  0.92900000  0.11522000  0.08249000  1.0
  H  H112  1  0.98603000  0.57591000  0.52026000  1.0
  H  H113  1  0.51398000  0.42409000  0.02026000  1.0
  H  H114  1  0.48603000  0.92409000  0.47974000  1.0
  H  H115  1  0.01399000  0.07591000  0.97974000  1.0
  H  H116  1  0.10041000  0.62986000  0.61067000  1.0
  H  H117  1  0.39959000  0.37014000  0.11068000  1.0
  H  H118  1  0.60042000  0.87014000  0.38932000  1.0
  H  H119  1  0.89960000  0.12986000  0.88933000  1.0
  C  C120  1  0.09744000  0.95331000  0.46081000  1.0
  C  C121  1  0.40254000  0.04668000  0.96081000  1.0
  C  C122  1  0.59746000  0.54669000  0.53920000  1.0
  C  C123  1  0.90253000  0.45331000  0.03919000  1.0
  C  C124  1  0.19013000  0.00433000  0.43261000  1.0
  C  C125  1  0.30988000  0.99566000  0.93261000  1.0
  C  C126  1  0.69013000  0.49567000  0.56739000  1.0
  C  C127  1  0.80986000  0.50433000  0.06739000  1.0
  C  C128  1  0.29490000  0.98872000  0.38547000  1.0
  C  C129  1  0.20511000  0.01127000  0.88547000  1.0
  C  C130  1  0.79491000  0.51128000  0.61453000  1.0
  C  C131  1  0.70509000  0.48873000  0.11453000  1.0
  C  C132  1  0.31005000  0.92224000  0.36505000  1.0
  C  C133  1  0.18996000  0.07775000  0.86504000  1.0
  C  C134  1  0.81007000  0.57776000  0.63496000  1.0
  C  C135  1  0.68994000  0.42224000  0.13496000  1.0
  C  C136  1  0.22237000  0.87125000  0.39358000  1.0
  C  C137  1  0.27764000  0.12874000  0.89358000  1.0
  C  C138  1  0.72238000  0.62876000  0.60642000  1.0
  C  C139  1  0.77762000  0.37125000  0.10642000  1.0
  C  C140  1  0.11755000  0.88626000  0.44102000  1.0
  C  C141  1  0.38244000  0.11373000  0.94102000  1.0
  C  C142  1  0.61757000  0.61374000  0.55898000  1.0
  C  C143  1  0.88243000  0.38627000  0.05898000  1.0
  C  C144  1  0.88991000  0.02216000  0.50404000  1.0
  C  C145  1  0.61009000  0.97785000  0.00405000  1.0
  C  C146  1  0.38991000  0.47785000  0.49596000  1.0
  C  C147  1  0.11008000  0.52215000  0.99595000  1.0
  C  C148  1  0.81135000  0.03956000  0.56289000  1.0
  C  C149  1  0.68865000  0.96045000  0.06290000  1.0
  C  C150  1  0.31136000  0.46045000  0.43711000  1.0
  C  C151  1  0.18865000  0.53955000  0.93710000  1.0
  C  C152  1  0.70685000  0.09365000  0.57308000  1.0
  C  C153  1  0.79316000  0.90636000  0.07309000  1.0
  C  C154  1  0.20685000  0.40635000  0.42692000  1.0
  C  C155  1  0.29316000  0.59364000  0.92691000  1.0
  C  C156  1  0.65480000  0.10553000  0.63201000  1.0
  C  C157  1  0.84521000  0.89448000  0.13202000  1.0
  C  C158  1  0.15481000  0.39448000  0.36799000  1.0
  C  C159  1  0.34520000  0.60552000  0.86799000  1.0
  C  C160  1  0.70850000  0.06461000  0.67921000  1.0
  C  C161  1  0.79150000  0.93540000  0.17921000  1.0
  C  C162  1  0.20851000  0.43540000  0.32080000  1.0
  C  C163  1  0.29149000  0.56460000  0.82079000  1.0
  C  C164  1  0.81056000  0.01050000  0.66532000  1.0
  C  C165  1  0.68944000  0.98950000  0.16533000  1.0
  C  C166  1  0.31057000  0.48950000  0.33468000  1.0
  C  C167  1  0.18943000  0.51049000  0.83467000  1.0
  C  C168  1  0.88086000  0.96091000  0.70932000  1.0
  C  C169  1  0.61914000  0.03909000  0.20933000  1.0
  C  C170  1  0.38087000  0.53909000  0.29068000  1.0
  C  C171  1  0.11915000  0.46091000  0.79067000  1.0
  C  C172  1  0.00878000  0.85315000  0.71630000  1.0
  C  C173  1  0.49122000  0.14685000  0.21631000  1.0
  C  C174  1  0.50877000  0.64685000  0.28370000  1.0
  C  C175  1  0.99121000  0.35315000  0.78369000  1.0
  C  C176  1  0.07884000  0.86098000  0.77386000  1.0
  C  C177  1  0.42116000  0.13903000  0.27387000  1.0
  C  C178  1  0.57883000  0.63903000  0.22614000  1.0
  C  C179  1  0.92115000  0.36097000  0.72614000  1.0
  C  C180  1  0.12702000  0.80488000  0.80719000  1.0
  C  C181  1  0.37297000  0.19512000  0.30720000  1.0
  C  C182  1  0.62702000  0.69512000  0.19281000  1.0
  C  C183  1  0.87296000  0.30488000  0.69280000  1.0
  C  C184  1  0.10750000  0.73955000  0.78438000  1.0
  C  C185  1  0.39249000  0.26045000  0.28438000  1.0
  C  C186  1  0.60750000  0.76045000  0.21563000  1.0
  C  C187  1  0.89249000  0.23955000  0.71562000  1.0
  C  C188  1  0.04340000  0.73140000  0.72669000  1.0
  C  C189  1  0.45658000  0.26860000  0.22669000  1.0
  C  C190  1  0.54339000  0.76860000  0.27332000  1.0
  C  C191  1  0.95659000  0.23140000  0.77331000  1.0
  C  C192  1  0.99639000  0.78725000  0.69276000  1.0
  C  C193  1  0.50359000  0.21275000  0.19277000  1.0
  C  C194  1  0.49639000  0.71275000  0.30724000  1.0
  C  C195  1  0.00359000  0.28725000  0.80723000  1.0
  C  C196  1  0.31573000  0.98519000  0.65836000  1.0
  C  C197  1  0.18427000  0.01481000  0.15836000  1.0
  C  C198  1  0.81574000  0.51481000  0.34164000  1.0
  C  C199  1  0.68427000  0.48519000  0.84164000  1.0
  C  C200  1  0.23945000  0.02809000  0.70048000  1.0
  C  C201  1  0.26055000  0.97191000  0.20048000  1.0
  C  C202  1  0.73945000  0.47191000  0.29952000  1.0
  C  C203  1  0.76055000  0.52809000  0.79952000  1.0
  C  C204  1  0.17306000  0.08947000  0.68247000  1.0
  C  C205  1  0.32695000  0.91052000  0.18247000  1.0
  C  C206  1  0.67306000  0.41052000  0.31753000  1.0
  C  C207  1  0.82694000  0.58948000  0.81754000  1.0
  C  C208  1  0.18317000  0.11071000  0.62255000  1.0
  C  C209  1  0.31685000  0.88930000  0.12255000  1.0
  C  C210  1  0.68316000  0.38930000  0.37746000  1.0
  C  C211  1  0.81684000  0.61070000  0.87746000  1.0
  C  C212  1  0.25957000  0.06892000  0.58070000  1.0
  C  C213  1  0.24043000  0.93108000  0.08070000  1.0
  C  C214  1  0.75957000  0.43108000  0.41930000  1.0
  C  C215  1  0.74043000  0.56892000  0.91930000  1.0
  C  C216  1  0.32307000  0.00658000  0.59805000  1.0
  C  C217  1  0.17694000  0.99342000  0.09805000  1.0
  C  C218  1  0.82308000  0.49342000  0.40195000  1.0
  C  C219  1  0.67692000  0.50658000  0.90195000  1.0
  C  C220  1  0.45609000  0.91417000  0.72756000  1.0
  C  C221  1  0.04391000  0.08582000  0.22756000  1.0
  C  C222  1  0.95610000  0.58582000  0.27244000  1.0
  C  C223  1  0.54392000  0.41418000  0.77243000  1.0
  C  C224  1  0.50694000  0.84244000  0.73910000  1.0
  C  C225  1  0.99306000  0.15755000  0.23910000  1.0
  C  C226  1  0.00694000  0.65755000  0.26090000  1.0
  C  C227  1  0.49307000  0.34244000  0.76090000  1.0
  C  C228  1  0.60537000  0.81969000  0.78596000  1.0
  C  C229  1  0.89463000  0.18031000  0.28596000  1.0
  C  C230  1  0.10538000  0.68031000  0.21403000  1.0
  C  C231  1  0.39463000  0.31969000  0.71403000  1.0
  C  C232  1  0.63336000  0.75031000  0.79108000  1.0
  C  C233  1  0.86664000  0.24969000  0.29108000  1.0
  C  C234  1  0.13336000  0.74969000  0.20891000  1.0
  C  C235  1  0.36664000  0.25031000  0.70892000  1.0
  C  C236  1  0.55967000  0.70498000  0.75135000  1.0
  C  C237  1  0.94034000  0.29502000  0.25135000  1.0
  C  C238  1  0.05966000  0.79502000  0.24864000  1.0
  C  C239  1  0.44034000  0.20498000  0.74865000  1.0
  C  C240  1  0.46347000  0.73139000  0.70548000  1.0
  C  C241  1  0.03652000  0.26860000  0.20548000  1.0
  C  C242  1  0.96346000  0.76860000  0.29451000  1.0
  C  C243  1  0.53653000  0.23140000  0.79452000  1.0
  C  C244  1  0.37383000  0.69141000  0.65885000  1.0
  C  C245  1  0.12615000  0.30859000  0.15884000  1.0
  C  C246  1  0.87383000  0.80859000  0.34115000  1.0
  C  C247  1  0.62617000  0.19141000  0.84116000  1.0
  C  C248  1  0.24867000  0.70096000  0.56194000  1.0
  C  C249  1  0.25132000  0.29904000  0.06194000  1.0
  C  C250  1  0.74868000  0.79904000  0.43805000  1.0
  C  C251  1  0.75133000  0.20096000  0.93806000  1.0
  C  C252  1  0.28827000  0.72523000  0.50417000  1.0
  C  C253  1  0.21171000  0.27478000  0.00416000  1.0
  C  C254  1  0.78829000  0.77477000  0.49583000  1.0
  C  C255  1  0.71172000  0.22522000  0.99584000  1.0
  C  C256  1  0.22316000  0.69478000  0.45309000  1.0
  C  C257  1  0.27683000  0.30523000  0.95308000  1.0
  C  C258  1  0.72317000  0.80522000  0.54692000  1.0
  C  C259  1  0.77684000  0.19477000  0.04692000  1.0
  C  C260  1  0.11724000  0.63991000  0.45793000  1.0
  C  C261  1  0.38276000  0.36009000  0.95793000  1.0
  C  C262  1  0.61724000  0.86009000  0.54207000  1.0
  C  C263  1  0.88277000  0.13990000  0.04207000  1.0
  C  C264  1  0.07209000  0.61738000  0.51507000  1.0
  C  C265  1  0.42792000  0.38262000  0.01507000  1.0
  C  C266  1  0.57209000  0.88262000  0.48494000  1.0
  C  C267  1  0.92792000  0.11738000  0.98494000  1.0
  C  C268  1  0.13631000  0.64764000  0.56645000  1.0
  C  C269  1  0.36370000  0.35235000  0.06645000  1.0
  C  C270  1  0.63631000  0.85235000  0.43354000  1.0
  C  C271  1  0.86371000  0.14765000  0.93355000  1.0
  N  N272  1  0.99040000  0.96825000  0.50821000  1.0
  N  N273  1  0.50959000  0.03176000  0.00821000  1.0
  N  N274  1  0.49041000  0.53176000  0.49179000  1.0
  N  N275  1  0.00958000  0.46824000  0.99179000  1.0
  N  N276  1  0.85593000  0.99985000  0.60850000  1.0
  N  N277  1  0.64407000  0.00015000  0.10851000  1.0
  N  N278  1  0.35593000  0.50015000  0.39150000  1.0
  N  N279  1  0.14407000  0.49984000  0.89149000  1.0
  N  N280  1  0.95020000  0.90721000  0.68174000  1.0
  N  N281  1  0.54980000  0.09279000  0.18174000  1.0
  N  N282  1  0.45020000  0.59279000  0.31826000  1.0
  N  N283  1  0.04978000  0.40720000  0.81826000  1.0
  N  N284  1  0.37961000  0.92183000  0.67404000  1.0
  N  N285  1  0.12039000  0.07817000  0.17405000  1.0
  N  N286  1  0.87962000  0.57817000  0.32595000  1.0
  N  N287  1  0.62039000  0.42183000  0.82595000  1.0
  N  N288  1  0.44423000  0.79808000  0.70040000  1.0
  N  N289  1  0.05575000  0.20192000  0.20039000  1.0
  N  N290  1  0.94424000  0.70192000  0.29960000  1.0
  N  N291  1  0.55575000  0.29808000  0.79960000  1.0
  N  N292  1  0.32463000  0.73024000  0.61217000  1.0
  N  N293  1  0.17535000  0.26976000  0.11216000  1.0
  N  N294  1  0.82464000  0.76976000  0.38783000  1.0
  N  N295  1  0.67536000  0.23024000  0.88783000  1.0
  O  O296  1  0.15754000  0.85915000  0.57935000  1.0
  O  O297  1  0.34245000  0.14085000  0.07935000  1.0
  O  O298  1  0.65756000  0.64084000  0.42065000  1.0
  O  O299  1  0.84244000  0.35915000  0.92065000  1.0
  O  O300  1  0.85921000  0.05715000  0.45823000  1.0
  O  O301  1  0.64078000  0.94285000  0.95824000  1.0
  O  O302  1  0.35921000  0.44285000  0.54177000  1.0
  O  O303  1  0.14077000  0.55714000  0.04176000  1.0
  O  O304  1  0.86780000  0.97231000  0.76467000  1.0
  O  O305  1  0.63221000  0.02769000  0.26467000  1.0
  O  O306  1  0.36782000  0.52769000  0.23533000  1.0
  O  O307  1  0.13221000  0.47230000  0.73533000  1.0
  O  O308  1  0.48673000  0.95843000  0.76623000  1.0
  O  O309  1  0.01329000  0.04157000  0.26624000  1.0
  O  O310  1  0.98674000  0.54157000  0.23377000  1.0
  O  O311  1  0.51331000  0.45842000  0.73376000  1.0
  O  O312  1  0.35644000  0.62905000  0.66647000  1.0
  O  O313  1  0.14353000  0.37095000  0.16646000  1.0
  O  O314  1  0.85643000  0.87094000  0.33353000  1.0
  O  O315  1  0.64356000  0.12905000  0.83353000  1.0
