# generated using pymatgen
data_HgH9C10(NO)3
_symmetry_space_group_name_H-M   'P 1'
_cell_length_a   5.67278000
_cell_length_b   8.15275000
_cell_length_c   12.40340000
_cell_angle_alpha   96.04110000
_cell_angle_beta   89.99990000
_cell_angle_gamma   89.99790000
_symmetry_Int_Tables_number   1
_chemical_formula_structural   HgH9C10(NO)3
_chemical_formula_sum   'Hg2 H18 C20 N6 O6'
_cell_volume   570.45620473
_cell_formula_units_Z   2
loop_
 _symmetry_equiv_pos_site_id
 _symmetry_equiv_pos_as_xyz
  1  'x, y, z'
loop_
 _atom_site_type_symbol
 _atom_site_label
 _atom_site_symmetry_multiplicity
 _atom_site_fract_x
 _atom_site_fract_y
 _atom_site_fract_z
 _atom_site_occupancy
  Hg  Hg0  1  0.71846000  0.77539000  0.52166000  1.0
  Hg  Hg1  1  0.21846000  0.22460000  0.47834000  1.0
  H  H2  1  0.12399000  0.57598000  0.18686000  1.0
  H  H3  1  0.62393000  0.42404000  0.81315000  1.0
  H  H4  1  0.98564000  0.63549000  0.00436000  1.0
  H  H5  1  0.48560000  0.36452000  0.99564000  1.0
  H  H6  1  0.36949000  0.87730000  0.14742000  1.0
  H  H7  1  0.86948000  0.12269000  0.85257000  1.0
  H  H8  1  0.50362000  0.81780000  0.33006000  1.0
  H  H9  1  0.00361000  0.18220000  0.66993000  1.0
  H  H10  1  0.61742000  0.87576000  0.72670000  1.0
  H  H11  1  0.11746000  0.12423000  0.27330000  1.0
  H  H12  1  0.55198000  0.03193000  0.63502000  1.0
  H  H13  1  0.05202000  0.96808000  0.36498000  1.0
  H  H14  1  0.09177000  0.77857000  0.77626000  1.0
  H  H15  1  0.59178000  0.22144000  0.22374000  1.0
  H  H16  1  0.35314000  0.66255000  0.75079000  1.0
  H  H17  1  0.85314000  0.33746000  0.24920000  1.0
  H  H18  1  0.09789000  0.62353000  0.66493000  1.0
  H  H19  1  0.59789000  0.37648000  0.33506000  1.0
  C  C20  1  0.10410000  0.60350000  0.39256000  1.0
  C  C21  1  0.60409000  0.39651000  0.60744000  1.0
  C  C22  1  0.82465000  0.69584000  0.27153000  1.0
  C  C23  1  0.32460000  0.30418000  0.72848000  1.0
  C  C24  1  0.95878000  0.64186000  0.17836000  1.0
  C  C25  1  0.45873000  0.35815000  0.82165000  1.0
  C  C26  1  0.88220000  0.67351000  0.07652000  1.0
  C  C27  1  0.38215000  0.32650000  0.92348000  1.0
  C  C28  1  0.67080000  0.75935000  0.06642000  1.0
  C  C29  1  0.17076000  0.24064000  0.93358000  1.0
  C  C30  1  0.53311000  0.81086000  0.15743000  1.0
  C  C31  1  0.03309000  0.18913000  0.84256000  1.0
  C  C32  1  0.60875000  0.77745000  0.25879000  1.0
  C  C33  1  0.10873000  0.22257000  0.74121000  1.0
  C  C34  1  0.53098000  0.90382000  0.65201000  1.0
  C  C35  1  0.03102000  0.09619000  0.34800000  1.0
  C  C36  1  0.28448000  0.84707000  0.64218000  1.0
  C  C37  1  0.78449000  0.15292000  0.35782000  1.0
  C  C38  1  0.20469000  0.71807000  0.71170000  1.0
  C  C39  1  0.70470000  0.28194000  0.28829000  1.0
  N  N40  1  0.28442000  0.54322000  0.41519000  1.0
  N  N41  1  0.78438000  0.45680000  0.58484000  1.0
  N  N42  1  0.90167000  0.67363000  0.37559000  1.0
  N  N43  1  0.40164000  0.32637000  0.62442000  1.0
  N  N44  1  0.59465000  0.79739000  0.96084000  1.0
  N  N45  1  0.09466000  0.20257000  0.03915000  1.0
  O  O46  1  0.71687000  0.74526000  0.88019000  1.0
  O  O47  1  0.21685000  0.25469000  0.11980000  1.0
  O  O48  1  0.41106000  0.87977000  0.95398000  1.0
  O  O49  1  0.91105000  0.12020000  0.04600000  1.0
  O  O50  1  0.14492000  0.90590000  0.57823000  1.0
  O  O51  1  0.64496000  0.09409000  0.42176000  1.0
