# generated using pymatgen
data_MnH6C10(NO)4
_symmetry_space_group_name_H-M   'P 1'
_cell_length_a   9.54856000
_cell_length_b   12.60150000
_cell_length_c   13.73550000
_cell_angle_alpha   90.00010000
_cell_angle_beta   90.00040000
_cell_angle_gamma   101.52500000
_symmetry_Int_Tables_number   1
_chemical_formula_structural   MnH6C10(NO)4
_chemical_formula_sum   'Mn6 H36 C60 N24 O24'
_cell_volume   1619.41705397
_cell_formula_units_Z   6
loop_
 _symmetry_equiv_pos_site_id
 _symmetry_equiv_pos_as_xyz
  1  'x, y, z'
loop_
 _atom_site_type_symbol
 _atom_site_label
 _atom_site_symmetry_multiplicity
 _atom_site_fract_x
 _atom_site_fract_y
 _atom_site_fract_z
 _atom_site_occupancy
  Mn  Mn0  1  0.99963000  0.99949000  0.00043000  1.0
  Mn  Mn1  1  0.00037000  0.50051000  0.50043000  1.0
  Mn  Mn2  1  0.96424000  0.06969000  0.75244000  1.0
  Mn  Mn3  1  0.03575000  0.43030000  0.25244000  1.0
  Mn  Mn4  1  0.03632000  0.93018000  0.24715000  1.0
  Mn  Mn5  1  0.96369000  0.56982000  0.74714000  1.0
  H  H6  1  0.00690000  0.74470000  0.03324000  1.0
  H  H7  1  0.99310000  0.75530000  0.53325000  1.0
  H  H8  1  0.99331000  0.25491000  0.96684000  1.0
  H  H9  1  0.00669000  0.24509000  0.46685000  1.0
  H  H10  1  0.10539000  0.66971000  0.95996000  1.0
  H  H11  1  0.89461000  0.83029000  0.45996000  1.0
  H  H12  1  0.89468000  0.32999000  0.03994000  1.0
  H  H13  1  0.10531000  0.17001000  0.53994000  1.0
  H  H14  1  0.74071000  0.39514000  0.82947000  1.0
  H  H15  1  0.25929000  0.10486000  0.32947000  1.0
  H  H16  1  0.25899000  0.60487000  0.17035000  1.0
  H  H17  1  0.74100000  0.89513000  0.67035000  1.0
  H  H18  1  0.56833000  0.35710000  0.96636000  1.0
  H  H19  1  0.43167000  0.14290000  0.46636000  1.0
  H  H20  1  0.43161000  0.64277000  0.03358000  1.0
  H  H21  1  0.56839000  0.85724000  0.53358000  1.0
  H  H22  1  0.60720000  0.47960000  0.11428000  1.0
  H  H23  1  0.39280000  0.02040000  0.61428000  1.0
  H  H24  1  0.39291000  0.52016000  0.88573000  1.0
  H  H25  1  0.60708000  0.97984000  0.38574000  1.0
  H  H26  1  0.81227000  0.63827000  0.11235000  1.0
  H  H27  1  0.18773000  0.86173000  0.61235000  1.0
  H  H28  1  0.18797000  0.36138000  0.88772000  1.0
  H  H29  1  0.81203000  0.13862000  0.38772000  1.0
  H  H30  1  0.49439000  0.08422000  0.79441000  1.0
  H  H31  1  0.50561000  0.41578000  0.29441000  1.0
  H  H32  1  0.50539000  0.91571000  0.20548000  1.0
  H  H33  1  0.49461000  0.58429000  0.70548000  1.0
  H  H34  1  0.67870000  0.14006000  0.08061000  1.0
  H  H35  1  0.32130000  0.35993000  0.58061000  1.0
  H  H36  1  0.32163000  0.85980000  0.91912000  1.0
  H  H37  1  0.67837000  0.64020000  0.41912000  1.0
  H  H38  1  0.25039000  0.18517000  0.02915000  1.0
  H  H39  1  0.74961000  0.31483000  0.52915000  1.0
  H  H40  1  0.74988000  0.81479000  0.97097000  1.0
  H  H41  1  0.25013000  0.68522000  0.47097000  1.0
  C  C42  1  0.99272000  0.76968000  0.88054000  1.0
  C  C43  1  0.00728000  0.73032000  0.38054000  1.0
  C  C44  1  0.00718000  0.23010000  0.11958000  1.0
  C  C45  1  0.99282000  0.26990000  0.61959000  1.0
  C  C46  1  0.00383000  0.69827000  0.96570000  1.0
  C  C47  1  0.99617000  0.80173000  0.46570000  1.0
  C  C48  1  0.99628000  0.30144000  0.03433000  1.0
  C  C49  1  0.00373000  0.19856000  0.53433000  1.0
  C  C50  1  0.88151000  0.60112000  0.96966000  1.0
  C  C51  1  0.11849000  0.89888000  0.46966000  1.0
  C  C52  1  0.11852000  0.39865000  0.03031000  1.0
  C  C53  1  0.88147000  0.10135000  0.53031000  1.0
  C  C54  1  0.75234000  0.44776000  0.89321000  1.0
  C  C55  1  0.24766000  0.05224000  0.39322000  1.0
  C  C56  1  0.24750000  0.55218000  0.10665000  1.0
  C  C57  1  0.75250000  0.94782000  0.60666000  1.0
  C  C58  1  0.65679000  0.42634000  0.97045000  1.0
  C  C59  1  0.34321000  0.07366000  0.47045000  1.0
  C  C60  1  0.34318000  0.57352000  0.02949000  1.0
  C  C61  1  0.65682000  0.92648000  0.52949000  1.0
  C  C62  1  0.67749000  0.49472000  0.05122000  1.0
  C  C63  1  0.32252000  0.00528000  0.55122000  1.0
  C  C64  1  0.32258000  0.50505000  0.94877000  1.0
  C  C65  1  0.67742000  0.99495000  0.44878000  1.0
  C  C66  1  0.79125000  0.58338000  0.05052000  1.0
  C  C67  1  0.20875000  0.91662000  0.55052000  1.0
  C  C68  1  0.20889000  0.41634000  0.94951000  1.0
  C  C69  1  0.79110000  0.08366000  0.44951000  1.0
  C  C70  1  0.35765000  0.13319000  0.90418000  1.0
  C  C71  1  0.64236000  0.36681000  0.40418000  1.0
  C  C72  1  0.64235000  0.86678000  0.09585000  1.0
  C  C73  1  0.35766000  0.63323000  0.59585000  1.0
  C  C74  1  0.48600000  0.10940000  0.86964000  1.0
  C  C75  1  0.51400000  0.39060000  0.36964000  1.0
  C  C76  1  0.51392000  0.89055000  0.13026000  1.0
  C  C77  1  0.48607000  0.60945000  0.63026000  1.0
  C  C78  1  0.60207000  0.11287000  0.93276000  1.0
  C  C79  1  0.39792000  0.38713000  0.43276000  1.0
  C  C80  1  0.39800000  0.88706000  0.06702000  1.0
  C  C81  1  0.60200000  0.61294000  0.56702000  1.0
  C  C82  1  0.59105000  0.14124000  0.03043000  1.0
  C  C83  1  0.40895000  0.35876000  0.53043000  1.0
  C  C84  1  0.40921000  0.85868000  0.96938000  1.0
  C  C85  1  0.59079000  0.64132000  0.46938000  1.0
  C  C86  1  0.46507000  0.16908000  0.06241000  1.0
  C  C87  1  0.53493000  0.33092000  0.56241000  1.0
  C  C88  1  0.53525000  0.83087000  0.93753000  1.0
  C  C89  1  0.46475000  0.66913000  0.43753000  1.0
  C  C90  1  0.34871000  0.16642000  0.00083000  1.0
  C  C91  1  0.65129000  0.33358000  0.50083000  1.0
  C  C92  1  0.65153000  0.83357000  0.99921000  1.0
  C  C93  1  0.34848000  0.66643000  0.49921000  1.0
  C  C94  1  0.22578000  0.11336000  0.84218000  1.0
  C  C95  1  0.77422000  0.38664000  0.34218000  1.0
  C  C96  1  0.77374000  0.88648000  0.15830000  1.0
  C  C97  1  0.22626000  0.61352000  0.65829000  1.0
  C  C98  1  0.73678000  0.07878000  0.90106000  1.0
  C  C99  1  0.26321000  0.42121000  0.40106000  1.0
  C  C100  1  0.26326000  0.92114000  0.09850000  1.0
  C  C101  1  0.73674000  0.57885000  0.59850000  1.0
  N  N102  1  0.97525000  0.87249000  0.88253000  1.0
  N  N103  1  0.02475000  0.62750000  0.38253000  1.0
  N  N104  1  0.02411000  0.12715000  0.11774000  1.0
  N  N105  1  0.97589000  0.37286000  0.61774000  1.0
  N  N106  1  0.97008000  0.90169000  0.78813000  1.0
  N  N107  1  0.02992000  0.59831000  0.28814000  1.0
  N  N108  1  0.02908000  0.09808000  0.21219000  1.0
  N  N109  1  0.97092000  0.40192000  0.71219000  1.0
  N  N110  1  0.98220000  0.82080000  0.73071000  1.0
  N  N111  1  0.01779000  0.67920000  0.23071000  1.0
  N  N112  1  0.01734000  0.17914000  0.26950000  1.0
  N  N113  1  0.98266000  0.32086000  0.76950000  1.0
  N  N114  1  0.99685000  0.73705000  0.78740000  1.0
  N  N115  1  0.00315000  0.76295000  0.28740000  1.0
  N  N116  1  0.00312000  0.26288000  0.21268000  1.0
  N  N117  1  0.99688000  0.23712000  0.71268000  1.0
  N  N118  1  0.86297000  0.53313000  0.89244000  1.0
  N  N119  1  0.13703000  0.96687000  0.39245000  1.0
  N  N120  1  0.13686000  0.46682000  0.10740000  1.0
  N  N121  1  0.86314000  0.03318000  0.60741000  1.0
  N  N122  1  0.45098000  0.19456000  0.16597000  1.0
  N  N123  1  0.54902000  0.30545000  0.66597000  1.0
  N  N124  1  0.54942000  0.80532000  0.83399000  1.0
  N  N125  1  0.45059000  0.69467000  0.33399000  1.0
  O  O126  1  0.10448000  0.11173000  0.88675000  1.0
  O  O127  1  0.89552000  0.38827000  0.38675000  1.0
  O  O128  1  0.89557000  0.88854000  0.11402000  1.0
  O  O129  1  0.10443000  0.61146000  0.61402000  1.0
  O  O130  1  0.23031000  0.09558000  0.75249000  1.0
  O  O131  1  0.76970000  0.40442000  0.25249000  1.0
  O  O132  1  0.76855000  0.90371000  0.24796000  1.0
  O  O133  1  0.23145000  0.59629000  0.74796000  1.0
  O  O134  1  0.75798000  0.06562000  0.81094000  1.0
  O  O135  1  0.24201000  0.43438000  0.31094000  1.0
  O  O136  1  0.24189000  0.93460000  0.18858000  1.0
  O  O137  1  0.75811000  0.56540000  0.68858000  1.0
  O  O138  1  0.82067000  0.06421000  0.96942000  1.0
  O  O139  1  0.17933000  0.43578000  0.46942000  1.0
  O  O140  1  0.17940000  0.93550000  0.03006000  1.0
  O  O141  1  0.82059000  0.56450000  0.53007000  1.0
  O  O142  1  0.53792000  0.16824000  0.22384000  1.0
  O  O143  1  0.46208000  0.33175000  0.72384000  1.0
  O  O144  1  0.46255000  0.83164000  0.77609000  1.0
  O  O145  1  0.53745000  0.66836000  0.27608000  1.0
  O  O146  1  0.35122000  0.23922000  0.18990000  1.0
  O  O147  1  0.64879000  0.26078000  0.68990000  1.0
  O  O148  1  0.64911000  0.76055000  0.81013000  1.0
  O  O149  1  0.35090000  0.73945000  0.31013000  1.0
