# generated using pymatgen
data_Mn2H10C8O13
_symmetry_space_group_name_H-M   'P 1'
_cell_length_a   7.56507000
_cell_length_b   8.94558000
_cell_length_c   11.01520000
_cell_angle_alpha   90.00010000
_cell_angle_beta   90.00970000
_cell_angle_gamma   80.79050000
_symmetry_Int_Tables_number   1
_chemical_formula_structural   Mn2H10C8O13
_chemical_formula_sum   'Mn4 H20 C16 O26'
_cell_volume   735.83302169
_cell_formula_units_Z   2
loop_
 _symmetry_equiv_pos_site_id
 _symmetry_equiv_pos_as_xyz
  1  'x, y, z'
loop_
 _atom_site_type_symbol
 _atom_site_label
 _atom_site_symmetry_multiplicity
 _atom_site_fract_x
 _atom_site_fract_y
 _atom_site_fract_z
 _atom_site_occupancy
  Mn  Mn0  1  0.76334000  0.23958000  0.62622000  1.0
  Mn  Mn1  1  0.23682000  0.76013000  0.12618000  1.0
  Mn  Mn2  1  0.65489000  0.21611000  0.11457000  1.0
  Mn  Mn3  1  0.34510000  0.78403000  0.61444000  1.0
  H  H4  1  0.99763000  0.04498000  0.50936000  1.0
  H  H5  1  0.00237000  0.95472000  0.00955000  1.0
  H  H6  1  0.49396000  0.02959000  0.23893000  1.0
  H  H7  1  0.50574000  0.97080000  0.73902000  1.0
  H  H8  1  0.60645000  0.28842000  0.39935000  1.0
  H  H9  1  0.39292000  0.71190000  0.89932000  1.0
  H  H10  1  0.90371000  0.30689000  0.29836000  1.0
  H  H11  1  0.09492000  0.69157000  0.79708000  1.0
  H  H12  1  0.86478000  0.36849000  0.96753000  1.0
  H  H13  1  0.13556000  0.63150000  0.46745000  1.0
  H  H14  1  0.69407000  0.33210000  0.88804000  1.0
  H  H15  1  0.30608000  0.66810000  0.38786000  1.0
  H  H16  1  0.89134000  0.85004000  0.45452000  1.0
  H  H17  1  0.10813000  0.14980000  0.95465000  1.0
  H  H18  1  0.67664000  0.84274000  0.30249000  1.0
  H  H19  1  0.32262000  0.15749000  0.80265000  1.0
  H  H20  1  0.60080000  0.59195000  0.45383000  1.0
  H  H21  1  0.39960000  0.40813000  0.95377000  1.0
  H  H22  1  0.78399000  0.57860000  0.26326000  1.0
  H  H23  1  0.21705000  0.42106000  0.76298000  1.0
  C  C24  1  0.64696000  0.95216000  0.53213000  1.0
  C  C25  1  0.35267000  0.04818000  0.03231000  1.0
  C  C26  1  0.79810000  0.95667000  0.44069000  1.0
  C  C27  1  0.20161000  0.04329000  0.94085000  1.0
  C  C28  1  0.73022000  0.94983000  0.31058000  1.0
  C  C29  1  0.26942000  0.05020000  0.81072000  1.0
  C  C30  1  0.88488000  0.94073000  0.21943000  1.0
  C  C31  1  0.11485000  0.05894000  0.71950000  1.0
  C  C32  1  0.86940000  0.49316000  0.48923000  1.0
  C  C33  1  0.13085000  0.50671000  0.98891000  1.0
  C  C34  1  0.68814000  0.48726000  0.42697000  1.0
  C  C35  1  0.31217000  0.51271000  0.92682000  1.0
  C  C36  1  0.70876000  0.48802000  0.28918000  1.0
  C  C37  1  0.29177000  0.51189000  0.78902000  1.0
  C  C38  1  0.52281000  0.51575000  0.23089000  1.0
  C  C39  1  0.47780000  0.48474000  0.73087000  1.0
  O  O40  1  0.63438000  0.04009000  0.62453000  1.0
  O  O41  1  0.36549000  0.96027000  0.12472000  1.0
  O  O42  1  0.54675000  0.85476000  0.51211000  1.0
  O  O43  1  0.45255000  0.14585000  0.01227000  1.0
  O  O44  1  0.85919000  0.02155000  0.12260000  1.0
  O  O45  1  0.14080000  0.97813000  0.62267000  1.0
  O  O46  1  0.02564000  0.85051000  0.24369000  1.0
  O  O47  1  0.97387000  0.14888000  0.74364000  1.0
  O  O48  1  0.88863000  0.08366000  0.45975000  1.0
  O  O49  1  0.11142000  0.91612000  0.95995000  1.0
  O  O50  1  0.58890000  0.07339000  0.28395000  1.0
  O  O51  1  0.41097000  0.92688000  0.78408000  1.0
  O  O52  1  0.92840000  0.39197000  0.56655000  1.0
  O  O53  1  0.07201000  0.60755000  0.06652000  1.0
  O  O54  1  0.94315000  0.60276000  0.45565000  1.0
  O  O55  1  0.05695000  0.39729000  0.95501000  1.0
  O  O56  1  0.46619000  0.40852000  0.17745000  1.0
  O  O57  1  0.53397000  0.59229000  0.67758000  1.0
  O  O58  1  0.43453000  0.64935000  0.24597000  1.0
  O  O59  1  0.56664000  0.35135000  0.74593000  1.0
  O  O60  1  0.60601000  0.36087000  0.46637000  1.0
  O  O61  1  0.39412000  0.63920000  0.96623000  1.0
  O  O62  1  0.80058000  0.34350000  0.24703000  1.0
  O  O63  1  0.19962000  0.65631000  0.74684000  1.0
  O  O64  1  0.74305000  0.33333333  0.97060000  1.0
  O  O65  1  0.25726000  0.66666667  0.47043000  1.0
