# generated using pymatgen
data_ZnH18C25N4O5
_symmetry_space_group_name_H-M   'P 1'
_cell_length_a   14.09120000
_cell_length_b   16.32110000
_cell_length_c   19.73520000
_cell_angle_alpha   104.54400000
_cell_angle_beta   89.99890000
_cell_angle_gamma   89.99980000
_symmetry_Int_Tables_number   1
_chemical_formula_structural   ZnH18C25N4O5
_chemical_formula_sum   'Zn4 H72 C100 N16 O20'
_cell_volume   4393.33316227
_cell_formula_units_Z   4
loop_
 _symmetry_equiv_pos_site_id
 _symmetry_equiv_pos_as_xyz
  1  'x, y, z'
loop_
 _atom_site_type_symbol
 _atom_site_label
 _atom_site_symmetry_multiplicity
 _atom_site_fract_x
 _atom_site_fract_y
 _atom_site_fract_z
 _atom_site_occupancy
  Zn  Zn0  1  0.56704000  0.74331000  0.66382000  1.0
  Zn  Zn1  1  0.93295000  0.24332000  0.16382000  1.0
  Zn  Zn2  1  0.43298000  0.25670000  0.33618000  1.0
  Zn  Zn3  1  0.06703000  0.75669000  0.83618000  1.0
  H  H4  1  0.73043000  0.94449000  0.29167000  1.0
  H  H5  1  0.44467000  0.43881000  0.57856000  1.0
  H  H6  1  0.91816000  0.46171000  0.07616000  1.0
  H  H7  1  0.32566000  0.39550000  0.49710000  1.0
  H  H8  1  0.76955000  0.44449000  0.79167000  1.0
  H  H9  1  0.51147000  0.91961000  0.74950000  1.0
  H  H10  1  0.61837000  0.06464000  0.50597000  1.0
  H  H11  1  0.75789000  0.64836000  0.97905000  1.0
  H  H12  1  0.72090000  0.54360000  0.72135000  1.0
  H  H13  1  0.79293000  0.87712000  0.36857000  1.0
  H  H14  1  0.05532000  0.93881000  0.07857000  1.0
  H  H15  1  0.88163000  0.56465000  0.00596000  1.0
  H  H16  1  0.17434000  0.89550000  0.99710000  1.0
  H  H17  1  0.17445000  0.22181000  0.34665000  1.0
  H  H18  1  0.74719000  0.27398000  0.93781000  1.0
  H  H19  1  0.42780000  0.67403000  0.74203000  1.0
  H  H20  1  0.77908000  0.04360000  0.22135000  1.0
  H  H21  1  0.07220000  0.17404000  0.24203000  1.0
  H  H22  1  0.78713000  0.24789000  0.40655000  1.0
  H  H23  1  0.08991000  0.47874000  0.35432000  1.0
  H  H24  1  0.74213000  0.14835000  0.47906000  1.0
  H  H25  1  0.23719000  0.32998000  0.42918000  1.0
  H  H26  1  0.71289000  0.74790000  0.90654000  1.0
  H  H27  1  0.20315000  0.12275000  0.99352000  1.0
  H  H28  1  0.09178000  0.23200000  0.06153000  1.0
  H  H29  1  0.32555000  0.72179000  0.84665000  1.0
  H  H30  1  0.94977000  0.05612000  0.14291000  1.0
  H  H31  1  0.98853000  0.41962000  0.24950000  1.0
  H  H32  1  0.40822000  0.73200000  0.56153000  1.0
  H  H33  1  0.41008000  0.97872000  0.85433000  1.0
  H  H34  1  0.26280000  0.82998000  0.92919000  1.0
  H  H35  1  0.58182000  0.96170000  0.57615000  1.0
  H  H36  1  0.75282000  0.77398000  0.43781000  1.0
  H  H37  1  0.70709000  0.37712000  0.86856000  1.0
  H  H38  1  0.55022000  0.55612000  0.64291000  1.0
  H  H39  1  0.29685000  0.62276000  0.49352000  1.0
  H  H40  1  0.59178000  0.26801000  0.43848000  1.0
  H  H41  1  0.91010000  0.52127000  0.64566000  1.0
  H  H42  1  0.41816000  0.03829000  0.42384000  1.0
  H  H43  1  0.05021000  0.94388000  0.85710000  1.0
  H  H44  1  0.67448000  0.27820000  0.15335000  1.0
  H  H45  1  0.25281000  0.72603000  0.06220000  1.0
  H  H46  1  0.82567000  0.10450000  0.00290000  1.0
  H  H47  1  0.57222000  0.32598000  0.25797000  1.0
  H  H48  1  0.24719000  0.22602000  0.56219000  1.0
  H  H49  1  0.55535000  0.56120000  0.42144000  1.0
  H  H50  1  0.21286000  0.75208000  0.59344000  1.0
  H  H51  1  0.24212000  0.35163000  0.02095000  1.0
  H  H52  1  0.90822000  0.76800000  0.93848000  1.0
  H  H53  1  0.70317000  0.37725000  0.50648000  1.0
  H  H54  1  0.29291000  0.62288000  0.13143000  1.0
  H  H55  1  0.20709000  0.12287000  0.63143000  1.0
  H  H56  1  0.92778000  0.82597000  0.75797000  1.0
  H  H57  1  0.48851000  0.08040000  0.25049000  1.0
  H  H58  1  0.23044000  0.55550000  0.20833000  1.0
  H  H59  1  0.25788000  0.85163000  0.52093000  1.0
  H  H60  1  0.27910000  0.45640000  0.27865000  1.0
  H  H61  1  0.01147000  0.58039000  0.75049000  1.0
  H  H62  1  0.94465000  0.06120000  0.92144000  1.0
  H  H63  1  0.82553000  0.77821000  0.65336000  1.0
  H  H64  1  0.67434000  0.60450000  0.50290000  1.0
  H  H65  1  0.22091000  0.95638000  0.77864000  1.0
  H  H66  1  0.58990000  0.02128000  0.14566000  1.0
  H  H67  1  0.73722000  0.17002000  0.07082000  1.0
  H  H68  1  0.38162000  0.93534000  0.49401000  1.0
  H  H69  1  0.08184000  0.53830000  0.92386000  1.0
  H  H70  1  0.76279000  0.67002000  0.57081000  1.0
  H  H71  1  0.11838000  0.43535000  0.99402000  1.0
  H  H72  1  0.26957000  0.05548000  0.70832000  1.0
  H  H73  1  0.44979000  0.44389000  0.35711000  1.0
  H  H74  1  0.28714000  0.25210000  0.09346000  1.0
  H  H75  1  0.79683000  0.87725000  0.00648000  1.0
  C  C76  1  0.68145000  0.71193000  0.76796000  1.0
  C  C77  1  0.13799000  0.02124000  0.02992000  1.0
  C  C78  1  0.06576000  0.00323000  0.07360000  1.0
  C  C79  1  0.72940000  0.56618000  0.77781000  1.0
  C  C80  1  0.79146000  0.47850000  0.93216000  1.0
  C  C81  1  0.36664000  0.76769000  0.82727000  1.0
  C  C82  1  0.77642000  0.33783000  0.95210000  1.0
  C  C83  1  0.77060000  0.06617000  0.27782000  1.0
  C  C84  1  0.72358000  0.83783000  0.45210000  1.0
  C  C85  1  0.14029000  0.35481000  0.35952000  1.0
  C  C86  1  0.75486000  0.39558000  0.91330000  1.0
  C  C87  1  0.14792000  0.10578000  0.02580000  1.0
  C  C88  1  0.83506000  0.36128000  0.01126000  1.0
  C  C89  1  0.77367000  0.18117000  0.38234000  1.0
  C  C90  1  0.35207000  0.60578000  0.52580000  1.0
  C  C91  1  0.42290000  0.74098000  0.76877000  1.0
  C  C92  1  0.74387000  0.01076000  0.31755000  1.0
  C  C93  1  0.26396000  0.95872000  0.94472000  1.0
  C  C94  1  0.85525000  0.29886000  0.05315000  1.0
  C  C95  1  0.62787000  0.94370000  0.53045000  1.0
  C  C96  1  0.76721000  0.53906000  0.89054000  1.0
  C  C97  1  0.74515000  0.89557000  0.41330000  1.0
  C  C98  1  0.00693000  0.06748000  0.10906000  1.0
  C  C99  1  0.64474000  0.79884000  0.55314000  1.0
  C  C100  1  0.08673000  0.41105000  0.33127000  1.0
  C  C101  1  0.71407000  0.65200000  0.80978000  1.0
  C  C102  1  0.43422000  0.50323000  0.57360000  1.0
  C  C103  1  0.64929000  0.00136000  0.49135000  1.0
  C  C104  1  0.81856000  0.21192000  0.26796000  1.0
  C  C105  1  0.03129000  0.37818000  0.27278000  1.0
  C  C106  1  0.13334000  0.26770000  0.32727000  1.0
  C  C107  1  0.35970000  0.85480000  0.85951000  1.0
  C  C108  1  0.23603000  0.45870000  0.44473000  1.0
  C  C109  1  0.41431000  0.66590000  0.56330000  1.0
  C  C110  1  0.72635000  0.68118000  0.88233000  1.0
  C  C111  1  0.08568000  0.16590000  0.06331000  1.0
  C  C112  1  0.74773000  0.12548000  0.42226000  1.0
  C  C113  1  0.75612000  0.51076000  0.81755000  1.0
  C  C114  1  0.85071000  0.50137000  0.99134000  1.0
  C  C115  1  0.36200000  0.52123000  0.52992000  1.0
  C  C116  1  0.46871000  0.87817000  0.77279000  1.0
  C  C117  1  0.70854000  0.97850000  0.43217000  1.0
  C  C118  1  0.78595000  0.15200000  0.30979000  1.0
  C  C119  1  0.66493000  0.86127000  0.51125000  1.0
  C  C120  1  0.41327000  0.91103000  0.83127000  1.0
  C  C121  1  0.87212000  0.44371000  0.03045000  1.0
  C  C122  1  0.49305000  0.56748000  0.60906000  1.0
  C  C123  1  0.07710000  0.24099000  0.26878000  1.0
  C  C124  1  0.73280000  0.03905000  0.39055000  1.0
  C  C125  1  0.75229000  0.62549000  0.92225000  1.0
  C  C126  1  0.91430000  0.83410000  0.93670000  1.0
  C  C127  1  0.28596000  0.34800000  0.19022000  1.0
  C  C128  1  0.85971000  0.64520000  0.64048000  1.0
  C  C129  1  0.50696000  0.43253000  0.39094000  1.0
  C  C130  1  0.24388000  0.48923000  0.18245000  1.0
  C  C131  1  0.99304000  0.93252000  0.89094000  1.0
  C  C132  1  0.16493000  0.63873000  0.98875000  1.0
  C  C133  1  0.23280000  0.46093000  0.10945000  1.0
  C  C134  1  0.63802000  0.47877000  0.47008000  1.0
  C  C135  1  0.57711000  0.25903000  0.23123000  1.0
  C  C136  1  0.25614000  0.98922000  0.68244000  1.0
  C  C137  1  0.37213000  0.05629000  0.46955000  1.0
  C  C138  1  0.22633000  0.81880000  0.61765000  1.0
  C  C139  1  0.29145000  0.02148000  0.56782000  1.0
  C  C140  1  0.14929000  0.49864000  0.00865000  1.0
  C  C141  1  0.92290000  0.75902000  0.73122000  1.0
  C  C142  1  0.21405000  0.84798000  0.69020000  1.0
  C  C143  1  0.56580000  0.49678000  0.42640000  1.0
  C  C144  1  0.73603000  0.04130000  0.05528000  1.0
  C  C145  1  0.18143000  0.78805000  0.73203000  1.0
  C  C146  1  0.27367000  0.31881000  0.11767000  1.0
  C  C147  1  0.86198000  0.97877000  0.97008000  1.0
  C  C148  1  0.22357000  0.66217000  0.04791000  1.0
  C  C149  1  0.86666000  0.73231000  0.67272000  1.0
  C  C150  1  0.26720000  0.96092000  0.60944000  1.0
  C  C151  1  0.93420000  0.99677000  0.92640000  1.0
  C  C152  1  0.25487000  0.10441000  0.58670000  1.0
  C  C153  1  0.27643000  0.16216000  0.54790000  1.0
  C  C154  1  0.33508000  0.13873000  0.48875000  1.0
  C  C155  1  0.96871000  0.62183000  0.72721000  1.0
  C  C156  1  0.58672000  0.08897000  0.16872000  1.0
  C  C157  1  0.27061000  0.43382000  0.22219000  1.0
  C  C158  1  0.12787000  0.55630000  0.96956000  1.0
  C  C159  1  0.24771000  0.37450000  0.07775000  1.0
  C  C160  1  0.24514000  0.60442000  0.08670000  1.0
  C  C161  1  0.85206000  0.89422000  0.97420000  1.0
  C  C162  1  0.31857000  0.28807000  0.23205000  1.0
  C  C163  1  0.64794000  0.39422000  0.47420000  1.0
  C  C164  1  0.58570000  0.33411000  0.43670000  1.0
  C  C165  1  0.35071000  0.99863000  0.50865000  1.0
  C  C166  1  0.25229000  0.87449000  0.57773000  1.0
  C  C167  1  0.64030000  0.14520000  0.14049000  1.0
  C  C168  1  0.20855000  0.52149000  0.06783000  1.0
  C  C169  1  0.35527000  0.20116000  0.44687000  1.0
  C  C170  1  0.53129000  0.12184000  0.22721000  1.0
  C  C171  1  0.91328000  0.58896000  0.66872000  1.0
  C  C172  1  0.14473000  0.70116000  0.94687000  1.0
  C  C173  1  0.76398000  0.54130000  0.55528000  1.0
  C  C174  1  0.63336000  0.23231000  0.17273000  1.0
  C  C175  1  0.22941000  0.93380000  0.72218000  1.0
  N  N176  1  0.01567000  0.14822000  0.10401000  1.0
  N  N177  1  0.02645000  0.29496000  0.24117000  1.0
  N  N178  1  0.19302000  0.95517000  0.99343000  1.0
  N  N179  1  0.47355000  0.79495000  0.74117000  1.0
  N  N180  1  0.20019000  0.37857000  0.41628000  1.0
  N  N181  1  0.30698000  0.45517000  0.49343000  1.0
  N  N182  1  0.29980000  0.87857000  0.91628000  1.0
  N  N183  1  0.48432000  0.64821000  0.60400000  1.0
  N  N184  1  0.79980000  0.62144000  0.58372000  1.0
  N  N185  1  0.51569000  0.35179000  0.39600000  1.0
  N  N186  1  0.98431000  0.85179000  0.89600000  1.0
  N  N187  1  0.97354000  0.70505000  0.75883000  1.0
  N  N188  1  0.52646000  0.20506000  0.25883000  1.0
  N  N189  1  0.69304000  0.54484000  0.50657000  1.0
  N  N190  1  0.70020000  0.12144000  0.08372000  1.0
  N  N191  1  0.80696000  0.04483000  0.00657000  1.0
  O  O192  1  0.67584000  0.72391000  0.53213000  1.0
  O  O193  1  0.90348000  0.32596000  0.11006000  1.0
  O  O194  1  0.20998000  0.52384000  0.42945000  1.0
  O  O195  1  0.65129000  0.67425000  0.70479000  1.0
  O  O196  1  0.84871000  0.17424000  0.20479000  1.0
  O  O197  1  0.59649000  0.82593000  0.61004000  1.0
  O  O198  1  0.68219000  0.78979000  0.79317000  1.0
  O  O199  1  0.81782000  0.28978000  0.29318000  1.0
  O  O200  1  0.82417000  0.22392000  0.03215000  1.0
  O  O201  1  0.29000000  0.02383000  0.92944000  1.0
  O  O202  1  0.40356000  0.17409000  0.38998000  1.0
  O  O203  1  0.34870000  0.32575000  0.29522000  1.0
  O  O204  1  0.15129000  0.82573000  0.79521000  1.0
  O  O205  1  0.70996000  0.97617000  0.07055000  1.0
  O  O206  1  0.09645000  0.67408000  0.88998000  1.0
  O  O207  1  0.17585000  0.77609000  0.96786000  1.0
  O  O208  1  0.31783000  0.21021000  0.20683000  1.0
  O  O209  1  0.32414000  0.27608000  0.46786000  1.0
  O  O210  1  0.18218000  0.71020000  0.70681000  1.0
  O  O211  1  0.79003000  0.47617000  0.57055000  1.0
