# generated using pymatgen
data_CdP2H19C7N(ClO4)2
_symmetry_space_group_name_H-M   'P 1'
_cell_length_a   5.74650000
_cell_length_b   8.87193000
_cell_length_c   16.17060000
_cell_angle_alpha   104.15400000
_cell_angle_beta   89.99970000
_cell_angle_gamma   90.00000000
_symmetry_Int_Tables_number   1
_chemical_formula_structural   CdP2H19C7N(ClO4)2
_chemical_formula_sum   'Cd2 P4 H38 C14 N2 Cl4 O16'
_cell_volume   799.39064766
_cell_formula_units_Z   2
loop_
 _symmetry_equiv_pos_site_id
 _symmetry_equiv_pos_as_xyz
  1  'x, y, z'
loop_
 _atom_site_type_symbol
 _atom_site_label
 _atom_site_symmetry_multiplicity
 _atom_site_fract_x
 _atom_site_fract_y
 _atom_site_fract_z
 _atom_site_occupancy
  Cd  Cd0  1  0.83159000  0.80575000  0.61176000  1.0
  Cd  Cd1  1  0.33159000  0.19425000  0.38824000  1.0
  P  P2  1  0.48289000  0.14888000  0.67315000  1.0
  P  P3  1  0.98287000  0.85112000  0.32685000  1.0
  P  P4  1  0.32774000  0.86425000  0.74531000  1.0
  P  P5  1  0.82775000  0.13576000  0.25469000  1.0
  H  H6  1  0.19655000  0.97536000  0.57201000  1.0
  H  H7  1  0.69655000  0.02464000  0.42799000  1.0
  H  H8  1  0.14769000  0.89809000  0.47518000  1.0
  H  H9  1  0.64769000  0.10192000  0.52482000  1.0
  H  H10  1  0.21150000  0.61110000  0.61457000  1.0
  H  H11  1  0.71149000  0.38890000  0.38543000  1.0
  H  H12  1  0.06194000  0.47092000  0.55767000  1.0
  H  H13  1  0.56194000  0.52909000  0.44232000  1.0
  H  H14  1  0.64801000  0.76813000  0.44372000  1.0
  H  H15  1  0.14800000  0.23187000  0.55627000  1.0
  H  H16  1  0.43383000  0.77353000  0.50914000  1.0
  H  H17  1  0.93382000  0.22647000  0.49085000  1.0
  H  H18  1  0.82731000  0.39987000  0.79345000  1.0
  H  H19  1  0.32731000  0.60014000  0.20655000  1.0
  H  H20  1  0.83759000  0.46975000  0.69805000  1.0
  H  H21  1  0.33759000  0.53026000  0.30195000  1.0
  H  H22  1  0.92072000  0.27339000  0.69519000  1.0
  H  H23  1  0.42071000  0.72662000  0.30480000  1.0
  H  H24  1  0.65737000  0.81440000  0.90607000  1.0
  H  H25  1  0.15736000  0.18560000  0.09393000  1.0
  H  H26  1  0.66893000  0.69678000  0.79998000  1.0
  H  H27  1  0.16893000  0.30322000  0.20002000  1.0
  H  H28  1  0.40363000  0.50443000  0.83922000  1.0
  H  H29  1  0.90362000  0.49557000  0.16078000  1.0
  H  H30  1  0.64785000  0.53534000  0.90767000  1.0
  H  H31  1  0.14784000  0.46466000  0.09233000  1.0
  H  H32  1  0.42290000  0.71788000  0.02007000  1.0
  H  H33  1  0.92289000  0.28211000  0.97993000  1.0
  H  H34  1  0.27486000  0.53818000  0.98999000  1.0
  H  H35  1  0.77485000  0.46181000  0.01001000  1.0
  H  H36  1  0.00542000  0.76847000  0.99988000  1.0
  H  H37  1  0.50542000  0.23152000  0.00013000  1.0
  H  H38  1  0.01138000  0.64187000  0.89617000  1.0
  H  H39  1  0.51138000  0.35812000  0.10383000  1.0
  H  H40  1  0.03505000  0.91094000  0.88309000  1.0
  H  H41  1  0.53506000  0.08906000  0.11691000  1.0
  H  H42  1  0.27196000  0.95083000  0.95595000  1.0
  H  H43  1  0.77195000  0.04917000  0.04405000  1.0
  C  C44  1  0.43552000  0.07252000  0.76920000  1.0
  C  C45  1  0.93551000  0.92748000  0.23080000  1.0
  C  C46  1  0.80373000  0.36912000  0.72417000  1.0
  C  C47  1  0.30373000  0.63088000  0.27583000  1.0
  C  C48  1  0.55846000  0.73071000  0.85670000  1.0
  C  C49  1  0.05845000  0.26928000  0.14330000  1.0
  C  C50  1  0.49020000  0.59070000  0.89035000  1.0
  C  C51  1  0.99021000  0.40929000  0.10965000  1.0
  C  C52  1  0.32879000  0.63966000  0.96709000  1.0
  C  C53  1  0.82878000  0.36033000  0.03292000  1.0
  C  C54  1  0.11620000  0.72405000  0.94373000  1.0
  C  C55  1  0.61620000  0.27595000  0.05627000  1.0
  C  C56  1  0.18757000  0.85919000  0.90604000  1.0
  C  C57  1  0.68756000  0.14079000  0.09395000  1.0
  N  N58  1  0.34945000  0.80712000  0.83462000  1.0
  N  N59  1  0.84944000  0.19287000  0.16539000  1.0
  Cl  Cl60  1  0.70614000  0.08233000  0.82352000  1.0
  Cl  Cl61  1  0.20613000  0.91768000  0.17648000  1.0
  Cl  Cl62  1  0.23272000  0.19746000  0.83744000  1.0
  Cl  Cl63  1  0.73271000  0.80254000  0.16257000  1.0
  O  O64  1  0.16072000  0.87181000  0.53180000  1.0
  O  O65  1  0.66072000  0.12820000  0.46820000  1.0
  O  O66  1  0.05453000  0.57948000  0.59359000  1.0
  O  O67  1  0.55454000  0.42053000  0.40640000  1.0
  O  O68  1  0.58847000  0.72358000  0.49142000  1.0
  O  O69  1  0.08846000  0.27643000  0.50857000  1.0
  O  O70  1  0.67362000  0.05289000  0.61934000  1.0
  O  O71  1  0.17362000  0.94711000  0.38066000  1.0
  O  O72  1  0.24922000  0.14966000  0.62989000  1.0
  O  O73  1  0.74923000  0.85034000  0.37011000  1.0
  O  O74  1  0.56179000  0.32534000  0.70537000  1.0
  O  O75  1  0.06178000  0.67466000  0.29463000  1.0
  O  O76  1  0.49044000  0.76717000  0.67884000  1.0
  O  O77  1  0.99043000  0.23282000  0.32116000  1.0
  O  O78  1  0.07491000  0.87321000  0.72209000  1.0
  O  O79  1  0.57491000  0.12679000  0.27791000  1.0
