# generated using pymatgen
data_CuH3C4(IN)2
_symmetry_space_group_name_H-M   'P 1'
_cell_length_a   4.16703000
_cell_length_b   12.90320000
_cell_length_c   13.79920000
_cell_angle_alpha   90.00040000
_cell_angle_beta   90.00080000
_cell_angle_gamma   87.27730000
_symmetry_Int_Tables_number   1
_chemical_formula_structural   CuH3C4(IN)2
_chemical_formula_sum   'Cu4 H12 C16 I8 N8'
_cell_volume   741.11811321
_cell_formula_units_Z   4
loop_
 _symmetry_equiv_pos_site_id
 _symmetry_equiv_pos_as_xyz
  1  'x, y, z'
loop_
 _atom_site_type_symbol
 _atom_site_label
 _atom_site_symmetry_multiplicity
 _atom_site_fract_x
 _atom_site_fract_y
 _atom_site_fract_z
 _atom_site_occupancy
  Cu  Cu0  1  0.48554000  0.17600000  0.32519000  1.0
  Cu  Cu1  1  0.48555000  0.67599000  0.17481000  1.0
  Cu  Cu2  1  0.51446000  0.82400000  0.67481000  1.0
  Cu  Cu3  1  0.51445000  0.32401000  0.82519000  1.0
  H  H4  1  0.25021000  0.37658000  0.40650000  1.0
  H  H5  1  0.25020000  0.87658000  0.09349000  1.0
  H  H6  1  0.74980000  0.62342000  0.59350000  1.0
  H  H7  1  0.74979000  0.12342000  0.90651000  1.0
  H  H8  1  0.71761000  0.47526000  0.09903000  1.0
  H  H9  1  0.71758000  0.97526000  0.40097000  1.0
  H  H10  1  0.28239000  0.52475000  0.90097000  1.0
  H  H11  1  0.28241000  0.02474000  0.59903000  1.0
  H  H12  1  0.69559000  0.28959000  0.14637000  1.0
  H  H13  1  0.69557000  0.78960000  0.35363000  1.0
  H  H14  1  0.30441000  0.71041000  0.85363000  1.0
  H  H15  1  0.30442000  0.21040000  0.64637000  1.0
  C  C16  1  0.35682000  0.39896000  0.33786000  1.0
  C  C17  1  0.35681000  0.89897000  0.16214000  1.0
  C  C18  1  0.64318000  0.60104000  0.66214000  1.0
  C  C19  1  0.64318000  0.10104000  0.83787000  1.0
  C  C20  1  0.37497000  0.50288000  0.31179000  1.0
  C  C21  1  0.37496000  0.00288000  0.18820000  1.0
  C  C22  1  0.62503000  0.49711000  0.68821000  1.0
  C  C23  1  0.62504000  0.99711000  0.81180000  1.0
  C  C24  1  0.61391000  0.45360000  0.16827000  1.0
  C  C25  1  0.61388000  0.95361000  0.33173000  1.0
  C  C26  1  0.38610000  0.54639000  0.83174000  1.0
  C  C27  1  0.38611000  0.04639000  0.66826000  1.0
  C  C28  1  0.60110000  0.35042000  0.19455000  1.0
  C  C29  1  0.60110000  0.85042000  0.30545000  1.0
  C  C30  1  0.39889000  0.64959000  0.80545000  1.0
  C  C31  1  0.39890000  0.14959000  0.69456000  1.0
  I  I32  1  0.98653000  0.17056000  0.44813000  1.0
  I  I33  1  0.98652000  0.67056000  0.05187000  1.0
  I  I34  1  0.01346000  0.82944000  0.55187000  1.0
  I  I35  1  0.01347000  0.32944000  0.94813000  1.0
  I  I36  1  0.21389000  0.62112000  0.40892000  1.0
  I  I37  1  0.21388000  0.12112000  0.09107000  1.0
  I  I38  1  0.78611000  0.37888000  0.59107000  1.0
  I  I39  1  0.78611000  0.87888000  0.90893000  1.0
  N  N40  1  0.47039000  0.32155000  0.27961000  1.0
  N  N41  1  0.47038000  0.82154000  0.22038000  1.0
  N  N42  1  0.52962000  0.67845000  0.72038000  1.0
  N  N43  1  0.52962000  0.17845000  0.77962000  1.0
  N  N44  1  0.50117000  0.53188000  0.22634000  1.0
  N  N45  1  0.50116000  0.03187000  0.27366000  1.0
  N  N46  1  0.49883000  0.46813000  0.77366000  1.0
  N  N47  1  0.49883000  0.96812000  0.72635000  1.0
