# generated using pymatgen
data_CuH8C6(NCl)2
_symmetry_space_group_name_H-M   'P 1'
_cell_length_a   6.00458000
_cell_length_b   6.71415000
_cell_length_c   10.59510000
_cell_angle_alpha   89.99890000
_cell_angle_beta   89.99950000
_cell_angle_gamma   75.46400000
_symmetry_Int_Tables_number   1
_chemical_formula_structural   CuH8C6(NCl)2
_chemical_formula_sum   'Cu2 H16 C12 N4 Cl4'
_cell_volume   413.47538895
_cell_formula_units_Z   2
loop_
 _symmetry_equiv_pos_site_id
 _symmetry_equiv_pos_as_xyz
  1  'x, y, z'
loop_
 _atom_site_type_symbol
 _atom_site_label
 _atom_site_symmetry_multiplicity
 _atom_site_fract_x
 _atom_site_fract_y
 _atom_site_fract_z
 _atom_site_occupancy
  Cu  Cu0  1  0.00001000  0.99998000  0.00000000  1.0
  Cu  Cu1  1  0.49999000  0.00002000  0.50001000  1.0
  H  H2  1  0.57319000  0.27277000  0.91843000  1.0
  H  H3  1  0.92681000  0.72724000  0.41842000  1.0
  H  H4  1  0.42684000  0.72720000  0.08157000  1.0
  H  H5  1  0.07315000  0.27279000  0.58156000  1.0
  H  H6  1  0.73817000  0.26409000  0.78038000  1.0
  H  H7  1  0.76183000  0.73592000  0.28039000  1.0
  H  H8  1  0.26187000  0.73589000  0.21961000  1.0
  H  H9  1  0.23812000  0.26409000  0.71961000  1.0
  H  H10  1  0.52985000  0.49777000  0.82104000  1.0
  H  H11  1  0.97015000  0.50227000  0.32104000  1.0
  H  H12  1  0.47018000  0.50222000  0.17896000  1.0
  H  H13  1  0.02978000  0.49778000  0.67897000  1.0
  H  H14  1  0.28270000  0.24174000  0.11584000  1.0
  H  H15  1  0.21728000  0.75828000  0.61585000  1.0
  H  H16  1  0.71735000  0.75822000  0.88417000  1.0
  H  H17  1  0.78263000  0.24180000  0.38418000  1.0
  C  C18  1  0.65863000  0.36545000  0.85870000  1.0
  C  C19  1  0.84139000  0.63457000  0.35870000  1.0
  C  C20  1  0.34142000  0.63453000  0.14131000  1.0
  C  C21  1  0.15857000  0.36545000  0.64131000  1.0
  C  C22  1  0.15582000  0.35838000  0.06446000  1.0
  C  C23  1  0.34418000  0.64162000  0.56446000  1.0
  C  C24  1  0.84422000  0.64159000  0.93553000  1.0
  C  C25  1  0.65581000  0.35841000  0.43553000  1.0
  C  C26  1  0.83550000  0.43552000  0.93236000  1.0
  C  C27  1  0.66451000  0.56448000  0.43237000  1.0
  C  C28  1  0.16451000  0.56447000  0.06763000  1.0
  C  C29  1  0.33550000  0.43551000  0.56764000  1.0
  N  N30  1  0.99511000  0.29691000  0.99825000  1.0
  N  N31  1  0.50492000  0.70306000  0.49826000  1.0
  N  N32  1  0.00491000  0.70307000  0.00175000  1.0
  N  N33  1  0.49508000  0.29692000  0.50174000  1.0
  Cl  Cl34  1  0.71201000  0.06378000  0.14488000  1.0
  Cl  Cl35  1  0.78796000  0.93624000  0.64489000  1.0
  Cl  Cl36  1  0.28799000  0.93619000  0.85511000  1.0
  Cl  Cl37  1  0.21204000  0.06379000  0.35511000  1.0
