# generated using pymatgen
data_CdH24C20(N3O5)2
_symmetry_space_group_name_H-M   'P 1'
_cell_length_a   7.12448000
_cell_length_b   12.84050000
_cell_length_c   13.40640000
_cell_angle_alpha   73.42800000
_cell_angle_beta   82.24140000
_cell_angle_gamma   81.32410000
_symmetry_Int_Tables_number   1
_chemical_formula_structural   CdH24C20(N3O5)2
_chemical_formula_sum   'Cd2 H48 C40 N12 O20'
_cell_volume   1156.56014117
_cell_formula_units_Z   2
loop_
 _symmetry_equiv_pos_site_id
 _symmetry_equiv_pos_as_xyz
  1  'x, y, z'
loop_
 _atom_site_type_symbol
 _atom_site_label
 _atom_site_symmetry_multiplicity
 _atom_site_fract_x
 _atom_site_fract_y
 _atom_site_fract_z
 _atom_site_occupancy
  Cd  Cd0  1  0.00000000  0.00000000  0.00000000  1.0
  Cd  Cd1  1  0.00000000  0.00000000  0.50000000  1.0
  H  H2  1  0.23965000  0.18328000  0.02738000  1.0
  H  H3  1  0.76035000  0.81672000  0.97262000  1.0
  H  H4  1  0.02431000  0.21214000  0.10552000  1.0
  H  H5  1  0.97569000  0.78786000  0.89448000  1.0
  H  H6  1  0.03103000  0.20999000  0.28105000  1.0
  H  H7  1  0.96898000  0.79001000  0.71894000  1.0
  H  H8  1  0.25329000  0.18125000  0.33837000  1.0
  H  H9  1  0.74671000  0.81875000  0.66163000  1.0
  H  H10  1  0.41994000  0.99634000  0.37344000  1.0
  H  H11  1  0.58006000  0.00366000  0.62656000  1.0
  H  H12  1  0.32010000  0.89127000  0.34176000  1.0
  H  H13  1  0.67990000  0.10873000  0.65824000  1.0
  H  H14  1  0.31493000  0.89417000  0.16468000  1.0
  H  H15  1  0.68507000  0.10583000  0.83532000  1.0
  H  H16  1  0.40499000  0.00300000  0.06179000  1.0
  H  H17  1  0.59501000  0.99700000  0.93821000  1.0
  H  H18  1  0.54403000  0.14490000  0.10460000  1.0
  H  H19  1  0.45598000  0.85510000  0.89540000  1.0
  H  H20  1  0.54079000  0.14181000  0.23892000  1.0
  H  H21  1  0.45921000  0.85819000  0.76108000  1.0
  H  H22  1  0.89714000  0.06726000  0.24232000  1.0
  H  H23  1  0.10286000  0.93274000  0.75768000  1.0
  H  H24  1  0.01885000  0.93127000  0.26884000  1.0
  H  H25  1  0.98115000  0.06873000  0.73116000  1.0
  H  H26  1  0.11531000  0.52233000  0.13937000  1.0
  H  H27  1  0.88468000  0.47767000  0.86063000  1.0
  H  H28  1  0.38139000  0.36950000  0.15525000  1.0
  H  H29  1  0.61861000  0.63050000  0.84476000  1.0
  H  H30  1  0.78830000  0.60471000  0.09065000  1.0
  H  H31  1  0.21170000  0.39530000  0.90935000  1.0
  H  H32  1  0.51932000  0.75604000  0.07227000  1.0
  H  H33  1  0.48068000  0.24396000  0.92773000  1.0
  H  H34  1  0.08603000  0.62822000  0.62622000  1.0
  H  H35  1  0.91397000  0.37179000  0.37378000  1.0
  H  H36  1  0.17916000  0.42349000  0.67715000  1.0
  H  H37  1  0.82084000  0.57651000  0.32285000  1.0
  H  H38  1  0.77036000  0.47455000  0.60682000  1.0
  H  H39  1  0.22964000  0.52545000  0.39317000  1.0
  H  H40  1  0.67776000  0.67868000  0.56110000  1.0
  H  H41  1  0.32224000  0.32132000  0.43890000  1.0
  H  H42  1  0.66884000  0.93126000  0.16975000  1.0
  H  H43  1  0.33116000  0.06874000  0.83025000  1.0
  H  H44  1  0.82809000  0.83299000  0.14015000  1.0
  H  H45  1  0.17192000  0.16701000  0.85985000  1.0
  H  H46  1  0.34169000  0.97276000  0.56342000  1.0
  H  H47  1  0.65831000  0.02724000  0.43658000  1.0
  H  H48  1  0.34563000  0.10050000  0.51429000  1.0
  H  H49  1  0.65437000  0.89950000  0.48571000  1.0
  C  C50  1  0.16529000  0.16430000  0.10621000  1.0
  C  C51  1  0.83471000  0.83570000  0.89379000  1.0
  C  C52  1  0.17253000  0.16261000  0.28270000  1.0
  C  C53  1  0.82747000  0.83739000  0.71730000  1.0
  C  C54  1  0.33874000  0.97836000  0.31805000  1.0
  C  C55  1  0.66126000  0.02163000  0.68195000  1.0
  C  C56  1  0.33110000  0.98163000  0.14081000  1.0
  C  C57  1  0.66889000  0.01837000  0.85919000  1.0
  C  C58  1  0.46277000  0.12392000  0.18186000  1.0
  C  C59  1  0.53724000  0.87608000  0.81814000  1.0
  C  C60  1  0.03754000  0.01849000  0.24383000  1.0
  C  C61  1  0.96246000  0.98151000  0.75617000  1.0
  C  C62  1  0.14096000  0.74087000  0.09343000  1.0
  C  C63  1  0.85903000  0.25913000  0.90657000  1.0
  C  C64  1  0.30142000  0.64831000  0.10427000  1.0
  C  C65  1  0.69858000  0.35169000  0.89573000  1.0
  C  C66  1  0.26259000  0.53963000  0.12897000  1.0
  C  C67  1  0.73740000  0.46037000  0.87103000  1.0
  C  C68  1  0.41057000  0.45417000  0.13849000  1.0
  C  C69  1  0.58942000  0.54583000  0.86151000  1.0
  C  C70  1  0.59774000  0.47992000  0.12422000  1.0
  C  C71  1  0.40226000  0.52008000  0.87578000  1.0
  C  C72  1  0.64106000  0.58757000  0.09954000  1.0
  C  C73  1  0.35894000  0.41243000  0.90047000  1.0
  C  C74  1  0.49116000  0.67138000  0.08951000  1.0
  C  C75  1  0.50884000  0.32862000  0.91049000  1.0
  C  C76  1  0.31935000  0.78691000  0.56446000  1.0
  C  C77  1  0.68065000  0.21309000  0.43554000  1.0
  C  C78  1  0.37640000  0.66506000  0.59078000  1.0
  C  C79  1  0.62359000  0.33495000  0.40922000  1.0
  C  C80  1  0.23520000  0.59356000  0.62199000  1.0
  C  C81  1  0.76480000  0.40643000  0.37801000  1.0
  C  C82  1  0.28519000  0.48085000  0.64891000  1.0
  C  C83  1  0.71482000  0.51915000  0.35109000  1.0
  C  C84  1  0.47889000  0.44114000  0.64164000  1.0
  C  C85  1  0.52111000  0.55886000  0.35836000  1.0
  C  C86  1  0.62195000  0.51006000  0.61083000  1.0
  C  C87  1  0.37804000  0.48994000  0.38917000  1.0
  C  C88  1  0.56942000  0.62261000  0.58584000  1.0
  C  C89  1  0.43057000  0.37739000  0.41416000  1.0
  N  N90  1  0.13898000  0.04547000  0.13737000  1.0
  N  N91  1  0.86103000  0.95453000  0.86263000  1.0
  N  N92  1  0.27535000  0.19009000  0.17872000  1.0
  N  N93  1  0.72465000  0.80991000  0.82128000  1.0
  N  N94  1  0.14648000  0.04332000  0.31979000  1.0
  N  N95  1  0.85352000  0.95668000  0.68021000  1.0
  N  N96  1  0.44350000  0.00548000  0.21382000  1.0
  N  N97  1  0.55651000  0.99452000  0.78618000  1.0
  N  N98  1  0.75451000  0.39131000  0.13766000  1.0
  N  N99  1  0.24548000  0.60869000  0.86234000  1.0
  N  N100  1  0.53426000  0.32272000  0.66677000  1.0
  N  N101  1  0.46573000  0.67728000  0.33323000  1.0
  O  O102  1  0.18493000  0.83328000  0.03414000  1.0
  O  O103  1  0.81507000  0.16672000  0.96586000  1.0
  O  O104  1  0.98027000  0.72067000  0.14232000  1.0
  O  O105  1  0.01973000  0.27933000  0.85768000  1.0
  O  O106  1  0.71539000  0.29557000  0.17406000  1.0
  O  O107  1  0.28461000  0.70443000  0.82594000  1.0
  O  O108  1  0.92066000  0.41489000  0.11341000  1.0
  O  O109  1  0.07934000  0.58511000  0.88660000  1.0
  O  O110  1  0.14858000  0.82027000  0.54321000  1.0
  O  O111  1  0.85142000  0.17973000  0.45679000  1.0
  O  O112  1  0.44460000  0.84746000  0.56696000  1.0
  O  O113  1  0.55540000  0.15255000  0.43304000  1.0
  O  O114  1  0.70684000  0.28868000  0.67146000  1.0
  O  O115  1  0.29315000  0.71132000  0.32854000  1.0
  O  O116  1  0.40649000  0.26252000  0.68138000  1.0
  O  O117  1  0.59350000  0.73748000  0.31863000  1.0
  O  O118  1  0.76133000  0.90916000  0.11448000  1.0
  O  O119  1  0.23867000  0.09084000  0.88552000  1.0
  O  O120  1  0.26342000  0.04613000  0.55851000  1.0
  O  O121  1  0.73658000  0.95387000  0.44149000  1.0
