# generated using pymatgen
data_Al2H17C18O10F
_symmetry_space_group_name_H-M   'P 1'
_cell_length_a   6.65621000
_cell_length_b   11.00970000
_cell_length_c   11.14957275
_cell_angle_alpha   80.98779230
_cell_angle_beta   72.90006692
_cell_angle_gamma   72.51960000
_symmetry_Int_Tables_number   1
_chemical_formula_structural   Al2H17C18O10F
_chemical_formula_sum   'Al2 H17 C18 O10 F1'
_cell_volume   742.79340062
_cell_formula_units_Z   1
loop_
 _symmetry_equiv_pos_site_id
 _symmetry_equiv_pos_as_xyz
  1  'x, y, z'
loop_
 _atom_site_type_symbol
 _atom_site_label
 _atom_site_symmetry_multiplicity
 _atom_site_fract_x
 _atom_site_fract_y
 _atom_site_fract_z
 _atom_site_occupancy
  Al  Al0  1  0.50038000  0.50355000  0.49991000  1.0
  Al  Al1  1  0.00254000  0.49872000  0.50054000  1.0
  H  H2  1  0.78961000  0.57834000  0.35036000  1.0
  H  H3  1  0.29648000  0.34857000  0.57245000  1.0
  H  H4  1  0.89037000  0.47837000  0.88733000  1.0
  H  H5  1  0.22672000  0.54544000  0.87219000  1.0
  H  H6  1  0.76336000  0.47166000  0.12321000  1.0
  H  H7  1  0.89486000  0.10003000  0.70578000  1.0
  H  H8  1  0.15956000  0.10192000  0.61310000  1.0
  H  H9  1  0.25697000  0.87830000  0.62713000  1.0
  H  H10  1  0.98576000  0.87828000  0.70925000  1.0
  H  H11  1  0.36663000  0.90072000  0.39191000  1.0
  H  H12  1  0.18580000  0.89842000  0.30421000  1.0
  H  H13  1  0.24475000  0.12427000  0.37709000  1.0
  H  H14  1  0.04862000  0.11954000  0.30126000  1.0
  H  H15  1  0.60796000  0.09764000  0.59740000  1.0
  H  H16  1  0.66416000  0.11535000  0.43225000  1.0
  H  H17  1  0.79439000  0.89388000  0.42149000  1.0
  H  H18  1  0.71686000  0.87615000  0.58636000  1.0
  C  C19  1  0.13688000  0.72991000  0.50505000  1.0
  C  C20  1  0.35852000  0.50106000  0.27122000  1.0
  C  C21  1  0.85968000  0.26831000  0.50242000  1.0
  C  C22  1  0.64052000  0.50891000  0.72583000  1.0
  C  C23  1  0.42605000  0.50596000  0.13068000  1.0
  C  C24  1  0.56718000  0.51073000  0.86591000  1.0
  C  C25  1  0.27846000  0.52844000  0.05673000  1.0
  C  C26  1  0.71856000  0.49148000  0.93643000  1.0
  C  C27  1  0.34526000  0.52952000  0.92661000  1.0
  C  C28  1  0.64780000  0.48815000  0.06690000  1.0
  C  C29  1  0.01947000  0.06589000  0.61953000  1.0
  C  C30  1  0.08604000  0.91804000  0.62411000  1.0
  C  C31  1  0.05608000  0.87439000  0.50696000  1.0
  C  C32  1  0.19501000  0.93388000  0.38884000  1.0
  C  C33  1  0.11193000  0.08152000  0.38420000  1.0
  C  C34  1  0.92825000  0.12332000  0.50439000  1.0
  C  C35  1  0.73638000  0.07011000  0.51048000  1.0
  C  C36  1  0.81448000  0.92327000  0.50606000  1.0
  O  O37  1  0.33153000  0.67700000  0.51279000  1.0
  O  O38  1  0.16973000  0.48675000  0.32636000  1.0
  O  O39  1  0.00027000  0.32202000  0.51037000  1.0
  O  O40  1  0.50238000  0.50056000  0.67162000  1.0
  O  O41  1  0.66701000  0.32606000  0.49378000  1.0
  O  O42  1  0.83548000  0.51336000  0.67247000  1.0
  O  O43  1  0.00695000  0.67149000  0.49260000  1.0
  O  O44  1  0.49737000  0.51147000  0.32451000  1.0
  O  O45  1  0.75485000  0.55529000  0.44024000  1.0
  O  O46  1  0.25573000  0.44053000  0.55494000  1.0
  F  F47  1  0.05959000  0.55303000  0.11088000  1.0
