# generated using pymatgen
data_CuH12C12(NO)4
_symmetry_space_group_name_H-M   'P 1'
_cell_length_a   8.62421000
_cell_length_b   8.62418000
_cell_length_c   8.89559000
_cell_angle_alpha   86.33950000
_cell_angle_beta   86.33900000
_cell_angle_gamma   77.88480000
_symmetry_Int_Tables_number   1
_chemical_formula_structural   CuH12C12(NO)4
_chemical_formula_sum   'Cu2 H24 C24 N8 O8'
_cell_volume   644.70563705
_cell_formula_units_Z   2
loop_
 _symmetry_equiv_pos_site_id
 _symmetry_equiv_pos_as_xyz
  1  'x, y, z'
loop_
 _atom_site_type_symbol
 _atom_site_label
 _atom_site_symmetry_multiplicity
 _atom_site_fract_x
 _atom_site_fract_y
 _atom_site_fract_z
 _atom_site_occupancy
  Cu  Cu0  1  0.16820000  0.83180000  0.25000000  1.0
  Cu  Cu1  1  0.83181000  0.16819000  0.75000000  1.0
  H  H2  1  0.35233000  0.71118000  0.98728000  1.0
  H  H3  1  0.28882000  0.64767000  0.51273000  1.0
  H  H4  1  0.64767000  0.28882000  0.01273000  1.0
  H  H5  1  0.71118000  0.35234000  0.48728000  1.0
  H  H6  1  0.38290000  0.48251000  0.82089000  1.0
  H  H7  1  0.51749000  0.61711000  0.67912000  1.0
  H  H8  1  0.61711000  0.51749000  0.17912000  1.0
  H  H9  1  0.48252000  0.38290000  0.32089000  1.0
  H  H10  1  0.08425000  0.27489000  0.14905000  1.0
  H  H11  1  0.72510000  0.91577000  0.35094000  1.0
  H  H12  1  0.91575000  0.72510000  0.85095000  1.0
  H  H13  1  0.27490000  0.08424000  0.64905000  1.0
  H  H14  1  0.24067000  0.26115000  0.90338000  1.0
  H  H15  1  0.73885000  0.75935000  0.59661000  1.0
  H  H16  1  0.75934000  0.73885000  0.09662000  1.0
  H  H17  1  0.26115000  0.24067000  0.40338000  1.0
  H  H18  1  0.01557000  0.61801000  0.38184000  1.0
  H  H19  1  0.38198000  0.98443000  0.11816000  1.0
  H  H20  1  0.98443000  0.38199000  0.61815000  1.0
  H  H21  1  0.61801000  0.01557000  0.88185000  1.0
  H  H22  1  0.99023000  0.42270000  0.36435000  1.0
  H  H23  1  0.57729000  0.00977000  0.13565000  1.0
  H  H24  1  0.00975000  0.57730000  0.63565000  1.0
  H  H25  1  0.42270000  0.99024000  0.86435000  1.0
  C  C26  1  0.92657000  0.97719000  0.04544000  1.0
  C  C27  1  0.02280000  0.07342000  0.45457000  1.0
  C  C28  1  0.07344000  0.02281000  0.95455000  1.0
  C  C29  1  0.97718000  0.92656000  0.54545000  1.0
  C  C30  1  0.12868000  0.50437000  0.19471000  1.0
  C  C31  1  0.49562000  0.87133000  0.30529000  1.0
  C  C32  1  0.87132000  0.49562000  0.80529000  1.0
  C  C33  1  0.50438000  0.12868000  0.69471000  1.0
  C  C34  1  0.29428000  0.61225000  0.01729000  1.0
  C  C35  1  0.38775000  0.70573000  0.48271000  1.0
  C  C36  1  0.70573000  0.38775000  0.98271000  1.0
  C  C37  1  0.61225000  0.29428000  0.51730000  1.0
  C  C38  1  0.31057000  0.48580000  0.92575000  1.0
  C  C39  1  0.51420000  0.68945000  0.57425000  1.0
  C  C40  1  0.68945000  0.51420000  0.07425000  1.0
  C  C41  1  0.48581000  0.31056000  0.42575000  1.0
  C  C42  1  0.14464000  0.36941000  0.10772000  1.0
  C  C43  1  0.63058000  0.85538000  0.39227000  1.0
  C  C44  1  0.85537000  0.63058000  0.89227000  1.0
  C  C45  1  0.36942000  0.14464000  0.60773000  1.0
  C  C46  1  0.23343000  0.36180000  0.97305000  1.0
  C  C47  1  0.63820000  0.76658000  0.52695000  1.0
  C  C48  1  0.76658000  0.63820000  0.02695000  1.0
  C  C49  1  0.36180000  0.23343000  0.47305000  1.0
  N  N50  1  0.20533000  0.62336000  0.14872000  1.0
  N  N51  1  0.37663000  0.79467000  0.35128000  1.0
  N  N52  1  0.79467000  0.37663000  0.85128000  1.0
  N  N53  1  0.62337000  0.20533000  0.64872000  1.0
  N  N54  1  0.03690000  0.51698000  0.32381000  1.0
  N  N55  1  0.48301000  0.96310000  0.17619000  1.0
  N  N56  1  0.96309000  0.48302000  0.67619000  1.0
  N  N57  1  0.51698000  0.03691000  0.82381000  1.0
  O  O58  1  0.95119000  0.88903000  0.16530000  1.0
  O  O59  1  0.11095000  0.04881000  0.33470000  1.0
  O  O60  1  0.04882000  0.11097000  0.83469000  1.0
  O  O61  1  0.88903000  0.95117000  0.66531000  1.0
  O  O62  1  0.79090000  0.02945000  0.99532000  1.0
  O  O63  1  0.97052000  0.20910000  0.50467000  1.0
  O  O64  1  0.20912000  0.97054000  0.00465000  1.0
  O  O65  1  0.02945000  0.79088000  0.49534000  1.0
