# generated using pymatgen
data_Zn4H18C33(NO7)2
_symmetry_space_group_name_H-M   'P 1'
_cell_length_a   18.04500000
_cell_length_b   18.23404371
_cell_length_c   18.25318768
_cell_angle_alpha   90.22951150
_cell_angle_beta   119.55578985
_cell_angle_gamma   119.44721759
_symmetry_Int_Tables_number   1
_chemical_formula_structural   Zn4H18C33(NO7)2
_chemical_formula_sum   'Zn8 H36 C66 N4 O28'
_cell_volume   4301.81155360
_cell_formula_units_Z   2
loop_
 _symmetry_equiv_pos_site_id
 _symmetry_equiv_pos_as_xyz
  1  'x, y, z'
loop_
 _atom_site_type_symbol
 _atom_site_label
 _atom_site_symmetry_multiplicity
 _atom_site_fract_x
 _atom_site_fract_y
 _atom_site_fract_z
 _atom_site_occupancy
  Zn  Zn0  1  0.41163000  0.61812000  0.20886000  1.0
  Zn  Zn1  1  0.58837000  0.38188000  0.79114000  1.0
  Zn  Zn2  1  0.58962000  0.79414000  0.20789000  1.0
  Zn  Zn3  1  0.41038000  0.20586000  0.79211000  1.0
  Zn  Zn4  1  0.58942000  0.79428000  0.38151000  1.0
  Zn  Zn5  1  0.41058000  0.20572000  0.61849000  1.0
  Zn  Zn6  1  0.41167000  0.79418000  0.20333000  1.0
  Zn  Zn7  1  0.58833000  0.20582000  0.79667000  1.0
  H  H8  1  0.93103000  0.52761000  0.07550000  1.0
  H  H9  1  0.93388000  0.07734000  0.53044000  1.0
  H  H10  1  0.94224000  0.97313000  0.34339000  1.0
  H  H11  1  0.05777000  0.02687000  0.65661000  1.0
  H  H12  1  0.07037000  0.14326000  0.47414000  1.0
  H  H13  1  0.92963000  0.85674000  0.52586000  1.0
  H  H14  1  0.60649000  0.65648000  0.01400000  1.0
  H  H15  1  0.39352000  0.34352000  0.98601000  1.0
  H  H16  1  0.67726000  0.54436000  0.06447000  1.0
  H  H17  1  0.32275000  0.45564000  0.93554000  1.0
  H  H18  1  0.05511000  0.65605000  0.02703000  1.0
  H  H19  1  0.06898000  0.47239000  0.92451000  1.0
  H  H20  1  0.94489000  0.34395000  0.97297000  1.0
  H  H21  1  0.93056000  0.52670000  0.85707000  1.0
  H  H22  1  0.06944000  0.47330000  0.14293000  1.0
  H  H23  1  0.32990000  0.47608000  0.40813000  1.0
  H  H24  1  0.67010000  0.52392000  0.59187000  1.0
  H  H25  1  0.36689000  0.34274000  0.40425000  1.0
  H  H26  1  0.63311000  0.65726000  0.59575000  1.0
  H  H27  1  0.54838000  0.14178000  0.47028000  1.0
  H  H28  1  0.45162000  0.85822000  0.52972000  1.0
  H  H29  1  0.37119000  0.97117000  0.34418000  1.0
  H  H30  1  0.45455000  0.92705000  0.85750000  1.0
  H  H31  1  0.62880000  0.02883000  0.65582000  1.0
  H  H32  1  0.37636000  0.58953000  0.54200000  1.0
  H  H33  1  0.51140000  0.66636000  0.62864000  1.0
  H  H34  1  0.41996000  0.60558000  0.65671000  1.0
  H  H35  1  0.48860000  0.33364000  0.37137000  1.0
  H  H36  1  0.62365000  0.41047000  0.45801000  1.0
  H  H37  1  0.58004000  0.39442000  0.34329000  1.0
  H  H38  1  0.54545000  0.07295000  0.14250000  1.0
  H  H39  1  0.32969000  0.85845000  0.92494000  1.0
  H  H40  1  0.67031000  0.14155000  0.07506000  1.0
  H  H41  1  0.37080000  0.02967000  0.97182000  1.0
  H  H42  1  0.62919000  0.97032000  0.02818000  1.0
  H  H43  1  0.06612000  0.92266000  0.46956000  1.0
  C  C44  1  0.50199000  0.88879000  0.10821000  1.0
  C  C45  1  0.50260000  0.55549000  0.45020000  1.0
  C  C46  1  0.42589000  0.41254000  0.44607000  1.0
  C  C47  1  0.57412000  0.58746000  0.55394000  1.0
  C  C48  1  0.42872000  0.98473000  0.41359000  1.0
  C  C49  1  0.57127000  0.01527000  0.58640000  1.0
  C  C50  1  0.52621000  0.07813000  0.48267000  1.0
  C  C51  1  0.47379000  0.92187000  0.51733000  1.0
  C  C52  1  0.50541000  0.05454000  0.55602000  1.0
  C  C53  1  0.49458000  0.94546000  0.44397000  1.0
  C  C54  1  0.40454000  0.95948000  0.48543000  1.0
  C  C55  1  0.49801000  0.11121000  0.89179000  1.0
  C  C56  1  0.59545000  0.04052000  0.51456000  1.0
  C  C57  1  0.40518000  0.92208000  0.95753000  1.0
  C  C58  1  0.59483000  0.07792000  0.04247000  1.0
  C  C59  1  0.50182000  0.61219000  0.39223000  1.0
  C  C60  1  0.49818000  0.38781000  0.60777000  1.0
  C  C61  1  0.47489000  0.95866000  0.92153000  1.0
  C  C62  1  0.52510000  0.04134000  0.07846000  1.0
  C  C63  1  0.49684000  0.05307000  0.94823000  1.0
  C  C64  1  0.50316000  0.94693000  0.05177000  1.0
  C  C65  1  0.42803000  0.01612000  0.98474000  1.0
  C  C66  1  0.96294000  0.51569000  0.92127000  1.0
  C  C67  1  0.57197000  0.98388000  0.01525000  1.0
  C  C68  1  0.96881000  0.98549000  0.41323000  1.0
  C  C69  1  0.03118000  0.01451000  0.58676000  1.0
  C  C70  1  0.03533000  0.95624000  0.48222000  1.0
  C  C71  1  0.96467000  0.04376000  0.51778000  1.0
  C  C72  1  0.10473000  0.04998000  0.55502000  1.0
  C  C73  1  0.89527000  0.95002000  0.44498000  1.0
  C  C74  1  0.03741000  0.07888000  0.48467000  1.0
  C  C75  1  0.96258000  0.92112000  0.51532000  1.0
  C  C76  1  0.55979000  0.58674000  0.00784000  1.0
  C  C77  1  0.03707000  0.48431000  0.07874000  1.0
  C  C78  1  0.44021000  0.41326000  0.99216000  1.0
  C  C79  1  0.46046000  0.50987000  0.91751000  1.0
  C  C80  1  0.53954000  0.49013000  0.08249000  1.0
  C  C81  1  0.49997000  0.44693000  0.94755000  1.0
  C  C82  1  0.50003000  0.55307000  0.05245000  1.0
  C  C83  1  0.50075000  0.61005000  0.11207000  1.0
  C  C84  1  0.49925000  0.38995000  0.88793000  1.0
  C  C85  1  0.59852000  0.52527000  0.03580000  1.0
  C  C86  1  0.40148000  0.47473000  0.96420000  1.0
  C  C87  1  0.49423000  0.88705000  0.38609000  1.0
  C  C88  1  0.40518000  0.48589000  0.44948000  1.0
  C  C89  1  0.50577000  0.11295000  0.61391000  1.0
  C  C90  1  0.78084000  0.89375000  0.38841000  1.0
  C  C91  1  0.21917000  0.10625000  0.61159000  1.0
  C  C92  1  0.21961000  0.61325000  0.10835000  1.0
  C  C93  1  0.78039000  0.38675000  0.89165000  1.0
  C  C94  1  0.02982000  0.58650000  0.01466000  1.0
  C  C95  1  0.97018000  0.41350000  0.98534000  1.0
  C  C96  1  0.96296000  0.51610000  0.04259000  1.0
  C  C97  1  0.03704000  0.48390000  0.95741000  1.0
  C  C98  1  0.89515000  0.44394000  0.94869000  1.0
  C  C99  1  0.59482000  0.51411000  0.55052000  1.0
  C  C100  1  0.10486000  0.55606000  0.05132000  1.0
  C  C101  1  0.41903000  0.52033000  0.83191000  1.0
  C  C102  1  0.58098000  0.47967000  0.16810000  1.0
  C  C103  1  0.43968000  0.60268000  0.60937000  1.0
  C  C104  1  0.56032000  0.39732000  0.39063000  1.0
  C  C105  1  0.30624000  0.91864000  0.47195000  1.0
  C  C106  1  0.69375000  0.08135000  0.52805000  1.0
  C  C107  1  0.47725000  0.51879000  0.55469000  1.0
  C  C108  1  0.52275000  0.48121000  0.44531000  1.0
  C  C109  1  0.49740000  0.44451000  0.54980000  1.0
  N  N110  1  0.38416000  0.53022000  0.76234000  1.0
  N  N111  1  0.61583000  0.46978000  0.23766000  1.0
  N  N112  1  0.22571000  0.88500000  0.46117000  1.0
  N  N113  1  0.77428000  0.11500000  0.53882000  1.0
  O  O114  1  0.49950000  0.74942000  0.25029000  1.0
  O  O115  1  0.43121000  0.30383000  0.56931000  1.0
  O  O116  1  0.44134000  0.87054000  0.13280000  1.0
  O  O117  1  0.55867000  0.12946000  0.86721000  1.0
  O  O118  1  0.43358000  0.57170000  0.30858000  1.0
  O  O119  1  0.56642000  0.42830000  0.69143000  1.0
  O  O120  1  0.56649000  0.69352000  0.13700000  1.0
  O  O121  1  0.43350000  0.30647000  0.86300000  1.0
  O  O122  1  0.55288000  0.86115000  0.42740000  1.0
  O  O123  1  0.44711000  0.13885000  0.57260000  1.0
  O  O124  1  0.73642000  0.86906000  0.30410000  1.0
  O  O125  1  0.50050000  0.25058000  0.74971000  1.0
  O  O126  1  0.26359000  0.13093000  0.69590000  1.0
  O  O127  1  0.26380000  0.69760000  0.13089000  1.0
  O  O128  1  0.73621000  0.30241000  0.86911000  1.0
  O  O129  1  0.73611000  0.87394000  0.42898000  1.0
  O  O130  1  0.26389000  0.12607000  0.57101000  1.0
  O  O131  1  0.26419000  0.57247000  0.13029000  1.0
  O  O132  1  0.73581000  0.42753000  0.86971000  1.0
  O  O133  1  0.45334000  0.53141000  0.61222000  1.0
  O  O134  1  0.54666000  0.46859000  0.38778000  1.0
  O  O135  1  0.43617000  0.56912000  0.13217000  1.0
  O  O136  1  0.56384000  0.43088000  0.86783000  1.0
  O  O137  1  0.43673000  0.86992000  0.30247000  1.0
  O  O138  1  0.56327000  0.13008000  0.69753000  1.0
  O  O139  1  0.56059000  0.86184000  0.12729000  1.0
  O  O140  1  0.43940000  0.13816000  0.87271000  1.0
  O  O141  1  0.56879000  0.69617000  0.43069000  1.0
