# generated using pymatgen
data_Cu2H9C13IN4
_symmetry_space_group_name_H-M   'P 1'
_cell_length_a   5.33100000
_cell_length_b   7.53934000
_cell_length_c   15.52770000
_cell_angle_alpha   89.99990000
_cell_angle_beta   89.99950000
_cell_angle_gamma   90.53720000
_symmetry_Int_Tables_number   1
_chemical_formula_structural   Cu2H9C13IN4
_chemical_formula_sum   'Cu4 H18 C26 I2 N8'
_cell_volume   624.06532731
_cell_formula_units_Z   2
loop_
 _symmetry_equiv_pos_site_id
 _symmetry_equiv_pos_as_xyz
  1  'x, y, z'
loop_
 _atom_site_type_symbol
 _atom_site_label
 _atom_site_symmetry_multiplicity
 _atom_site_fract_x
 _atom_site_fract_y
 _atom_site_fract_z
 _atom_site_occupancy
  Cu  Cu0  1  0.93045000  0.40686000  0.64997000  1.0
  Cu  Cu1  1  0.06956000  0.59313000  0.14997000  1.0
  Cu  Cu2  1  0.06956000  0.59313000  0.35003000  1.0
  Cu  Cu3  1  0.93045000  0.40687000  0.85003000  1.0
  H  H4  1  0.07460000  0.58483000  0.53809000  1.0
  H  H5  1  0.92540000  0.41518000  0.03809000  1.0
  H  H6  1  0.92540000  0.41517000  0.46191000  1.0
  H  H7  1  0.07460000  0.58482000  0.96191000  1.0
  H  H8  1  0.54959000  0.78163000  0.34689000  1.0
  H  H9  1  0.45043000  0.21837000  0.84689000  1.0
  H  H10  1  0.45042000  0.21836000  0.65311000  1.0
  H  H11  1  0.54959000  0.78163000  0.15311000  1.0
  H  H12  1  0.85237000  0.89168000  0.45588000  1.0
  H  H13  1  0.14763000  0.10833000  0.95588000  1.0
  H  H14  1  0.14763000  0.10832000  0.54412000  1.0
  H  H15  1  0.85236000  0.89168000  0.04412000  1.0
  H  H16  1  0.76347000  0.84391000  0.61332000  1.0
  H  H17  1  0.23652000  0.15611000  0.11332000  1.0
  H  H18  1  0.23652000  0.15609000  0.38668000  1.0
  H  H19  1  0.76347000  0.84391000  0.88667000  1.0
  H  H20  1  0.63892000  0.82883000  0.75000000  1.0
  H  H21  1  0.36107000  0.17119000  0.25000000  1.0
  C  C22  1  0.25132000  0.65069000  0.52168000  1.0
  C  C23  1  0.74869000  0.34932000  0.02168000  1.0
  C  C24  1  0.74868000  0.34931000  0.47832000  1.0
  C  C25  1  0.25131000  0.65068000  0.97832000  1.0
  C  C26  1  0.51562000  0.76036000  0.41529000  1.0
  C  C27  1  0.48439000  0.23965000  0.91529000  1.0
  C  C28  1  0.48438000  0.23964000  0.58471000  1.0
  C  C29  1  0.51561000  0.76035000  0.08471000  1.0
  C  C30  1  0.68384000  0.82176000  0.47725000  1.0
  C  C31  1  0.31617000  0.17824000  0.97725000  1.0
  C  C32  1  0.31617000  0.17823000  0.52275000  1.0
  C  C33  1  0.68384000  0.82176000  0.02275000  1.0
  C  C34  1  0.63385000  0.79482000  0.56419000  1.0
  C  C35  1  0.36615000  0.20519000  0.06420000  1.0
  C  C36  1  0.36614000  0.20519000  0.43581000  1.0
  C  C37  1  0.63384000  0.79482000  0.93580000  1.0
  C  C38  1  0.41065000  0.70606000  0.58812000  1.0
  C  C39  1  0.58935000  0.29394000  0.08812000  1.0
  C  C40  1  0.58935000  0.29393000  0.41188000  1.0
  C  C41  1  0.41065000  0.70607000  0.91188000  1.0
  C  C42  1  0.35053000  0.67236000  0.67824000  1.0
  C  C43  1  0.64946000  0.32764000  0.17825000  1.0
  C  C44  1  0.64948000  0.32765000  0.32176000  1.0
  C  C45  1  0.35053000  0.67236000  0.82175000  1.0
  C  C46  1  0.47917000  0.73859000  0.75000000  1.0
  C  C47  1  0.52083000  0.26140000  0.25000000  1.0
  I  I48  1  0.97258000  0.11020000  0.75000000  1.0
  I  I49  1  0.02740000  0.88980000  0.25000000  1.0
  N  N50  1  0.30057000  0.67497000  0.43722000  1.0
  N  N51  1  0.69944000  0.32503000  0.93722000  1.0
  N  N52  1  0.69944000  0.32502000  0.56278000  1.0
  N  N53  1  0.30056000  0.67497000  0.06279000  1.0
  N  N54  1  0.15512000  0.56797000  0.70612000  1.0
  N  N55  1  0.84488000  0.43203000  0.20613000  1.0
  N  N56  1  0.84489000  0.43203000  0.29387000  1.0
  N  N57  1  0.15512000  0.56797000  0.79387000  1.0
