# generated using pymatgen
data_AlH10C11O5
_symmetry_space_group_name_H-M   'P 1'
_cell_length_a   6.65780000
_cell_length_b   16.04330000
_cell_length_c   17.13090000
_cell_angle_alpha   78.48670000
_cell_angle_beta   89.99930000
_cell_angle_gamma   89.99940000
_symmetry_Int_Tables_number   1
_chemical_formula_structural   AlH10C11O5
_chemical_formula_sum   'Al4 H40 C44 O20'
_cell_volume   1792.98564844
_cell_formula_units_Z   4
loop_
 _symmetry_equiv_pos_site_id
 _symmetry_equiv_pos_as_xyz
  1  'x, y, z'
loop_
 _atom_site_type_symbol
 _atom_site_label
 _atom_site_symmetry_multiplicity
 _atom_site_fract_x
 _atom_site_fract_y
 _atom_site_fract_z
 _atom_site_occupancy
  Al  Al0  1  0.88612000  0.50012000  0.49595000  1.0
  Al  Al1  1  0.38612000  0.49988000  0.50404000  1.0
  Al  Al2  1  0.34714000  0.00202000  0.00146000  1.0
  Al  Al3  1  0.84713000  0.99798000  0.99854000  1.0
  H  H4  1  0.37380000  0.19214000  0.14285000  1.0
  H  H5  1  0.87382000  0.80785000  0.85714000  1.0
  H  H6  1  0.76864000  0.10291000  0.18971000  1.0
  H  H7  1  0.26867000  0.89709000  0.81030000  1.0
  H  H8  1  0.50959000  0.30415000  0.21100000  1.0
  H  H9  1  0.00958000  0.69583000  0.78900000  1.0
  H  H10  1  0.72658000  0.19541000  0.28984000  1.0
  H  H11  1  0.22658000  0.80459000  0.71017000  1.0
  H  H12  1  0.46755000  0.39613000  0.31154000  1.0
  H  H13  1  0.96753000  0.60385000  0.68847000  1.0
  H  H14  1  0.86091000  0.30815000  0.35679000  1.0
  H  H15  1  0.36089000  0.69185000  0.64322000  1.0
  H  H16  1  0.12495000  0.10579000  0.72667000  1.0
  H  H17  1  0.62493000  0.89421000  0.27334000  1.0
  H  H18  1  0.15763000  0.21693000  0.61709000  1.0
  H  H19  1  0.65765000  0.78308000  0.38291000  1.0
  H  H20  1  0.38365000  0.25014000  0.65578000  1.0
  H  H21  1  0.88366000  0.74986000  0.34421000  1.0
  H  H22  1  0.37329000  0.24208000  0.85075000  1.0
  H  H23  1  0.87327000  0.75792000  0.14925000  1.0
  H  H24  1  0.37933000  0.35835000  0.74364000  1.0
  H  H25  1  0.87931000  0.64165000  0.25635000  1.0
  H  H26  1  0.81224000  0.24032000  0.83512000  1.0
  H  H27  1  0.31223000  0.75968000  0.16489000  1.0
  H  H28  1  0.80071000  0.16416000  0.77434000  1.0
  H  H29  1  0.30070000  0.83584000  0.22566000  1.0
  H  H30  1  0.82412000  0.27098000  0.66014000  1.0
  H  H31  1  0.32411000  0.72903000  0.33986000  1.0
  H  H32  1  0.81919000  0.34750000  0.72055000  1.0
  H  H33  1  0.31919000  0.65251000  0.27945000  1.0
  H  H34  1  0.15108000  0.28330000  0.88489000  1.0
  H  H35  1  0.65107000  0.71671000  0.11511000  1.0
  H  H36  1  0.14831000  0.39503000  0.77483000  1.0
  H  H37  1  0.64830000  0.60498000  0.22517000  1.0
  H  H38  1  0.35844000  0.13447000  0.76289000  1.0
  H  H39  1  0.85843000  0.86554000  0.23711000  1.0
  H  H40  1  0.63960000  0.39095000  0.53730000  1.0
  H  H41  1  0.13960000  0.60905000  0.46270000  1.0
  H  H42  1  0.60121000  0.10919000  0.96337000  1.0
  H  H43  1  0.10121000  0.89080000  0.03661000  1.0
  C  C44  1  0.63183000  0.61492000  0.38394000  1.0
  C  C45  1  0.13183000  0.38508000  0.61606000  1.0
  C  C46  1  0.64208000  0.58904000  0.59930000  1.0
  C  C47  1  0.14208000  0.41095000  0.40070000  1.0
  C  C48  1  0.07476000  0.14288000  0.16090000  1.0
  C  C49  1  0.57478000  0.85711000  0.83910000  1.0
  C  C50  1  0.16045000  0.35691000  0.33946000  1.0
  C  C51  1  0.66044000  0.64309000  0.66054000  1.0
  C  C52  1  0.36899000  0.30415000  0.24376000  1.0
  C  C53  1  0.86896000  0.69584000  0.75624000  1.0
  C  C54  1  0.34583000  0.35557000  0.29849000  1.0
  C  C55  1  0.84581000  0.64441000  0.70151000  1.0
  C  C56  1  0.00249000  0.30598000  0.32511000  1.0
  C  C57  1  0.50246000  0.69401000  0.67490000  1.0
  C  C58  1  0.02441000  0.25035000  0.27109000  1.0
  C  C59  1  0.52440000  0.74964000  0.72892000  1.0
  C  C60  1  0.21132000  0.24944000  0.22921000  1.0
  C  C61  1  0.71133000  0.75055000  0.77079000  1.0
  C  C62  1  0.23274000  0.19400000  0.17494000  1.0
  C  C63  1  0.73275000  0.80600000  0.82505000  1.0
  C  C64  1  0.88998000  0.14385000  0.20235000  1.0
  C  C65  1  0.39000000  0.85616000  0.79765000  1.0
  C  C66  1  0.86694000  0.19542000  0.25691000  1.0
  C  C67  1  0.36694000  0.80457000  0.74309000  1.0
  C  C68  1  0.20919000  0.15891000  0.74272000  1.0
  C  C69  1  0.70918000  0.84109000  0.25728000  1.0
  C  C70  1  0.22584000  0.23389000  0.67033000  1.0
  C  C71  1  0.72584000  0.76611000  0.32967000  1.0
  C  C72  1  0.22052000  0.26387000  0.83304000  1.0
  C  C73  1  0.72051000  0.73614000  0.16696000  1.0
  C  C74  1  0.88830000  0.21848000  0.78585000  1.0
  C  C75  1  0.38828000  0.78152000  0.21416000  1.0
  C  C76  1  0.10094000  0.18842000  0.81245000  1.0
  C  C77  1  0.60093000  0.81158000  0.18755000  1.0
  C  C78  1  0.11845000  0.31327000  0.68877000  1.0
  C  C79  1  0.61845000  0.68673000  0.31123000  1.0
  C  C80  1  0.22450000  0.33907000  0.76057000  1.0
  C  C81  1  0.72449000  0.66093000  0.23943000  1.0
  C  C82  1  0.89856000  0.29035000  0.71095000  1.0
  C  C83  1  0.39856000  0.70965000  0.28906000  1.0
  C  C84  1  0.59154000  0.91113000  0.90045000  1.0
  C  C85  1  0.09152000  0.08887000  0.09955000  1.0
  C  C86  1  0.59758000  0.88425000  0.11543000  1.0
  C  C87  1  0.09762000  0.11576000  0.88458000  1.0
  O  O88  1  0.46666000  0.56944000  0.57900000  1.0
  O  O89  1  0.96669000  0.43055000  0.42099000  1.0
  O  O90  1  0.80562000  0.58722000  0.40741000  1.0
  O  O91  1  0.30563000  0.41278000  0.59259000  1.0
  O  O92  1  0.80748000  0.56845000  0.57109000  1.0
  O  O93  1  0.30751000  0.43156000  0.42890000  1.0
  O  O94  1  0.96769000  0.41214000  0.58258000  1.0
  O  O95  1  0.46769000  0.58786000  0.41742000  1.0
  O  O96  1  0.63567000  0.44807000  0.50543000  1.0
  O  O97  1  0.13567000  0.55193000  0.49457000  1.0
  O  O98  1  0.76700000  0.91015000  0.08559000  1.0
  O  O99  1  0.26703000  0.08984000  0.91438000  1.0
  O  O100  1  0.42521000  0.93403000  0.92609000  1.0
  O  O101  1  0.92516000  0.06594000  0.07394000  1.0
  O  O102  1  0.42816000  0.91416000  0.08921000  1.0
  O  O103  1  0.92818000  0.08587000  0.91082000  1.0
  O  O104  1  0.26607000  0.07148000  0.07655000  1.0
  O  O105  1  0.76612000  0.92855000  0.92342000  1.0
  O  O106  1  0.59903000  0.05185000  0.99476000  1.0
  O  O107  1  0.09904000  0.94816000  0.00524000  1.0
