# generated using pymatgen
data_CuH8(C6N5)2
_symmetry_space_group_name_H-M   'P 1'
_cell_length_a   7.14982000
_cell_length_b   9.54573000
_cell_length_c   9.54573000
_cell_angle_alpha   72.09520000
_cell_angle_beta   86.71920000
_cell_angle_gamma   86.71910000
_symmetry_Int_Tables_number   1
_chemical_formula_structural   CuH8(C6N5)2
_chemical_formula_sum   'Cu2 H16 C24 N20'
_cell_volume   618.39052026
_cell_formula_units_Z   2
loop_
 _symmetry_equiv_pos_site_id
 _symmetry_equiv_pos_as_xyz
  1  'x, y, z'
loop_
 _atom_site_type_symbol
 _atom_site_label
 _atom_site_symmetry_multiplicity
 _atom_site_fract_x
 _atom_site_fract_y
 _atom_site_fract_z
 _atom_site_occupancy
  Cu  Cu0  1  0.25000000  0.88712000  0.11288000  1.0
  Cu  Cu1  1  0.75000000  0.11288000  0.88712000  1.0
  H  H2  1  0.52991000  0.70183000  0.71574000  1.0
  H  H3  1  0.97008000  0.28426000  0.29816000  1.0
  H  H4  1  0.47009000  0.29816000  0.28426000  1.0
  H  H5  1  0.02991000  0.71574000  0.70184000  1.0
  H  H6  1  0.65549000  0.58688000  0.52446000  1.0
  H  H7  1  0.84450000  0.47554000  0.41311000  1.0
  H  H8  1  0.34450000  0.41312000  0.47554000  1.0
  H  H9  1  0.15550000  0.52446000  0.58687000  1.0
  H  H10  1  0.17349000  0.98815000  0.38811000  1.0
  H  H11  1  0.32651000  0.61189000  0.01185000  1.0
  H  H12  1  0.82651000  0.01185000  0.61189000  1.0
  H  H13  1  0.67350000  0.38811000  0.98815000  1.0
  H  H14  1  0.52168000  0.67436000  0.27344000  1.0
  H  H15  1  0.97831000  0.72656000  0.32564000  1.0
  H  H16  1  0.47831000  0.32565000  0.72656000  1.0
  H  H17  1  0.02169000  0.27344000  0.67435000  1.0
  C  C18  1  0.26537000  0.91312000  0.68406000  1.0
  C  C19  1  0.23463000  0.31594000  0.08688000  1.0
  C  C20  1  0.73463000  0.08688000  0.31595000  1.0
  C  C21  1  0.76537000  0.68406000  0.91312000  1.0
  C  C22  1  0.34192000  0.85325000  0.56810000  1.0
  C  C23  1  0.15808000  0.43190000  0.14675000  1.0
  C  C24  1  0.65808000  0.14675000  0.43190000  1.0
  C  C25  1  0.84192000  0.56810000  0.85325000  1.0
  C  C26  1  0.47965000  0.73878000  0.60452000  1.0
  C  C27  1  0.02035000  0.39548000  0.26122000  1.0
  C  C28  1  0.52035000  0.26122000  0.39548000  1.0
  C  C29  1  0.97965000  0.60453000  0.73877000  1.0
  C  C30  1  0.54755000  0.67485000  0.49867000  1.0
  C  C31  1  0.95245000  0.50133000  0.32514000  1.0
  C  C32  1  0.45245000  0.32515000  0.50134000  1.0
  C  C33  1  0.04755000  0.49866000  0.67485000  1.0
  C  C34  1  0.27908000  0.89936000  0.42389000  1.0
  C  C35  1  0.22092000  0.57611000  0.10064000  1.0
  C  C36  1  0.72091000  0.10064000  0.57612000  1.0
  C  C37  1  0.77909000  0.42388000  0.89936000  1.0
  C  C38  1  0.47486000  0.72313000  0.35916000  1.0
  C  C39  1  0.02514000  0.64084000  0.27686000  1.0
  C  C40  1  0.52514000  0.27686000  0.64084000  1.0
  C  C41  1  0.97485000  0.35916000  0.72313000  1.0
  N  N42  1  0.11338000  0.03770000  0.80848000  1.0
  N  N43  1  0.38663000  0.19152000  0.96230000  1.0
  N  N44  1  0.88663000  0.96230000  0.19152000  1.0
  N  N45  1  0.61338000  0.80848000  0.03770000  1.0
  N  N46  1  0.20853000  0.92523000  0.89927000  1.0
  N  N47  1  0.29147000  0.10073000  0.07477000  1.0
  N  N48  1  0.79147000  0.07477000  0.10075000  1.0
  N  N49  1  0.70853000  0.89925000  0.92523000  1.0
  N  N50  1  0.30430000  0.84524000  0.82606000  1.0
  N  N51  1  0.19570000  0.17394000  0.15476000  1.0
  N  N52  1  0.69571000  0.15475000  0.17394000  1.0
  N  N53  1  0.80429000  0.82606000  0.84525000  1.0
  N  N54  1  0.14754000  0.03224000  0.67132000  1.0
  N  N55  1  0.35246000  0.32868000  0.96776000  1.0
  N  N56  1  0.85246000  0.96776000  0.32868000  1.0
  N  N57  1  0.64754000  0.67132000  0.03224000  1.0
  N  N58  1  0.34373000  0.83406000  0.32300000  1.0
  N  N59  1  0.15627000  0.67700000  0.16594000  1.0
  N  N60  1  0.65627000  0.16594000  0.67700000  1.0
  N  N61  1  0.84373000  0.32300000  0.83406000  1.0
