# generated using pymatgen
data_ZnH9C15(N3O2)2
_symmetry_space_group_name_H-M   'P 1'
_cell_length_a   7.38786000
_cell_length_b   9.60822000
_cell_length_c   10.75980000
_cell_angle_alpha   106.17800000
_cell_angle_beta   92.19600000
_cell_angle_gamma   98.71380000
_symmetry_Int_Tables_number   1
_chemical_formula_structural   ZnH9C15(N3O2)2
_chemical_formula_sum   'Zn2 H18 C30 N12 O8'
_cell_volume   722.45039674
_cell_formula_units_Z   2
loop_
 _symmetry_equiv_pos_site_id
 _symmetry_equiv_pos_as_xyz
  1  'x, y, z'
loop_
 _atom_site_type_symbol
 _atom_site_label
 _atom_site_symmetry_multiplicity
 _atom_site_fract_x
 _atom_site_fract_y
 _atom_site_fract_z
 _atom_site_occupancy
  Zn  Zn0  1  0.63397000  0.22223000  0.29986000  1.0
  Zn  Zn1  1  0.36602000  0.77777000  0.70014000  1.0
  H  H2  1  0.70307000  0.29272000  0.81587000  1.0
  H  H3  1  0.29693000  0.70728000  0.18413000  1.0
  H  H4  1  0.82409000  0.75829000  0.84995000  1.0
  H  H5  1  0.17592000  0.24171000  0.15005000  1.0
  H  H6  1  0.75513000  0.60998000  0.19165000  1.0
  H  H7  1  0.24487000  0.39002000  0.80835000  1.0
  H  H8  1  0.63392000  0.25885000  0.61000000  1.0
  H  H9  1  0.36609000  0.74114000  0.39001000  1.0
  H  H10  1  0.88293000  0.70140000  0.65385000  1.0
  H  H11  1  0.11707000  0.29859000  0.34615000  1.0
  H  H12  1  0.11874000  0.92086000  0.09439000  1.0
  H  H13  1  0.88126000  0.07914000  0.90561000  1.0
  H  H14  1  0.55435000  0.87611000  0.16329000  1.0
  H  H15  1  0.44565000  0.12388000  0.83671000  1.0
  H  H16  1  0.21245000  0.24015000  0.55831000  1.0
  H  H17  1  0.78755000  0.75985000  0.44169000  1.0
  H  H18  1  0.07312000  0.78702000  0.33049000  1.0
  H  H19  1  0.92688000  0.21299000  0.66952000  1.0
  C  C20  1  0.72531000  0.43996000  0.00889000  1.0
  C  C21  1  0.27469000  0.56004000  0.99111000  1.0
  C  C22  1  0.72932000  0.40773000  0.87407000  1.0
  C  C23  1  0.27068000  0.59228000  0.12593000  1.0
  C  C24  1  0.76308000  0.52195000  0.81690000  1.0
  C  C25  1  0.23692000  0.47805000  0.18310000  1.0
  C  C26  1  0.79778000  0.66824000  0.89320000  1.0
  C  C27  1  0.20223000  0.33176000  0.10680000  1.0
  C  C28  1  0.79700000  0.69772000  0.02737000  1.0
  C  C29  1  0.20301000  0.30229000  0.97263000  1.0
  C  C30  1  0.75915000  0.58609000  0.08679000  1.0
  C  C31  1  0.24085000  0.41391000  0.91320000  1.0
  C  C32  1  0.69313000  0.36037000  0.58872000  1.0
  C  C33  1  0.30687000  0.63963000  0.41128000  1.0
  C  C34  1  0.82231000  0.58689000  0.60948000  1.0
  C  C35  1  0.17769000  0.41311000  0.39052000  1.0
  C  C36  1  0.98850000  0.94937000  0.12934000  1.0
  C  C37  1  0.01150000  0.05063000  0.87066000  1.0
  C  C38  1  0.69819000  0.92168000  0.16567000  1.0
  C  C39  1  0.30180000  0.07832000  0.83433000  1.0
  C  C40  1  0.68201000  0.31474000  0.06855000  1.0
  C  C41  1  0.31799000  0.68526000  0.93145000  1.0
  C  C42  1  0.33469000  0.02720000  0.36955000  1.0
  C  C43  1  0.66530000  0.97280000  0.63045000  1.0
  C  C44  1  0.16266000  0.01446000  0.43799000  1.0
  C  C45  1  0.83734000  0.98555000  0.56202000  1.0
  C  C46  1  0.12007000  0.13483000  0.53315000  1.0
  C  C47  1  0.87993000  0.86517000  0.46685000  1.0
  C  C48  1  0.04145000  0.88005000  0.40597000  1.0
  C  C49  1  0.95855000  0.11995000  0.59403000  1.0
  N  N50  1  0.75983000  0.49116000  0.67943000  1.0
  N  N51  1  0.24017000  0.50884000  0.32057000  1.0
  N  N52  1  0.71672000  0.37669000  0.47224000  1.0
  N  N53  1  0.28328000  0.62330000  0.52776000  1.0
  N  N54  1  0.79707000  0.51998000  0.48439000  1.0
  N  N55  1  0.20293000  0.48002000  0.51561000  1.0
  N  N56  1  0.82809000  0.84870000  0.10441000  1.0
  N  N57  1  0.17191000  0.15130000  0.89559000  1.0
  N  N58  1  0.95835000  0.07738000  0.20207000  1.0
  N  N59  1  0.04165000  0.92262000  0.79793000  1.0
  N  N60  1  0.77526000  0.05882000  0.22505000  1.0
  N  N61  1  0.22474000  0.94118000  0.77495000  1.0
  O  O62  1  0.64802000  0.35506000  0.18933000  1.0
  O  O63  1  0.35198000  0.64494000  0.81067000  1.0
  O  O64  1  0.67979000  0.18577000  0.00001000  1.0
  O  O65  1  0.32021000  0.81423000  0.99999000  1.0
  O  O66  1  0.38974000  0.15408000  0.35138000  1.0
  O  O67  1  0.61026000  0.84592000  0.64861000  1.0
  O  O68  1  0.41245000  0.91703000  0.33370000  1.0
  O  O69  1  0.58754000  0.08297000  0.66630000  1.0
