# generated using pymatgen
data_Ni3H18C30N15O7
_symmetry_space_group_name_H-M   'P 1'
_cell_length_a   19.85235622
_cell_length_b   19.85250000
_cell_length_c   19.85230000
_cell_angle_alpha   109.47100000
_cell_angle_beta   109.47109435
_cell_angle_gamma   109.47091065
_symmetry_Int_Tables_number   1
_chemical_formula_structural   Ni3H18C30N15O7
_chemical_formula_sum   'Ni12 H72 C120 N60 O28'
_cell_volume   6023.09514338
_cell_formula_units_Z   4
loop_
 _symmetry_equiv_pos_site_id
 _symmetry_equiv_pos_as_xyz
  1  'x, y, z'
loop_
 _atom_site_type_symbol
 _atom_site_label
 _atom_site_symmetry_multiplicity
 _atom_site_fract_x
 _atom_site_fract_y
 _atom_site_fract_z
 _atom_site_occupancy
  Ni  Ni0  1  0.99999000  0.33409000  0.90107000  1.0
  Ni  Ni1  1  0.56698000  0.66589000  0.66590000  1.0
  Ni  Ni2  1  0.43303000  0.09893000  0.09893000  1.0
  Ni  Ni3  1  0.00000000  0.90108000  0.33410000  1.0
  Ni  Ni4  1  0.66590000  0.66589000  0.56697000  1.0
  Ni  Ni5  1  0.33410000  0.90109000  0.00001000  1.0
  Ni  Ni6  1  0.90108000  0.33410000  0.00001000  1.0
  Ni  Ni7  1  0.09893000  0.09893000  0.43303000  1.0
  Ni  Ni8  1  0.33412000  0.00002000  0.90109000  1.0
  Ni  Ni9  1  0.09892000  0.43302000  0.09893000  1.0
  Ni  Ni10  1  0.66590000  0.56697000  0.66590000  1.0
  Ni  Ni11  1  0.90108000  0.00000000  0.33410000  1.0
  H  H12  1  0.76338000  0.48900000  0.63571000  1.0
  H  H13  1  0.14670000  0.51099000  0.27438000  1.0
  H  H14  1  0.85330000  0.12767000  0.36429000  1.0
  H  H15  1  0.23665000  0.87236000  0.72564000  1.0
  H  H16  1  0.51101000  0.27438000  0.14671000  1.0
  H  H17  1  0.48901000  0.63571000  0.76338000  1.0
  H  H18  1  0.87234000  0.72563000  0.23662000  1.0
  H  H19  1  0.12765000  0.36427000  0.85329000  1.0
  H  H20  1  0.72563000  0.23664000  0.87235000  1.0
  H  H21  1  0.36428000  0.85329000  0.12766000  1.0
  H  H22  1  0.27436000  0.14670000  0.51100000  1.0
  H  H23  1  0.63571000  0.76337000  0.48900000  1.0
  H  H24  1  0.27435000  0.51099000  0.14671000  1.0
  H  H25  1  0.63570000  0.48900000  0.76336000  1.0
  H  H26  1  0.72563000  0.87235000  0.23663000  1.0
  H  H27  1  0.36430000  0.12767000  0.85329000  1.0
  H  H28  1  0.23662000  0.72563000  0.87235000  1.0
  H  H29  1  0.85329000  0.36429000  0.12766000  1.0
  H  H30  1  0.14671000  0.27437000  0.51099000  1.0
  H  H31  1  0.76338000  0.63571000  0.48900000  1.0
  H  H32  1  0.48900000  0.76337000  0.63571000  1.0
  H  H33  1  0.51100000  0.14670000  0.27436000  1.0
  H  H34  1  0.12766000  0.85328000  0.36428000  1.0
  H  H35  1  0.87233000  0.23661000  0.72562000  1.0
  H  H36  1  0.83710000  0.42957000  0.70392000  1.0
  H  H37  1  0.27433000  0.57040000  0.40753000  1.0
  H  H38  1  0.72567000  0.13319000  0.29608000  1.0
  H  H39  1  0.16291000  0.86683000  0.59249000  1.0
  H  H40  1  0.57042000  0.40752000  0.27433000  1.0
  H  H41  1  0.42958000  0.70391000  0.83711000  1.0
  H  H42  1  0.86681000  0.59247000  0.16289000  1.0
  H  H43  1  0.13318000  0.29608000  0.72566000  1.0
  H  H44  1  0.59247000  0.16289000  0.86681000  1.0
  H  H45  1  0.29608000  0.72567000  0.13319000  1.0
  H  H46  1  0.40752000  0.27433000  0.57042000  1.0
  H  H47  1  0.70391000  0.83710000  0.42958000  1.0
  H  H48  1  0.40750000  0.57040000  0.27432000  1.0
  H  H49  1  0.70391000  0.42958000  0.83710000  1.0
  H  H50  1  0.59248000  0.86682000  0.16289000  1.0
  H  H51  1  0.29609000  0.13320000  0.72567000  1.0
  H  H52  1  0.16289000  0.59248000  0.86682000  1.0
  H  H53  1  0.72567000  0.29609000  0.13319000  1.0
  H  H54  1  0.27434000  0.40752000  0.57041000  1.0
  H  H55  1  0.83711000  0.70392000  0.42958000  1.0
  H  H56  1  0.42958000  0.83710000  0.70392000  1.0
  H  H57  1  0.57041000  0.27433000  0.40751000  1.0
  H  H58  1  0.13319000  0.72566000  0.29609000  1.0
  H  H59  1  0.86681000  0.16289000  0.59247000  1.0
  H  H60  1  0.12350000  0.20108000  0.86758000  1.0
  H  H61  1  0.66649000  0.79891000  0.92241000  1.0
  H  H62  1  0.33353000  0.25595000  0.13247000  1.0
  H  H63  1  0.87651000  0.74407000  0.07759000  1.0
  H  H64  1  0.79894000  0.92244000  0.66649000  1.0
  H  H65  1  0.20109000  0.86760000  0.12351000  1.0
  H  H66  1  0.74403000  0.07753000  0.87649000  1.0
  H  H67  1  0.25595000  0.13247000  0.33352000  1.0
  H  H68  1  0.07757000  0.87652000  0.74406000  1.0
  H  H69  1  0.13242000  0.33349000  0.25592000  1.0
  H  H70  1  0.92243000  0.66649000  0.79892000  1.0
  H  H71  1  0.86755000  0.12349000  0.20107000  1.0
  H  H72  1  0.92242000  0.79893000  0.66648000  1.0
  H  H73  1  0.86754000  0.20106000  0.12348000  1.0
  H  H74  1  0.07757000  0.74407000  0.87650000  1.0
  H  H75  1  0.13242000  0.25592000  0.33349000  1.0
  H  H76  1  0.87649000  0.07758000  0.74407000  1.0
  H  H77  1  0.33353000  0.13247000  0.25594000  1.0
  H  H78  1  0.66648000  0.92240000  0.79891000  1.0
  H  H79  1  0.12351000  0.86758000  0.20107000  1.0
  H  H80  1  0.20107000  0.12350000  0.86757000  1.0
  H  H81  1  0.79895000  0.66649000  0.92244000  1.0
  H  H82  1  0.25594000  0.33351000  0.13246000  1.0
  H  H83  1  0.74405000  0.87649000  0.07755000  1.0
  C  C84  1  0.75148000  0.47406000  0.67998000  1.0
  C  C85  1  0.20591000  0.52593000  0.27742000  1.0
  C  C86  1  0.79409000  0.07151000  0.32003000  1.0
  C  C87  1  0.24854000  0.92852000  0.72260000  1.0
  C  C88  1  0.52595000  0.27741000  0.20592000  1.0
  C  C89  1  0.47406000  0.67997000  0.75147000  1.0
  C  C90  1  0.92851000  0.72259000  0.24852000  1.0
  C  C91  1  0.07148000  0.32000000  0.79407000  1.0
  C  C92  1  0.72259000  0.24854000  0.92852000  1.0
  C  C93  1  0.32001000  0.79408000  0.07150000  1.0
  C  C94  1  0.27741000  0.20592000  0.52594000  1.0
  C  C95  1  0.67998000  0.75147000  0.47406000  1.0
  C  C96  1  0.27740000  0.52593000  0.20592000  1.0
  C  C97  1  0.67998000  0.47406000  0.75147000  1.0
  C  C98  1  0.72259000  0.92852000  0.24853000  1.0
  C  C99  1  0.32003000  0.07151000  0.79409000  1.0
  C  C100  1  0.24852000  0.72259000  0.92852000  1.0
  C  C101  1  0.79408000  0.32003000  0.07150000  1.0
  C  C102  1  0.20592000  0.27741000  0.52594000  1.0
  C  C103  1  0.75147000  0.67997000  0.47405000  1.0
  C  C104  1  0.47406000  0.75147000  0.67998000  1.0
  C  C105  1  0.52595000  0.20592000  0.27741000  1.0
  C  C106  1  0.07149000  0.79407000  0.32001000  1.0
  C  C107  1  0.92849000  0.24850000  0.72257000  1.0
  C  C108  1  0.79232000  0.44132000  0.71815000  1.0
  C  C109  1  0.27682000  0.55866000  0.35100000  1.0
  C  C110  1  0.72318000  0.07418000  0.28185000  1.0
  C  C111  1  0.20769000  0.92584000  0.64901000  1.0
  C  C112  1  0.55868000  0.35100000  0.27683000  1.0
  C  C113  1  0.44132000  0.71815000  0.79232000  1.0
  C  C114  1  0.92583000  0.64899000  0.20767000  1.0
  C  C115  1  0.07416000  0.28184000  0.72317000  1.0
  C  C116  1  0.64900000  0.20768000  0.92584000  1.0
  C  C117  1  0.28185000  0.72317000  0.07418000  1.0
  C  C118  1  0.35100000  0.27683000  0.55868000  1.0
  C  C119  1  0.71815000  0.79232000  0.44132000  1.0
  C  C120  1  0.35098000  0.55866000  0.27682000  1.0
  C  C121  1  0.71815000  0.44132000  0.79232000  1.0
  C  C122  1  0.64900000  0.92584000  0.20767000  1.0
  C  C123  1  0.28185000  0.07418000  0.72317000  1.0
  C  C124  1  0.20767000  0.64900000  0.92583000  1.0
  C  C125  1  0.72318000  0.28185000  0.07418000  1.0
  C  C126  1  0.27683000  0.35100000  0.55867000  1.0
  C  C127  1  0.79232000  0.71815000  0.44132000  1.0
  C  C128  1  0.44132000  0.79232000  0.71815000  1.0
  C  C129  1  0.55868000  0.27683000  0.35100000  1.0
  C  C130  1  0.07417000  0.72316000  0.28185000  1.0
  C  C131  1  0.92582000  0.20766000  0.64899000  1.0
  C  C132  1  0.77726000  0.42604000  0.77726000  1.0
  C  C133  1  0.35121000  0.57395000  0.35121000  1.0
  C  C134  1  0.64879000  0.00001000  0.22274000  1.0
  C  C135  1  0.22274000  0.00001000  0.64879000  1.0
  C  C136  1  0.57396000  0.35122000  0.35122000  1.0
  C  C137  1  0.42604000  0.77726000  0.77726000  1.0
  C  C138  1  0.00000000  0.64878000  0.22274000  1.0
  C  C139  1  0.99999000  0.22273000  0.64877000  1.0
  C  C140  1  0.64879000  0.22275000  0.00002000  1.0
  C  C141  1  0.22274000  0.64878000  0.00001000  1.0
  C  C142  1  0.35122000  0.35121000  0.57395000  1.0
  C  C143  1  0.77726000  0.77726000  0.42604000  1.0
  C  C144  1  0.82332000  0.39763000  0.82332000  1.0
  C  C145  1  0.42568000  0.60236000  0.42568000  1.0
  C  C146  1  0.57431000  0.00000000  0.17668000  1.0
  C  C147  1  0.17668000  0.00000000  0.57430000  1.0
  C  C148  1  0.60238000  0.42569000  0.42569000  1.0
  C  C149  1  0.39763000  0.82332000  0.82332000  1.0
  C  C150  1  1.00000000  0.57430000  0.17669000  1.0
  C  C151  1  0.00000000  0.17669000  0.57430000  1.0
  C  C152  1  0.57431000  0.17668000  0.00000000  1.0
  C  C153  1  0.17669000  0.57431000  0.00001000  1.0
  C  C154  1  0.42569000  0.42569000  0.60237000  1.0
  C  C155  1  0.82331000  0.82331000  0.39761000  1.0
  C  C156  1  0.13723000  0.31597000  0.00001000  1.0
  C  C157  1  0.68404000  0.68402000  0.82126000  1.0
  C  C158  1  0.31598000  0.13725000  0.00001000  1.0
  C  C159  1  0.86277000  0.86278000  0.17875000  1.0
  C  C160  1  0.68403000  0.82124000  0.68401000  1.0
  C  C161  1  0.31598000  0.00002000  0.13723000  1.0
  C  C162  1  0.86275000  0.17873000  0.86277000  1.0
  C  C163  1  0.13724000  0.00002000  0.31597000  1.0
  C  C164  1  0.17874000  0.86278000  0.86277000  1.0
  C  C165  1  0.99999000  0.31597000  0.13723000  1.0
  C  C166  1  0.82126000  0.68402000  0.68401000  1.0
  C  C167  1  0.99999000  0.13723000  0.31597000  1.0
  C  C168  1  0.18542000  0.27164000  0.00001000  1.0
  C  C169  1  0.72837000  0.72836000  0.91379000  1.0
  C  C170  1  0.27164000  0.18543000  0.00002000  1.0
  C  C171  1  0.81457000  0.81458000  0.08621000  1.0
  C  C172  1  0.72837000  0.91378000  0.72836000  1.0
  C  C173  1  0.27165000  0.00003000  0.18543000  1.0
  C  C174  1  0.81456000  0.08620000  0.81458000  1.0
  C  C175  1  0.18544000  0.00002000  0.27164000  1.0
  C  C176  1  0.08621000  0.81459000  0.81458000  1.0
  C  C177  1  0.99999000  0.27162000  0.18542000  1.0
  C  C178  1  0.91379000  0.72837000  0.72836000  1.0
  C  C179  1  0.99999000  0.18542000  0.27163000  1.0
  C  C180  1  0.17004000  0.21295000  0.92516000  1.0
  C  C181  1  0.71219000  0.78704000  0.95708000  1.0
  C  C182  1  0.28781000  0.24491000  0.07488000  1.0
  C  C183  1  0.82996000  0.75510000  0.04291000  1.0
  C  C184  1  0.78706000  0.95711000  0.71220000  1.0
  C  C185  1  0.21296000  0.92517000  0.17005000  1.0
  C  C186  1  0.75509000  0.04289000  0.82996000  1.0
  C  C187  1  0.24492000  0.07489000  0.28782000  1.0
  C  C188  1  0.04290000  0.82997000  0.75509000  1.0
  C  C189  1  0.07485000  0.28780000  0.24490000  1.0
  C  C190  1  0.95709000  0.71219000  0.78704000  1.0
  C  C191  1  0.92513000  0.17004000  0.21295000  1.0
  C  C192  1  0.95709000  0.78706000  0.71218000  1.0
  C  C193  1  0.92513000  0.21294000  0.17004000  1.0
  C  C194  1  0.04290000  0.75511000  0.82995000  1.0
  C  C195  1  0.07484000  0.24488000  0.28779000  1.0
  C  C196  1  0.82995000  0.04290000  0.75510000  1.0
  C  C197  1  0.28783000  0.07489000  0.24491000  1.0
  C  C198  1  0.71219000  0.95708000  0.78705000  1.0
  C  C199  1  0.17006000  0.92517000  0.21295000  1.0
  C  C200  1  0.21295000  0.17005000  0.92515000  1.0
  C  C201  1  0.78706000  0.71219000  0.95710000  1.0
  C  C202  1  0.24491000  0.28782000  0.07487000  1.0
  C  C203  1  0.75509000  0.82995000  0.04289000  1.0
  N  N204  1  0.69740000  0.49172000  0.69739000  1.0
  N  N205  1  0.20566000  0.50826000  0.20567000  1.0
  N  N206  1  0.79433000  0.00001000  0.30260000  1.0
  N  N207  1  0.30262000  0.00002000  0.79434000  1.0
  N  N208  1  0.50829000  0.20567000  0.20567000  1.0
  N  N209  1  0.49173000  0.69739000  0.69740000  1.0
  N  N210  1  1.00000000  0.79432000  0.30259000  1.0
  N  N211  1  0.99999000  0.30259000  0.79432000  1.0
  N  N212  1  0.79433000  0.30262000  0.00001000  1.0
  N  N213  1  0.30259000  0.79433000  0.00001000  1.0
  N  N214  1  0.20567000  0.20567000  0.50827000  1.0
  N  N215  1  0.69739000  0.69739000  0.49171000  1.0
  N  N216  1  0.90987000  0.36240000  0.86867000  1.0
  N  N217  1  0.50627000  0.63759000  0.54747000  1.0
  N  N218  1  0.49373000  0.04121000  0.13134000  1.0
  N  N219  1  0.09013000  0.95880000  0.45252000  1.0
  N  N220  1  0.63761000  0.54747000  0.50627000  1.0
  N  N221  1  0.36240000  0.86867000  0.90988000  1.0
  N  N222  1  0.95880000  0.45252000  0.09014000  1.0
  N  N223  1  0.04120000  0.13133000  0.49372000  1.0
  N  N224  1  0.45254000  0.09014000  0.95882000  1.0
  N  N225  1  0.13134000  0.49373000  0.04121000  1.0
  N  N226  1  0.54748000  0.50627000  0.63761000  1.0
  N  N227  1  0.86867000  0.90987000  0.36239000  1.0
  N  N228  1  0.54747000  0.63760000  0.50626000  1.0
  N  N229  1  0.86867000  0.36239000  0.90987000  1.0
  N  N230  1  0.45253000  0.95881000  0.09014000  1.0
  N  N231  1  0.13133000  0.04120000  0.49372000  1.0
  N  N232  1  0.09014000  0.45253000  0.95881000  1.0
  N  N233  1  0.49373000  0.13133000  0.04121000  1.0
  N  N234  1  0.50628000  0.54747000  0.63761000  1.0
  N  N235  1  0.90987000  0.86867000  0.36240000  1.0
  N  N236  1  0.36240000  0.90987000  0.86867000  1.0
  N  N237  1  0.63761000  0.50627000  0.54747000  1.0
  N  N238  1  0.04120000  0.49372000  0.13134000  1.0
  N  N239  1  0.95880000  0.09014000  0.45252000  1.0
  N  N240  1  0.88293000  0.38421000  0.81375000  1.0
  N  N241  1  0.42953000  0.61578000  0.49871000  1.0
  N  N242  1  0.57046000  0.06918000  0.18625000  1.0
  N  N243  1  0.11707000  0.93082000  0.50128000  1.0
  N  N244  1  0.61579000  0.49871000  0.42953000  1.0
  N  N245  1  0.38421000  0.81375000  0.88293000  1.0
  N  N246  1  0.93082000  0.50128000  0.11708000  1.0
  N  N247  1  0.06919000  0.18627000  0.57047000  1.0
  N  N248  1  0.50128000  0.11707000  0.93081000  1.0
  N  N249  1  0.18626000  0.57046000  0.06919000  1.0
  N  N250  1  0.49872000  0.42953000  0.61579000  1.0
  N  N251  1  0.81374000  0.88292000  0.38420000  1.0
  N  N252  1  0.49871000  0.61578000  0.42953000  1.0
  N  N253  1  0.81375000  0.38421000  0.88293000  1.0
  N  N254  1  0.50128000  0.93082000  0.11708000  1.0
  N  N255  1  0.18626000  0.06919000  0.57047000  1.0
  N  N256  1  0.11707000  0.50127000  0.93081000  1.0
  N  N257  1  0.57047000  0.18626000  0.06919000  1.0
  N  N258  1  0.42954000  0.49872000  0.61579000  1.0
  N  N259  1  0.88292000  0.81374000  0.38420000  1.0
  N  N260  1  0.38422000  0.88293000  0.81375000  1.0
  N  N261  1  0.61580000  0.42953000  0.49872000  1.0
  N  N262  1  0.06919000  0.57046000  0.18627000  1.0
  N  N263  1  0.93081000  0.11707000  0.50127000  1.0
  O  O264  1  0.08423000  0.29765000  0.92961000  1.0
  O  O265  1  0.63196000  0.70235000  0.78658000  1.0
  O  O266  1  0.36806000  0.15466000  0.07043000  1.0
  O  O267  1  0.91579000  0.84538000  0.21342000  1.0
  O  O268  1  0.70238000  0.78658000  0.63195000  1.0
  O  O269  1  0.29765000  0.92961000  0.08423000  1.0
  O  O270  1  0.84536000  0.21341000  0.91579000  1.0
  O  O271  1  0.15464000  0.07043000  0.36805000  1.0
  O  O272  1  0.21341000  0.91579000  0.84537000  1.0
  O  O273  1  0.07040000  0.36804000  0.15463000  1.0
  O  O274  1  0.78659000  0.63195000  0.70236000  1.0
  O  O275  1  0.92958000  0.08421000  0.29763000  1.0
  O  O276  1  0.78658000  0.70235000  0.63193000  1.0
  O  O277  1  0.92957000  0.29763000  0.08422000  1.0
  O  O278  1  0.21342000  0.84538000  0.91578000  1.0
  O  O279  1  0.07040000  0.15464000  0.36805000  1.0
  O  O280  1  0.91577000  0.21342000  0.84538000  1.0
  O  O281  1  0.36806000  0.07043000  0.15464000  1.0
  O  O282  1  0.63195000  0.78657000  0.70236000  1.0
  O  O283  1  0.08424000  0.92960000  0.29764000  1.0
  O  O284  1  0.29764000  0.08424000  0.92960000  1.0
  O  O285  1  0.70238000  0.63195000  0.78658000  1.0
  O  O286  1  0.15462000  0.36804000  0.07042000  1.0
  O  O287  1  0.84536000  0.91578000  0.21341000  1.0
  O  O288  1  0.00000000  0.35349000  1.00000000  1.0
  O  O289  1  0.64650000  0.64649000  0.64649000  1.0
  O  O290  1  0.35349000  0.00000000  0.00000000  1.0
  O  O291  1  1.00000000  1.00000000  0.35349000  1.0
