# generated using pymatgen
data_HoH15(C2O)9
_symmetry_space_group_name_H-M   'P 1'
_cell_length_a   7.84388000
_cell_length_b   9.47552000
_cell_length_c   12.55270000
_cell_angle_alpha   75.45800000
_cell_angle_beta   74.53140000
_cell_angle_gamma   75.68050000
_symmetry_Int_Tables_number   1
_chemical_formula_structural   HoH15(C2O)9
_chemical_formula_sum   'Ho2 H30 C36 O18'
_cell_volume   853.95442776
_cell_formula_units_Z   2
loop_
 _symmetry_equiv_pos_site_id
 _symmetry_equiv_pos_as_xyz
  1  'x, y, z'
loop_
 _atom_site_type_symbol
 _atom_site_label
 _atom_site_symmetry_multiplicity
 _atom_site_fract_x
 _atom_site_fract_y
 _atom_site_fract_z
 _atom_site_occupancy
  Ho  Ho0  1  0.23296000  0.20580000  0.00034000  1.0
  Ho  Ho1  1  0.76704000  0.79420000  0.99966000  1.0
  H  H2  1  0.20787000  0.50899000  0.02595000  1.0
  H  H3  1  0.79213000  0.49101000  0.97405000  1.0
  H  H4  1  0.03301000  0.46303000  0.11210000  1.0
  H  H5  1  0.96698000  0.53697000  0.88790000  1.0
  H  H6  1  0.54791000  0.33805000  0.00244000  1.0
  H  H7  1  0.45209000  0.66195000  0.99756000  1.0
  H  H8  1  0.45588000  0.43620000  0.90499000  1.0
  H  H9  1  0.54412000  0.56380000  0.09502000  1.0
  H  H10  1  0.10305000  0.90507000  0.08992000  1.0
  H  H11  1  0.89694000  0.09493000  0.91009000  1.0
  H  H12  1  0.31670000  0.87247000  0.06083000  1.0
  H  H13  1  0.68330000  0.12753000  0.93917000  1.0
  H  H14  1  0.48009000  0.42587000  0.26177000  1.0
  H  H15  1  0.51991000  0.57413000  0.73823000  1.0
  H  H16  1  0.36382000  0.37405000  0.46798000  1.0
  H  H17  1  0.63619000  0.62596000  0.53201000  1.0
  H  H18  1  0.39482000  0.22536000  0.65794000  1.0
  H  H19  1  0.60519000  0.77464000  0.34206000  1.0
  H  H20  1  0.80518000  0.83110000  0.68804000  1.0
  H  H21  1  0.19482000  0.16889000  0.31196000  1.0
  H  H22  1  0.91928000  0.87837000  0.47998000  1.0
  H  H23  1  0.08072000  0.12163000  0.52002000  1.0
  H  H24  1  0.90788000  0.04250000  0.29105000  1.0
  H  H25  1  0.09212000  0.95750000  0.70895000  1.0
  H  H26  1  0.84686000  0.21693000  0.73363000  1.0
  H  H27  1  0.15314000  0.78307000  0.26637000  1.0
  H  H28  1  0.76983000  0.30016000  0.54593000  1.0
  H  H29  1  0.23016000  0.69984000  0.45407000  1.0
  H  H30  1  0.18801000  0.54076000  0.64642000  1.0
  H  H31  1  0.81198000  0.45924000  0.35359000  1.0
  C  C32  1  0.78379000  0.27745000  0.14087000  1.0
  C  C33  1  0.21620000  0.72255000  0.85913000  1.0
  C  C34  1  0.70466000  0.23781000  0.26414000  1.0
  C  C35  1  0.29534000  0.76219000  0.73586000  1.0
  C  C36  1  0.54743000  0.33048000  0.31450000  1.0
  C  C37  1  0.45256000  0.66952000  0.68549000  1.0
  C  C38  1  0.48223000  0.30159000  0.42917000  1.0
  C  C39  1  0.51778000  0.69841000  0.57082000  1.0
  C  C40  1  0.56702000  0.17704000  0.49944000  1.0
  C  C41  1  0.43299000  0.82296000  0.50056000  1.0
  C  C42  1  0.50803000  0.14916000  0.61823000  1.0
  C  C43  1  0.49197000  0.85084000  0.38176000  1.0
  C  C44  1  0.59439000  0.02785000  0.68508000  1.0
  C  C45  1  0.40561000  0.97215000  0.31492000  1.0
  C  C46  1  0.53702000  0.00441000  0.81098000  1.0
  C  C47  1  0.46298000  0.99559000  0.18902000  1.0
  C  C48  1  0.74201000  0.92777000  0.63401000  1.0
  C  C49  1  0.25799000  0.07223000  0.36599000  1.0
  C  C50  1  0.80425000  0.95384000  0.51883000  1.0
  C  C51  1  0.19575000  0.04616000  0.48116000  1.0
  C  C52  1  0.72128000  0.07941000  0.44845000  1.0
  C  C53  1  0.27872000  0.92059000  0.55155000  1.0
  C  C54  1  0.78831000  0.11389000  0.33042000  1.0
  C  C55  1  0.21169000  0.88611000  0.66958000  1.0
  C  C56  1  0.08212000  0.31718000  0.80906000  1.0
  C  C57  1  0.91788000  0.68282000  0.19094000  1.0
  C  C58  1  0.02475000  0.37371000  0.69998000  1.0
  C  C59  1  0.97525000  0.62629000  0.30002000  1.0
  C  C60  1  0.90488000  0.30561000  0.67194000  1.0
  C  C61  1  0.09512000  0.69438000  0.32806000  1.0
  C  C62  1  0.86293000  0.35125000  0.56743000  1.0
  C  C63  1  0.13707000  0.64875000  0.43257000  1.0
  C  C64  1  0.94105000  0.46437000  0.48538000  1.0
  C  C65  1  0.05895000  0.53563000  0.51462000  1.0
  C  C66  1  0.09695000  0.48880000  0.62348000  1.0
  C  C67  1  0.90305000  0.51120000  0.37652000  1.0
  O  O68  1  0.15826000  0.42202000  0.07771000  1.0
  O  O69  1  0.84174000  0.57798000  0.92229000  1.0
  O  O70  1  0.49211000  0.33178000  0.94172000  1.0
  O  O71  1  0.50789000  0.66822000  0.05829000  1.0
  O  O72  1  0.21097000  0.95298000  0.06150000  1.0
  O  O73  1  0.78902000  0.04702000  0.93850000  1.0
  O  O74  1  0.94647000  0.21801000  0.10468000  1.0
  O  O75  1  0.05352000  0.78199000  0.89532000  1.0
  O  O76  1  0.68650000  0.37260000  0.07784000  1.0
  O  O77  1  0.31350000  0.62740000  0.92216000  1.0
  O  O78  1  0.60132000  0.88010000  0.86796000  1.0
  O  O79  1  0.39870000  0.11990000  0.13204000  1.0
  O  O80  1  0.43236000  0.10963000  0.85507000  1.0
  O  O81  1  0.56764000  0.89037000  0.14493000  1.0
  O  O82  1  0.15983000  0.39668000  0.84350000  1.0
  O  O83  1  0.84018000  0.60332000  0.15650000  1.0
  O  O84  1  0.06029000  0.18905000  0.86722000  1.0
  O  O85  1  0.93971000  0.81096000  0.13278000  1.0
