# generated using pymatgen
data_AlH12(C6O5)6
_symmetry_space_group_name_H-M   'P 1'
_cell_length_a   4.43963000
_cell_length_b   29.11290000
_cell_length_c   29.11010000
_cell_angle_alpha   119.98800000
_cell_angle_beta   89.99820000
_cell_angle_gamma   89.99800000
_symmetry_Int_Tables_number   1
_chemical_formula_structural   AlH12(C6O5)6
_chemical_formula_sum   'Al2 H24 C72 O60'
_cell_volume   3258.81026982
_cell_formula_units_Z   2
loop_
 _symmetry_equiv_pos_site_id
 _symmetry_equiv_pos_as_xyz
  1  'x, y, z'
loop_
 _atom_site_type_symbol
 _atom_site_label
 _atom_site_symmetry_multiplicity
 _atom_site_fract_x
 _atom_site_fract_y
 _atom_site_fract_z
 _atom_site_occupancy
  Al  Al0  1  0.00012000  0.50000000  0.50000000  1.0
  Al  Al1  1  0.99997000  0.16667000  0.83334000  1.0
  H  H2  1  0.82070000  0.12871000  0.65267000  1.0
  H  H3  1  0.17803000  0.34723000  0.87117000  1.0
  H  H4  1  0.78533000  0.40659000  0.80770000  1.0
  H  H5  1  0.21411000  0.19231000  0.59340000  1.0
  H  H6  1  0.78552000  0.26007000  0.52553000  1.0
  H  H7  1  0.21446000  0.47441000  0.73985000  1.0
  H  H8  1  0.82181000  0.53784000  0.68052000  1.0
  H  H9  1  0.17848000  0.31939000  0.46208000  1.0
  H  H10  1  0.82088000  0.02395000  0.87128000  1.0
  H  H11  1  0.17803000  0.02394000  0.65277000  1.0
  H  H12  1  0.78533000  0.90111000  0.59342000  1.0
  H  H13  1  0.21413000  0.90108000  0.80769000  1.0
  H  H14  1  0.78547000  0.76545000  0.73992000  1.0
  H  H15  1  0.21442000  0.76544000  0.52556000  1.0
  H  H16  1  0.82175000  0.64267000  0.46213000  1.0
  H  H17  1  0.17836000  0.64269000  0.68059000  1.0
  H  H18  1  0.82060000  0.34732000  0.97605000  1.0
  H  H19  1  0.17825000  0.12882000  0.97607000  1.0
  H  H20  1  0.78552000  0.19229000  0.09891000  1.0
  H  H21  1  0.21409000  0.40659000  0.09891000  1.0
  H  H22  1  0.78552000  0.47447000  0.23453000  1.0
  H  H23  1  0.21445000  0.26015000  0.23457000  1.0
  H  H24  1  0.82179000  0.31949000  0.35734000  1.0
  H  H25  1  0.17836000  0.53791000  0.35730000  1.0
  C  C26  1  0.50011000  0.45963000  0.41921000  1.0
  C  C27  1  0.50010000  0.45960000  0.54039000  1.0
  C  C28  1  0.50006000  0.58080000  0.54041000  1.0
  C  C29  1  0.49994000  0.20705000  0.79292000  1.0
  C  C30  1  0.49995000  0.08586000  0.79295000  1.0
  C  C31  1  0.49993000  0.20708000  0.91415000  1.0
  C  C32  1  0.49991000  0.23713000  0.76285000  1.0
  C  C33  1  0.48707000  0.20977000  0.70707000  1.0
  C  C34  1  0.52054000  0.23749000  0.67946000  1.0
  C  C35  1  0.49989000  0.29328000  0.70673000  1.0
  C  C36  1  0.47914000  0.32054000  0.76251000  1.0
  C  C37  1  0.51259000  0.29291000  0.79021000  1.0
  C  C38  1  0.49989000  0.32125000  0.67875000  1.0
  C  C39  1  0.49997000  0.34540000  0.65454000  1.0
  C  C40  1  0.49998000  0.37338000  0.62657000  1.0
  C  C41  1  0.47932000  0.34611000  0.57078000  1.0
  C  C42  1  0.51280000  0.37373000  0.54309000  1.0
  C  C43  1  0.50005000  0.42951000  0.57044000  1.0
  C  C44  1  0.48728000  0.45686000  0.62622000  1.0
  C  C45  1  0.52068000  0.42916000  0.65384000  1.0
  C  C46  1  0.49992000  0.02572000  0.76288000  1.0
  C  C47  1  0.48712000  0.99729000  0.79023000  1.0
  C  C48  1  0.52051000  0.94198000  0.76252000  1.0
  C  C49  1  0.49982000  0.91345000  0.70673000  1.0
  C  C50  1  0.47910000  0.94198000  0.67947000  1.0
  C  C51  1  0.51256000  0.99730000  0.70710000  1.0
  C  C52  1  0.49980000  0.85749000  0.67875000  1.0
  C  C53  1  0.49989000  0.80914000  0.65459000  1.0
  C  C54  1  0.49991000  0.75319000  0.62661000  1.0
  C  C55  1  0.47924000  0.72467000  0.65388000  1.0
  C  C56  1  0.51272000  0.66936000  0.62626000  1.0
  C  C57  1  0.50002000  0.64093000  0.57048000  1.0
  C  C58  1  0.48727000  0.66936000  0.54313000  1.0
  C  C59  1  0.52061000  0.72467000  0.57082000  1.0
  C  C60  1  0.49984000  0.23715000  0.97429000  1.0
  C  C61  1  0.48699000  0.29293000  0.00272000  1.0
  C  C62  1  0.52051000  0.32054000  0.05804000  1.0
  C  C63  1  0.49992000  0.29327000  0.08656000  1.0
  C  C64  1  0.47920000  0.23748000  0.05802000  1.0
  C  C65  1  0.51259000  0.20978000  0.00270000  1.0
  C  C66  1  0.49998000  0.32126000  0.14252000  1.0
  C  C67  1  0.49999000  0.34544000  0.19087000  1.0
  C  C68  1  0.49994000  0.37344000  0.24682000  1.0
  C  C69  1  0.47927000  0.42922000  0.27534000  1.0
  C  C70  1  0.51271000  0.45693000  0.33065000  1.0
  C  C71  1  0.49999000  0.42957000  0.35907000  1.0
  C  C72  1  0.48719000  0.37380000  0.33065000  1.0
  C  C73  1  0.52062000  0.34616000  0.27533000  1.0
  C  C74  1  0.40521000  0.15202000  0.67377000  1.0
  C  C75  1  0.59380000  0.32620000  0.84799000  1.0
  C  C76  1  0.37854000  0.37776000  0.79066000  1.0
  C  C77  1  0.62097000  0.20934000  0.62223000  1.0
  C  C78  1  0.37876000  0.28887000  0.54260000  1.0
  C  C79  1  0.62123000  0.45733000  0.71106000  1.0
  C  C80  1  0.40603000  0.51465000  0.65950000  1.0
  C  C81  1  0.59418000  0.34044000  0.48531000  1.0
  C  C82  1  0.40533000  0.02176000  0.84798000  1.0
  C  C83  1  0.59381000  0.02179000  0.67381000  1.0
  C  C84  1  0.37854000  0.91289000  0.62226000  1.0
  C  C85  1  0.62098000  0.91288000  0.79065000  1.0
  C  C86  1  0.37869000  0.75374000  0.71111000  1.0
  C  C87  1  0.62119000  0.75373000  0.54266000  1.0
  C  C88  1  0.40597000  0.64485000  0.48535000  1.0
  C  C89  1  0.59409000  0.64486000  0.65953000  1.0
  C  C90  1  0.40513000  0.32622000  0.97828000  1.0
  C  C91  1  0.59398000  0.15201000  0.97822000  1.0
  C  C92  1  0.37870000  0.20934000  0.08710000  1.0
  C  C93  1  0.62096000  0.37777000  0.08714000  1.0
  C  C94  1  0.37873000  0.45739000  0.24628000  1.0
  C  C95  1  0.62121000  0.28894000  0.24627000  1.0
  C  C96  1  0.40601000  0.34051000  0.35514000  1.0
  C  C97  1  0.59410000  0.51470000  0.35514000  1.0
  O  O98  1  0.73512000  0.55850000  0.54510000  1.0
  O  O99  1  0.73516000  0.48662000  0.44152000  1.0
  O  O100  1  0.73517000  0.45490000  0.51339000  1.0
  O  O101  1  0.26501000  0.55850000  0.51341000  1.0
  O  O102  1  0.26504000  0.48660000  0.54509000  1.0
  O  O103  1  0.26507000  0.45492000  0.44151000  1.0
  O  O104  1  0.73504000  0.18009000  0.89185000  1.0
  O  O105  1  0.73505000  0.21175000  0.81991000  1.0
  O  O106  1  0.73507000  0.10815000  0.78825000  1.0
  O  O107  1  0.26493000  0.21178000  0.89184000  1.0
  O  O108  1  0.26494000  0.10818000  0.81996000  1.0
  O  O109  1  0.26495000  0.18004000  0.78822000  1.0
  O  O110  1  0.60407000  0.11738000  0.64218000  1.0
  O  O111  1  0.14036000  0.13957000  0.67387000  1.0
  O  O112  1  0.39457000  0.35777000  0.88256000  1.0
  O  O113  1  0.85837000  0.32611000  0.86058000  1.0
  O  O114  1  0.56598000  0.41751000  0.81447000  1.0
  O  O115  1  0.10470000  0.38452000  0.78996000  1.0
  O  O116  1  0.43347000  0.18554000  0.58249000  1.0
  O  O117  1  0.89476000  0.21006000  0.61543000  1.0
  O  O118  1  0.56625000  0.24914000  0.51873000  1.0
  O  O119  1  0.10498000  0.28208000  0.54333000  1.0
  O  O120  1  0.43372000  0.48122000  0.75080000  1.0
  O  O121  1  0.89498000  0.45658000  0.71786000  1.0
  O  O122  1  0.60522000  0.54922000  0.69105000  1.0
  O  O123  1  0.14138000  0.52721000  0.65942000  1.0
  O  O124  1  0.39509000  0.30887000  0.45072000  1.0
  O  O125  1  0.85886000  0.34054000  0.47277000  1.0
  O  O126  1  0.60424000  0.02478000  0.88260000  1.0
  O  O127  1  0.14051000  0.03432000  0.86046000  1.0
  O  O128  1  0.39460000  0.02478000  0.64224000  1.0
  O  O129  1  0.85839000  0.03446000  0.67389000  1.0
  O  O130  1  0.56600000  0.89697000  0.58251000  1.0
  O  O131  1  0.10471000  0.90542000  0.61548000  1.0
  O  O132  1  0.43349000  0.89693000  0.81445000  1.0
  O  O133  1  0.89478000  0.90537000  0.78994000  1.0
  O  O134  1  0.56618000  0.76958000  0.75084000  1.0
  O  O135  1  0.10491000  0.76126000  0.71791000  1.0
  O  O136  1  0.43370000  0.76957000  0.51876000  1.0
  O  O137  1  0.89494000  0.76128000  0.54340000  1.0
  O  O138  1  0.60513000  0.64183000  0.45078000  1.0
  O  O139  1  0.14130000  0.63223000  0.47280000  1.0
  O  O140  1  0.39497000  0.64185000  0.69110000  1.0
  O  O141  1  0.85878000  0.63224000  0.65945000  1.0
  O  O142  1  0.60395000  0.35781000  0.97521000  1.0
  O  O143  1  0.14027000  0.32612000  0.96572000  1.0
  O  O144  1  0.39481000  0.11744000  0.97523000  1.0
  O  O145  1  0.85859000  0.13943000  0.96556000  1.0
  O  O146  1  0.56616000  0.18553000  0.10304000  1.0
  O  O147  1  0.10488000  0.21005000  0.09459000  1.0
  O  O148  1  0.43342000  0.41751000  0.10306000  1.0
  O  O149  1  0.89475000  0.38457000  0.09464000  1.0
  O  O150  1  0.56622000  0.48126000  0.23040000  1.0
  O  O151  1  0.10496000  0.45667000  0.23875000  1.0
  O  O152  1  0.43372000  0.24920000  0.23044000  1.0
  O  O153  1  0.89499000  0.28214000  0.23874000  1.0
  O  O154  1  0.60520000  0.30897000  0.35818000  1.0
  O  O155  1  0.14136000  0.34059000  0.36778000  1.0
  O  O156  1  0.39497000  0.54927000  0.35813000  1.0
  O  O157  1  0.85877000  0.52724000  0.36777000  1.0
