# generated using pymatgen
data_ZnH18C21(NO3)2
_symmetry_space_group_name_H-M   'P 1'
_cell_length_a   8.27896000
_cell_length_b   10.19400000
_cell_length_c   13.20200573
_cell_angle_alpha   112.55465442
_cell_angle_beta   92.28916199
_cell_angle_gamma   100.65790000
_symmetry_Int_Tables_number   1
_chemical_formula_structural   ZnH18C21(NO3)2
_chemical_formula_sum   'Zn2 H36 C42 N4 O12'
_cell_volume   1003.64674243
_cell_formula_units_Z   2
loop_
 _symmetry_equiv_pos_site_id
 _symmetry_equiv_pos_as_xyz
  1  'x, y, z'
loop_
 _atom_site_type_symbol
 _atom_site_label
 _atom_site_symmetry_multiplicity
 _atom_site_fract_x
 _atom_site_fract_y
 _atom_site_fract_z
 _atom_site_occupancy
  Zn  Zn0  1  0.05509000  0.58561000  0.15580000  1.0
  Zn  Zn1  1  0.94491000  0.41439000  0.84420000  1.0
  H  H2  1  0.73623000  0.32028000  0.06059000  1.0
  H  H3  1  0.26376000  0.67973000  0.93940000  1.0
  H  H4  1  0.51398000  0.54733000  0.33888000  1.0
  H  H5  1  0.48601000  0.45267000  0.66112000  1.0
  H  H6  1  0.82447000  0.71634000  0.34186000  1.0
  H  H7  1  0.17552000  0.28366000  0.65814000  1.0
  H  H8  1  0.34366000  0.31051000  0.11480000  1.0
  H  H9  1  0.65633000  0.68948000  0.88520000  1.0
  H  H10  1  0.39560000  0.26500000  0.22591000  1.0
  H  H11  1  0.60440000  0.73502000  0.77410000  1.0
  H  H12  1  0.59036000  0.20297000  0.28439000  1.0
  H  H13  1  0.40964000  0.79704000  0.71561000  1.0
  H  H14  1  0.67179000  0.04657000  0.25802000  1.0
  H  H15  1  0.32821000  0.95343000  0.74198000  1.0
  H  H16  1  0.45875000  0.03893000  0.27080000  1.0
  H  H17  1  0.54125000  0.96107000  0.72920000  1.0
  H  H18  1  0.40510000  0.30734000  0.97234000  1.0
  H  H19  1  0.59490000  0.69266000  0.02766000  1.0
  H  H20  1  0.28721000  0.15729000  0.85799000  1.0
  H  H21  1  0.71278000  0.84271000  0.14202000  1.0
  H  H22  1  0.50066000  0.21765000  0.85552000  1.0
  H  H23  1  0.49934000  0.78234000  0.14448000  1.0
  H  H24  1  0.08848000  0.21692000  0.17705000  1.0
  H  H25  1  0.91151000  0.78308000  0.82295000  1.0
  H  H26  1  0.92329000  0.03343000  0.82822000  1.0
  H  H27  1  0.07671000  0.96657000  0.17179000  1.0
  H  H28  1  0.21859000  0.05054000  0.52786000  1.0
  H  H29  1  0.78142000  0.94945000  0.47214000  1.0
  H  H30  1  0.53854000  0.79437000  0.33195000  1.0
  H  H31  1  0.46147000  0.20561000  0.66805000  1.0
  H  H32  1  0.93760000  0.97579000  0.62564000  1.0
  H  H33  1  0.06240000  0.02422000  0.37437000  1.0
  H  H34  1  0.17881000  0.73323000  0.51530000  1.0
  H  H35  1  0.82120000  0.26679000  0.48470000  1.0
  H  H36  1  0.72614000  0.50002000  0.57049000  1.0
  H  H37  1  0.27386000  0.49997000  0.42950000  1.0
  C  C38  1  0.72165000  0.40569000  0.13730000  1.0
  C  C39  1  0.27834000  0.59431000  0.86269000  1.0
  C  C40  1  0.60778000  0.52672000  0.28338000  1.0
  C  C41  1  0.39220000  0.47329000  0.71662000  1.0
  C  C42  1  0.75914000  0.60955000  0.28378000  1.0
  C  C43  1  0.24085000  0.39045000  0.71621000  1.0
  C  C44  1  0.44050000  0.27695000  0.15224000  1.0
  C  C45  1  0.55950000  0.72306000  0.84777000  1.0
  C  C46  1  0.47662000  0.13573000  0.07258000  1.0
  C  C47  1  0.52338000  0.86428000  0.92743000  1.0
  C  C48  1  0.52948000  0.04129000  0.11521000  1.0
  C  C49  1  0.47052000  0.95870000  0.88479000  1.0
  C  C50  1  0.45047000  0.09666000  0.95758000  1.0
  C  C51  1  0.54952000  0.90333000  0.04242000  1.0
  C  C52  1  0.56439000  0.08498000  0.23786000  1.0
  C  C53  1  0.43561000  0.91502000  0.76215000  1.0
  C  C54  1  0.40825000  0.20031000  0.90938000  1.0
  C  C55  1  0.59174000  0.79969000  0.09063000  1.0
  C  C56  1  0.01656000  0.28630000  0.00546000  1.0
  C  C57  1  0.98343000  0.71370000  0.99454000  1.0
  C  C58  1  0.00829000  0.13834000  0.00275000  1.0
  C  C59  1  0.99171000  0.86165000  0.99725000  1.0
  C  C60  1  0.05024000  0.12113000  0.10012000  1.0
  C  C61  1  0.94976000  0.87887000  0.89988000  1.0
  C  C62  1  0.95692000  0.01722000  0.90250000  1.0
  C  C63  1  0.04308000  0.98278000  0.09750000  1.0
  C  C64  1  0.22187000  0.82072000  0.33576000  1.0
  C  C65  1  0.77813000  0.17928000  0.66424000  1.0
  C  C66  1  0.36470000  0.91372000  0.42107000  1.0
  C  C67  1  0.63531000  0.08626000  0.57893000  1.0
  C  C68  1  0.34233000  0.03017000  0.51548000  1.0
  C  C69  1  0.65768000  0.96981000  0.48453000  1.0
  C  C70  1  0.52295000  0.88416000  0.40632000  1.0
  C  C71  1  0.47706000  0.11583000  0.59368000  1.0
  C  C72  1  0.88301000  0.76701000  0.59760000  1.0
  C  C73  1  0.11699000  0.23300000  0.40240000  1.0
  C  C74  1  0.94605000  0.63042000  0.54791000  1.0
  C  C75  1  0.05396000  0.36959000  0.45209000  1.0
  C  C76  1  0.10094000  0.63092000  0.50830000  1.0
  C  C77  1  0.89906000  0.36909000  0.49170000  1.0
  C  C78  1  0.84600000  0.49871000  0.53938000  1.0
  C  C79  1  0.15400000  0.50128000  0.46061000  1.0
  N  N80  1  0.82902000  0.53264000  0.19201000  1.0
  N  N81  1  0.17097000  0.46737000  0.80799000  1.0
  N  N82  1  0.58708000  0.39850000  0.19059000  1.0
  N  N83  1  0.41292000  0.60151000  0.80941000  1.0
  O  O84  1  0.11583000  0.39325000  0.08135000  1.0
  O  O85  1  0.88416000  0.60674000  0.91865000  1.0
  O  O86  1  0.91880000  0.29611000  0.93276000  1.0
  O  O87  1  0.08121000  0.70389000  0.06723000  1.0
  O  O88  1  0.24088000  0.69319000  0.27236000  1.0
  O  O89  1  0.75912000  0.30681000  0.72763000  1.0
  O  O90  1  0.09116000  0.86542000  0.32761000  1.0
  O  O91  1  0.90885000  0.13459000  0.67240000  1.0
  O  O92  1  0.98484000  0.88338000  0.59486000  1.0
  O  O93  1  0.01516000  0.11662000  0.40514000  1.0
  O  O94  1  0.74985000  0.77047000  0.63629000  1.0
  O  O95  1  0.25018000  0.22954000  0.36372000  1.0
