# generated using pymatgen
data_NiH20C20(NO3)2
_symmetry_space_group_name_H-M   'P 1'
_cell_length_a   5.56980000
_cell_length_b   7.89646000
_cell_length_c   10.87994052
_cell_angle_alpha   73.08026203
_cell_angle_beta   78.64273020
_cell_angle_gamma   76.97000000
_symmetry_Int_Tables_number   1
_chemical_formula_structural   NiH20C20(NO3)2
_chemical_formula_sum   'Ni1 H20 C20 N2 O6'
_cell_volume   441.56921477
_cell_formula_units_Z   1
loop_
 _symmetry_equiv_pos_site_id
 _symmetry_equiv_pos_as_xyz
  1  'x, y, z'
loop_
 _atom_site_type_symbol
 _atom_site_label
 _atom_site_symmetry_multiplicity
 _atom_site_fract_x
 _atom_site_fract_y
 _atom_site_fract_z
 _atom_site_occupancy
  Ni  Ni0  1  0.99998000  0.99999000  0.49999000  1.0
  H  H1  1  0.86344000  0.32229000  0.43283000  1.0
  H  H2  1  0.13655000  0.67770000  0.56715000  1.0
  H  H3  1  0.61143000  0.23431000  0.44699000  1.0
  H  H4  1  0.38857000  0.76568000  0.55299000  1.0
  H  H5  1  0.43750000  0.45590000  0.70029000  1.0
  H  H6  1  0.56249000  0.54409000  0.29974000  1.0
  H  H7  1  0.71963000  0.30681000  0.74037000  1.0
  H  H8  1  0.28040000  0.69318000  0.25964000  1.0
  H  H9  1  0.16723000  0.58662000  0.85984000  1.0
  H  H10  1  0.83282000  0.41341000  0.14016000  1.0
  H  H11  1  0.07364000  0.63263000  0.08210000  1.0
  H  H12  1  0.92642000  0.36740000  0.91790000  1.0
  H  H13  1  0.30244000  0.13389000  0.62349000  1.0
  H  H14  1  0.69754000  0.86610000  0.37649000  1.0
  H  H15  1  0.31213000  0.14235000  0.84734000  1.0
  H  H16  1  0.68785000  0.85764000  0.15265000  1.0
  H  H17  1  0.68749000  0.85841000  0.96887000  1.0
  H  H18  1  0.31248000  0.14163000  0.03112000  1.0
  H  H19  1  0.70725000  0.86247000  0.73938000  1.0
  H  H20  1  0.29271000  0.13752000  0.26063000  1.0
  C  C21  1  0.76636000  0.57903000  0.65204000  1.0
  C  C22  1  0.23365000  0.42098000  0.34796000  1.0
  C  C23  1  0.61038000  0.44125000  0.73925000  1.0
  C  C24  1  0.38965000  0.55874000  0.26077000  1.0
  C  C25  1  0.55258000  0.46977000  0.87426000  1.0
  C  C26  1  0.44748000  0.53023000  0.12576000  1.0
  C  C27  1  0.31356000  0.54814000  0.92142000  1.0
  C  C28  1  0.68648000  0.45187000  0.07861000  1.0
  C  C29  1  0.26192000  0.57640000  0.04540000  1.0
  C  C30  1  0.73814000  0.42360000  0.95462000  1.0
  C  C31  1  0.17420000  0.07145000  0.70432000  1.0
  C  C32  1  0.82578000  0.92853000  0.29567000  1.0
  C  C33  1  0.17480000  0.07589000  0.83084000  1.0
  C  C34  1  0.82515000  0.92413000  0.16915000  1.0
  C  C35  1  0.00113000  0.99941000  0.93209000  1.0
  C  C36  1  0.99884000  0.00061000  0.06790000  1.0
  C  C37  1  0.82855000  0.92228000  0.89751000  1.0
  C  C38  1  0.17140000  0.07774000  0.10248000  1.0
  C  C39  1  0.83734000  0.92180000  0.76943000  1.0
  C  C40  1  0.16263000  0.07820000  0.23057000  1.0
  N  N41  1  0.00874000  0.99427000  0.67420000  1.0
  N  N42  1  0.99125000  0.00572000  0.32580000  1.0
  O  O43  1  0.65473000  0.73218000  0.59282000  1.0
  O  O44  1  0.34525000  0.26781000  0.40718000  1.0
  O  O45  1  0.00090000  0.53568000  0.65060000  1.0
  O  O46  1  0.99911000  0.46432000  0.34939000  1.0
  O  O47  1  0.76510000  0.22025000  0.48982000  1.0
  O  O48  1  0.23490000  0.77973000  0.51017000  1.0
