# generated using pymatgen
data_MnH28C24(N2O)4
_symmetry_space_group_name_H-M   'P 1'
_cell_length_a   8.48457000
_cell_length_b   9.19729000
_cell_length_c   9.55775000
_cell_angle_alpha   71.78690000
_cell_angle_beta   64.79160000
_cell_angle_gamma   79.56020000
_symmetry_Int_Tables_number   1
_chemical_formula_structural   MnH28C24(N2O)4
_chemical_formula_sum   'Mn1 H28 C24 N8 O4'
_cell_volume   639.99770709
_cell_formula_units_Z   1
loop_
 _symmetry_equiv_pos_site_id
 _symmetry_equiv_pos_as_xyz
  1  'x, y, z'
loop_
 _atom_site_type_symbol
 _atom_site_label
 _atom_site_symmetry_multiplicity
 _atom_site_fract_x
 _atom_site_fract_y
 _atom_site_fract_z
 _atom_site_occupancy
  Mn  Mn0  1  0.00000000  0.00000000  0.00000000  1.0
  H  H1  1  0.60628000  0.94024000  0.10098000  1.0
  H  H2  1  0.39372000  0.05977000  0.89902000  1.0
  H  H3  1  0.91126000  0.79125000  0.36049000  1.0
  H  H4  1  0.08874000  0.20875000  0.63952000  1.0
  H  H5  1  0.39892000  0.78351000  0.36691000  1.0
  H  H6  1  0.60108000  0.21650000  0.63309000  1.0
  H  H7  1  0.67723000  0.62184000  0.64814000  1.0
  H  H8  1  0.32277000  0.37816000  0.35186000  1.0
  H  H9  1  0.51489000  0.54574000  0.62539000  1.0
  H  H10  1  0.48510000  0.45426000  0.37460000  1.0
  H  H11  1  0.46823000  0.71601000  0.68802000  1.0
  H  H12  1  0.53176000  0.28400000  0.31198000  1.0
  H  H13  1  0.76313000  0.02126000  0.81795000  1.0
  H  H14  1  0.23687000  0.97873000  0.18205000  1.0
  H  H15  1  0.17738000  0.71828000  0.82671000  1.0
  H  H16  1  0.82262000  0.28172000  0.17330000  1.0
  H  H17  1  0.80491000  0.88350000  0.60365000  1.0
  H  H18  1  0.19510000  0.11649000  0.39635000  1.0
  H  H19  1  0.20249000  0.55951000  0.61585000  1.0
  H  H20  1  0.79752000  0.44049000  0.38415000  1.0
  H  H21  1  0.13470000  0.67084000  0.46032000  1.0
  H  H22  1  0.86531000  0.32916000  0.53968000  1.0
  H  H23  1  0.99188000  0.54295000  0.63013000  1.0
  H  H24  1  0.00812000  0.45705000  0.36988000  1.0
  H  H25  1  0.18577000  0.53349000  0.04517000  1.0
  H  H26  1  0.81423000  0.46651000  0.95483000  1.0
  H  H27  1  0.64393000  0.70808000  0.00747000  1.0
  H  H28  1  0.35607000  0.29192000  0.99253000  1.0
  C  C29  1  0.79457000  0.80559000  0.33669000  1.0
  C  C30  1  0.20542000  0.19441000  0.66331000  1.0
  C  C31  1  0.62924000  0.74688000  0.43715000  1.0
  C  C32  1  0.37075000  0.25312000  0.56285000  1.0
  C  C33  1  0.53226000  0.79965000  0.34264000  1.0
  C  C34  1  0.46773000  0.20035000  0.65736000  1.0
  C  C35  1  0.56979000  0.65285000  0.60739000  1.0
  C  C36  1  0.43020000  0.34715000  0.39261000  1.0
  C  C37  1  0.07597000  0.77728000  0.78582000  1.0
  C  C38  1  0.92403000  0.22273000  0.21418000  1.0
  C  C39  1  0.02230000  0.74927000  0.67619000  1.0
  C  C40  1  0.97771000  0.25073000  0.32381000  1.0
  C  C41  1  0.88718000  0.85955000  0.67028000  1.0
  C  C42  1  0.11283000  0.14044000  0.32972000  1.0
  C  C43  1  0.09133000  0.62522000  0.59119000  1.0
  C  C44  1  0.90867000  0.37478000  0.40881000  1.0
  C  C45  1  0.30875000  0.78565000  0.05153000  1.0
  C  C46  1  0.69125000  0.21435000  0.94847000  1.0
  C  C47  1  0.40422000  0.63689000  0.02875000  1.0
  C  C48  1  0.59578000  0.36311000  0.97124000  1.0
  C  C49  1  0.32359000  0.51855000  0.02460000  1.0
  C  C50  1  0.67641000  0.48144000  0.97539000  1.0
  C  C51  1  0.58161000  0.61632000  0.00447000  1.0
  C  C52  1  0.41838000  0.38368000  0.99553000  1.0
  N  N53  1  0.79836000  0.88897000  0.19156000  1.0
  N  N54  1  0.20164000  0.11103000  0.80844000  1.0
  N  N55  1  0.63730000  0.88297000  0.19797000  1.0
  N  N56  1  0.36270000  0.11703000  0.80202000  1.0
  N  N57  1  0.97995000  0.89554000  0.84322000  1.0
  N  N58  1  0.02006000  0.10446000  0.15678000  1.0
  N  N59  1  0.86689000  0.94470000  0.76997000  1.0
  N  N60  1  0.13312000  0.05530000  0.23003000  1.0
  O  O61  1  0.15887000  0.81217000  0.04266000  1.0
  O  O62  1  0.84113000  0.18782000  0.95734000  1.0
  O  O63  1  0.38250000  0.88047000  0.07463000  1.0
  O  O64  1  0.61750000  0.11953000  0.92537000  1.0
