# generated using pymatgen
data_VCuAsH3C4(NO3)2
_symmetry_space_group_name_H-M   'P 1'
_cell_length_a   7.86961000
_cell_length_b   10.33080000
_cell_length_c   11.76820000
_cell_angle_alpha   99.39170000
_cell_angle_beta   90.01670000
_cell_angle_gamma   112.38100000
_symmetry_Int_Tables_number   1
_chemical_formula_structural   VCuAsH3C4(NO3)2
_chemical_formula_sum   'V4 Cu4 As4 H12 C16 N8 O24'
_cell_volume   870.77344638
_cell_formula_units_Z   4
loop_
 _symmetry_equiv_pos_site_id
 _symmetry_equiv_pos_as_xyz
  1  'x, y, z'
loop_
 _atom_site_type_symbol
 _atom_site_label
 _atom_site_symmetry_multiplicity
 _atom_site_fract_x
 _atom_site_fract_y
 _atom_site_fract_z
 _atom_site_occupancy
  V  V0  1  0.65719000  0.66642000  0.23727000  1.0
  V  V1  1  0.99101000  0.33349000  0.26295000  1.0
  V  V2  1  0.34281000  0.33357000  0.76273000  1.0
  V  V3  1  0.00900000  0.66652000  0.73705000  1.0
  Cu  Cu4  1  0.25901000  0.25167000  0.46017000  1.0
  Cu  Cu5  1  0.00702000  0.74829000  0.03986000  1.0
  Cu  Cu6  1  0.74099000  0.74833000  0.53983000  1.0
  Cu  Cu7  1  0.99297000  0.25171000  0.96014000  1.0
  As  As8  1  0.67267000  0.43106000  0.39250000  1.0
  As  As9  1  0.24134000  0.56877000  0.10762000  1.0
  As  As10  1  0.32733000  0.56893000  0.60750000  1.0
  As  As11  1  0.75866000  0.43124000  0.89238000  1.0
  H  H12  1  0.54116000  0.95367000  0.63178000  1.0
  H  H13  1  0.58757000  0.04696000  0.86863000  1.0
  H  H14  1  0.45885000  0.04633000  0.36823000  1.0
  H  H15  1  0.41243000  0.95303000  0.13137000  1.0
  H  H16  1  0.63363000  0.22164000  0.64063000  1.0
  H  H17  1  0.41162000  0.77897000  0.85963000  1.0
  H  H18  1  0.36639000  0.77836000  0.35937000  1.0
  H  H19  1  0.58837000  0.22103000  0.14037000  1.0
  H  H20  1  0.95099000  0.35947000  0.57946000  1.0
  H  H21  1  0.59096000  0.64080000  0.92066000  1.0
  H  H22  1  0.04901000  0.64053000  0.42054000  1.0
  H  H23  1  0.40903000  0.35921000  0.07934000  1.0
  C  C24  1  0.94334000  0.03701000  0.52581000  1.0
  C  C25  1  0.90628000  0.96308000  0.97426000  1.0
  C  C26  1  0.05666000  0.96299000  0.47419000  1.0
  C  C27  1  0.09371000  0.03692000  0.02574000  1.0
  C  C28  1  0.67215000  0.02281000  0.60459000  1.0
  C  C29  1  0.64926000  0.97765000  0.89574000  1.0
  C  C30  1  0.32786000  0.97719000  0.39541000  1.0
  C  C31  1  0.35074000  0.02235000  0.10426000  1.0
  C  C32  1  0.72586000  0.16874000  0.61095000  1.0
  C  C33  1  0.55682000  0.83173000  0.88930000  1.0
  C  C34  1  0.27416000  0.83127000  0.38906000  1.0
  C  C35  1  0.44317000  0.16827000  0.11070000  1.0
  C  C36  1  0.89909000  0.24490000  0.57498000  1.0
  C  C37  1  0.65380000  0.75538000  0.92519000  1.0
  C  C38  1  0.10092000  0.75511000  0.42502000  1.0
  C  C39  1  0.34619000  0.24462000  0.07481000  1.0
  N  N40  1  0.00727000  0.17791000  0.53148000  1.0
  N  N41  1  0.82907000  0.82219000  0.96861000  1.0
  N  N42  1  0.99274000  0.82209000  0.46852000  1.0
  N  N43  1  0.17092000  0.17781000  0.03139000  1.0
  N  N44  1  0.78322000  0.95770000  0.56239000  1.0
  N  N45  1  0.82558000  0.04255000  0.93775000  1.0
  N  N46  1  0.21678000  0.04230000  0.43762000  1.0
  N  N47  1  0.17441000  0.95746000  0.06224000  1.0
  O  O48  1  0.48407000  0.27741000  0.38057000  1.0
  O  O49  1  0.20629000  0.72239000  0.11950000  1.0
  O  O50  1  0.51594000  0.72258000  0.61945000  1.0
  O  O51  1  0.79372000  0.27762000  0.88050000  1.0
  O  O52  1  0.71462000  0.54972000  0.51758000  1.0
  O  O53  1  0.16480000  0.45025000  0.98246000  1.0
  O  O54  1  0.28539000  0.45028000  0.48241000  1.0
  O  O55  1  0.83519000  0.54975000  0.01754000  1.0
  O  O56  1  0.68332000  0.50466000  0.26773000  1.0
  O  O57  1  0.17870000  0.49528000  0.23244000  1.0
  O  O58  1  0.31665000  0.49533000  0.73226000  1.0
  O  O59  1  0.82130000  0.50473000  0.76756000  1.0
  O  O60  1  0.86107000  0.37915000  0.38339000  1.0
  O  O61  1  0.48166000  0.62073000  0.11672000  1.0
  O  O62  1  0.13893000  0.62084000  0.61660000  1.0
  O  O63  1  0.51834000  0.37927000  0.88328000  1.0
  O  O64  1  0.07316000  0.21797000  0.29386000  1.0
  O  O65  1  0.85470000  0.78203000  0.20630000  1.0
  O  O66  1  0.92684000  0.78204000  0.70614000  1.0
  O  O67  1  0.14531000  0.21796000  0.79370000  1.0
  O  O68  1  0.40431000  0.26115000  0.64362000  1.0
  O  O69  1  0.14279000  0.73891000  0.85622000  1.0
  O  O70  1  0.59568000  0.73883000  0.35638000  1.0
  O  O71  1  0.85721000  0.26109000  0.14378000  1.0
