# generated using pymatgen
data_MnH8(C2N)8
_symmetry_space_group_name_H-M   'P 1'
_cell_length_a   9.86046000
_cell_length_b   10.84030000
_cell_length_c   14.45880000
_cell_angle_alpha   89.96840000
_cell_angle_beta   81.69140000
_cell_angle_gamma   89.99380000
_symmetry_Int_Tables_number   1
_chemical_formula_structural   MnH8(C2N)8
_chemical_formula_sum   'Mn4 H32 C64 N32'
_cell_volume   1529.28441868
_cell_formula_units_Z   4
loop_
 _symmetry_equiv_pos_site_id
 _symmetry_equiv_pos_as_xyz
  1  'x, y, z'
loop_
 _atom_site_type_symbol
 _atom_site_label
 _atom_site_symmetry_multiplicity
 _atom_site_fract_x
 _atom_site_fract_y
 _atom_site_fract_z
 _atom_site_occupancy
  Mn  Mn0  1  0.15158000  0.58722000  0.76339000  1.0
  Mn  Mn1  1  0.84870000  0.08737000  0.73700000  1.0
  Mn  Mn2  1  0.84871000  0.41268000  0.23689000  1.0
  Mn  Mn3  1  0.15156000  0.91273000  0.26326000  1.0
  H  H4  1  0.12121000  0.28922000  0.74207000  1.0
  H  H5  1  0.87877000  0.78927000  0.75788000  1.0
  H  H6  1  0.87882000  0.71075000  0.25786000  1.0
  H  H7  1  0.12123000  0.21078000  0.24203000  1.0
  H  H8  1  0.26753000  0.11107000  0.67875000  1.0
  H  H9  1  0.73250000  0.61110000  0.82124000  1.0
  H  H10  1  0.73254000  0.88888000  0.32119000  1.0
  H  H11  1  0.26756000  0.38897000  0.17870000  1.0
  H  H12  1  0.50715000  0.15230000  0.59851000  1.0
  H  H13  1  0.49287000  0.65227000  0.90152000  1.0
  H  H14  1  0.49294000  0.84767000  0.40148000  1.0
  H  H15  1  0.50720000  0.34778000  0.09847000  1.0
  H  H16  1  0.68962000  0.30869000  0.54281000  1.0
  H  H17  1  0.31036000  0.80865000  0.95716000  1.0
  H  H18  1  0.31041000  0.69126000  0.45713000  1.0
  H  H19  1  0.68966000  0.19140000  0.04277000  1.0
  H  H20  1  0.76711000  0.52706000  0.53297000  1.0
  H  H21  1  0.23288000  0.02700000  0.96696000  1.0
  H  H22  1  0.23292000  0.47291000  0.46696000  1.0
  H  H23  1  0.76713000  0.97304000  0.03297000  1.0
  H  H24  1  0.71689000  0.75182000  0.56915000  1.0
  H  H25  1  0.28314000  0.25183000  0.93078000  1.0
  H  H26  1  0.28317000  0.24813000  0.43081000  1.0
  H  H27  1  0.71690000  0.74823000  0.06918000  1.0
  H  H28  1  0.54980000  0.91086000  0.63803000  1.0
  H  H29  1  0.45026000  0.41090000  0.86193000  1.0
  H  H30  1  0.45031000  0.08910000  0.36194000  1.0
  H  H31  1  0.54980000  0.58915000  0.13804000  1.0
  H  H32  1  0.31648000  0.84242000  0.71697000  1.0
  H  H33  1  0.68366000  0.34251000  0.78310000  1.0
  H  H34  1  0.68363000  0.15757000  0.28303000  1.0
  H  H35  1  0.31640000  0.65753000  0.21686000  1.0
  C  C36  1  0.22516000  0.30390000  0.70639000  1.0
  C  C37  1  0.77483000  0.80395000  0.79357000  1.0
  C  C38  1  0.77488000  0.69605000  0.29354000  1.0
  C  C39  1  0.22519000  0.19611000  0.20635000  1.0
  C  C40  1  0.30808000  0.20437000  0.67047000  1.0
  C  C41  1  0.69193000  0.70440000  0.82952000  1.0
  C  C42  1  0.69198000  0.79557000  0.32947000  1.0
  C  C43  1  0.30812000  0.29567000  0.17042000  1.0
  C  C44  1  0.43930000  0.22719000  0.62594000  1.0
  C  C45  1  0.56071000  0.72718000  0.87406000  1.0
  C  C46  1  0.56076000  0.77277000  0.37402000  1.0
  C  C47  1  0.43935000  0.27287000  0.12590000  1.0
  C  C48  1  0.48812000  0.34991000  0.61800000  1.0
  C  C49  1  0.51189000  0.84990000  0.88198000  1.0
  C  C50  1  0.51193000  0.65006000  0.38195000  1.0
  C  C51  1  0.48814000  0.15015000  0.11797000  1.0
  C  C52  1  0.62241000  0.38239000  0.57319000  1.0
  C  C53  1  0.37759000  0.88237000  0.92678000  1.0
  C  C54  1  0.37763000  0.61757000  0.42676000  1.0
  C  C55  1  0.62244000  0.11768000  0.07316000  1.0
  C  C56  1  0.66521000  0.50248000  0.56801000  1.0
  C  C57  1  0.33479000  0.00245000  0.93194000  1.0
  C  C58  1  0.33483000  0.49748000  0.43193000  1.0
  C  C59  1  0.66523000  0.99759000  0.06800000  1.0
  C  C60  1  0.57665000  0.59972000  0.60715000  1.0
  C  C61  1  0.42338000  0.09973000  0.89282000  1.0
  C  C62  1  0.42341000  0.40024000  0.39280000  1.0
  C  C63  1  0.57664000  0.90033000  0.10713000  1.0
  C  C64  1  0.61457000  0.72560000  0.60253000  1.0
  C  C65  1  0.38546000  0.22561000  0.89742000  1.0
  C  C66  1  0.38549000  0.27436000  0.39742000  1.0
  C  C67  1  0.61457000  0.77444000  0.10254000  1.0
  C  C68  1  0.52145000  0.81374000  0.64033000  1.0
  C  C69  1  0.47862000  0.31378000  0.85965000  1.0
  C  C70  1  0.47863000  0.18623000  0.35964000  1.0
  C  C71  1  0.52142000  0.68627000  0.14031000  1.0
  C  C72  1  0.39161000  0.77602000  0.68426000  1.0
  C  C73  1  0.60849000  0.27609000  0.81579000  1.0
  C  C74  1  0.60848000  0.22395000  0.31572000  1.0
  C  C75  1  0.39156000  0.72396000  0.18418000  1.0
  C  C76  1  0.44250000  0.57079000  0.65176000  1.0
  C  C77  1  0.55755000  0.07083000  0.84825000  1.0
  C  C78  1  0.55755000  0.42918000  0.34820000  1.0
  C  C79  1  0.44249000  0.92922000  0.15171000  1.0
  C  C80  1  0.39735000  0.44425000  0.65682000  1.0
  C  C81  1  0.60267000  0.94428000  0.84316000  1.0
  C  C82  1  0.60270000  0.55571000  0.34312000  1.0
  C  C83  1  0.39736000  0.05577000  0.15679000  1.0
  C  C84  1  0.02471000  0.64765000  0.56830000  1.0
  C  C85  1  0.97514000  0.14791000  0.93189000  1.0
  C  C86  1  0.97513000  0.35205000  0.43181000  1.0
  C  C87  1  0.02461000  0.85235000  0.06821000  1.0
  C  C88  1  0.04293000  0.70693000  0.41305000  1.0
  C  C89  1  0.95651000  0.20731000  0.08716000  1.0
  C  C90  1  0.95671000  0.29270000  0.58712000  1.0
  C  C91  1  0.04300000  0.79302000  0.91303000  1.0
  C  C92  1  0.23561000  0.55540000  0.96787000  1.0
  C  C93  1  0.76426000  0.05537000  0.53202000  1.0
  C  C94  1  0.76442000  0.44458000  0.03215000  1.0
  C  C95  1  0.23576000  0.94464000  0.46800000  1.0
  C  C96  1  0.10414000  0.54675000  0.11323000  1.0
  C  C97  1  0.89571000  0.04672000  0.38663000  1.0
  C  C98  1  0.89591000  0.45303000  0.88679000  1.0
  C  C99  1  0.10429000  0.95346000  0.61336000  1.0
  N  N100  1  0.26814000  0.42028000  0.69923000  1.0
  N  N101  1  0.73188000  0.92034000  0.80074000  1.0
  N  N102  1  0.73191000  0.57967000  0.30072000  1.0
  N  N103  1  0.26815000  0.07973000  0.19921000  1.0
  N  N104  1  0.35313000  0.65839000  0.69008000  1.0
  N  N105  1  0.64696000  0.15845000  0.80999000  1.0
  N  N106  1  0.64694000  0.34159000  0.30990000  1.0
  N  N107  1  0.35308000  0.84160000  0.18998000  1.0
  N  N108  1  0.05405000  0.62983000  0.64342000  1.0
  N  N109  1  0.94612000  0.12972000  0.85673000  1.0
  N  N110  1  0.94596000  0.37028000  0.35668000  1.0
  N  N111  1  0.05388000  0.87012000  0.14334000  1.0
  N  N112  1  0.97822000  0.66267000  0.48991000  1.0
  N  N113  1  0.02134000  0.16337000  0.01028000  1.0
  N  N114  1  0.02148000  0.33652000  0.51016000  1.0
  N  N115  1  0.97822000  0.83741000  0.98979000  1.0
  N  N116  1  0.09173000  0.74606000  0.33937000  1.0
  N  N117  1  0.90760000  0.24619000  0.16089000  1.0
  N  N118  1  0.90785000  0.25389000  0.66092000  1.0
  N  N119  1  0.09188000  0.75381000  0.83943000  1.0
  N  N120  1  0.26795000  0.54332000  0.88629000  1.0
  N  N121  1  0.73200000  0.04370000  0.61363000  1.0
  N  N122  1  0.73201000  0.45689000  0.11370000  1.0
  N  N123  1  0.26801000  0.95615000  0.38637000  1.0
  N  N124  1  0.21250000  0.57676000  0.05661000  1.0
  N  N125  1  0.78709000  0.07619000  0.44316000  1.0
  N  N126  1  0.78764000  0.42290000  0.94344000  1.0
  N  N127  1  0.21298000  0.92404000  0.55688000  1.0
  N  N128  1  0.01131000  0.52416000  0.17190000  1.0
  N  N129  1  0.98862000  0.02451000  0.32794000  1.0
  N  N130  1  0.98869000  0.47565000  0.82808000  1.0
  N  N131  1  0.01133000  0.97568000  0.67200000  1.0
