# generated using pymatgen
data_ZnH14C17NO4
_symmetry_space_group_name_H-M   'P 1'
_cell_length_a   9.61323000
_cell_length_b   15.38350000
_cell_length_c   15.38660000
_cell_angle_alpha   89.98920000
_cell_angle_beta   90.01070000
_cell_angle_gamma   89.99710000
_symmetry_Int_Tables_number   1
_chemical_formula_structural   ZnH14C17NO4
_chemical_formula_sum   'Zn2 H28 C34 N2 O8'
_cell_volume   2275.44916138
_cell_formula_units_Z   2
loop_
 _symmetry_equiv_pos_site_id
 _symmetry_equiv_pos_as_xyz
  1  'x, y, z'
loop_
 _atom_site_type_symbol
 _atom_site_label
 _atom_site_symmetry_multiplicity
 _atom_site_fract_x
 _atom_site_fract_y
 _atom_site_fract_z
 _atom_site_occupancy
  Zn  Zn0  1  0.64748000  0.00607000  0.99322000  1.0
  Zn  Zn1  1  0.35295000  0.00606000  0.99324000  1.0
  H  H2  1  0.71764000  0.97488000  0.71516000  1.0
  H  H3  1  0.71797000  0.97173000  0.55393000  1.0
  H  H4  1  0.71691000  0.03886000  0.27124000  1.0
  H  H5  1  0.71716000  0.04221000  0.43250000  1.0
  H  H6  1  0.71752000  0.28413000  0.02432000  1.0
  H  H7  1  0.71777000  0.44538000  0.02767000  1.0
  H  H8  1  0.71741000  0.72820000  0.96185000  1.0
  H  H9  1  0.71777000  0.56689000  0.95841000  1.0
  H  H10  1  0.28312000  0.03664000  0.71503000  1.0
  H  H11  1  0.28297000  0.04002000  0.55382000  1.0
  H  H12  1  0.28398000  0.97282000  0.27135000  1.0
  H  H13  1  0.28398000  0.96951000  0.43257000  1.0
  H  H14  1  0.28323000  0.72804000  0.02448000  1.0
  H  H15  1  0.28325000  0.56677000  0.02802000  1.0
  H  H16  1  0.28309000  0.28423000  0.96230000  1.0
  H  H17  1  0.28300000  0.44547000  0.95875000  1.0
  H  H18  1  0.87666000  0.87654000  0.03221000  1.0
  H  H19  1  0.87715000  0.89284000  0.91873000  1.0
  H  H20  1  0.87628000  0.10647000  0.08574000  1.0
  H  H21  1  0.87718000  0.00002000  0.12877000  1.0
  H  H22  1  0.87613000  0.03800000  0.86037000  1.0
  H  H23  1  0.87661000  0.12833000  0.93134000  1.0
  H  H24  1  0.12411000  0.12799000  0.93065000  1.0
  H  H25  1  0.12342000  0.03712000  0.86026000  1.0
  H  H26  1  0.12395000  0.89225000  0.91947000  1.0
  H  H27  1  0.12311000  0.87693000  0.03305000  1.0
  H  H28  1  0.12390000  0.00091000  0.12885000  1.0
  H  H29  1  0.12361000  0.10703000  0.08517000  1.0
  C  C30  1  0.50033000  0.00556000  0.82253000  1.0
  C  C31  1  0.50037000  0.00573000  0.72524000  1.0
  C  C32  1  0.50049000  0.00591000  0.54120000  1.0
  C  C33  1  0.50032000  0.00557000  0.16389000  1.0
  C  C34  1  0.50050000  0.00572000  0.26118000  1.0
  C  C35  1  0.50057000  0.00585000  0.44521000  1.0
  C  C36  1  0.50026000  0.17672000  0.99335000  1.0
  C  C37  1  0.50029000  0.27405000  0.99329000  1.0
  C  C38  1  0.50042000  0.45814000  0.99320000  1.0
  C  C39  1  0.50018000  0.83548000  0.99325000  1.0
  C  C40  1  0.50029000  0.73818000  0.99312000  1.0
  C  C41  1  0.50050000  0.55414000  0.99317000  1.0
  C  C42  1  0.91987000  0.91710000  0.98022000  1.0
  C  C43  1  0.91979000  0.04111000  0.07703000  1.0
  C  C44  1  0.91958000  0.06303000  0.92131000  1.0
  C  C45  1  0.08061000  0.06276000  0.92112000  1.0
  C  C46  1  0.08055000  0.91706000  0.98053000  1.0
  C  C47  1  0.08069000  0.04147000  0.07690000  1.0
  C  C48  1  0.62278000  0.98867000  0.67892000  1.0
  C  C49  1  0.62251000  0.98796000  0.58855000  1.0
  C  C50  1  0.62246000  0.02415000  0.30752000  1.0
  C  C51  1  0.62213000  0.02500000  0.39789000  1.0
  C  C52  1  0.62266000  0.32038000  0.01053000  1.0
  C  C53  1  0.62235000  0.41077000  0.01130000  1.0
  C  C54  1  0.62265000  0.69187000  0.97571000  1.0
  C  C55  1  0.62240000  0.60148000  0.97489000  1.0
  C  C56  1  0.37805000  0.02296000  0.67885000  1.0
  C  C57  1  0.37844000  0.02382000  0.58847000  1.0
  C  C58  1  0.37857000  0.98744000  0.30755000  1.0
  C  C59  1  0.37900000  0.98668000  0.39792000  1.0
  C  C60  1  0.37804000  0.69180000  0.01057000  1.0
  C  C61  1  0.37854000  0.60141000  0.01146000  1.0
  C  C62  1  0.37799000  0.32045000  0.97602000  1.0
  C  C63  1  0.37840000  0.41084000  0.97513000  1.0
  N  N64  1  0.86634000  0.00698000  0.99288000  1.0
  N  N65  1  0.13404000  0.00701000  0.99288000  1.0
  O  O66  1  0.61818000  0.87321000  0.99259000  1.0
  O  O67  1  0.38214000  0.87316000  0.99403000  1.0
  O  O68  1  0.38226000  0.00455000  0.12621000  1.0
  O  O69  1  0.38227000  0.00641000  0.86026000  1.0
  O  O70  1  0.38216000  0.13898000  0.99275000  1.0
  O  O71  1  0.61828000  0.00662000  0.12612000  1.0
  O  O72  1  0.61842000  0.00468000  0.86026000  1.0
  O  O73  1  0.61839000  0.13898000  0.99398000  1.0
