# generated using pymatgen
data_Zn2H29C40S2N3O10
_symmetry_space_group_name_H-M   'P 1'
_cell_length_a   12.75510000
_cell_length_b   16.38690000
_cell_length_c   17.60770000
_cell_angle_alpha   96.07590000
_cell_angle_beta   90.05790000
_cell_angle_gamma   94.04830000
_symmetry_Int_Tables_number   1
_chemical_formula_structural   Zn2H29C40S2N3O10
_chemical_formula_sum   'Zn2 H29 C40 S2 N3 O10'
_cell_volume   3650.36211464
_cell_formula_units_Z   1
loop_
 _symmetry_equiv_pos_site_id
 _symmetry_equiv_pos_as_xyz
  1  'x, y, z'
loop_
 _atom_site_type_symbol
 _atom_site_label
 _atom_site_symmetry_multiplicity
 _atom_site_fract_x
 _atom_site_fract_y
 _atom_site_fract_z
 _atom_site_occupancy
  Zn  Zn0  1  0.49165000  0.40975000  0.49555000  1.0
  Zn  Zn1  1  0.51034000  0.58735000  0.49867000  1.0
  H  H2  1  0.39384000  0.70895000  0.44024000  1.0
  H  H3  1  0.38797000  0.86005000  0.44222000  1.0
  H  H4  1  0.66727000  0.88483000  0.58475000  1.0
  H  H5  1  0.34537000  0.10975000  0.40805000  1.0
  H  H6  1  0.60488000  0.14152000  0.56934000  1.0
  H  H7  1  0.60038000  0.29193000  0.56442000  1.0
  H  H8  1  0.59879000  0.00708000  0.55541000  1.0
  H  H9  1  0.40576000  0.99077000  0.44811000  1.0
  H  H10  1  0.46318000  0.60751000  0.26411000  1.0
  H  H11  1  0.46464000  0.60659000  0.12340000  1.0
  H  H12  1  0.54540000  0.35441000  0.10462000  1.0
  H  H13  1  0.45296000  0.64821000  0.88633000  1.0
  H  H14  1  0.52766000  0.39464000  0.87413000  1.0
  H  H15  1  0.52790000  0.38886000  0.73318000  1.0
  H  H16  1  0.52747000  0.41216000  0.99313000  1.0
  H  H17  1  0.46942000  0.59199000  0.00085000  1.0
  H  H18  1  0.86442000  0.61696000  0.46678000  1.0
  H  H19  1  0.73030000  0.68276000  0.54507000  1.0
  H  H20  1  0.64888000  0.67733000  0.62457000  1.0
  H  H21  1  0.73998000  0.76546000  0.62072000  1.0
  H  H22  1  0.30117000  0.22953000  0.34761000  1.0
  H  H23  1  0.35961000  0.32999000  0.37942000  1.0
  H  H24  1  0.25720000  0.28530000  0.43230000  1.0
  H  H25  1  0.48471000  0.30462000  0.28111000  1.0
  H  H26  1  0.61669000  0.34158000  0.29209000  1.0
  H  H27  1  0.57282000  0.28579000  0.20353000  1.0
  H  H28  1  0.41692000  0.71055000  0.78139000  1.0
  H  H29  1  0.39020000  0.65212000  0.69097000  1.0
  H  H30  1  0.51819000  0.69489000  0.71283000  1.0
  C  C31  1  0.49770000  0.49037000  0.34987000  1.0
  C  C32  1  0.29767000  0.51089000  0.50583000  1.0
  C  C33  1  0.50037000  0.50479000  0.64463000  1.0
  C  C34  1  0.70459000  0.49158000  0.49455000  1.0
  C  C35  1  0.45332000  0.75082000  0.47114000  1.0
  C  C36  1  0.45072000  0.83526000  0.47273000  1.0
  C  C37  1  0.52877000  0.88669000  0.51416000  1.0
  C  C38  1  0.60520000  0.84778000  0.55174000  1.0
  C  C39  1  0.60404000  0.76208000  0.54787000  1.0
  C  C40  1  0.53450000  0.97632000  0.51967000  1.0
  C  C41  1  0.46924000  0.02199000  0.48435000  1.0
  C  C42  1  0.40334000  0.14821000  0.44382000  1.0
  C  C43  1  0.47439000  0.11145000  0.48807000  1.0
  C  C44  1  0.54699000  0.16464000  0.53310000  1.0
  C  C45  1  0.54487000  0.24867000  0.53106000  1.0
  C  C46  1  0.40470000  0.23363000  0.44420000  1.0
  C  C47  1  0.50177000  0.48256000  0.26446000  1.0
  C  C48  1  0.48063000  0.55211000  0.22790000  1.0
  C  C49  1  0.48173000  0.55130000  0.14919000  1.0
  C  C50  1  0.50493000  0.47935000  0.10291000  1.0
  C  C51  1  0.52671000  0.41041000  0.13993000  1.0
  C  C52  1  0.52595000  0.40951000  0.21931000  1.0
  C  C53  1  0.50776000  0.47240000  0.01991000  1.0
  C  C54  1  0.48885000  0.53152000  0.97447000  1.0
  C  C55  1  0.47135000  0.59120000  0.85250000  1.0
  C  C56  1  0.49167000  0.52313000  0.89136000  1.0
  C  C57  1  0.51274000  0.44946000  0.84688000  1.0
  C  C58  1  0.51346000  0.44592000  0.76800000  1.0
  C  C59  1  0.49541000  0.51492000  0.72989000  1.0
  C  C60  1  0.47300000  0.58948000  0.77287000  1.0
  C  C61  1  0.10906000  0.44281000  0.52595000  1.0
  C  C62  1  0.89032000  0.55961000  0.48350000  1.0
  C  C63  1  0.18081000  0.50724000  0.51172000  1.0
  C  C64  1  0.82082000  0.49448000  0.49747000  1.0
  C  C65  1  0.99526000  0.53986000  0.49309000  1.0
  C  C66  1  0.00328000  0.46002000  0.51405000  1.0
  C  C67  1  0.68593000  0.72054000  0.58724000  1.0
  C  C68  1  0.32689000  0.27174000  0.39775000  1.0
  C  C69  1  0.55167000  0.33108000  0.25054000  1.0
  C  C70  1  0.44792000  0.66585000  0.73771000  1.0
  S  S71  1  0.11790000  0.59044000  0.48645000  1.0
  S  S72  1  0.88216000  0.40880000  0.52112000  1.0
  N  N73  1  0.52773000  0.71450000  0.50744000  1.0
  N  N74  1  0.47591000  0.28294000  0.48778000  1.0
  N  N75  1  0.13495000  0.36600000  0.55280000  1.0
  O  O76  1  0.51065000  0.42614000  0.38298000  1.0
  O  O77  1  0.48129000  0.56090000  0.38441000  1.0
  O  O78  1  0.34516000  0.58215000  0.51643000  1.0
  O  O79  1  0.33758000  0.44314000  0.48772000  1.0
  O  O80  1  0.52424000  0.56895000  0.61107000  1.0
  O  O81  1  0.48178000  0.43241000  0.61123000  1.0
  O  O82  1  0.65535000  0.42452000  0.50863000  1.0
  O  O83  1  0.66461000  0.55686000  0.47873000  1.0
  O  O84  1  0.07176000  0.30525000  0.53385000  1.0
  O  O85  1  0.21401000  0.36493000  0.59320000  1.0
