# generated using pymatgen
data_AgH9C6BrN2
_symmetry_space_group_name_H-M   'P 1'
_cell_length_a   4.57521000
_cell_length_b   9.49436000
_cell_length_c   17.87850000
_cell_angle_alpha   86.06240000
_cell_angle_beta   89.99990000
_cell_angle_gamma   89.99980000
_symmetry_Int_Tables_number   1
_chemical_formula_structural   AgH9C6BrN2
_chemical_formula_sum   'Ag4 H36 C24 Br4 N8'
_cell_volume   774.78537062
_cell_formula_units_Z   4
loop_
 _symmetry_equiv_pos_site_id
 _symmetry_equiv_pos_as_xyz
  1  'x, y, z'
loop_
 _atom_site_type_symbol
 _atom_site_label
 _atom_site_symmetry_multiplicity
 _atom_site_fract_x
 _atom_site_fract_y
 _atom_site_fract_z
 _atom_site_occupancy
  Ag  Ag0  1  0.08361000  0.69653000  0.30898000  1.0
  Ag  Ag1  1  0.58364000  0.80347000  0.19101000  1.0
  Ag  Ag2  1  0.91637000  0.30346000  0.69102000  1.0
  Ag  Ag3  1  0.41637000  0.19653000  0.80897000  1.0
  H  H4  1  0.60081000  0.45765000  0.25738000  1.0
  H  H5  1  0.10081000  0.04234000  0.24261000  1.0
  H  H6  1  0.39920000  0.54235000  0.74261000  1.0
  H  H7  1  0.89920000  0.95765000  0.75738000  1.0
  H  H8  1  0.36146000  0.51822000  0.43499000  1.0
  H  H9  1  0.86148000  0.98179000  0.06501000  1.0
  H  H10  1  0.63853000  0.48178000  0.56502000  1.0
  H  H11  1  0.13855000  0.01823000  0.93498000  1.0
  H  H12  1  0.47655000  0.33907000  0.44500000  1.0
  H  H13  1  0.97656000  0.16094000  0.05500000  1.0
  H  H14  1  0.52344000  0.66094000  0.55500000  1.0
  H  H15  1  0.02345000  0.83908000  0.94499000  1.0
  H  H16  1  0.19098000  0.39725000  0.50235000  1.0
  H  H17  1  0.69100000  0.10276000  0.99764000  1.0
  H  H18  1  0.80900000  0.60275000  0.49765000  1.0
  H  H19  1  0.30902000  0.89726000  0.00235000  1.0
  H  H20  1  0.65194000  0.16861000  0.29804000  1.0
  H  H21  1  0.15195000  0.33138000  0.20196000  1.0
  H  H22  1  0.34806000  0.83138000  0.70195000  1.0
  H  H23  1  0.84806000  0.66861000  0.79804000  1.0
  H  H24  1  0.70445000  0.06895000  0.47936000  1.0
  H  H25  1  0.20447000  0.43106000  0.02065000  1.0
  H  H26  1  0.29553000  0.93105000  0.52065000  1.0
  H  H27  1  0.79555000  0.56895000  0.97936000  1.0
  H  H28  1  0.99424000  0.15186000  0.52477000  1.0
  H  H29  1  0.49426000  0.34815000  0.97524000  1.0
  H  H30  1  0.00572000  0.84815000  0.47524000  1.0
  H  H31  1  0.50576000  0.65186000  0.02477000  1.0
  H  H32  1  0.31770000  0.12015000  0.41303000  1.0
  H  H33  1  0.81772000  0.37985000  0.08697000  1.0
  H  H34  1  0.68227000  0.87985000  0.58697000  1.0
  H  H35  1  0.18229000  0.62015000  0.91303000  1.0
  H  H36  1  0.03259000  0.03098000  0.36978000  1.0
  H  H37  1  0.53260000  0.46902000  0.13023000  1.0
  H  H38  1  0.96740000  0.96902000  0.63023000  1.0
  H  H39  1  0.46741000  0.53098000  0.86978000  1.0
  C  C40  1  0.06942000  0.37826000  0.38729000  1.0
  C  C41  1  0.56943000  0.12174000  0.11271000  1.0
  C  C42  1  0.93057000  0.62174000  0.61271000  1.0
  C  C43  1  0.43058000  0.87826000  0.88729000  1.0
  C  C44  1  0.73983000  0.40201000  0.29865000  1.0
  C  C45  1  0.23984000  0.09798000  0.20135000  1.0
  C  C46  1  0.26017000  0.59798000  0.70135000  1.0
  C  C47  1  0.76017000  0.90200000  0.79865000  1.0
  C  C48  1  0.28584000  0.40915000  0.44566000  1.0
  C  C49  1  0.78586000  0.09085000  0.05434000  1.0
  C  C50  1  0.71414000  0.59085000  0.55434000  1.0
  C  C51  1  0.21416000  0.90916000  0.94566000  1.0
  C  C52  1  0.76049000  0.26000000  0.31836000  1.0
  C  C53  1  0.26049000  0.23999000  0.18163000  1.0
  C  C54  1  0.23953000  0.74000000  0.68163000  1.0
  C  C55  1  0.73951000  0.76000000  0.81836000  1.0
  C  C56  1  0.94395000  0.07202000  0.48481000  1.0
  C  C57  1  0.44397000  0.42798000  0.01520000  1.0
  C  C58  1  0.05602000  0.92798000  0.51520000  1.0
  C  C59  1  0.55605000  0.57202000  0.98481000  1.0
  C  C60  1  0.07882000  0.11280000  0.40860000  1.0
  C  C61  1  0.57884000  0.38720000  0.09141000  1.0
  C  C62  1  0.92115000  0.88719000  0.59141000  1.0
  C  C63  1  0.42117000  0.61280000  0.90860000  1.0
  Br  Br64  1  0.05595000  0.67099000  0.15014000  1.0
  Br  Br65  1  0.55594000  0.82900000  0.34985000  1.0
  Br  Br66  1  0.94405000  0.32900000  0.84986000  1.0
  Br  Br67  1  0.44405000  0.17100000  0.65014000  1.0
  N  N68  1  0.97079000  0.24632000  0.37404000  1.0
  N  N69  1  0.47080000  0.25367000  0.12596000  1.0
  N  N70  1  0.02920000  0.75367000  0.62596000  1.0
  N  N71  1  0.52922000  0.74633000  0.87404000  1.0
  N  N72  1  0.93331000  0.47417000  0.34132000  1.0
  N  N73  1  0.43333000  0.02582000  0.15867000  1.0
  N  N74  1  0.06668000  0.52582000  0.65867000  1.0
  N  N75  1  0.56669000  0.97417000  0.84132000  1.0
