# generated using pymatgen
data_CdH5C5N2ClO3
_symmetry_space_group_name_H-M   'P 1'
_cell_length_a   6.02408000
_cell_length_b   9.99249000
_cell_length_c   12.97540000
_cell_angle_alpha   90.00050000
_cell_angle_beta   90.00020000
_cell_angle_gamma   87.27810000
_symmetry_Int_Tables_number   1
_chemical_formula_structural   CdH5C5N2ClO3
_chemical_formula_sum   'Cd4 H20 C20 N8 Cl4 O12'
_cell_volume   780.18026211
_cell_formula_units_Z   4
loop_
 _symmetry_equiv_pos_site_id
 _symmetry_equiv_pos_as_xyz
  1  'x, y, z'
loop_
 _atom_site_type_symbol
 _atom_site_label
 _atom_site_symmetry_multiplicity
 _atom_site_fract_x
 _atom_site_fract_y
 _atom_site_fract_z
 _atom_site_occupancy
  Cd  Cd0  1  0.39079000  0.68792000  0.50319000  1.0
  Cd  Cd1  1  0.60921000  0.81208000  0.00319000  1.0
  Cd  Cd2  1  0.60921000  0.31208000  0.49681000  1.0
  Cd  Cd3  1  0.39080000  0.18792000  0.99681000  1.0
  H  H4  1  0.98009000  0.15025000  0.65101000  1.0
  H  H5  1  0.01991000  0.34976000  0.15102000  1.0
  H  H6  1  0.01993000  0.84974000  0.34899000  1.0
  H  H7  1  0.98007000  0.65025000  0.84898000  1.0
  H  H8  1  0.05783000  0.91951000  0.72729000  1.0
  H  H9  1  0.94217000  0.58051000  0.22729000  1.0
  H  H10  1  0.94219000  0.08048000  0.27271000  1.0
  H  H11  1  0.05780000  0.41951000  0.77270000  1.0
  H  H12  1  0.81700000  0.73401000  0.66587000  1.0
  H  H13  1  0.18301000  0.76600000  0.16587000  1.0
  H  H14  1  0.18302000  0.26597000  0.33414000  1.0
  H  H15  1  0.81696000  0.23401000  0.83414000  1.0
  H  H16  1  0.53961000  0.56161000  0.31796000  1.0
  H  H17  1  0.46038000  0.93839000  0.81796000  1.0
  H  H18  1  0.46038000  0.43838000  0.68204000  1.0
  H  H19  1  0.53962000  0.06161000  0.18204000  1.0
  H  H20  1  0.55627000  0.71666000  0.29008000  1.0
  H  H21  1  0.44374000  0.78334000  0.79008000  1.0
  H  H22  1  0.44370000  0.28331000  0.70993000  1.0
  H  H23  1  0.55629000  0.21667000  0.20993000  1.0
  C  C24  1  0.59323000  0.98639000  0.53675000  1.0
  C  C25  1  0.40677000  0.51361000  0.03675000  1.0
  C  C26  1  0.40680000  0.01359000  0.46325000  1.0
  C  C27  1  0.59319000  0.48640000  0.96326000  1.0
  C  C28  1  0.88164000  0.06541000  0.63075000  1.0
  C  C29  1  0.11836000  0.43460000  0.13076000  1.0
  C  C30  1  0.11838000  0.93458000  0.36924000  1.0
  C  C31  1  0.88162000  0.56541000  0.86924000  1.0
  C  C32  1  0.92522000  0.93835000  0.67165000  1.0
  C  C33  1  0.07479000  0.56166000  0.17165000  1.0
  C  C34  1  0.07480000  0.06164000  0.32835000  1.0
  C  C35  1  0.92519000  0.43835000  0.82834000  1.0
  C  C36  1  0.79179000  0.83663000  0.63864000  1.0
  C  C37  1  0.20822000  0.66338000  0.13864000  1.0
  C  C38  1  0.20823000  0.16336000  0.36136000  1.0
  C  C39  1  0.79177000  0.33663000  0.86136000  1.0
  C  C40  1  0.91977000  0.56382000  0.49794000  1.0
  C  C41  1  0.08023000  0.93619000  0.99795000  1.0
  C  C42  1  0.08022000  0.43622000  0.50205000  1.0
  C  C43  1  0.91978000  0.06379000  0.00205000  1.0
  N  N44  1  0.62619000  0.86078000  0.57122000  1.0
  N  N45  1  0.37382000  0.63922000  0.07121000  1.0
  N  N46  1  0.37384000  0.13921000  0.42879000  1.0
  N  N47  1  0.62616000  0.36079000  0.92879000  1.0
  N  N48  1  0.71551000  0.08942000  0.56309000  1.0
  N  N49  1  0.28449000  0.41058000  0.06310000  1.0
  N  N50  1  0.28451000  0.91056000  0.43691000  1.0
  N  N51  1  0.71548000  0.58943000  0.93690000  1.0
  Cl  Cl52  1  0.30568000  0.63671000  0.69963000  1.0
  Cl  Cl53  1  0.69434000  0.86328000  0.19963000  1.0
  Cl  Cl54  1  0.69434000  0.36328000  0.30038000  1.0
  Cl  Cl55  1  0.30566000  0.13672000  0.80038000  1.0
  O  O56  1  0.99917000  0.67475000  0.47672000  1.0
  O  O57  1  0.00082000  0.82525000  0.97672000  1.0
  O  O58  1  0.00082000  0.32528000  0.52327000  1.0
  O  O59  1  0.99918000  0.17473000  0.02327000  1.0
  O  O60  1  0.71646000  0.54458000  0.51755000  1.0
  O  O61  1  0.28354000  0.95542000  0.01754000  1.0
  O  O62  1  0.28354000  0.45544000  0.48246000  1.0
  O  O63  1  0.71646000  0.04457000  0.98246000  1.0
  O  O64  1  0.46741000  0.65169000  0.32820000  1.0
  O  O65  1  0.53259000  0.84831000  0.82819000  1.0
  O  O66  1  0.53257000  0.34828000  0.67179000  1.0
  O  O67  1  0.46742000  0.15170000  0.17180000  1.0
