# generated using pymatgen
data_AgH7C7(NO2)2
_symmetry_space_group_name_H-M   'P 1'
_cell_length_a   7.75623000
_cell_length_b   10.47680000
_cell_length_c   12.31760000
_cell_angle_alpha   115.13500000
_cell_angle_beta   108.09900000
_cell_angle_gamma   90.00710000
_symmetry_Int_Tables_number   1
_chemical_formula_structural   AgH7C7(NO2)2
_chemical_formula_sum   'Ag4 H28 C28 N8 O16'
_cell_volume   851.11354824
_cell_formula_units_Z   4
loop_
 _symmetry_equiv_pos_site_id
 _symmetry_equiv_pos_as_xyz
  1  'x, y, z'
loop_
 _atom_site_type_symbol
 _atom_site_label
 _atom_site_symmetry_multiplicity
 _atom_site_fract_x
 _atom_site_fract_y
 _atom_site_fract_z
 _atom_site_occupancy
  Ag  Ag0  1  0.33563000  0.51548000  0.54371000  1.0
  Ag  Ag1  1  0.16445000  0.97212000  0.45640000  1.0
  Ag  Ag2  1  0.66437000  0.48452000  0.45629000  1.0
  Ag  Ag3  1  0.83555000  0.02788000  0.54360000  1.0
  H  H4  1  0.93000000  0.36271000  0.29409000  1.0
  H  H5  1  0.56964000  0.06825000  0.70589000  1.0
  H  H6  1  0.07000000  0.63729000  0.70592000  1.0
  H  H7  1  0.43036000  0.93175000  0.29411000  1.0
  H  H8  1  0.59753000  0.93241000  0.06604000  1.0
  H  H9  1  0.90249000  0.86600000  0.93390000  1.0
  H  H10  1  0.40247000  0.06760000  0.93396000  1.0
  H  H11  1  0.09751000  0.13400000  0.06610000  1.0
  H  H12  1  0.63204000  0.71080000  0.09089000  1.0
  H  H13  1  0.86811000  0.61929000  0.90899000  1.0
  H  H14  1  0.36796000  0.28919000  0.90910000  1.0
  H  H15  1  0.13189000  0.38071000  0.09101000  1.0
  H  H16  1  0.68307000  0.76150000  0.25479000  1.0
  H  H17  1  0.81683000  0.50630000  0.74505000  1.0
  H  H18  1  0.31693000  0.23850000  0.74521000  1.0
  H  H19  1  0.18318000  0.49370000  0.25495000  1.0
  H  H20  1  0.97055000  0.66861000  0.12221000  1.0
  H  H21  1  0.52941000  0.54609000  0.87771000  1.0
  H  H22  1  0.02945000  0.33139000  0.87779000  1.0
  H  H23  1  0.47059000  0.45391000  0.12229000  1.0
  H  H24  1  0.84130000  0.55715000  0.15572000  1.0
  H  H25  1  0.65854000  0.40108000  0.84427000  1.0
  H  H26  1  0.15870000  0.44285000  0.84428000  1.0
  H  H27  1  0.34146000  0.59892000  0.15572000  1.0
  H  H28  1  0.99983000  0.70686000  0.28232000  1.0
  H  H29  1  0.50015000  0.42430000  0.71762000  1.0
  H  H30  1  0.00017000  0.29314000  0.71768000  1.0
  H  H31  1  0.49985000  0.57570000  0.28238000  1.0
  C  C32  1  0.94483000  0.12933000  0.31259000  1.0
  C  C33  1  0.55503000  0.81640000  0.68740000  1.0
  C  C34  1  0.05517000  0.87066000  0.68741000  1.0
  C  C35  1  0.44497000  0.18360000  0.31260000  1.0
  C  C36  1  0.79877000  0.11702000  0.20630000  1.0
  C  C37  1  0.70105000  0.91032000  0.79367000  1.0
  C  C38  1  0.20123000  0.88298000  0.79370000  1.0
  C  C39  1  0.29895000  0.08968000  0.20633000  1.0
  C  C40  1  0.80258000  0.90847000  0.21455000  1.0
  C  C41  1  0.69751000  0.69353000  0.78542000  1.0
  C  C42  1  0.19742000  0.09153000  0.78545000  1.0
  C  C43  1  0.30249000  0.30647000  0.21458000  1.0
  C  C44  1  0.08693000  0.25204000  0.41316000  1.0
  C  C45  1  0.41289000  0.83856000  0.58676000  1.0
  C  C46  1  0.91307000  0.74796000  0.58684000  1.0
  C  C47  1  0.58711000  0.16144000  0.41324000  1.0
  C  C48  1  0.72661000  0.21742000  0.15476000  1.0
  C  C49  1  0.77312000  0.06223000  0.84519000  1.0
  C  C50  1  0.27339000  0.78258000  0.84524000  1.0
  C  C51  1  0.22688000  0.93777000  0.15481000  1.0
  C  C52  1  0.74351000  0.75827000  0.18377000  1.0
  C  C53  1  0.75657000  0.57404000  0.81613000  1.0
  C  C54  1  0.25649000  0.24173000  0.81622000  1.0
  C  C55  1  0.24343000  0.42596000  0.18387000  1.0
  C  C56  1  0.89826000  0.66749000  0.18561000  1.0
  C  C57  1  0.60171000  0.48154000  0.81434000  1.0
  C  C58  1  0.10174000  0.33251000  0.81439000  1.0
  C  C59  1  0.39829000  0.51846000  0.18565000  1.0
  N  N60  1  0.94470000  0.99926000  0.31496000  1.0
  N  N61  1  0.55534000  0.68395000  0.68502000  1.0
  N  N62  1  0.05530000  0.00074000  0.68504000  1.0
  N  N63  1  0.44466000  0.31605000  0.31498000  1.0
  N  N64  1  0.71357000  0.97750000  0.14763000  1.0
  N  N65  1  0.78641000  0.82944000  0.85233000  1.0
  N  N66  1  0.28643000  0.02250000  0.85237000  1.0
  N  N67  1  0.21358000  0.17056000  0.14767000  1.0
  O  O68  1  0.20564000  0.24011000  0.50221000  1.0
  O  O69  1  0.29435000  0.73761000  0.49766000  1.0
  O  O70  1  0.79436000  0.75989000  0.49779000  1.0
  O  O71  1  0.70565000  0.26239000  0.50234000  1.0
  O  O72  1  0.08236000  0.36957000  0.40037000  1.0
  O  O73  1  0.41737000  0.96889000  0.59962000  1.0
  O  O74  1  0.91764000  0.63043000  0.59963000  1.0
  O  O75  1  0.58263000  0.03111000  0.40038000  1.0
  O  O76  1  0.81509000  0.34907000  0.21450000  1.0
  O  O77  1  0.68454000  0.13417000  0.78548000  1.0
  O  O78  1  0.18491000  0.65093000  0.78550000  1.0
  O  O79  1  0.31546000  0.86583000  0.21452000  1.0
  O  O80  1  0.58590000  0.17969000  0.05914000  1.0
  O  O81  1  0.91387000  0.12003000  0.94076000  1.0
  O  O82  1  0.41410000  0.82031000  0.94086000  1.0
  O  O83  1  0.08613000  0.87997000  0.05924000  1.0
