# generated using pymatgen
data_Zn2H10C3(SN)2
_symmetry_space_group_name_H-M   'P 1'
_cell_length_a   6.13319000
_cell_length_b   6.28331000
_cell_length_c   10.41306779
_cell_angle_alpha   72.44994769
_cell_angle_beta   89.99983965
_cell_angle_gamma   89.99990000
_symmetry_Int_Tables_number   1
_chemical_formula_structural   Zn2H10C3(SN)2
_chemical_formula_sum   'Zn4 H20 C6 S4 N4'
_cell_volume   382.60734233
_cell_formula_units_Z   2
loop_
 _symmetry_equiv_pos_site_id
 _symmetry_equiv_pos_as_xyz
  1  'x, y, z'
loop_
 _atom_site_type_symbol
 _atom_site_label
 _atom_site_symmetry_multiplicity
 _atom_site_fract_x
 _atom_site_fract_y
 _atom_site_fract_z
 _atom_site_occupancy
  Zn  Zn0  1  0.11525000  0.86208000  0.57875000  1.0
  Zn  Zn1  1  0.61525000  0.13792000  0.42125000  1.0
  Zn  Zn2  1  0.61526000  0.55905000  0.57878000  1.0
  Zn  Zn3  1  0.11526000  0.44096000  0.42121000  1.0
  H  H4  1  0.19433000  0.61273000  0.87022000  1.0
  H  H5  1  0.69434000  0.38726000  0.12978000  1.0
  H  H6  1  0.69427000  0.51689000  0.87022000  1.0
  H  H7  1  0.19427000  0.48311000  0.12978000  1.0
  H  H8  1  0.00171000  0.81710000  0.87691000  1.0
  H  H9  1  0.50171000  0.18290000  0.12310000  1.0
  H  H10  1  0.50172000  0.30581000  0.87685000  1.0
  H  H11  1  0.00172000  0.69420000  0.12315000  1.0
  H  H12  1  0.28006000  0.98485000  0.99998000  1.0
  H  H13  1  0.78005000  0.01515000  0.00002000  1.0
  H  H14  1  0.46238000  0.76599000  0.00001000  1.0
  H  H15  1  0.96238000  0.23399000  0.99999000  1.0
  H  H16  1  0.42540000  0.90705000  0.73335000  1.0
  H  H17  1  0.92540000  0.09296000  0.26665000  1.0
  H  H18  1  0.92545000  0.35956000  0.73331000  1.0
  H  H19  1  0.42546000  0.64044000  0.26669000  1.0
  H  H20  1  0.24173000  0.09943000  0.73576000  1.0
  H  H21  1  0.74173000  0.90057000  0.26424000  1.0
  H  H22  1  0.74181000  0.16477000  0.73561000  1.0
  H  H23  1  0.24181000  0.83524000  0.26438000  1.0
  C  C24  1  0.17794000  0.78563000  0.87366000  1.0
  C  C25  1  0.67794000  0.21438000  0.12634000  1.0
  C  C26  1  0.67795000  0.34058000  0.87360000  1.0
  C  C27  1  0.17796000  0.65943000  0.12640000  1.0
  C  C28  1  0.28814000  0.80960000  0.00002000  1.0
  C  C29  1  0.78813000  0.19039000  0.99998000  1.0
  S  S30  1  0.74309000  0.88498000  0.61762000  1.0
  S  S31  1  0.24309000  0.11503000  0.38238000  1.0
  S  S32  1  0.24309000  0.49736000  0.61765000  1.0
  S  S33  1  0.74309000  0.50264000  0.38235000  1.0
  N  N34  1  0.26105000  0.93233000  0.74520000  1.0
  N  N35  1  0.76105000  0.06767000  0.25480000  1.0
  N  N36  1  0.76112000  0.32238000  0.74513000  1.0
  N  N37  1  0.26112000  0.67763000  0.25487000  1.0
