# generated using pymatgen
data_Co2H21C25(NO3)3
_symmetry_space_group_name_H-M   'P 1'
_cell_length_a   15.86125443
_cell_length_b   15.86610000
_cell_length_c   21.25780000
_cell_angle_alpha   90.00110000
_cell_angle_beta   90.00000033
_cell_angle_gamma   119.97029452
_symmetry_Int_Tables_number   1
_chemical_formula_structural   Co2H21C25(NO3)3
_chemical_formula_sum   'Co12 H126 C150 N18 O54'
_cell_volume   4634.32607440
_cell_formula_units_Z   6
loop_
 _symmetry_equiv_pos_site_id
 _symmetry_equiv_pos_as_xyz
  1  'x, y, z'
loop_
 _atom_site_type_symbol
 _atom_site_label
 _atom_site_symmetry_multiplicity
 _atom_site_fract_x
 _atom_site_fract_y
 _atom_site_fract_z
 _atom_site_occupancy
  Co  Co0  1  0.55737000  0.85279000  0.91058000  1.0
  Co  Co1  1  0.48457000  0.97181000  0.80684000  1.0
  Co  Co2  1  0.29555000  0.44292000  0.57740000  1.0
  Co  Co3  1  0.48765000  0.51547000  0.47369000  1.0
  Co  Co4  1  0.14698000  0.70479000  0.24426000  1.0
  Co  Co5  1  0.02797000  0.51265000  0.14052000  1.0
  Co  Co6  1  0.44228000  0.14703000  0.41065000  1.0
  Co  Co7  1  0.51531000  0.02827000  0.30696000  1.0
  Co  Co8  1  0.70457000  0.55761000  0.07730000  1.0
  Co  Co9  1  0.51230000  0.48450000  0.97360000  1.0
  Co  Co10  1  0.85328000  0.29499000  0.74327000  1.0
  Co  Co11  1  0.97101000  0.48662000  0.63916000  1.0
  H  H12  1  0.47231000  0.80255000  0.43818000  1.0
  H  H13  1  0.44619000  0.99929000  0.56440000  1.0
  H  H14  1  0.39503000  0.72122000  0.63162000  1.0
  H  H15  1  0.38407000  0.94101000  0.67448000  1.0
  H  H16  1  0.36653000  0.82775000  0.70169000  1.0
  H  H17  1  0.60270000  0.89288000  0.67312000  1.0
  H  H18  1  0.50039000  0.80815000  0.71818000  1.0
  H  H19  1  0.53193000  0.07235000  0.66464000  1.0
  H  H20  1  0.61218000  0.03233000  0.63740000  1.0
  H  H21  1  0.69930000  0.05688000  0.90593000  1.0
  H  H22  1  0.87500000  0.16740000  0.91481000  1.0
  H  H23  1  0.90401000  0.91298000  0.94998000  1.0
  H  H24  1  0.72575000  0.81351000  0.93966000  1.0
  H  H25  1  0.05045000  0.07112000  0.95120000  1.0
  H  H26  1  0.02391000  0.24610000  0.91903000  1.0
  H  H27  1  0.16447000  0.40378000  0.92952000  1.0
  H  H28  1  0.34343000  0.50832000  0.94413000  1.0
  H  H29  1  0.38240000  0.26926000  0.95160000  1.0
  H  H30  1  0.20566000  0.15390000  0.93821000  1.0
  H  H31  1  0.46580000  0.76758000  0.01230000  1.0
  H  H32  1  0.52140000  0.71376000  0.98890000  1.0
  H  H33  1  0.33003000  0.52819000  0.10499000  1.0
  H  H34  1  0.55292000  0.55343000  0.23091000  1.0
  H  H35  1  0.32601000  0.60439000  0.29867000  1.0
  H  H36  1  0.55703000  0.61543000  0.34103000  1.0
  H  H37  1  0.46151000  0.63329000  0.36840000  1.0
  H  H38  1  0.29015000  0.39764000  0.34012000  1.0
  H  H39  1  0.30820000  0.49975000  0.38573000  1.0
  H  H40  1  0.54030000  0.46720000  0.33147000  1.0
  H  H41  1  0.41990000  0.38735000  0.30425000  1.0
  H  H42  1  0.35788000  0.30119000  0.57328000  1.0
  H  H43  1  0.29282000  0.12542000  0.58205000  1.0
  H  H44  1  0.00922000  0.09630000  0.61673000  1.0
  H  H45  1  0.08787000  0.27460000  0.60651000  1.0
  H  H46  1  0.02141000  0.95006000  0.61847000  1.0
  H  H47  1  0.22267000  0.97672000  0.58515000  1.0
  H  H48  1  0.24019000  0.83642000  0.59756000  1.0
  H  H49  1  0.16566000  0.65726000  0.61267000  1.0
  H  H50  1  0.88782000  0.61878000  0.61877000  1.0
  H  H51  1  0.94906000  0.79530000  0.60431000  1.0
  H  H52  1  0.30272000  0.53496000  0.67899000  1.0
  H  H53  1  0.19385000  0.48207000  0.65471000  1.0
  H  H54  1  0.19770000  0.66838000  0.77134000  1.0
  H  H55  1  0.00057000  0.44692000  0.89801000  1.0
  H  H56  1  0.27841000  0.67436000  0.96515000  1.0
  H  H57  1  0.05896000  0.44335000  0.00802000  1.0
  H  H58  1  0.17233000  0.53898000  0.03517000  1.0
  H  H59  1  0.10784000  0.71018000  0.00697000  1.0
  H  H60  1  0.19197000  0.69210000  0.05249000  1.0
  H  H61  1  0.92737000  0.46011000  0.99848000  1.0
  H  H62  1  0.96793000  0.58041000  0.97106000  1.0
  H  H63  1  0.94304000  0.64287000  0.23988000  1.0
  H  H64  1  0.83232000  0.70801000  0.24847000  1.0
  H  H65  1  0.08667000  0.99154000  0.28283000  1.0
  H  H66  1  0.18636000  0.91286000  0.27283000  1.0
  H  H67  1  0.92845000  0.97970000  0.28429000  1.0
  H  H68  1  0.75355000  0.77812000  0.25227000  1.0
  H  H69  1  0.59573000  0.76097000  0.26297000  1.0
  H  H70  1  0.49113000  0.83539000  0.27770000  1.0
  H  H71  1  0.73025000  0.11325000  0.28483000  1.0
  H  H72  1  0.84565000  0.05186000  0.27130000  1.0
  H  H73  1  0.23334000  0.69817000  0.34488000  1.0
  H  H74  1  0.28609000  0.80788000  0.32242000  1.0
  H  H75  1  0.52791000  0.19773000  0.93823000  1.0
  H  H76  1  0.55334000  0.00046000  0.06434000  1.0
  H  H77  1  0.60493000  0.27862000  0.13176000  1.0
  H  H78  1  0.61552000  0.05855000  0.17440000  1.0
  H  H79  1  0.63335000  0.17192000  0.20166000  1.0
  H  H80  1  0.39713000  0.10703000  0.17310000  1.0
  H  H81  1  0.49954000  0.19187000  0.21804000  1.0
  H  H82  1  0.46738000  0.92695000  0.16534000  1.0
  H  H83  1  0.38759000  0.96729000  0.13755000  1.0
  H  H84  1  0.30039000  0.94294000  0.40599000  1.0
  H  H85  1  0.12461000  0.83239000  0.41484000  1.0
  H  H86  1  0.09565000  0.08684000  0.44995000  1.0
  H  H87  1  0.27390000  0.18630000  0.43969000  1.0
  H  H88  1  0.94924000  0.92875000  0.45116000  1.0
  H  H89  1  0.97585000  0.75380000  0.41896000  1.0
  H  H90  1  0.83538000  0.59614000  0.42948000  1.0
  H  H91  1  0.65644000  0.49153000  0.44420000  1.0
  H  H92  1  0.61736000  0.73053000  0.45168000  1.0
  H  H93  1  0.79408000  0.84595000  0.43824000  1.0
  H  H94  1  0.53345000  0.23186000  0.51275000  1.0
  H  H95  1  0.47834000  0.28604000  0.48904000  1.0
  H  H96  1  0.67032000  0.47225000  0.60526000  1.0
  H  H97  1  0.44684000  0.44608000  0.73098000  1.0
  H  H98  1  0.67368000  0.39503000  0.79880000  1.0
  H  H99  1  0.44263000  0.38424000  0.84108000  1.0
  H  H100  1  0.53806000  0.36627000  0.86853000  1.0
  H  H101  1  0.70963000  0.60190000  0.83996000  1.0
  H  H102  1  0.69157000  0.49982000  0.88558000  1.0
  H  H103  1  0.45958000  0.53258000  0.83140000  1.0
  H  H104  1  0.57999000  0.61233000  0.80416000  1.0
  H  H105  1  0.64260000  0.69977000  0.07321000  1.0
  H  H106  1  0.70783000  0.87551000  0.08217000  1.0
  H  H107  1  0.99135000  0.90421000  0.11647000  1.0
  H  H108  1  0.91256000  0.72599000  0.10617000  1.0
  H  H109  1  0.97968000  0.05069000  0.11800000  1.0
  H  H110  1  0.77830000  0.02444000  0.08556000  1.0
  H  H111  1  0.76107000  0.16482000  0.09629000  1.0
  H  H112  1  0.83523000  0.34369000  0.11108000  1.0
  H  H113  1  0.11336000  0.38270000  0.11828000  1.0
  H  H114  1  0.05219000  0.20602000  0.10469000  1.0
  H  H115  1  0.69772000  0.46492000  0.17824000  1.0
  H  H116  1  0.80742000  0.52146000  0.15563000  1.0
  H  H117  1  0.80210000  0.33080000  0.27150000  1.0
  H  H118  1  0.99881000  0.55296000  0.39804000  1.0
  H  H119  1  0.72096000  0.32532000  0.46512000  1.0
  H  H120  1  0.94067000  0.55549000  0.50864000  1.0
  H  H121  1  0.82720000  0.45955000  0.53546000  1.0
  H  H122  1  0.89171000  0.28802000  0.50620000  1.0
  H  H123  1  0.80721000  0.30599000  0.55142000  1.0
  H  H124  1  0.07082000  0.53745000  0.49633000  1.0
  H  H125  1  0.03093000  0.41647000  0.47060000  1.0
  H  H126  1  0.05739000  0.35761000  0.73998000  1.0
  H  H127  1  0.16755000  0.29215000  0.74873000  1.0
  H  H128  1  0.91288000  0.00884000  0.78303000  1.0
  H  H129  1  0.81343000  0.08763000  0.77273000  1.0
  H  H130  1  0.07115000  0.02039000  0.78431000  1.0
  H  H131  1  0.24622000  0.22199000  0.75253000  1.0
  H  H132  1  0.40394000  0.23908000  0.76297000  1.0
  H  H133  1  0.50860000  0.16471000  0.77751000  1.0
  H  H134  1  0.26956000  0.88683000  0.78485000  1.0
  H  H135  1  0.15409000  0.94819000  0.77150000  1.0
  H  H136  1  0.77136000  0.30126000  0.84650000  1.0
  H  H137  1  0.71478000  0.19218000  0.82228000  1.0
  C  C138  1  0.43264000  0.75146000  0.53423000  1.0
  C  C139  1  0.45786000  0.81906000  0.48536000  1.0
  C  C140  1  0.46072000  0.90762000  0.49668000  1.0
  C  C141  1  0.44399000  0.93010000  0.55742000  1.0
  C  C142  1  0.42401000  0.86544000  0.60732000  1.0
  C  C143  1  0.41563000  0.77540000  0.59453000  1.0
  C  C144  1  0.41475000  0.89242000  0.67376000  1.0
  C  C145  1  0.55734000  0.88505000  0.71430000  1.0
  C  C146  1  0.61811000  0.90677000  0.77463000  1.0
  C  C147  1  0.57532000  0.03907000  0.67934000  1.0
  C  C148  1  0.65095000  0.11048000  0.72540000  1.0
  C  C149  1  0.41877000  0.65100000  0.52613000  1.0
  C  C150  1  0.47781000  0.97915000  0.44507000  1.0
  C  C151  1  0.74737000  0.02840000  0.91679000  1.0
  C  C152  1  0.84645000  0.08979000  0.92173000  1.0
  C  C153  1  0.90722000  0.05049000  0.93413000  1.0
  C  C154  1  0.86192000  0.94886000  0.94051000  1.0
  C  C155  1  0.76149000  0.89222000  0.93505000  1.0
  C  C156  1  0.01198000  0.11009000  0.93931000  1.0
  C  C157  1  0.06306000  0.20762000  0.93024000  1.0
  C  C158  1  0.16756000  0.26844000  0.93480000  1.0
  C  C159  1  0.20979000  0.37043000  0.93491000  1.0
  C  C160  1  0.30939000  0.42926000  0.94243000  1.0
  C  C161  1  0.33076000  0.29522000  0.94674000  1.0
  C  C162  1  0.23205000  0.23182000  0.93992000  1.0
  C  C163  1  0.31866000  0.56743000  0.20118000  1.0
  C  C164  1  0.36104000  0.54242000  0.15217000  1.0
  C  C165  1  0.44670000  0.53936000  0.16335000  1.0
  C  C166  1  0.48599000  0.55583000  0.22406000  1.0
  C  C167  1  0.44137000  0.57569000  0.27405000  1.0
  C  C168  1  0.35966000  0.58412000  0.26142000  1.0
  C  C169  1  0.47777000  0.58492000  0.34046000  1.0
  C  C170  1  0.32795000  0.44267000  0.38135000  1.0
  C  C171  1  0.28948000  0.38155000  0.44159000  1.0
  C  C172  1  0.46360000  0.42416000  0.34617000  1.0
  C  C173  1  0.45876000  0.34855000  0.39250000  1.0
  C  C174  1  0.23190000  0.58115000  0.19326000  1.0
  C  C175  1  0.50101000  0.52219000  0.11163000  1.0
  C  C176  1  0.28132000  0.25305000  0.58396000  1.0
  C  C177  1  0.24372000  0.15400000  0.58877000  1.0
  C  C178  1  0.14368000  0.09330000  0.60100000  1.0
  C  C179  1  0.08718000  0.13845000  0.60734000  1.0
  C  C180  1  0.13089000  0.23885000  0.60197000  1.0
  C  C181  1  0.09868000  0.98855000  0.60617000  1.0
  C  C182  1  0.14521000  0.93764000  0.59676000  1.0
  C  C183  1  0.10164000  0.83316000  0.60174000  1.0
  C  C184  1  0.16152000  0.79105000  0.60265000  1.0
  C  C185  1  0.12082000  0.69150000  0.61053000  1.0
  C  C186  1  0.96540000  0.67028000  0.61389000  1.0
  C  C187  1  0.00059000  0.76890000  0.60655000  1.0
  C  C188  1  0.24840000  0.68096000  0.86763000  1.0
  C  C189  1  0.18097000  0.63801000  0.81868000  1.0
  C  C190  1  0.09236000  0.55245000  0.83012000  1.0
  C  C191  1  0.06977000  0.51385000  0.89101000  1.0
  C  C192  1  0.13438000  0.55879000  0.94088000  1.0
  C  C193  1  0.22434000  0.64044000  0.92802000  1.0
  C  C194  1  0.10755000  0.52258000  0.00735000  1.0
  C  C195  1  0.11515000  0.67242000  0.04820000  1.0
  C  C196  1  0.09275000  0.71114000  0.10843000  1.0
  C  C197  1  0.96101000  0.53684000  0.01305000  1.0
  C  C198  1  0.89021000  0.54181000  0.05929000  1.0
  C  C199  1  0.34886000  0.76767000  0.85957000  1.0
  C  C200  1  0.02104000  0.49695000  0.77844000  1.0
  C  C201  1  0.97148000  0.71946000  0.25044000  1.0
  C  C202  1  0.90999000  0.75711000  0.25516000  1.0
  C  C203  1  0.94922000  0.85719000  0.26727000  1.0
  C  C204  1  0.05088000  0.91357000  0.27354000  1.0
  C  C205  1  0.10762000  0.86983000  0.26828000  1.0
  C  C206  1  0.88956000  0.90230000  0.27244000  1.0
  C  C207  1  0.79198000  0.85572000  0.26344000  1.0
  C  C208  1  0.73108000  0.89933000  0.26803000  1.0
  C  C209  1  0.62905000  0.83961000  0.26827000  1.0
  C  C210  1  0.57021000  0.88039000  0.27588000  1.0
  C  C211  1  0.70430000  0.03570000  0.27997000  1.0
  C  C212  1  0.76772000  0.00041000  0.27305000  1.0
  C  C213  1  0.56748000  0.24864000  0.03433000  1.0
  C  C214  1  0.54225000  0.18108000  0.98541000  1.0
  C  C215  1  0.53923000  0.09242000  0.99667000  1.0
  C  C216  1  0.55575000  0.06976000  0.05741000  1.0
  C  C217  1  0.57579000  0.13438000  0.10733000  1.0
  C  C218  1  0.58436000  0.22452000  0.09460000  1.0
  C  C219  1  0.58500000  0.10729000  0.17374000  1.0
  C  C220  1  0.44254000  0.11498000  0.21428000  1.0
  C  C221  1  0.38185000  0.09347000  0.27463000  1.0
  C  C222  1  0.42425000  0.96071000  0.17965000  1.0
  C  C223  1  0.34847000  0.89026000  0.22603000  1.0
  C  C224  1  0.58123000  0.34909000  0.02633000  1.0
  C  C225  1  0.52206000  0.02089000  0.94499000  1.0
  C  C226  1  0.25229000  0.97141000  0.41680000  1.0
  C  C227  1  0.15320000  0.91002000  0.42169000  1.0
  C  C228  1  0.09245000  0.94935000  0.43406000  1.0
  C  C229  1  0.13775000  0.05098000  0.44047000  1.0
  C  C230  1  0.23817000  0.10759000  0.43504000  1.0
  C  C231  1  0.98771000  0.88979000  0.43925000  1.0
  C  C232  1  0.93668000  0.79227000  0.43018000  1.0
  C  C233  1  0.83221000  0.73144000  0.43479000  1.0
  C  C234  1  0.79002000  0.62945000  0.43491000  1.0
  C  C235  1  0.69045000  0.57059000  0.44248000  1.0
  C  C236  1  0.66902000  0.70460000  0.44679000  1.0
  C  C237  1  0.76771000  0.76804000  0.43994000  1.0
  C  C238  1  0.68139000  0.43250000  0.70139000  1.0
  C  C239  1  0.63904000  0.45760000  0.65237000  1.0
  C  C240  1  0.55319000  0.46038000  0.66345000  1.0
  C  C241  1  0.51374000  0.44366000  0.72413000  1.0
  C  C242  1  0.55824000  0.42364000  0.77410000  1.0
  C  C243  1  0.64003000  0.41530000  0.76155000  1.0
  C  C244  1  0.52187000  0.41462000  0.84050000  1.0
  C  C245  1  0.67189000  0.55694000  0.88122000  1.0
  C  C246  1  0.71060000  0.61816000  0.94140000  1.0
  C  C247  1  0.53628000  0.57556000  0.84608000  1.0
  C  C248  1  0.54117000  0.65126000  0.89236000  1.0
  C  C249  1  0.76898000  0.42008000  0.69389000  1.0
  C  C250  1  0.49906000  0.47795000  0.61178000  1.0
  C  C251  1  0.71919000  0.74779000  0.08389000  1.0
  C  C252  1  0.75690000  0.84687000  0.08886000  1.0
  C  C253  1  0.85702000  0.90756000  0.10100000  1.0
  C  C254  1  0.91335000  0.86216000  0.10718000  1.0
  C  C255  1  0.86953000  0.76175000  0.10173000  1.0
  C  C256  1  0.90228000  0.01233000  0.10607000  1.0
  C  C257  1  0.85589000  0.06350000  0.09687000  1.0
  C  C258  1  0.89955000  0.16797000  0.10147000  1.0
  C  C259  1  0.83972000  0.21017000  0.10168000  1.0
  C  C260  1  0.88035000  0.30970000  0.10932000  1.0
  C  C261  1  0.03580000  0.33107000  0.11344000  1.0
  C  C262  1  0.00063000  0.23241000  0.10652000  1.0
  C  C263  1  0.75101000  0.31882000  0.36762000  1.0
  C  C264  1  0.81857000  0.36152000  0.31876000  1.0
  C  C265  1  0.90710000  0.44716000  0.33018000  1.0
  C  C266  1  0.92959000  0.48604000  0.39102000  1.0
  C  C267  1  0.86502000  0.44093000  0.44090000  1.0
  C  C268  1  0.77502000  0.35933000  0.42801000  1.0
  C  C269  1  0.89196000  0.47627000  0.50750000  1.0
  C  C270  1  0.88405000  0.32568000  0.54735000  1.0
  C  C271  1  0.90631000  0.28746000  0.60776000  1.0
  C  C272  1  0.03830000  0.46131000  0.51196000  1.0
  C  C273  1  0.11063000  0.45920000  0.55820000  1.0
  C  C274  1  0.65065000  0.23204000  0.35960000  1.0
  C  C275  1  0.97881000  0.50156000  0.27861000  1.0
  C  C276  1  0.02855000  0.28093000  0.75053000  1.0
  C  C277  1  0.08985000  0.24309000  0.75534000  1.0
  C  C278  1  0.05053000  0.14299000  0.76743000  1.0
  C  C279  1  0.94884000  0.08681000  0.77368000  1.0
  C  C280  1  0.89219000  0.13062000  0.76828000  1.0
  C  C281  1  0.11012000  0.09782000  0.77254000  1.0
  C  C282  1  0.20773000  0.14434000  0.76360000  1.0
  C  C283  1  0.26863000  0.10073000  0.76809000  1.0
  C  C284  1  0.37065000  0.16045000  0.76825000  1.0
  C  C285  1  0.42953000  0.11969000  0.77576000  1.0
  C  C286  1  0.29547000  0.96437000  0.77996000  1.0
  C  C287  1  0.23203000  0.99966000  0.77313000  1.0
  N  N288  1  0.50907000  0.94408000  0.70835000  1.0
  N  N289  1  0.70455000  0.93093000  0.92374000  1.0
  N  N290  1  0.37021000  0.39316000  0.94868000  1.0
  N  N291  1  0.43517000  0.49074000  0.37515000  1.0
  N  N292  1  0.22653000  0.29577000  0.59082000  1.0
  N  N293  1  0.02396000  0.63094000  0.61645000  1.0
  N  N294  1  0.05598000  0.56522000  0.04207000  1.0
  N  N295  1  0.06899000  0.77415000  0.25729000  1.0
  N  N296  1  0.60634000  0.97727000  0.28203000  1.0
  N  N297  1  0.49073000  0.05584000  0.20842000  1.0
  N  N298  1  0.29510000  0.06888000  0.42375000  1.0
  N  N299  1  0.62962000  0.60667000  0.44874000  1.0
  N  N300  1  0.56465000  0.50895000  0.87508000  1.0
  N  N301  1  0.77384000  0.70487000  0.09061000  1.0
  N  N302  1  0.97724000  0.37052000  0.11554000  1.0
  N  N303  1  0.94350000  0.43279000  0.54157000  1.0
  N  N304  1  0.93092000  0.22635000  0.75726000  1.0
  N  N305  1  0.39344000  0.02281000  0.78192000  1.0
  O  O306  1  0.57401000  0.91679000  0.82450000  1.0
  O  O307  1  0.69667000  0.90898000  0.77448000  1.0
  O  O308  1  0.62306000  0.10547000  0.78274000  1.0
  O  O309  1  0.73300000  0.17084000  0.70341000  1.0
  O  O310  1  0.36071000  0.58929000  0.56561000  1.0
  O  O311  1  0.46496000  0.63603000  0.48232000  1.0
  O  O312  1  0.50763000  0.96686000  0.39215000  1.0
  O  O313  1  0.46000000  0.04675000  0.45896000  1.0
  O  O314  1  0.53063000  0.77875000  0.00281000  1.0
  O  O315  1  0.34332000  0.42598000  0.49149000  1.0
  O  O316  1  0.21396000  0.30235000  0.44141000  1.0
  O  O317  1  0.48275000  0.37719000  0.44962000  1.0
  O  O318  1  0.43481000  0.26554000  0.37124000  1.0
  O  O319  1  0.22775000  0.63865000  0.23302000  1.0
  O  O320  1  0.17103000  0.53527000  0.14927000  1.0
  O  O321  1  0.45886000  0.49276000  0.05870000  1.0
  O  O322  1  0.58623000  0.53940000  0.12549000  1.0
  O  O323  1  0.24821000  0.47088000  0.66910000  1.0
  O  O324  1  0.08296000  0.65714000  0.15832000  1.0
  O  O325  1  0.08966000  0.78699000  0.10824000  1.0
  O  O326  1  0.89488000  0.51801000  0.11647000  1.0
  O  O327  1  0.83103000  0.56557000  0.03791000  1.0
  O  O328  1  0.41053000  0.77186000  0.89935000  1.0
  O  O329  1  0.36383000  0.82849000  0.81555000  1.0
  O  O330  1  0.03662000  0.53668000  0.72447000  1.0
  O  O331  1  0.95205000  0.41286000  0.79348000  1.0
  O  O332  1  0.22140000  0.75156000  0.33622000  1.0
  O  O333  1  0.42598000  0.08347000  0.32451000  1.0
  O  O334  1  0.30331000  0.09130000  0.27451000  1.0
  O  O335  1  0.37693000  0.89529000  0.28323000  1.0
  O  O336  1  0.26556000  0.83098000  0.20472000  1.0
  O  O337  1  0.63902000  0.41083000  0.06594000  1.0
  O  O338  1  0.53510000  0.36398000  0.98246000  1.0
  O  O339  1  0.49271000  0.03356000  0.89201000  1.0
  O  O340  1  0.53934000  0.95296000  0.95894000  1.0
  O  O341  1  0.46881000  0.22093000  0.50292000  1.0
  O  O342  1  0.65677000  0.57396000  0.99135000  1.0
  O  O343  1  0.78636000  0.69713000  0.94117000  1.0
  O  O344  1  0.51729000  0.62269000  0.94951000  1.0
  O  O345  1  0.56498000  0.73420000  0.87107000  1.0
  O  O346  1  0.77353000  0.36238000  0.73328000  1.0
  O  O347  1  0.83123000  0.46820000  0.65112000  1.0
  O  O348  1  0.54108000  0.50706000  0.55878000  1.0
  O  O349  1  0.41408000  0.46149000  0.62569000  1.0
  O  O350  1  0.75123000  0.53008000  0.16944000  1.0
  O  O351  1  0.91638000  0.34254000  0.65712000  1.0
  O  O352  1  0.90961000  0.21176000  0.60822000  1.0
  O  O353  1  0.10818000  0.48753000  0.61442000  1.0
  O  O354  1  0.16864000  0.43337000  0.53749000  1.0
  O  O355  1  0.58905000  0.22762000  0.39950000  1.0
  O  O356  1  0.63577000  0.17138000  0.31549000  1.0
  O  O357  1  0.96638000  0.45946000  0.22569000  1.0
  O  O358  1  0.04668000  0.58672000  0.29259000  1.0
  O  O359  1  0.78053000  0.24664000  0.83605000  1.0
