# generated using pymatgen
data_LaH13C18N3O8
_symmetry_space_group_name_H-M   'P 1'
_cell_length_a   7.08511000
_cell_length_b   13.72910000
_cell_length_c   20.27900000
_cell_angle_alpha   92.90150000
_cell_angle_beta   90.00000000
_cell_angle_gamma   104.95400000
_symmetry_Int_Tables_number   1
_chemical_formula_structural   LaH13C18N3O8
_chemical_formula_sum   'La4 H52 C72 N12 O32'
_cell_volume   1903.16021515
_cell_formula_units_Z   4
loop_
 _symmetry_equiv_pos_site_id
 _symmetry_equiv_pos_as_xyz
  1  'x, y, z'
loop_
 _atom_site_type_symbol
 _atom_site_label
 _atom_site_symmetry_multiplicity
 _atom_site_fract_x
 _atom_site_fract_y
 _atom_site_fract_z
 _atom_site_occupancy
  La  La0  1  0.26033000  0.88829000  0.95784000  1.0
  La  La1  1  0.37216000  0.11176000  0.54211000  1.0
  La  La2  1  0.73968000  0.11171000  0.04215000  1.0
  La  La3  1  0.62784000  0.88824000  0.45789000  1.0
  H  H4  1  0.88121000  0.87750000  0.84690000  1.0
  H  H5  1  0.00388000  0.12272000  0.65312000  1.0
  H  H6  1  0.11880000  0.12250000  0.15310000  1.0
  H  H7  1  0.99612000  0.87728000  0.34687000  1.0
  H  H8  1  0.79933000  0.83773000  0.91490000  1.0
  H  H9  1  0.96171000  0.16244000  0.58511000  1.0
  H  H10  1  0.20067000  0.16227000  0.08510000  1.0
  H  H11  1  0.03829000  0.83756000  0.41489000  1.0
  H  H12  1  0.06996000  0.65328000  0.91196000  1.0
  H  H13  1  0.41704000  0.34686000  0.58808000  1.0
  H  H14  1  0.93004000  0.34673000  0.08803000  1.0
  H  H15  1  0.58296000  0.65314000  0.41193000  1.0
  H  H16  1  0.00382000  0.74223000  0.87996000  1.0
  H  H17  1  0.26192000  0.25787000  0.62002000  1.0
  H  H18  1  0.99619000  0.25777000  0.12004000  1.0
  H  H19  1  0.73808000  0.74213000  0.37999000  1.0
  H  H20  1  0.84305000  0.44503000  0.00825000  1.0
  H  H21  1  0.39811000  0.55511000  0.49178000  1.0
  H  H22  1  0.15694000  0.55497000  0.99175000  1.0
  H  H23  1  0.60189000  0.44489000  0.50823000  1.0
  H  H24  1  0.72685000  0.47461000  0.89741000  1.0
  H  H25  1  0.25251000  0.52519000  0.60265000  1.0
  H  H26  1  0.27315000  0.52539000  0.10259000  1.0
  H  H27  1  0.74747000  0.47481000  0.39735000  1.0
  H  H28  1  0.57830000  0.62075000  0.88610000  1.0
  H  H29  1  0.95780000  0.37902000  0.61388000  1.0
  H  H30  1  0.42170000  0.37925000  0.11390000  1.0
  H  H31  1  0.04218000  0.62097000  0.38612000  1.0
  H  H32  1  0.78307000  0.94462000  0.18335000  1.0
  H  H33  1  0.83838000  0.05545000  0.31661000  1.0
  H  H34  1  0.21693000  0.05538000  0.81665000  1.0
  H  H35  1  0.16160000  0.94455000  0.68339000  1.0
  H  H36  1  0.61008000  0.84466000  0.27590000  1.0
  H  H37  1  0.76562000  0.15546000  0.22405000  1.0
  H  H38  1  0.38992000  0.15534000  0.72410000  1.0
  H  H39  1  0.23436000  0.84454000  0.77595000  1.0
  H  H40  1  0.49781000  0.65685000  0.25905000  1.0
  H  H41  1  0.84124000  0.34329000  0.24089000  1.0
  H  H42  1  0.50220000  0.34315000  0.74095000  1.0
  H  H43  1  0.15877000  0.65671000  0.75912000  1.0
  H  H44  1  0.72374000  0.20969000  0.89617000  1.0
  H  H45  1  0.51345000  0.79047000  0.60405000  1.0
  H  H46  1  0.27627000  0.79032000  0.10382000  1.0
  H  H47  1  0.48654000  0.20952000  0.39595000  1.0
  H  H48  1  0.93266000  0.33408000  0.82344000  1.0
  H  H49  1  0.59795000  0.66611000  0.67682000  1.0
  H  H50  1  0.06735000  0.66592000  0.17655000  1.0
  H  H51  1  0.40204000  0.33389000  0.32319000  1.0
  H  H52  1  0.02126000  0.27010000  0.71232000  1.0
  H  H53  1  0.75143000  0.73025000  0.78777000  1.0
  H  H54  1  0.97875000  0.72990000  0.28768000  1.0
  H  H55  1  0.24857000  0.26975000  0.21223000  1.0
  C  C56  1  0.78665000  0.51066000  0.00175000  1.0
  C  C57  1  0.27612000  0.48941000  0.49825000  1.0
  C  C58  1  0.21335000  0.48934000  0.99825000  1.0
  C  C59  1  0.72388000  0.51058000  0.50175000  1.0
  C  C60  1  0.72268000  0.52705000  0.93922000  1.0
  C  C61  1  0.19593000  0.47285000  0.56080000  1.0
  C  C62  1  0.27732000  0.47295000  0.06078000  1.0
  C  C63  1  0.80406000  0.52715000  0.43920000  1.0
  C  C64  1  0.63940000  0.60761000  0.93321000  1.0
  C  C65  1  0.03205000  0.39227000  0.56676000  1.0
  C  C66  1  0.36060000  0.39239000  0.06678000  1.0
  C  C67  1  0.96794000  0.60773000  0.43325000  1.0
  C  C68  1  0.62121000  0.66745000  0.98954000  1.0
  C  C69  1  0.95399000  0.33252000  0.51041000  1.0
  C  C70  1  0.37879000  0.33255000  0.01046000  1.0
  C  C71  1  0.04601000  0.66748000  0.48959000  1.0
  C  C72  1  0.69636000  0.64661000  0.05009000  1.0
  C  C73  1  0.04997000  0.35347000  0.44986000  1.0
  C  C74  1  0.30365000  0.35339000  0.94992000  1.0
  C  C75  1  0.95003000  0.64652000  0.55014000  1.0
  C  C76  1  0.68214000  0.70672000  0.11245000  1.0
  C  C77  1  0.97567000  0.29336000  0.38747000  1.0
  C  C78  1  0.31787000  0.29328000  0.88755000  1.0
  C  C79  1  0.02433000  0.70664000  0.61253000  1.0
  C  C80  1  0.75510000  0.81269000  0.11818000  1.0
  C  C81  1  0.94251000  0.18739000  0.38178000  1.0
  C  C82  1  0.24491000  0.18732000  0.88182000  1.0
  C  C83  1  0.05748000  0.81260000  0.61822000  1.0
  C  C84  1  0.72911000  0.86278000  0.17791000  1.0
  C  C85  1  0.86642000  0.13730000  0.32204000  1.0
  C  C86  1  0.27090000  0.13722000  0.82209000  1.0
  C  C87  1  0.13356000  0.86269000  0.67796000  1.0
  C  C88  1  0.63620000  0.80731000  0.22949000  1.0
  C  C89  1  0.82918000  0.19281000  0.27044000  1.0
  C  C90  1  0.36381000  0.19269000  0.77051000  1.0
  C  C91  1  0.17082000  0.80719000  0.72957000  1.0
  C  C92  1  0.57128000  0.70265000  0.21939000  1.0
  C  C93  1  0.86891000  0.29746000  0.28054000  1.0
  C  C94  1  0.42872000  0.29736000  0.78061000  1.0
  C  C95  1  0.13110000  0.70253000  0.71946000  1.0
  C  C96  1  0.50869000  0.74512000  0.98304000  1.0
  C  C97  1  0.76373000  0.25489000  0.51693000  1.0
  C  C98  1  0.49131000  0.25488000  0.01696000  1.0
  C  C99  1  0.23627000  0.74510000  0.48307000  1.0
  C  C100  1  0.86482000  0.87315000  0.06416000  1.0
  C  C101  1  0.99156000  0.12689000  0.43583000  1.0
  C  C102  1  0.13519000  0.12685000  0.93584000  1.0
  C  C103  1  0.00843000  0.87311000  0.56417000  1.0
  C  C104  1  0.76258000  0.05354000  0.76379000  1.0
  C  C105  1  0.70925000  0.94679000  0.73627000  1.0
  C  C106  1  0.23741000  0.94647000  0.23621000  1.0
  C  C107  1  0.29074000  0.05321000  0.26373000  1.0
  C  C108  1  0.70623000  0.08272000  0.82714000  1.0
  C  C109  1  0.62361000  0.91753000  0.67295000  1.0
  C  C110  1  0.29376000  0.91729000  0.17286000  1.0
  C  C111  1  0.37638000  0.08247000  0.32706000  1.0
  C  C112  1  0.76909000  0.18471000  0.84840000  1.0
  C  C113  1  0.58403000  0.81548000  0.65178000  1.0
  C  C114  1  0.23091000  0.81530000  0.15160000  1.0
  C  C115  1  0.41596000  0.18452000  0.34822000  1.0
  C  C116  1  0.88174000  0.25455000  0.80755000  1.0
  C  C117  1  0.62680000  0.74567000  0.69267000  1.0
  C  C118  1  0.11827000  0.74545000  0.19245000  1.0
  C  C119  1  0.37320000  0.25433000  0.30733000  1.0
  C  C120  1  0.93074000  0.21923000  0.74626000  1.0
  C  C121  1  0.71152000  0.78110000  0.75388000  1.0
  C  C122  1  0.06927000  0.78077000  0.25373000  1.0
  C  C123  1  0.28848000  0.21890000  0.24613000  1.0
  C  C124  1  0.56886000  0.01410000  0.87146000  1.0
  C  C125  1  0.55488000  0.98606000  0.62856000  1.0
  C  C126  1  0.43115000  0.98591000  0.12854000  1.0
  C  C127  1  0.44512000  0.01393000  0.37144000  1.0
  N  N128  1  0.77871000  0.56958000  0.05585000  1.0
  N  N129  1  0.20924000  0.43056000  0.44412000  1.0
  N  N130  1  0.22130000  0.43042000  0.94415000  1.0
  N  N131  1  0.79077000  0.56944000  0.55588000  1.0
  N  N132  1  0.59192000  0.65284000  0.16235000  1.0
  N  N133  1  0.93932000  0.34725000  0.33758000  1.0
  N  N134  1  0.40808000  0.34716000  0.83765000  1.0
  N  N135  1  0.06068000  0.65275000  0.66242000  1.0
  N  N136  1  0.87551000  0.12161000  0.72526000  1.0
  N  N137  1  0.75414000  0.87874000  0.77481000  1.0
  N  N138  1  0.12449000  0.87839000  0.27474000  1.0
  N  N139  1  0.24586000  0.12126000  0.22519000  1.0
  O  O140  1  0.35105000  0.73734000  0.01462000  1.0
  O  O141  1  0.61397000  0.26256000  0.48524000  1.0
  O  O142  1  0.64895000  0.26267000  0.98538000  1.0
  O  O143  1  0.38602000  0.73744000  0.51476000  1.0
  O  O144  1  0.56953000  0.81523000  0.94284000  1.0
  O  O145  1  0.75432000  0.18497000  0.55728000  1.0
  O  O146  1  0.43047000  0.18477000  0.05715000  1.0
  O  O147  1  0.24568000  0.81502000  0.44272000  1.0
  O  O148  1  0.98506000  0.83628000  0.03114000  1.0
  O  O149  1  0.14881000  0.16363000  0.46880000  1.0
  O  O150  1  0.01494000  0.16372000  0.96886000  1.0
  O  O151  1  0.85118000  0.83637000  0.53120000  1.0
  O  O152  1  0.83342000  0.95835000  0.05547000  1.0
  O  O153  1  0.87469000  0.04178000  0.44456000  1.0
  O  O154  1  0.16658000  0.04165000  0.94453000  1.0
  O  O155  1  0.12530000  0.95822000  0.55544000  1.0
  O  O156  1  0.58889000  0.03281000  0.93456000  1.0
  O  O157  1  0.55639000  0.96737000  0.56546000  1.0
  O  O158  1  0.41112000  0.96720000  0.06544000  1.0
  O  O159  1  0.44360000  0.03263000  0.43454000  1.0
  O  O160  1  0.43014000  0.94373000  0.84747000  1.0
  O  O161  1  0.48639000  0.05639000  0.65251000  1.0
  O  O162  1  0.56986000  0.05628000  0.15253000  1.0
  O  O163  1  0.51361000  0.94361000  0.34749000  1.0
  O  O164  1  0.92223000  0.84972000  0.88829000  1.0
  O  O165  1  0.07262000  0.15041000  0.61171000  1.0
  O  O166  1  0.07778000  0.15028000  0.11171000  1.0
  O  O167  1  0.92738000  0.84958000  0.38829000  1.0
  O  O168  1  0.11899000  0.71536000  0.88914000  1.0
  O  O169  1  0.40395000  0.28470000  0.61082000  1.0
  O  O170  1  0.88102000  0.28464000  0.11086000  1.0
  O  O171  1  0.59605000  0.71530000  0.38918000  1.0
