# generated using pymatgen
data_AgH5C10NO2F3
_symmetry_space_group_name_H-M   'P 1'
_cell_length_a   4.50706000
_cell_length_b   11.35760000
_cell_length_c   19.26660000
_cell_angle_alpha   101.34600000
_cell_angle_beta   90.00000000
_cell_angle_gamma   89.99990000
_symmetry_Int_Tables_number   1
_chemical_formula_structural   AgH5C10NO2F3
_chemical_formula_sum   'Ag4 H20 C40 N4 O8 F12'
_cell_volume   966.97123110
_cell_formula_units_Z   4
loop_
 _symmetry_equiv_pos_site_id
 _symmetry_equiv_pos_as_xyz
  1  'x, y, z'
loop_
 _atom_site_type_symbol
 _atom_site_label
 _atom_site_symmetry_multiplicity
 _atom_site_fract_x
 _atom_site_fract_y
 _atom_site_fract_z
 _atom_site_occupancy
  Ag  Ag0  1  0.76246000  0.55721000  0.56087000  1.0
  Ag  Ag1  1  0.26247000  0.44280000  0.93913000  1.0
  Ag  Ag2  1  0.23753000  0.44279000  0.43913000  1.0
  Ag  Ag3  1  0.73753000  0.55721000  0.06087000  1.0
  H  H4  1  0.29367000  0.65830000  0.67476000  1.0
  H  H5  1  0.79368000  0.34170000  0.82524000  1.0
  H  H6  1  0.70632000  0.34170000  0.32524000  1.0
  H  H7  1  0.20632000  0.65831000  0.17476000  1.0
  H  H8  1  0.65630000  0.80517000  0.74174000  1.0
  H  H9  1  0.15631000  0.19483000  0.75826000  1.0
  H  H10  1  0.34369000  0.19483000  0.25827000  1.0
  H  H11  1  0.84369000  0.80517000  0.24174000  1.0
  H  H12  1  0.79861000  0.98842000  0.69944000  1.0
  H  H13  1  0.29861000  0.01158000  0.80056000  1.0
  H  H14  1  0.20139000  0.01158000  0.30056000  1.0
  H  H15  1  0.70139000  0.98842000  0.19944000  1.0
  H  H16  1  0.58855000  0.03219000  0.58628000  1.0
  H  H17  1  0.08855000  0.96781000  0.91372000  1.0
  H  H18  1  0.41146000  0.96781000  0.41372000  1.0
  H  H19  1  0.91146000  0.03219000  0.08628000  1.0
  H  H20  1  0.82774000  0.82913000  0.40593000  1.0
  H  H21  1  0.32775000  0.17087000  0.09407000  1.0
  H  H22  1  0.17226000  0.17087000  0.59407000  1.0
  H  H23  1  0.67226000  0.82913000  0.90593000  1.0
  C  C24  1  0.32359000  0.86980000  0.57056000  1.0
  C  C25  1  0.82359000  0.13019000  0.92944000  1.0
  C  C26  1  0.67642000  0.13019000  0.42944000  1.0
  C  C27  1  0.17641000  0.86981000  0.07056000  1.0
  C  C28  1  0.24063000  0.76453000  0.59326000  1.0
  C  C29  1  0.74063000  0.23546000  0.90674000  1.0
  C  C30  1  0.75937000  0.23546000  0.40674000  1.0
  C  C31  1  0.25937000  0.76454000  0.09326000  1.0
  C  C32  1  0.35934000  0.73859000  0.65561000  1.0
  C  C33  1  0.85936000  0.26141000  0.84439000  1.0
  C  C34  1  0.64064000  0.26141000  0.34439000  1.0
  C  C35  1  0.14065000  0.73859000  0.15561000  1.0
  C  C36  1  0.55860000  0.82219000  0.69301000  1.0
  C  C37  1  0.05860000  0.17780000  0.80699000  1.0
  C  C38  1  0.44140000  0.17781000  0.30699000  1.0
  C  C39  1  0.94140000  0.82220000  0.19301000  1.0
  C  C40  1  0.64045000  0.92646000  0.66880000  1.0
  C  C41  1  0.14046000  0.07354000  0.83120000  1.0
  C  C42  1  0.35954000  0.07354000  0.33120000  1.0
  C  C43  1  0.85954000  0.92646000  0.16880000  1.0
  C  C44  1  0.52389000  0.95266000  0.60610000  1.0
  C  C45  1  0.02388000  0.04734000  0.89390000  1.0
  C  C46  1  0.47612000  0.04734000  0.39390000  1.0
  C  C47  1  0.97611000  0.95266000  0.10610000  1.0
  C  C48  1  0.99893000  0.77007000  0.49556000  1.0
  C  C49  1  0.49893000  0.22993000  0.00444000  1.0
  C  C50  1  0.00107000  0.22993000  0.50444000  1.0
  C  C51  1  0.50107000  0.77007000  0.99556000  1.0
  C  C52  1  0.81929000  0.75532000  0.43427000  1.0
  C  C53  1  0.31930000  0.24468000  0.06573000  1.0
  C  C54  1  0.18071000  0.24468000  0.56573000  1.0
  C  C55  1  0.68071000  0.75532000  0.93427000  1.0
  C  C56  1  0.64697000  0.65663000  0.40680000  1.0
  C  C57  1  0.14698000  0.34337000  0.09320000  1.0
  C  C58  1  0.35302000  0.34338000  0.59320000  1.0
  C  C59  1  0.85303000  0.65663000  0.90680000  1.0
  C  C60  1  0.48997000  0.65821000  0.33614000  1.0
  C  C61  1  0.98997000  0.34179000  0.16386000  1.0
  C  C62  1  0.51003000  0.34179000  0.66386000  1.0
  C  C63  1  0.01003000  0.65821000  0.83614000  1.0
  N  N64  1  0.03783000  0.70324000  0.54455000  1.0
  N  N65  1  0.53783000  0.29675000  0.95545000  1.0
  N  N66  1  0.96216000  0.29675000  0.45545000  1.0
  N  N67  1  0.46216000  0.70325000  0.04455000  1.0
  O  O68  1  0.17107000  0.87346000  0.50889000  1.0
  O  O69  1  0.67107000  0.12654000  0.99111000  1.0
  O  O70  1  0.82893000  0.12654000  0.49111000  1.0
  O  O71  1  0.32893000  0.87346000  0.00889000  1.0
  O  O72  1  0.61861000  0.55859000  0.43036000  1.0
  O  O73  1  0.11861000  0.44141000  0.06964000  1.0
  O  O74  1  0.38138000  0.44141000  0.56964000  1.0
  O  O75  1  0.88138000  0.55859000  0.93036000  1.0
  F  F76  1  0.40627000  0.77080000  0.32820000  1.0
  F  F77  1  0.90627000  0.22920000  0.17180000  1.0
  F  F78  1  0.59374000  0.22920000  0.67180000  1.0
  F  F79  1  0.09373000  0.77080000  0.82820000  1.0
  F  F80  1  0.24258000  0.58862000  0.32827000  1.0
  F  F81  1  0.74259000  0.41138000  0.17173000  1.0
  F  F82  1  0.75742000  0.41138000  0.67173000  1.0
  F  F83  1  0.25742000  0.58862000  0.82827000  1.0
  F  F84  1  0.66978000  0.61375000  0.27984000  1.0
  F  F85  1  0.16978000  0.38625000  0.22016000  1.0
  F  F86  1  0.33023000  0.38624000  0.72016000  1.0
  F  F87  1  0.83023000  0.61375000  0.77984000  1.0
