# generated using pymatgen
data_NiH4C5N3
_symmetry_space_group_name_H-M   'P 1'
_cell_length_a   5.31505000
_cell_length_b   9.35563000
_cell_length_c   11.41300000
_cell_angle_alpha   89.99910000
_cell_angle_beta   91.04850000
_cell_angle_gamma   89.99780000
_symmetry_Int_Tables_number   1
_chemical_formula_structural   NiH4C5N3
_chemical_formula_sum   'Ni4 H16 C20 N12'
_cell_volume   567.42371967
_cell_formula_units_Z   4
loop_
 _symmetry_equiv_pos_site_id
 _symmetry_equiv_pos_as_xyz
  1  'x, y, z'
loop_
 _atom_site_type_symbol
 _atom_site_label
 _atom_site_symmetry_multiplicity
 _atom_site_fract_x
 _atom_site_fract_y
 _atom_site_fract_z
 _atom_site_occupancy
  Ni  Ni0  1  0.65307000  0.49984000  0.74638000  1.0
  Ni  Ni1  1  0.34694000  0.99986000  0.75362000  1.0
  Ni  Ni2  1  0.34698000  0.50015000  0.25363000  1.0
  Ni  Ni3  1  0.65303000  0.00014000  0.24637000  1.0
  H  H4  1  0.10093000  0.64659000  0.66977000  1.0
  H  H5  1  0.89905000  0.14660000  0.83023000  1.0
  H  H6  1  0.89906000  0.35341000  0.33024000  1.0
  H  H7  1  0.10096000  0.85339000  0.16975000  1.0
  H  H8  1  0.61468000  0.63968000  0.99142000  1.0
  H  H9  1  0.38531000  0.13967000  0.50858000  1.0
  H  H10  1  0.38534000  0.36034000  0.00857000  1.0
  H  H11  1  0.61468000  0.86034000  0.49143000  1.0
  H  H12  1  0.11277000  0.36246000  0.82855000  1.0
  H  H13  1  0.88723000  0.86247000  0.67146000  1.0
  H  H14  1  0.88725000  0.63755000  0.17145000  1.0
  H  H15  1  0.11275000  0.13754000  0.32854000  1.0
  H  H16  1  0.61268000  0.36225000  0.49932000  1.0
  H  H17  1  0.38734000  0.86224000  0.00067000  1.0
  H  H18  1  0.38732000  0.63775000  0.50070000  1.0
  H  H19  1  0.61266000  0.13775000  0.99931000  1.0
  C  C20  1  0.78679000  0.57663000  0.99503000  1.0
  C  C21  1  0.21320000  0.07663000  0.50497000  1.0
  C  C22  1  0.21322000  0.42338000  0.00498000  1.0
  C  C23  1  0.78679000  0.92337000  0.49503000  1.0
  C  C24  1  0.06012000  0.42339000  0.90547000  1.0
  C  C25  1  0.93989000  0.92340000  0.59453000  1.0
  C  C26  1  0.93988000  0.57661000  0.09454000  1.0
  C  C27  1  0.06011000  0.07661000  0.40546000  1.0
  C  C28  1  0.05283000  0.58167000  0.59353000  1.0
  C  C29  1  0.94716000  0.08167000  0.90647000  1.0
  C  C30  1  0.94716000  0.41834000  0.40647000  1.0
  C  C31  1  0.05285000  0.91832000  0.09352000  1.0
  C  C32  1  0.78587000  0.42430000  0.50015000  1.0
  C  C33  1  0.21413000  0.92430000  0.99985000  1.0
  C  C34  1  0.21412000  0.57570000  0.49986000  1.0
  C  C35  1  0.78587000  0.07570000  0.00014000  1.0
  C  C36  1  0.46448000  0.81240000  0.76002000  1.0
  C  C37  1  0.53552000  0.31238000  0.73998000  1.0
  C  C38  1  0.53547000  0.18761000  0.23999000  1.0
  C  C39  1  0.46451000  0.68760000  0.26002000  1.0
  N  N40  1  0.84384000  0.49954000  0.89893000  1.0
  N  N41  1  0.15615000  0.99955000  0.60107000  1.0
  N  N42  1  0.15616000  0.50045000  0.10108000  1.0
  N  N43  1  0.84384000  0.00044000  0.39892000  1.0
  N  N44  1  0.83503000  0.50627000  0.59564000  1.0
  N  N45  1  0.16496000  0.00627000  0.90436000  1.0
  N  N46  1  0.16495000  0.49374000  0.40436000  1.0
  N  N47  1  0.83505000  0.99373000  0.09564000  1.0
  N  N48  1  0.54129000  0.69353000  0.75833000  1.0
  N  N49  1  0.45871000  0.19354000  0.74166000  1.0
  N  N50  1  0.45875000  0.30647000  0.24168000  1.0
  N  N51  1  0.54126000  0.80646000  0.25833000  1.0
