# generated using pymatgen
data_CdH10C16(NO)4
_symmetry_space_group_name_H-M   'P 1'
_cell_length_a   9.74314000
_cell_length_b   11.28240000
_cell_length_c   14.73240000
_cell_angle_alpha   106.06000000
_cell_angle_beta   90.00000000
_cell_angle_gamma   89.99940000
_symmetry_Int_Tables_number   1
_chemical_formula_structural   CdH10C16(NO)4
_chemical_formula_sum   'Cd4 H40 C64 N16 O16'
_cell_volume   1556.26986310
_cell_formula_units_Z   4
loop_
 _symmetry_equiv_pos_site_id
 _symmetry_equiv_pos_as_xyz
  1  'x, y, z'
loop_
 _atom_site_type_symbol
 _atom_site_label
 _atom_site_symmetry_multiplicity
 _atom_site_fract_x
 _atom_site_fract_y
 _atom_site_fract_z
 _atom_site_occupancy
  Cd  Cd0  1  0.89105000  0.36102000  0.48095000  1.0
  Cd  Cd1  1  0.39105000  0.63897000  0.01904000  1.0
  Cd  Cd2  1  0.10895000  0.63897000  0.51905000  1.0
  Cd  Cd3  1  0.60895000  0.36103000  0.98096000  1.0
  H  H4  1  0.70725000  0.40320000  0.30161000  1.0
  H  H5  1  0.20725000  0.59681000  0.19838000  1.0
  H  H6  1  0.29275000  0.59680000  0.69837000  1.0
  H  H7  1  0.79274000  0.40320000  0.80162000  1.0
  H  H8  1  0.39412000  0.66105000  0.27319000  1.0
  H  H9  1  0.89412000  0.33897000  0.22682000  1.0
  H  H10  1  0.60587000  0.33895000  0.72681000  1.0
  H  H11  1  0.10588000  0.66104000  0.77318000  1.0
  H  H12  1  0.05437000  0.24035000  0.27557000  1.0
  H  H13  1  0.55435000  0.75964000  0.22441000  1.0
  H  H14  1  0.94565000  0.75965000  0.72442000  1.0
  H  H15  1  0.44563000  0.24037000  0.77559000  1.0
  H  H16  1  0.39825000  0.76464000  0.44718000  1.0
  H  H17  1  0.89823000  0.23537000  0.05283000  1.0
  H  H18  1  0.60175000  0.23535000  0.55283000  1.0
  H  H19  1  0.10176000  0.76463000  0.94717000  1.0
  H  H20  1  0.26215000  0.85459000  0.32758000  1.0
  H  H21  1  0.76214000  0.14540000  0.17242000  1.0
  H  H22  1  0.73787000  0.14542000  0.67243000  1.0
  H  H23  1  0.23790000  0.85458000  0.82758000  1.0
  H  H24  1  0.13999000  0.07009000  0.14035000  1.0
  H  H25  1  0.63997000  0.92989000  0.35964000  1.0
  H  H26  1  0.86003000  0.92991000  0.85965000  1.0
  H  H27  1  0.36002000  0.07011000  0.64036000  1.0
  H  H28  1  0.72471000  0.60101000  0.65068000  1.0
  H  H29  1  0.22470000  0.39897000  0.84932000  1.0
  H  H30  1  0.27528000  0.39897000  0.34932000  1.0
  H  H31  1  0.77529000  0.60104000  0.15068000  1.0
  H  H32  1  0.07953000  0.19477000  0.60274000  1.0
  H  H33  1  0.57954000  0.80523000  0.89725000  1.0
  H  H34  1  0.92044000  0.80522000  0.39725000  1.0
  H  H35  1  0.42046000  0.19477000  0.10276000  1.0
  H  H36  1  0.54214000  0.74291000  0.61604000  1.0
  H  H37  1  0.04213000  0.25709000  0.88396000  1.0
  H  H38  1  0.45785000  0.25708000  0.38395000  1.0
  H  H39  1  0.95786000  0.74292000  0.11604000  1.0
  H  H40  1  0.19949000  0.98674000  0.52416000  1.0
  H  H41  1  0.69949000  0.01326000  0.97583000  1.0
  H  H42  1  0.80051000  0.01326000  0.47584000  1.0
  H  H43  1  0.30052000  0.98673000  0.02417000  1.0
  C  C44  1  0.56082000  0.64373000  0.46943000  1.0
  C  C45  1  0.06081000  0.35627000  0.03057000  1.0
  C  C46  1  0.43918000  0.35626000  0.53056000  1.0
  C  C47  1  0.93919000  0.64372000  0.96943000  1.0
  C  C48  1  0.55250000  0.52874000  0.27768000  1.0
  C  C49  1  0.05250000  0.47127000  0.22232000  1.0
  C  C50  1  0.44749000  0.47126000  0.72231000  1.0
  C  C51  1  0.94749000  0.52874000  0.77768000  1.0
  C  C52  1  0.55308000  0.47049000  0.17315000  1.0
  C  C53  1  0.05308000  0.52954000  0.32686000  1.0
  C  C54  1  0.44691000  0.52952000  0.82685000  1.0
  C  C55  1  0.94691000  0.47046000  0.67314000  1.0
  C  C56  1  0.64729000  0.54140000  0.42973000  1.0
  C  C57  1  0.14728000  0.45860000  0.07027000  1.0
  C  C58  1  0.35271000  0.45859000  0.57026000  1.0
  C  C59  1  0.85272000  0.54140000  0.92973000  1.0
  C  C60  1  0.64361000  0.48305000  0.33309000  1.0
  C  C61  1  0.14361000  0.51696000  0.16691000  1.0
  C  C62  1  0.35639000  0.51695000  0.66691000  1.0
  C  C63  1  0.85638000  0.48304000  0.83309000  1.0
  C  C64  1  0.46556000  0.63005000  0.31869000  1.0
  C  C65  1  0.96556000  0.36996000  0.18132000  1.0
  C  C66  1  0.53444000  0.36995000  0.68131000  1.0
  C  C67  1  0.03444000  0.63004000  0.81868000  1.0
  C  C68  1  0.10113000  0.15814000  0.28689000  1.0
  C  C69  1  0.60112000  0.84185000  0.21310000  1.0
  C  C70  1  0.89889000  0.84185000  0.71311000  1.0
  C  C71  1  0.39888000  0.15816000  0.78690000  1.0
  C  C72  1  0.11145000  0.14316000  0.37777000  1.0
  C  C73  1  0.61144000  0.85684000  0.12222000  1.0
  C  C74  1  0.88856000  0.85685000  0.62222000  1.0
  C  C75  1  0.38855000  0.14317000  0.87779000  1.0
  C  C76  1  0.46810000  0.68928000  0.41496000  1.0
  C  C77  1  0.96810000  0.31073000  0.08505000  1.0
  C  C78  1  0.53189000  0.31073000  0.58504000  1.0
  C  C79  1  0.03190000  0.68926000  0.91495000  1.0
  C  C80  1  0.20702000  0.95439000  0.22667000  1.0
  C  C81  1  0.70701000  0.04559000  0.27333000  1.0
  C  C82  1  0.79300000  0.04561000  0.77334000  1.0
  C  C83  1  0.29300000  0.95441000  0.72668000  1.0
  C  C84  1  0.25444000  0.85385000  0.14334000  1.0
  C  C85  1  0.75443000  0.14613000  0.35666000  1.0
  C  C86  1  0.74557000  0.14614000  0.85667000  1.0
  C  C87  1  0.24557000  0.85387000  0.64334000  1.0
  C  C88  1  0.21947000  0.93926000  0.31762000  1.0
  C  C89  1  0.71946000  0.06073000  0.18238000  1.0
  C  C90  1  0.78055000  0.06075000  0.68237000  1.0
  C  C91  1  0.28056000  0.93927000  0.81763000  1.0
  C  C92  1  0.17192000  0.03542000  0.39240000  1.0
  C  C93  1  0.67191000  0.96457000  0.10760000  1.0
  C  C94  1  0.82810000  0.96458000  0.60761000  1.0
  C  C95  1  0.32810000  0.03542000  0.89240000  1.0
  C  C96  1  0.14919000  0.06307000  0.21238000  1.0
  C  C97  1  0.64918000  0.93692000  0.28762000  1.0
  C  C98  1  0.85083000  0.93693000  0.78763000  1.0
  C  C99  1  0.35082000  0.06308000  0.71238000  1.0
  C  C100  1  0.68565000  0.59605000  0.58080000  1.0
  C  C101  1  0.18565000  0.40395000  0.91921000  1.0
  C  C102  1  0.31434000  0.40395000  0.41920000  1.0
  C  C103  1  0.81434000  0.59606000  0.08079000  1.0
  C  C104  1  0.10257000  0.16051000  0.52791000  1.0
  C  C105  1  0.60258000  0.83950000  0.97209000  1.0
  C  C106  1  0.89742000  0.83949000  0.47209000  1.0
  C  C107  1  0.39742000  0.16051000  0.02792000  1.0
  N  N108  1  0.58913000  0.67585000  0.56529000  1.0
  N  N109  1  0.08913000  0.32414000  0.93472000  1.0
  N  N110  1  0.41086000  0.32414000  0.43471000  1.0
  N  N111  1  0.91087000  0.67586000  0.06528000  1.0
  N  N112  1  0.72347000  0.51444000  0.50163000  1.0
  N  N113  1  0.22347000  0.48556000  0.99837000  1.0
  N  N114  1  0.27653000  0.48555000  0.49836000  1.0
  N  N115  1  0.77653000  0.51445000  0.00163000  1.0
  N  N116  1  0.06862000  0.21930000  0.46406000  1.0
  N  N117  1  0.56862000  0.78070000  0.03594000  1.0
  N  N118  1  0.93138000  0.78070000  0.53594000  1.0
  N  N119  1  0.43137000  0.21931000  0.96407000  1.0
  N  N120  1  0.16555000  0.05109000  0.48902000  1.0
  N  N121  1  0.66555000  0.94891000  0.01097000  1.0
  N  N122  1  0.83445000  0.94892000  0.51098000  1.0
  N  N123  1  0.33446000  0.05109000  0.98903000  1.0
  O  O124  1  0.49799000  0.52770000  0.11869000  1.0
  O  O125  1  0.99800000  0.47232000  0.38132000  1.0
  O  O126  1  0.50199000  0.47232000  0.88132000  1.0
  O  O127  1  0.00200000  0.52767000  0.61868000  1.0
  O  O128  1  0.61471000  0.36731000  0.14141000  1.0
  O  O129  1  0.11472000  0.63270000  0.35859000  1.0
  O  O130  1  0.38527000  0.63269000  0.85858000  1.0
  O  O131  1  0.88527000  0.36730000  0.64142000  1.0
  O  O132  1  0.29501000  0.75304000  0.15803000  1.0
  O  O133  1  0.79500000  0.24694000  0.34197000  1.0
  O  O134  1  0.70499000  0.24696000  0.84197000  1.0
  O  O135  1  0.20500000  0.75306000  0.65804000  1.0
  O  O136  1  0.25240000  0.86989000  0.06093000  1.0
  O  O137  1  0.75238000  0.13009000  0.43907000  1.0
  O  O138  1  0.74761000  0.13010000  0.93907000  1.0
  O  O139  1  0.24761000  0.86992000  0.56094000  1.0
