# generated using pymatgen
data_NaH10C8NO9
_symmetry_space_group_name_H-M   'P 1'
_cell_length_a   6.81756000
_cell_length_b   7.47464000
_cell_length_c   12.92170000
_cell_angle_alpha   75.67780000
_cell_angle_beta   75.85930000
_cell_angle_gamma   68.31830000
_symmetry_Int_Tables_number   1
_chemical_formula_structural   NaH10C8NO9
_chemical_formula_sum   'Na2 H20 C16 N2 O18'
_cell_volume   584.25766357
_cell_formula_units_Z   2
loop_
 _symmetry_equiv_pos_site_id
 _symmetry_equiv_pos_as_xyz
  1  'x, y, z'
loop_
 _atom_site_type_symbol
 _atom_site_label
 _atom_site_symmetry_multiplicity
 _atom_site_fract_x
 _atom_site_fract_y
 _atom_site_fract_z
 _atom_site_occupancy
  Na  Na0  1  0.26350000  0.47119000  0.50749000  1.0
  Na  Na1  1  0.73650000  0.52881000  0.49251000  1.0
  H  H2  1  0.52644000  0.35235000  0.24063000  1.0
  H  H3  1  0.47353000  0.64764000  0.75938000  1.0
  H  H4  1  0.19511000  0.26912000  0.92022000  1.0
  H  H5  1  0.80491000  0.73086000  0.07977000  1.0
  H  H6  1  0.35315000  0.94537000  0.86135000  1.0
  H  H7  1  0.64691000  0.05462000  0.13864000  1.0
  H  H8  1  0.42794000  0.64358000  0.00109000  1.0
  H  H9  1  0.57209000  0.35642000  0.99891000  1.0
  H  H10  1  0.27494000  0.82950000  0.57219000  1.0
  H  H11  1  0.72504000  0.17051000  0.42782000  1.0
  H  H12  1  0.34702000  0.83817000  0.44866000  1.0
  H  H13  1  0.65298000  0.16183000  0.55134000  1.0
  H  H14  1  0.14447000  0.39513000  0.73560000  1.0
  H  H15  1  0.85554000  0.60486000  0.26440000  1.0
  H  H16  1  0.17923000  0.19940000  0.69663000  1.0
  H  H17  1  0.82080000  0.80059000  0.30336000  1.0
  H  H18  1  0.07369000  0.18453000  0.54342000  1.0
  H  H19  1  0.92630000  0.81547000  0.45658000  1.0
  H  H20  1  0.13431000  0.19859000  0.41892000  1.0
  H  H21  1  0.86568000  0.80141000  0.58108000  1.0
  C  C22  1  0.28570000  0.79435000  0.13707000  1.0
  C  C23  1  0.71430000  0.20565000  0.86294000  1.0
  C  C24  1  0.17749000  0.97664000  0.17119000  1.0
  C  C25  1  0.82249000  0.02336000  0.82881000  1.0
  C  C26  1  0.15499000  0.14284000  0.08976000  1.0
  C  C27  1  0.84499000  0.85716000  0.91024000  1.0
  C  C28  1  0.21732000  0.13458000  0.97926000  1.0
  C  C29  1  0.78268000  0.86542000  0.02074000  1.0
  C  C30  1  0.30645000  0.95309000  0.94741000  1.0
  C  C31  1  0.69358000  0.04689000  0.05260000  1.0
  C  C32  1  0.34633000  0.78468000  0.02617000  1.0
  C  C33  1  0.65370000  0.21531000  0.97384000  1.0
  C  C34  1  0.34685000  0.61626000  0.22051000  1.0
  C  C35  1  0.65315000  0.38377000  0.77948000  1.0
  C  C36  1  0.10399000  0.99723000  0.28974000  1.0
  C  C37  1  0.89600000  0.00279000  0.71024000  1.0
  N  N38  1  0.07904000  0.33514000  0.12026000  1.0
  N  N39  1  0.92094000  0.66486000  0.87972000  1.0
  O  O40  1  0.28246000  0.61041000  0.31809000  1.0
  O  O41  1  0.71757000  0.38961000  0.68191000  1.0
  O  O42  1  0.48829000  0.45804000  0.17902000  1.0
  O  O43  1  0.51166000  0.54196000  0.82101000  1.0
  O  O44  1  0.91945000  0.98422000  0.33257000  1.0
  O  O45  1  0.08053000  0.01579000  0.66743000  1.0
  O  O46  1  0.23165000  0.03040000  0.33256000  1.0
  O  O47  1  0.76833000  0.96962000  0.66744000  1.0
  O  O48  1  0.94309000  0.36538000  0.20384000  1.0
  O  O49  1  0.05689000  0.63461000  0.79614000  1.0
  O  O50  1  0.15676000  0.45948000  0.06164000  1.0
  O  O51  1  0.84323000  0.54053000  0.93836000  1.0
  O  O52  1  0.37340000  0.75017000  0.51829000  1.0
  O  O53  1  0.62659000  0.24984000  0.48172000  1.0
  O  O54  1  0.24717000  0.29685000  0.69359000  1.0
  O  O55  1  0.75285000  0.70314000  0.30640000  1.0
  O  O56  1  0.08298000  0.28084000  0.47597000  1.0
  O  O57  1  0.91702000  0.71917000  0.52404000  1.0
