# generated using pymatgen
data_CoH10C12N2O3F
_symmetry_space_group_name_H-M   'P 1'
_cell_length_a   7.31266000
_cell_length_b   9.49403591
_cell_length_c   11.28110000
_cell_angle_alpha   80.47205150
_cell_angle_beta   89.84460000
_cell_angle_gamma   67.38713901
_symmetry_Int_Tables_number   1
_chemical_formula_structural   CoH10C12N2O3F
_chemical_formula_sum   'Co2 H20 C24 N4 O6 F2'
_cell_volume   711.42631505
_cell_formula_units_Z   2
loop_
 _symmetry_equiv_pos_site_id
 _symmetry_equiv_pos_as_xyz
  1  'x, y, z'
loop_
 _atom_site_type_symbol
 _atom_site_label
 _atom_site_symmetry_multiplicity
 _atom_site_fract_x
 _atom_site_fract_y
 _atom_site_fract_z
 _atom_site_occupancy
  Co  Co0  1  0.59639000  0.50632000  0.49982000  1.0
  Co  Co1  1  0.10320000  0.49362000  0.50016000  1.0
  H  H2  1  0.87586000  0.93056000  0.39743000  1.0
  H  H3  1  0.80551000  0.07050000  0.60377000  1.0
  H  H4  1  0.41008000  0.74214000  0.27003000  1.0
  H  H5  1  0.15218000  0.25855000  0.72940000  1.0
  H  H6  1  0.39677000  0.74985000  0.04861000  1.0
  H  H7  1  0.14642000  0.24989000  0.95098000  1.0
  H  H8  1  0.78360000  0.26350000  0.11867000  1.0
  H  H9  1  0.04658000  0.73655000  0.88164000  1.0
  H  H10  1  0.76657000  0.27345000  0.33527000  1.0
  H  H11  1  0.03905000  0.72758000  0.66491000  1.0
  H  H12  1  0.59262000  0.28656000  0.72136000  1.0
  H  H13  1  0.88043000  0.71290000  0.27910000  1.0
  H  H14  1  0.59398000  0.27536000  0.94442000  1.0
  H  H15  1  0.87009000  0.72412000  0.05609000  1.0
  H  H16  1  0.59368000  0.73721000  0.87998000  1.0
  H  H17  1  0.33055000  0.26231000  0.11941000  1.0
  H  H18  1  0.60135000  0.72433000  0.66033000  1.0
  H  H19  1  0.32584000  0.27515000  0.33909000  1.0
  H  H20  1  0.19574000  0.02131000  0.38636000  1.0
  H  H21  1  0.21539000  0.97924000  0.61426000  1.0
  C  C22  1  0.48999000  0.63855000  0.23224000  1.0
  C  C23  1  0.12809000  0.36207000  0.76739000  1.0
  C  C24  1  0.48594000  0.64229000  0.10869000  1.0
  C  C25  1  0.12764000  0.35781000  0.89101000  1.0
  C  C26  1  0.59185000  0.50710000  0.06253000  1.0
  C  C27  1  0.09848000  0.49276000  0.93740000  1.0
  C  C28  1  0.69584000  0.37287000  0.14699000  1.0
  C  C29  1  0.06793000  0.62739000  0.85308000  1.0
  C  C30  1  0.69051000  0.37818000  0.26934000  1.0
  C  C31  1  0.06785000  0.62264000  0.73070000  1.0
  C  C32  1  0.59589000  0.38229000  0.76160000  1.0
  C  C33  1  0.97921000  0.61720000  0.23864000  1.0
  C  C34  1  0.59669000  0.37754000  0.88520000  1.0
  C  C35  1  0.97487000  0.62195000  0.11506000  1.0
  C  C36  1  0.59312000  0.50653000  0.93231000  1.0
  C  C37  1  0.09974000  0.49299000  0.06763000  1.0
  C  C38  1  0.59152000  0.63483000  0.84930000  1.0
  C  C39  1  0.22636000  0.36471000  0.15035000  1.0
  C  C40  1  0.59614000  0.62908000  0.72713000  1.0
  C  C41  1  0.22564000  0.37047000  0.27254000  1.0
  C  C42  1  0.20363000  0.79347000  0.46079000  1.0
  C  C43  1  0.99608000  0.20671000  0.53941000  1.0
  C  C44  1  0.10109000  0.97116000  0.43865000  1.0
  C  C45  1  0.07130000  0.02897000  0.56176000  1.0
  N  N46  1  0.59712000  0.50529000  0.68309000  1.0
  N  N47  1  0.10334000  0.49416000  0.31688000  1.0
  N  N48  1  0.59057000  0.50901000  0.31286000  1.0
  N  N49  1  0.09908000  0.49197000  0.68690000  1.0
  O  O50  1  0.39121000  0.73505000  0.47595000  1.0
  O  O51  1  0.12497000  0.26535000  0.52233000  1.0
  O  O52  1  0.08608000  0.72364000  0.46228000  1.0
  O  O53  1  0.80896000  0.27610000  0.53968000  1.0
  O  O54  1  0.91571000  0.01845000  0.37235000  1.0
  O  O55  1  0.93243000  0.98155000  0.62771000  1.0
  F  F56  1  0.80775000  0.59019000  0.48548000  1.0
  F  F57  1  0.39828000  0.40870000  0.51364000  1.0
