# generated using pymatgen
data_CdH16C24Br2(NO2)2
_symmetry_space_group_name_H-M   'P 1'
_cell_length_a   9.81181000
_cell_length_b   10.62900000
_cell_length_c   13.88440000
_cell_angle_alpha   103.81300000
_cell_angle_beta   95.73310000
_cell_angle_gamma   110.31500000
_symmetry_Int_Tables_number   1
_chemical_formula_structural   CdH16C24Br2(NO2)2
_chemical_formula_sum   'Cd2 H32 C48 Br4 N4 O8'
_cell_volume   1291.82585857
_cell_formula_units_Z   2
loop_
 _symmetry_equiv_pos_site_id
 _symmetry_equiv_pos_as_xyz
  1  'x, y, z'
loop_
 _atom_site_type_symbol
 _atom_site_label
 _atom_site_symmetry_multiplicity
 _atom_site_fract_x
 _atom_site_fract_y
 _atom_site_fract_z
 _atom_site_occupancy
  Cd  Cd0  1  0.58845000  0.87479000  0.42042000  1.0
  Cd  Cd1  1  0.41155000  0.12521000  0.57958000  1.0
  H  H2  1  0.51636000  0.56460000  0.42299000  1.0
  H  H3  1  0.48364000  0.43541000  0.57703000  1.0
  H  H4  1  0.30693000  0.34454000  0.42099000  1.0
  H  H5  1  0.69306000  0.65546000  0.57902000  1.0
  H  H6  1  0.01070000  0.55723000  0.38093000  1.0
  H  H7  1  0.98929000  0.44277000  0.61906000  1.0
  H  H8  1  0.23281000  0.76700000  0.38531000  1.0
  H  H9  1  0.76719000  0.23301000  0.61470000  1.0
  H  H10  1  0.85674000  0.32079000  0.29092000  1.0
  H  H11  1  0.14326000  0.67922000  0.70908000  1.0
  H  H12  1  0.64961000  0.11331000  0.30615000  1.0
  H  H13  1  0.35039000  0.88669000  0.69385000  1.0
  H  H14  1  0.92049000  0.05815000  0.52727000  1.0
  H  H15  1  0.07952000  0.94186000  0.47273000  1.0
  H  H16  1  0.13839000  0.26149000  0.52322000  1.0
  H  H17  1  0.86161000  0.73852000  0.47677000  1.0
  H  H18  1  0.53199000  0.67436000  0.06332000  1.0
  H  H19  1  0.46802000  0.32566000  0.93669000  1.0
  H  H20  1  0.61152000  0.59707000  0.90099000  1.0
  H  H21  1  0.38848000  0.40293000  0.09902000  1.0
  H  H22  1  0.03527000  0.66129000  0.07120000  1.0
  H  H23  1  0.96474000  0.33871000  0.92881000  1.0
  H  H24  1  0.95007000  0.73052000  0.23254000  1.0
  H  H25  1  0.04993000  0.26947000  0.76747000  1.0
  H  H26  1  0.56681000  0.10561000  0.78087000  1.0
  H  H27  1  0.43318000  0.89437000  0.21912000  1.0
  H  H28  1  0.61852000  0.14375000  0.96550000  1.0
  H  H29  1  0.38148000  0.85624000  0.03450000  1.0
  H  H30  1  0.88171000  0.88989000  0.92684000  1.0
  H  H31  1  0.11829000  0.11011000  0.07316000  1.0
  H  H32  1  0.82949000  0.85161000  0.74086000  1.0
  H  H33  1  0.17051000  0.14838000  0.25913000  1.0
  C  C34  1  0.40244000  0.55860000  0.41576000  1.0
  C  C35  1  0.59756000  0.44140000  0.58425000  1.0
  C  C36  1  0.28651000  0.43740000  0.41510000  1.0
  C  C37  1  0.71348000  0.56261000  0.58491000  1.0
  C  C38  1  0.14160000  0.43453000  0.40371000  1.0
  C  C39  1  0.85840000  0.56548000  0.59629000  1.0
  C  C40  1  0.12077000  0.55387000  0.39076000  1.0
  C  C41  1  0.87923000  0.44613000  0.60923000  1.0
  C  C42  1  0.24349000  0.67134000  0.39360000  1.0
  C  C43  1  0.75651000  0.32867000  0.60640000  1.0
  C  C44  1  0.01602000  0.30995000  0.40626000  1.0
  C  C45  1  0.98397000  0.69006000  0.59374000  1.0
  C  C46  1  0.87558000  0.26692000  0.34541000  1.0
  C  C47  1  0.12443000  0.73309000  0.65459000  1.0
  C  C48  1  0.75989000  0.15088000  0.35293000  1.0
  C  C49  1  0.24011000  0.84913000  0.64707000  1.0
  C  C50  1  0.91182000  0.11903000  0.47553000  1.0
  C  C51  1  0.08819000  0.88097000  0.52447000  1.0
  C  C52  1  0.03369000  0.23284000  0.47223000  1.0
  C  C53  1  0.96631000  0.76716000  0.52776000  1.0
  C  C54  1  0.68615000  0.75195000  0.25390000  1.0
  C  C55  1  0.31384000  0.24804000  0.74610000  1.0
  C  C56  1  0.73545000  0.70531000  0.15757000  1.0
  C  C57  1  0.26455000  0.29469000  0.84244000  1.0
  C  C58  1  0.64109000  0.66941000  0.06410000  1.0
  C  C59  1  0.35891000  0.33060000  0.93591000  1.0
  C  C60  1  0.68544000  0.62749000  0.97376000  1.0
  C  C61  1  0.31456000  0.37251000  0.02624000  1.0
  C  C62  1  0.82725000  0.62513000  0.97798000  1.0
  C  C63  1  0.17275000  0.37487000  0.02202000  1.0
  C  C64  1  0.92470000  0.66277000  0.06978000  1.0
  C  C65  1  0.07531000  0.33724000  0.93023000  1.0
  C  C66  1  0.87686000  0.70126000  0.15953000  1.0
  C  C67  1  0.12314000  0.29874000  0.84048000  1.0
  C  C68  1  0.65696000  0.94618000  0.63568000  1.0
  C  C69  1  0.34304000  0.05382000  0.36431000  1.0
  C  C70  1  0.69307000  0.97385000  0.74781000  1.0
  C  C71  1  0.30693000  0.02614000  0.25219000  1.0
  C  C72  1  0.63550000  0.05751000  0.81180000  1.0
  C  C73  1  0.36450000  0.94248000  0.18819000  1.0
  C  C74  1  0.66443000  0.07983000  0.91610000  1.0
  C  C75  1  0.33558000  0.92017000  0.08390000  1.0
  C  C76  1  0.75200000  0.01815000  0.95619000  1.0
  C  C77  1  0.24801000  0.98185000  0.04380000  1.0
  C  C78  1  0.81259000  0.93630000  0.89435000  1.0
  C  C79  1  0.18742000  0.06370000  0.10565000  1.0
  C  C80  1  0.78279000  0.91483000  0.79018000  1.0
  C  C81  1  0.21722000  0.08517000  0.20982000  1.0
  Br  Br82  1  0.78757000  0.04550000  0.09825000  1.0
  Br  Br83  1  0.21243000  0.95450000  0.90175000  1.0
  Br  Br84  1  0.88691000  0.56778000  0.85386000  1.0
  Br  Br85  1  0.11306000  0.43217000  0.14613000  1.0
  N  N86  1  0.38227000  0.67478000  0.40756000  1.0
  N  N87  1  0.61772000  0.32523000  0.59245000  1.0
  N  N88  1  0.77736000  0.07860000  0.41726000  1.0
  N  N89  1  0.22264000  0.92140000  0.58273000  1.0
  O  O90  1  0.75599000  0.75647000  0.33772000  1.0
  O  O91  1  0.24400000  0.24353000  0.66228000  1.0
  O  O92  1  0.57453000  0.78806000  0.24686000  1.0
  O  O93  1  0.42545000  0.21191000  0.75315000  1.0
  O  O94  1  0.70492000  0.86477000  0.57844000  1.0
  O  O95  1  0.29509000  0.13523000  0.42156000  1.0
  O  O96  1  0.57815000  0.00377000  0.59827000  1.0
  O  O97  1  0.42185000  0.99621000  0.40172000  1.0
