# generated using pymatgen
data_CuH9C10NCl
_symmetry_space_group_name_H-M   'P 1'
_cell_length_a   3.73066000
_cell_length_b   9.32639000
_cell_length_c   25.22520000
_cell_angle_alpha   90.00020000
_cell_angle_beta   89.99980000
_cell_angle_gamma   89.99930000
_symmetry_Int_Tables_number   1
_chemical_formula_structural   CuH9C10NCl
_chemical_formula_sum   'Cu4 H36 C40 N4 Cl4'
_cell_volume   877.67526935
_cell_formula_units_Z   4
loop_
 _symmetry_equiv_pos_site_id
 _symmetry_equiv_pos_as_xyz
  1  'x, y, z'
loop_
 _atom_site_type_symbol
 _atom_site_label
 _atom_site_symmetry_multiplicity
 _atom_site_fract_x
 _atom_site_fract_y
 _atom_site_fract_z
 _atom_site_occupancy
  Cu  Cu0  1  0.26480000  0.98101000  0.36421000  1.0
  Cu  Cu1  1  0.73519000  0.51899000  0.86421000  1.0
  Cu  Cu2  1  0.23518000  0.48101000  0.63579000  1.0
  Cu  Cu3  1  0.76481000  0.01899000  0.13579000  1.0
  H  H4  1  0.70439000  0.90996000  0.28481000  1.0
  H  H5  1  0.29560000  0.59004000  0.78481000  1.0
  H  H6  1  0.79562000  0.40996000  0.71519000  1.0
  H  H7  1  0.20438000  0.09003000  0.21519000  1.0
  H  H8  1  0.32897000  0.85657000  0.24641000  1.0
  H  H9  1  0.67102000  0.64343000  0.74641000  1.0
  H  H10  1  0.17104000  0.35657000  0.75359000  1.0
  H  H11  1  0.82896000  0.14343000  0.25359000  1.0
  H  H12  1  0.73767000  0.76317000  0.23927000  1.0
  H  H13  1  0.26232000  0.73684000  0.73928000  1.0
  H  H14  1  0.76234000  0.26317000  0.76073000  1.0
  H  H15  1  0.23766000  0.23682000  0.26073000  1.0
  H  H16  1  0.64378000  0.52704000  0.27193000  1.0
  H  H17  1  0.35623000  0.97296000  0.77193000  1.0
  H  H18  1  0.85625000  0.02704000  0.72807000  1.0
  H  H19  1  0.14378000  0.47295000  0.22807000  1.0
  H  H20  1  0.46593000  0.36141000  0.34563000  1.0
  H  H21  1  0.53408000  0.13859000  0.84563000  1.0
  H  H22  1  0.03409000  0.86141000  0.65437000  1.0
  H  H23  1  0.96594000  0.63859000  0.15438000  1.0
  H  H24  1  0.19368000  0.33310000  0.43544000  1.0
  H  H25  1  0.80632000  0.16691000  0.93544000  1.0
  H  H26  1  0.30631000  0.83309000  0.56456000  1.0
  H  H27  1  0.69368000  0.66691000  0.06457000  1.0
  H  H28  1  0.92974000  0.44568000  0.51618000  1.0
  H  H29  1  0.07029000  0.05432000  0.01618000  1.0
  H  H30  1  0.57027000  0.94568000  0.48382000  1.0
  H  H31  1  0.42974000  0.55433000  0.98383000  1.0
  H  H32  1  0.82477000  0.70734000  0.51937000  1.0
  H  H33  1  0.17524000  0.79266000  0.01937000  1.0
  H  H34  1  0.67525000  0.20734000  0.48063000  1.0
  H  H35  1  0.32478000  0.29267000  0.98063000  1.0
  H  H36  1  0.00084000  0.86210000  0.44248000  1.0
  H  H37  1  0.99915000  0.63790000  0.94248000  1.0
  H  H38  1  0.49917000  0.36210000  0.55752000  1.0
  H  H39  1  0.50085000  0.13791000  0.05752000  1.0
  C  C40  1  0.45504000  0.71700000  0.31179000  1.0
  C  C41  1  0.54495000  0.78301000  0.81180000  1.0
  C  C42  1  0.04496000  0.21700000  0.68820000  1.0
  C  C43  1  0.95504000  0.28300000  0.18821000  1.0
  C  C44  1  0.56369000  0.81648000  0.26820000  1.0
  C  C45  1  0.43630000  0.68352000  0.76821000  1.0
  C  C46  1  0.93632000  0.31648000  0.73180000  1.0
  C  C47  1  0.06368000  0.18352000  0.23180000  1.0
  C  C48  1  0.51240000  0.56766000  0.30740000  1.0
  C  C49  1  0.48760000  0.93234000  0.80741000  1.0
  C  C50  1  0.98761000  0.06766000  0.69260000  1.0
  C  C51  1  0.01240000  0.43234000  0.19260000  1.0
  C  C52  1  0.41468000  0.47650000  0.34780000  1.0
  C  C53  1  0.58531000  0.02349000  0.84780000  1.0
  C  C54  1  0.08532000  0.97650000  0.65220000  1.0
  C  C55  1  0.91468000  0.52349000  0.15220000  1.0
  C  C56  1  0.25409000  0.53416000  0.39386000  1.0
  C  C57  1  0.74591000  0.96584000  0.89386000  1.0
  C  C58  1  0.24591000  0.03416000  0.60613000  1.0
  C  C59  1  0.75409000  0.46584000  0.10614000  1.0
  C  C60  1  0.15200000  0.44865000  0.43779000  1.0
  C  C61  1  0.84801000  0.05135000  0.93779000  1.0
  C  C62  1  0.34800000  0.94866000  0.56221000  1.0
  C  C63  1  0.65199000  0.55135000  0.06221000  1.0
  C  C64  1  0.00359000  0.51108000  0.48217000  1.0
  C  C65  1  0.99642000  0.98891000  0.98216000  1.0
  C  C66  1  0.49641000  0.01108000  0.51783000  1.0
  C  C67  1  0.50359000  0.48892000  0.01784000  1.0
  C  C68  1  0.94620000  0.66066000  0.48409000  1.0
  C  C69  1  0.05380000  0.83933000  0.98409000  1.0
  C  C70  1  0.55379000  0.16066000  0.51591000  1.0
  C  C71  1  0.44621000  0.33935000  0.01591000  1.0
  C  C72  1  0.04253000  0.74622000  0.44182000  1.0
  C  C73  1  0.95747000  0.75377000  0.94182000  1.0
  C  C74  1  0.45747000  0.24622000  0.55818000  1.0
  C  C75  1  0.54253000  0.25378000  0.05818000  1.0
  C  C76  1  0.20063000  0.68575000  0.39616000  1.0
  C  C77  1  0.79937000  0.81425000  0.89616000  1.0
  C  C78  1  0.29936000  0.18575000  0.60384000  1.0
  C  C79  1  0.70061000  0.31425000  0.10384000  1.0
  N  N80  1  0.30436000  0.77471000  0.35516000  1.0
  N  N81  1  0.69563000  0.72529000  0.85516000  1.0
  N  N82  1  0.19563000  0.27471000  0.64484000  1.0
  N  N83  1  0.80435000  0.22529000  0.14484000  1.0
  Cl  Cl84  1  0.77085000  0.11761000  0.37149000  1.0
  Cl  Cl85  1  0.22914000  0.38239000  0.87149000  1.0
  Cl  Cl86  1  0.72912000  0.61762000  0.62851000  1.0
  Cl  Cl87  1  0.27087000  0.88238000  0.12851000  1.0
