# generated using pymatgen
data_CaH13C4NO8
_symmetry_space_group_name_H-M   'P 1'
_cell_length_a   6.48032000
_cell_length_b   11.86460000
_cell_length_c   13.97030000
_cell_angle_alpha   67.96520000
_cell_angle_beta   76.58700000
_cell_angle_gamma   74.14470000
_symmetry_Int_Tables_number   1
_chemical_formula_structural   CaH13C4NO8
_chemical_formula_sum   'Ca4 H52 C16 N4 O32'
_cell_volume   947.63778266
_cell_formula_units_Z   4
loop_
 _symmetry_equiv_pos_site_id
 _symmetry_equiv_pos_as_xyz
  1  'x, y, z'
loop_
 _atom_site_type_symbol
 _atom_site_label
 _atom_site_symmetry_multiplicity
 _atom_site_fract_x
 _atom_site_fract_y
 _atom_site_fract_z
 _atom_site_occupancy
  Ca  Ca0  1  0.33561000  0.52536000  0.71566000  1.0
  Ca  Ca1  1  0.57657000  0.47463000  0.28434000  1.0
  Ca  Ca2  1  0.56067000  0.02467000  0.21852000  1.0
  Ca  Ca3  1  0.80351000  0.97539000  0.78148000  1.0
  H  H4  1  0.83179000  0.59048000  0.72664000  1.0
  H  H5  1  0.14885000  0.40954000  0.27337000  1.0
  H  H6  1  0.93075000  0.71472000  0.68994000  1.0
  H  H7  1  0.33541000  0.28529000  0.31001000  1.0
  H  H8  1  0.85558000  0.58147000  0.56784000  1.0
  H  H9  1  0.00494000  0.41854000  0.43214000  1.0
  H  H10  1  0.69738000  0.78608000  0.45628000  1.0
  H  H11  1  0.93951000  0.21413000  0.54370000  1.0
  H  H12  1  0.81061000  0.86156000  0.51150000  1.0
  H  H13  1  0.18353000  0.13847000  0.48866000  1.0
  H  H14  1  0.70667000  0.37806000  0.85106000  1.0
  H  H15  1  0.93573000  0.62184000  0.14898000  1.0
  H  H16  1  0.62040000  0.50908000  0.86667000  1.0
  H  H17  1  0.99611000  0.49084000  0.13332000  1.0
  H  H18  1  0.11556000  0.29753000  0.82019000  1.0
  H  H19  1  0.23326000  0.70236000  0.17979000  1.0
  H  H20  1  0.25539000  0.30351000  0.70809000  1.0
  H  H21  1  0.26693000  0.69649000  0.29186000  1.0
  H  H22  1  0.15994000  0.48504000  0.94801000  1.0
  H  H23  1  0.59302000  0.51494000  0.05193000  1.0
  H  H24  1  0.96142000  0.56311000  0.88794000  1.0
  H  H25  1  0.41253000  0.43688000  0.11199000  1.0
  H  H26  1  0.70486000  0.32395000  0.66097000  1.0
  H  H27  1  0.68971000  0.67610000  0.33903000  1.0
  H  H28  1  0.57041000  0.39390000  0.56604000  1.0
  H  H29  1  0.53024000  0.60619000  0.43394000  1.0
  H  H30  1  0.00876000  0.06861000  0.19911000  1.0
  H  H31  1  0.27613000  0.93125000  0.80088000  1.0
  H  H32  1  0.84650000  0.18554000  0.22949000  1.0
  H  H33  1  0.26122000  0.81433000  0.77050000  1.0
  H  H34  1  0.81907000  0.31284000  0.06911000  1.0
  H  H35  1  0.20087000  0.68701000  0.93089000  1.0
  H  H36  1  0.18050000  0.28811000  0.95558000  1.0
  H  H37  1  0.42397000  0.71185000  0.04439000  1.0
  H  H38  1  0.25617000  0.13519000  0.04451000  1.0
  H  H39  1  0.43533000  0.86481000  0.95547000  1.0
  H  H40  1  0.20736000  0.86711000  0.35025000  1.0
  H  H41  1  0.42407000  0.13279000  0.64986000  1.0
  H  H42  1  0.12997000  0.99962000  0.36260000  1.0
  H  H43  1  0.49142000  0.00029000  0.63754000  1.0
  H  H44  1  0.91213000  0.79103000  0.31971000  1.0
  H  H45  1  0.02261000  0.20905000  0.68025000  1.0
  H  H46  1  0.87423000  0.80288000  0.20616000  1.0
  H  H47  1  0.88312000  0.19710000  0.79383000  1.0
  H  H48  1  0.49208000  0.00579000  0.44796000  1.0
  H  H49  1  0.94562000  0.99435000  0.55201000  1.0
  H  H50  1  0.68254000  0.07612000  0.39002000  1.0
  H  H51  1  0.14838000  0.92397000  0.61000000  1.0
  H  H52  1  0.45219000  0.82657000  0.15847000  1.0
  H  H53  1  0.43718000  0.17352000  0.84155000  1.0
  H  H54  1  0.61697000  0.89769000  0.06716000  1.0
  H  H55  1  0.58181000  0.10234000  0.93284000  1.0
  C  C56  1  0.12319000  0.66918000  0.49315000  1.0
  C  C57  1  0.28545000  0.33093000  0.50688000  1.0
  C  C58  1  0.90965000  0.66138000  0.56926000  1.0
  C  C59  1  0.14037000  0.33863000  0.43073000  1.0
  C  C60  1  0.74034000  0.78030000  0.52984000  1.0
  C  C61  1  0.05040000  0.21977000  0.47021000  1.0
  C  C62  1  0.52539000  0.79883000  0.59948000  1.0
  C  C63  1  0.92375000  0.20120000  0.40053000  1.0
  C  C64  1  0.83102000  0.18685000  0.99453000  1.0
  C  C65  1  0.01221000  0.81301000  0.00550000  1.0
  C  C66  1  0.91778000  0.21983000  0.07205000  1.0
  C  C67  1  0.20941000  0.78005000  0.92793000  1.0
  C  C68  1  0.15781000  0.22875000  0.03720000  1.0
  C  C69  1  0.42347000  0.77121000  0.96276000  1.0
  C  C70  1  0.23246000  0.28435000  0.10154000  1.0
  C  C71  1  0.61815000  0.71567000  0.89840000  1.0
  N  N72  1  0.95079000  0.63324000  0.67559000  1.0
  N  N73  1  0.25964000  0.36676000  0.32440000  1.0
  N  N74  1  0.87300000  0.13627000  0.17951000  1.0
  N  N75  1  0.18843000  0.86361000  0.82048000  1.0
  O  O76  1  0.30041000  0.61845000  0.52877000  1.0
  O  O77  1  0.44769000  0.38151000  0.47130000  1.0
  O  O78  1  0.11147000  0.72790000  0.39543000  1.0
  O  O79  1  0.23445000  0.27231000  0.60460000  1.0
  O  O80  1  0.41821000  0.91241000  0.57817000  1.0
  O  O81  1  0.90910000  0.08761000  0.42176000  1.0
  O  O82  1  0.45521000  0.70958000  0.67095000  1.0
  O  O83  1  0.83568000  0.29045000  0.32910000  1.0
  O  O84  1  0.60700000  0.45908000  0.82608000  1.0
  O  O85  1  0.89209000  0.54083000  0.17392000  1.0
  O  O86  1  0.25193000  0.31853000  0.77439000  1.0
  O  O87  1  0.34481000  0.68145000  0.22559000  1.0
  O  O88  1  0.12218000  0.53809000  0.87700000  1.0
  O  O89  1  0.53738000  0.46186000  0.12293000  1.0
  O  O90  1  0.62193000  0.40580000  0.62282000  1.0
  O  O91  1  0.65032000  0.59430000  0.37712000  1.0
  O  O92  1  0.69725000  0.11602000  0.02984000  1.0
  O  O93  1  0.84292000  0.88399000  0.97021000  1.0
  O  O94  1  0.88944000  0.23978000  0.89631000  1.0
  O  O95  1  0.02526000  0.76007000  0.10370000  1.0
  O  O96  1  0.20190000  0.40389000  0.07213000  1.0
  O  O97  1  0.67787000  0.59615000  0.92775000  1.0
  O  O98  1  0.31993000  0.21388000  0.18091000  1.0
  O  O99  1  0.71436000  0.78620000  0.81900000  1.0
  O  O100  1  0.24065000  0.95091000  0.32309000  1.0
  O  O101  1  0.51382000  0.04894000  0.67711000  1.0
  O  O102  1  0.80081000  0.82038000  0.27207000  1.0
  O  O103  1  0.89298000  0.17972000  0.72788000  1.0
  O  O104  1  0.54863000  0.05962000  0.37822000  1.0
  O  O105  1  0.98615000  0.94055000  0.62179000  1.0
  O  O106  1  0.49569000  0.90771000  0.12398000  1.0
  O  O107  1  0.52717000  0.09234000  0.87608000  1.0
