# generated using pymatgen
data_Zn4H24C36N4O17
_symmetry_space_group_name_H-M   'P 1'
_cell_length_a   18.39920000
_cell_length_b   18.39900000
_cell_length_c   24.99818454
_cell_angle_alpha   111.53855421
_cell_angle_beta   111.56279000
_cell_angle_gamma   90.10440000
_symmetry_Int_Tables_number   1
_chemical_formula_structural   Zn4H24C36N4O17
_chemical_formula_sum   'Zn8 H48 C72 N8 O34'
_cell_volume   7228.68443528
_cell_formula_units_Z   2
loop_
 _symmetry_equiv_pos_site_id
 _symmetry_equiv_pos_as_xyz
  1  'x, y, z'
loop_
 _atom_site_type_symbol
 _atom_site_label
 _atom_site_symmetry_multiplicity
 _atom_site_fract_x
 _atom_site_fract_y
 _atom_site_fract_z
 _atom_site_occupancy
  Zn  Zn0  1  0.77696000  0.18990000  0.55337000  1.0
  Zn  Zn1  1  0.22304000  0.81010000  0.44663000  1.0
  Zn  Zn2  1  0.18981000  0.77687000  0.55335000  1.0
  Zn  Zn3  1  0.81020000  0.22313000  0.44666000  1.0
  Zn  Zn4  1  0.77646000  0.36354000  0.55334000  1.0
  Zn  Zn5  1  0.22353000  0.63646000  0.44666000  1.0
  Zn  Zn6  1  0.36347000  0.77642000  0.55338000  1.0
  Zn  Zn7  1  0.63652000  0.22359000  0.44662000  1.0
  H  H8  1  0.87922000  0.25634000  0.74591000  1.0
  H  H9  1  0.12079000  0.74366000  0.25409000  1.0
  H  H10  1  0.25626000  0.87931000  0.74587000  1.0
  H  H11  1  0.74374000  0.12068000  0.25413000  1.0
  H  H12  1  0.86655000  0.48960000  0.74586000  1.0
  H  H13  1  0.13345000  0.51039000  0.25414000  1.0
  H  H14  1  0.48956000  0.86669000  0.74591000  1.0
  H  H15  1  0.51044000  0.13331000  0.25409000  1.0
  H  H16  1  0.64218000  0.02569000  0.57124000  1.0
  H  H17  1  0.35784000  0.97431000  0.42877000  1.0
  H  H18  1  0.02556000  0.92911000  0.57129000  1.0
  H  H19  1  0.97444000  0.07090000  0.42871000  1.0
  H  H20  1  0.92907000  0.54549000  0.57123000  1.0
  H  H21  1  0.07092000  0.45451000  0.42877000  1.0
  H  H22  1  0.54562000  0.64216000  0.57126000  1.0
  H  H23  1  0.45438000  0.35785000  0.42874000  1.0
  H  H24  1  0.35782000  0.45427000  0.42871000  1.0
  H  H25  1  0.64218000  0.54573000  0.57129000  1.0
  H  H26  1  0.97426000  0.35784000  0.42877000  1.0
  H  H27  1  0.02573000  0.64216000  0.57122000  1.0
  H  H28  1  0.07089000  0.97436000  0.42874000  1.0
  H  H29  1  0.92911000  0.02564000  0.57126000  1.0
  H  H30  1  0.45446000  0.07094000  0.42876000  1.0
  H  H31  1  0.54555000  0.92906000  0.57124000  1.0
  H  H32  1  0.05289000  0.28818000  0.87472000  1.0
  H  H33  1  0.97384000  0.21086000  0.81283000  1.0
  H  H34  1  0.00199000  0.22281000  0.89267000  1.0
  H  H35  1  0.02617000  0.78914000  0.18718000  1.0
  H  H36  1  0.94711000  0.71182000  0.12527000  1.0
  H  H37  1  0.99801000  0.77720000  0.10733000  1.0
  H  H38  1  0.21076000  0.97384000  0.81285000  1.0
  H  H39  1  0.28816000  0.05277000  0.87476000  1.0
  H  H40  1  0.22278000  0.00187000  0.89269000  1.0
  H  H41  1  0.71183000  0.94723000  0.12524000  1.0
  H  H42  1  0.78924000  0.02616000  0.18715000  1.0
  H  H43  1  0.77722000  0.99813000  0.10731000  1.0
  H  H44  1  0.82200000  0.58657000  0.87477000  1.0
  H  H45  1  0.83899000  0.60208000  0.81285000  1.0
  H  H46  1  0.89081000  0.66990000  0.89269000  1.0
  H  H47  1  0.16100000  0.39791000  0.18715000  1.0
  H  H48  1  0.17799000  0.41342000  0.12523000  1.0
  H  H49  1  0.10918000  0.33010000  0.10731000  1.0
  H  H50  1  0.60197000  0.83900000  0.81282000  1.0
  H  H51  1  0.58655000  0.82182000  0.87471000  1.0
  H  H52  1  0.66986000  0.89068000  0.89267000  1.0
  H  H53  1  0.41345000  0.17818000  0.12529000  1.0
  H  H54  1  0.39802000  0.16099000  0.18718000  1.0
  H  H55  1  0.33014000  0.10932000  0.10733000  1.0
  C  C56  1  0.89060000  0.32012000  0.77217000  1.0
  C  C57  1  0.10941000  0.67988000  0.22783000  1.0
  C  C58  1  0.01397000  0.57979000  0.54029000  1.0
  C  C59  1  0.03945000  0.98606000  0.45968000  1.0
  C  C60  1  0.96054000  0.01394000  0.54031000  1.0
  C  C61  1  0.47368000  0.03950000  0.45971000  1.0
  C  C62  1  0.52632000  0.96050000  0.54029000  1.0
  C  C63  1  0.44627000  0.94626000  0.50000000  1.0
  C  C64  1  0.55374000  0.05374000  0.50000000  1.0
  C  C65  1  0.94638000  0.05367000  0.49998000  1.0
  C  C66  1  0.05361000  0.94632000  0.50001000  1.0
  C  C67  1  0.05371000  0.55371000  0.50000000  1.0
  C  C68  1  0.32005000  0.89071000  0.77215000  1.0
  C  C69  1  0.94629000  0.44629000  0.50000000  1.0
  C  C70  1  0.55367000  0.44639000  0.50000000  1.0
  C  C71  1  0.44632000  0.55361000  0.49999000  1.0
  C  C72  1  0.67996000  0.10929000  0.22786000  1.0
  C  C73  1  0.93542000  0.43545000  0.87081000  1.0
  C  C74  1  0.06458000  0.56455000  0.12919000  1.0
  C  C75  1  0.43536000  0.93539000  0.87081000  1.0
  C  C76  1  0.56465000  0.06461000  0.12919000  1.0
  C  C77  1  0.99544000  0.25403000  0.86173000  1.0
  C  C78  1  0.88144000  0.45210000  0.77214000  1.0
  C  C79  1  0.00456000  0.74596000  0.13827000  1.0
  C  C80  1  0.25398000  0.99534000  0.86175000  1.0
  C  C81  1  0.74601000  0.00466000  0.13825000  1.0
  C  C82  1  0.86641000  0.60775000  0.86175000  1.0
  C  C83  1  0.13359000  0.39225000  0.13825000  1.0
  C  C84  1  0.60770000  0.86629000  0.86173000  1.0
  C  C85  1  0.39231000  0.13371000  0.13828000  1.0
  C  C86  1  0.11857000  0.54790000  0.22786000  1.0
  C  C87  1  0.45204000  0.88157000  0.77217000  1.0
  C  C88  1  0.54795000  0.11843000  0.22783000  1.0
  C  C89  1  0.92358000  0.35292000  0.83747000  1.0
  C  C90  1  0.07642000  0.64708000  0.16253000  1.0
  C  C91  1  0.35284000  0.92355000  0.83745000  1.0
  C  C92  1  0.64717000  0.07645000  0.16256000  1.0
  C  C93  1  0.91390000  0.48460000  0.83744000  1.0
  C  C94  1  0.08610000  0.51539000  0.16256000  1.0
  C  C95  1  0.48455000  0.91389000  0.83747000  1.0
  C  C96  1  0.51545000  0.08611000  0.16253000  1.0
  C  C97  1  0.86983000  0.36993000  0.73980000  1.0
  C  C98  1  0.13018000  0.63006000  0.26020000  1.0
  C  C99  1  0.36987000  0.86998000  0.73981000  1.0
  C  C100  1  0.63013000  0.13002000  0.26019000  1.0
  C  C101  1  0.03006000  0.53004000  0.06016000  1.0
  C  C102  1  0.96995000  0.46996000  0.93984000  1.0
  C  C103  1  0.53013000  0.03011000  0.06016000  1.0
  C  C104  1  0.46988000  0.96990000  0.93984000  1.0
  C  C105  1  0.66513000  0.16503000  0.33018000  1.0
  C  C106  1  0.33488000  0.83497000  0.66982000  1.0
  C  C107  1  0.16516000  0.66506000  0.33019000  1.0
  C  C108  1  0.83484000  0.33494000  0.66981000  1.0
  C  C109  1  0.88908000  0.11112000  0.50001000  1.0
  C  C110  1  0.11092000  0.88888000  0.49998000  1.0
  C  C111  1  0.11118000  0.61116000  0.49999000  1.0
  C  C112  1  0.88882000  0.38883000  0.50001000  1.0
  C  C113  1  0.61111000  0.38908000  0.49999000  1.0
  C  C114  1  0.38889000  0.61094000  0.50001000  1.0
  C  C115  1  0.38878000  0.88878000  0.50000000  1.0
  C  C116  1  0.61122000  0.11122000  0.50000000  1.0
  C  C117  1  0.57979000  0.01397000  0.54029000  1.0
  C  C118  1  0.42020000  0.98603000  0.45970000  1.0
  C  C119  1  0.01391000  0.96054000  0.54034000  1.0
  C  C120  1  0.98608000  0.03945000  0.45965000  1.0
  C  C121  1  0.96050000  0.52633000  0.54029000  1.0
  C  C122  1  0.03949000  0.47367000  0.45970000  1.0
  C  C123  1  0.52637000  0.57977000  0.54031000  1.0
  C  C124  1  0.47363000  0.42024000  0.45969000  1.0
  C  C125  1  0.42020000  0.47357000  0.45965000  1.0
  C  C126  1  0.57980000  0.52644000  0.54034000  1.0
  C  C127  1  0.98603000  0.42021000  0.45971000  1.0
  N  N128  1  0.92909000  0.51868000  0.96903000  1.0
  N  N129  1  0.07092000  0.48132000  0.03098000  1.0
  N  N130  1  0.51867000  0.92908000  0.96906000  1.0
  N  N131  1  0.48134000  0.07093000  0.03095000  1.0
  N  N132  1  0.03997000  0.45038000  0.96906000  1.0
  N  N133  1  0.96003000  0.54963000  0.03094000  1.0
  N  N134  1  0.45036000  0.03995000  0.96903000  1.0
  N  N135  1  0.54965000  0.96005000  0.03098000  1.0
  O  O136  1  0.75005000  0.25005000  0.50000000  1.0
  O  O137  1  0.25946000  0.82282000  0.64271000  1.0
  O  O138  1  0.18011000  0.61676000  0.35729000  1.0
  O  O139  1  0.81988000  0.38324000  0.64271000  1.0
  O  O140  1  0.61679000  0.18001000  0.35726000  1.0
  O  O141  1  0.38320000  0.81999000  0.64274000  1.0
  O  O142  1  0.17725000  0.74047000  0.35726000  1.0
  O  O143  1  0.82275000  0.25952000  0.64274000  1.0
  O  O144  1  0.74053000  0.17718000  0.35729000  1.0
  O  O145  1  0.24995000  0.74996000  0.50000000  1.0
  O  O146  1  0.87836000  0.14467000  0.46174000  1.0
  O  O147  1  0.12165000  0.85534000  0.53826000  1.0
  O  O148  1  0.14475000  0.58373000  0.46177000  1.0
  O  O149  1  0.85525000  0.41626000  0.53823000  1.0
  O  O150  1  0.58364000  0.31727000  0.46169000  1.0
  O  O151  1  0.41636000  0.68273000  0.53831000  1.0
  O  O152  1  0.31695000  0.87799000  0.46177000  1.0
  O  O153  1  0.68304000  0.12202000  0.53823000  1.0
  O  O154  1  0.12198000  0.68298000  0.53824000  1.0
  O  O155  1  0.87802000  0.31702000  0.46176000  1.0
  O  O156  1  0.85558000  0.12194000  0.53830000  1.0
  O  O157  1  0.14442000  0.87806000  0.46170000  1.0
  O  O158  1  0.41622000  0.85518000  0.53824000  1.0
  O  O159  1  0.58378000  0.14482000  0.46176000  1.0
  O  O160  1  0.68292000  0.41662000  0.53826000  1.0
  O  O161  1  0.31709000  0.58339000  0.46175000  1.0
  O  O162  1  0.94000000  0.30691000  0.87177000  1.0
  O  O163  1  0.06001000  0.69309000  0.12823000  1.0
  O  O164  1  0.30680000  0.93983000  0.87171000  1.0
  O  O165  1  0.69321000  0.06017000  0.12830000  1.0
  O  O166  1  0.93188000  0.56490000  0.87169000  1.0
  O  O167  1  0.06813000  0.43510000  0.12831000  1.0
  O  O168  1  0.56486000  0.93177000  0.87178000  1.0
  O  O169  1  0.43515000  0.06823000  0.12822000  1.0
