# generated using pymatgen
data_Al2H18C30(SO7)3
_symmetry_space_group_name_H-M   'P 1'
_cell_length_a   4.18014000
_cell_length_b   16.92471741
_cell_length_c   16.92390000
_cell_angle_alpha   59.99879317
_cell_angle_beta   89.99870000
_cell_angle_gamma   90.00059998
_symmetry_Int_Tables_number   1
_chemical_formula_structural   Al2H18C30(SO7)3
_chemical_formula_sum   'Al2 H18 C30 S3 O21'
_cell_volume   1036.90281573
_cell_formula_units_Z   1
loop_
 _symmetry_equiv_pos_site_id
 _symmetry_equiv_pos_as_xyz
  1  'x, y, z'
loop_
 _atom_site_type_symbol
 _atom_site_label
 _atom_site_symmetry_multiplicity
 _atom_site_fract_x
 _atom_site_fract_y
 _atom_site_fract_z
 _atom_site_occupancy
  Al  Al0  1  0.86232000  0.50000000  0.99999000  1.0
  Al  Al1  1  0.13176000  0.16667000  0.66667000  1.0
  H  H2  1  0.39663000  0.14675000  0.43012000  1.0
  H  H3  1  0.98287000  0.44891000  0.38657000  1.0
  H  H4  1  0.58339000  0.46745000  0.41024000  1.0
  H  H5  1  0.45812000  0.54804000  0.24266000  1.0
  H  H6  1  0.85429000  0.52682000  0.21912000  1.0
  H  H7  1  0.39675000  0.42312000  0.64674000  1.0
  H  H8  1  0.98289000  0.16450000  0.94893000  1.0
  H  H9  1  0.58341000  0.12231000  0.96744000  1.0
  H  H10  1  0.45810000  0.20930000  0.04803000  1.0
  H  H11  1  0.85430000  0.25405000  0.02682000  1.0
  H  H12  1  0.39667000  0.93011000  0.92316000  1.0
  H  H13  1  0.98284000  0.88659000  0.66450000  1.0
  H  H14  1  0.58336000  0.91026000  0.62230000  1.0
  H  H15  1  0.45811000  0.74268000  0.70929000  1.0
  H  H16  1  0.85431000  0.71914000  0.75404000  1.0
  H  H17  1  0.79489000  0.22023000  0.18954000  1.0
  H  H18  1  0.79496000  0.59022000  0.72023000  1.0
  H  H19  1  0.79493000  0.68953000  0.09025000  1.0
  C  C20  1  0.36924000  0.63570000  0.95455000  1.0
  C  C21  1  0.36923000  0.40976000  0.13568000  1.0
  C  C22  1  0.36927000  0.45454000  0.90975000  1.0
  C  C23  1  0.62348000  0.21765000  0.53070000  1.0
  C  C24  1  0.62345000  0.25166000  0.71766000  1.0
  C  C25  1  0.62347000  0.03069000  0.75164000  1.0
  C  C26  1  0.57354000  0.26651000  0.43039000  1.0
  C  C27  1  0.43013000  0.35829000  0.23689000  1.0
  C  C28  1  0.62606000  0.35935000  0.37318000  1.0
  C  C29  1  0.38871000  0.26315000  0.29505000  1.0
  C  C30  1  0.54912000  0.40372000  0.28017000  1.0
  C  C31  1  0.44889000  0.21928000  0.38876000  1.0
  C  C32  1  0.73050000  0.44671000  0.36987000  1.0
  C  C33  1  0.64828000  0.49669000  0.26469000  1.0
  C  C34  1  0.57352000  0.30310000  0.76652000  1.0
  C  C35  1  0.43018000  0.40481000  0.85829000  1.0
  C  C36  1  0.62609000  0.26747000  0.85935000  1.0
  C  C37  1  0.38879000  0.44181000  0.76313000  1.0
  C  C38  1  0.54915000  0.31611000  0.90372000  1.0
  C  C39  1  0.44892000  0.39197000  0.71927000  1.0
  C  C40  1  0.73053000  0.18341000  0.94671000  1.0
  C  C41  1  0.64829000  0.23862000  0.99669000  1.0
  C  C42  1  0.57354000  0.93039000  0.80310000  1.0
  C  C43  1  0.43015000  0.73690000  0.90481000  1.0
  C  C44  1  0.62606000  0.87319000  0.76747000  1.0
  C  C45  1  0.38879000  0.79505000  0.94181000  1.0
  C  C46  1  0.54912000  0.78018000  0.81610000  1.0
  C  C47  1  0.44892000  0.88876000  0.89197000  1.0
  C  C48  1  0.73049000  0.86989000  0.68341000  1.0
  C  C49  1  0.64829000  0.76470000  0.73861000  1.0
  S  S50  1  0.25273000  0.18945000  0.25574000  1.0
  S  S51  1  0.25282000  0.55482000  0.68944000  1.0
  S  S52  1  0.25282000  0.75571000  0.05483000  1.0
  O  O53  1  0.11759000  0.43367000  0.95811000  1.0
  O  O54  1  0.11755000  0.60821000  0.93369000  1.0
  O  O55  1  0.11753000  0.45810000  0.10820000  1.0
  O  O56  1  0.58523000  0.51023000  0.90414000  1.0
  O  O57  1  0.58517000  0.40416000  0.08559000  1.0
  O  O58  1  0.58517000  0.58562000  0.01025000  1.0
  O  O59  1  0.40785000  0.07904000  0.76094000  1.0
  O  O60  1  0.40787000  0.15999000  0.57905000  1.0
  O  O61  1  0.40781000  0.26094000  0.66003000  1.0
  O  O62  1  0.87438000  0.06017000  0.70253000  1.0
  O  O63  1  0.87441000  0.20258000  0.73728000  1.0
  O  O64  1  0.87438000  0.23728000  0.56017000  1.0
  O  O65  1  0.51915000  0.16865000  0.21248000  1.0
  O  O66  1  0.09552000  0.11220000  0.32901000  1.0
  O  O67  1  0.02460000  0.25164000  0.17707000  1.0
  O  O68  1  0.51922000  0.61889000  0.66864000  1.0
  O  O69  1  0.09569000  0.55879000  0.61219000  1.0
  O  O70  1  0.02469000  0.57131000  0.75163000  1.0
  O  O71  1  0.51921000  0.71245000  0.11890000  1.0
  O  O72  1  0.09561000  0.82899000  0.05880000  1.0
  O  O73  1  0.02465000  0.67705000  0.07132000  1.0
