# generated using pymatgen
data_Zn4H2C24S4O13F6
_symmetry_space_group_name_H-M   'P 1'
_cell_length_a   19.68810000
_cell_length_b   19.75580000
_cell_length_c   33.40570000
_cell_angle_alpha   78.97990000
_cell_angle_beta   79.17190000
_cell_angle_gamma   63.91570000
_symmetry_Int_Tables_number   1
_chemical_formula_structural   Zn4H2C24S4O13F6
_chemical_formula_sum   'Zn16 H8 C96 S16 O52 F24'
_cell_volume   11375.00575705
_cell_formula_units_Z   4
loop_
 _symmetry_equiv_pos_site_id
 _symmetry_equiv_pos_as_xyz
  1  'x, y, z'
loop_
 _atom_site_type_symbol
 _atom_site_label
 _atom_site_symmetry_multiplicity
 _atom_site_fract_x
 _atom_site_fract_y
 _atom_site_fract_z
 _atom_site_occupancy
  Zn  Zn0  1  0.05508000  0.40114000  0.47814000  1.0
  Zn  Zn1  1  0.98442000  0.48359000  0.56051000  1.0
  Zn  Zn2  1  0.05951000  0.56052000  0.48261000  1.0
  Zn  Zn3  1  0.90077000  0.55530000  0.47900000  1.0
  Zn  Zn4  1  0.69480000  0.34877000  0.27198000  1.0
  Zn  Zn5  1  0.69009000  0.18907000  0.26639000  1.0
  Zn  Zn6  1  0.76787000  0.26677000  0.18990000  1.0
  Zn  Zn7  1  0.84849000  0.19453000  0.27174000  1.0
  Zn  Zn8  1  0.26576000  0.76619000  0.68956000  1.0
  Zn  Zn9  1  0.34916000  0.69613000  0.77171000  1.0
  Zn  Zn10  1  0.19341000  0.84877000  0.77123000  1.0
  Zn  Zn11  1  0.19055000  0.68929000  0.76744000  1.0
  Zn  Zn12  1  0.55961000  0.06119000  0.98364000  1.0
  Zn  Zn13  1  0.40151000  0.05407000  0.97751000  1.0
  Zn  Zn14  1  0.55644000  0.90122000  0.97878000  1.0
  Zn  Zn15  1  0.48212000  0.98327000  0.06012000  1.0
  H  H16  1  0.74880000  0.45174000  0.35011000  1.0
  H  H17  1  0.00107000  0.29859000  0.39989000  1.0
  H  H18  1  0.20051000  0.70043000  0.59924000  1.0
  H  H19  1  0.04958000  0.54966000  0.65071000  1.0
  H  H20  1  0.65075000  0.15092000  0.04947000  1.0
  H  H21  1  0.59937000  0.09897000  0.20053000  1.0
  H  H22  1  0.29888000  0.00052000  0.89970000  1.0
  H  H23  1  0.45125000  0.74927000  0.85011000  1.0
  C  C24  1  0.06146000  0.31671000  0.56159000  1.0
  C  C25  1  0.06968000  0.56981000  0.56864000  1.0
  C  C26  1  0.18343000  0.43934000  0.43853000  1.0
  C  C27  1  0.93747000  0.68369000  0.43870000  1.0
  C  C28  1  0.93035000  0.43115000  0.43105000  1.0
  C  C29  1  0.81693000  0.56112000  0.56205000  1.0
  C  C30  1  0.56644000  0.31040000  0.31118000  1.0
  C  C31  1  0.68170000  0.18069000  0.18051000  1.0
  C  C32  1  0.68937000  0.43331000  0.18857000  1.0
  C  C33  1  0.93439000  0.18844000  0.18913000  1.0
  C  C34  1  0.81930000  0.31903000  0.31918000  1.0
  C  C35  1  0.81175000  0.06604000  0.31120000  1.0
  C  C36  1  0.43304000  0.68932000  0.68830000  1.0
  C  C37  1  0.31816000  0.82027000  0.81896000  1.0
  C  C38  1  0.18846000  0.93309000  0.68812000  1.0
  C  C39  1  0.06601000  0.81040000  0.81130000  1.0
  C  C40  1  0.18038000  0.68023000  0.68134000  1.0
  C  C41  1  0.31283000  0.56675000  0.81156000  1.0
  C  C42  1  0.43787000  0.18363000  0.93860000  1.0
  C  C43  1  0.43211000  0.92955000  0.93078000  1.0
  C  C44  1  0.68373000  0.94012000  0.93903000  1.0
  C  C45  1  0.56110000  0.81659000  0.06176000  1.0
  C  C46  1  0.56847000  0.06915000  0.06948000  1.0
  C  C47  1  0.31564000  0.06119000  0.06052000  1.0
  C  C48  1  0.90051000  0.40391000  0.40231000  1.0
  C  C49  1  0.84930000  0.34643000  0.34775000  1.0
  C  C50  1  0.82924000  0.44578000  0.38751000  1.0
  C  C51  1  0.92065000  0.30458000  0.36249000  1.0
  C  C52  1  0.80425000  0.41788000  0.36095000  1.0
  C  C53  1  0.94562000  0.33249000  0.38905000  1.0
  C  C54  1  0.09878000  0.59893000  0.59677000  1.0
  C  C55  1  0.15128000  0.65115000  0.65319000  1.0
  C  C56  1  0.14174000  0.64189000  0.58325000  1.0
  C  C57  1  0.10833000  0.60820000  0.66666667  1.0
  C  C58  1  0.16737000  0.66735000  0.61069000  1.0
  C  C59  1  0.08270000  0.58275000  0.63926000  1.0
  C  C60  1  0.30455000  0.45260000  0.40065000  1.0
  C  C61  1  0.44533000  0.29716000  0.34918000  1.0
  C  C62  1  0.25816000  0.41435000  0.41378000  1.0
  C  C63  1  0.49178000  0.33532000  0.33604000  1.0
  C  C64  1  0.37699000  0.33931000  0.37276000  1.0
  C  C65  1  0.37296000  0.41040000  0.37710000  1.0
  C  C66  1  0.72496000  0.57674000  0.62914000  1.0
  C  C67  1  0.52497000  0.67322000  0.62115000  1.0
  C  C68  1  0.74222000  0.58583000  0.58679000  1.0
  C  C69  1  0.50774000  0.66427000  0.66353000  1.0
  C  C70  1  0.60397000  0.64154000  0.60825000  1.0
  C  C71  1  0.64596000  0.60837000  0.64200000  1.0
  C  C72  1  0.07721000  0.22455000  0.62876000  1.0
  C  C73  1  0.17325000  0.02521000  0.62099000  1.0
  C  C74  1  0.08622000  0.24204000  0.58639000  1.0
  C  C75  1  0.16410000  0.00775000  0.66335000  1.0
  C  C76  1  0.14179000  0.10406000  0.60803000  1.0
  C  C77  1  0.10869000  0.14570000  0.64174000  1.0
  C  C78  1  0.84460000  0.80121000  0.39729000  1.0
  C  C79  1  0.90457000  0.94872000  0.35278000  1.0
  C  C80  1  0.91273000  0.75825000  0.41388000  1.0
  C  C81  1  0.83643000  0.99159000  0.33614000  1.0
  C  C82  1  0.90821000  0.87915000  0.37512000  1.0
  C  C83  1  0.84102000  0.87071000  0.37494000  1.0
  C  C84  1  0.65343000  0.15281000  0.15131000  1.0
  C  C85  1  0.59673000  0.09705000  0.09868000  1.0
  C  C86  1  0.66687000  0.16645000  0.10828000  1.0
  C  C87  1  0.58325000  0.08345000  0.14172000  1.0
  C  C88  1  0.63931000  0.13935000  0.08262000  1.0
  C  C89  1  0.61084000  0.11052000  0.16738000  1.0
  C  C90  1  0.67327000  0.52524000  0.12133000  1.0
  C  C91  1  0.57668000  0.72461000  0.12894000  1.0
  C  C92  1  0.66422000  0.50790000  0.16371000  1.0
  C  C93  1  0.58589000  0.74198000  0.08658000  1.0
  C  C94  1  0.60833000  0.64579000  0.14195000  1.0
  C  C95  1  0.64162000  0.60407000  0.10829000  1.0
  C  C96  1  0.08095000  0.12463000  0.17684000  1.0
  C  C97  1  0.16907000  0.12510000  0.07290000  1.0
  C  C98  1  0.00884000  0.16351000  0.16420000  1.0
  C  C99  1  0.24121000  0.08629000  0.08549000  1.0
  C  C100  1  0.11024000  0.13939000  0.10593000  1.0
  C  C101  1  0.13984000  0.11033000  0.14381000  1.0
  C  C102  1  0.34583000  0.84978000  0.84764000  1.0
  C  C103  1  0.40435000  0.90000000  0.90216000  1.0
  C  C104  1  0.30419000  0.92077000  0.86236000  1.0
  C  C105  1  0.44598000  0.82902000  0.88745000  1.0
  C  C106  1  0.33259000  0.94529000  0.88890000  1.0
  C  C107  1  0.41758000  0.80451000  0.86091000  1.0
  C  C108  1  0.40557000  0.44886000  0.85300000  1.0
  C  C109  1  0.34520000  0.30141000  0.89705000  1.0
  C  C110  1  0.33760000  0.49202000  0.83629000  1.0
  C  C111  1  0.41318000  0.25830000  0.91379000  1.0
  C  C112  1  0.34176000  0.37102000  0.87484000  1.0
  C  C113  1  0.40897000  0.37930000  0.87522000  1.0
  C  C114  1  0.94492000  0.79735000  0.84937000  1.0
  C  C115  1  0.80470000  0.95318000  0.90073000  1.0
  C  C116  1  0.99144000  0.83542000  0.83613000  1.0
  C  C117  1  0.75815000  0.91519000  0.91401000  1.0
  C  C118  1  0.87289000  0.91082000  0.87712000  1.0
  C  C119  1  0.87663000  0.83977000  0.87292000  1.0
  S  S120  1  0.29841000  0.32487000  0.39717000  1.0
  S  S121  1  0.45158000  0.42478000  0.35271000  1.0
  S  S122  1  0.66058000  0.63390000  0.56181000  1.0
  S  S123  1  0.58941000  0.61615000  0.68844000  1.0
  S  S124  1  0.13413000  0.16079000  0.56155000  1.0
  S  S125  1  0.11623000  0.08896000  0.68822000  1.0
  S  S126  1  0.97420000  0.80318000  0.40213000  1.0
  S  S127  1  0.77509000  0.94656000  0.34785000  1.0
  S  S128  1  0.61595000  0.58922000  0.18847000  1.0
  S  S129  1  0.63414000  0.66069000  0.06177000  1.0
  S  S130  1  0.01231000  0.18327000  0.11092000  1.0
  S  S131  1  0.23779000  0.06656000  0.13879000  1.0
  S  S132  1  0.27605000  0.44719000  0.84775000  1.0
  S  S133  1  0.47466000  0.30321000  0.90234000  1.0
  S  S134  1  0.95153000  0.92500000  0.85259000  1.0
  S  S135  1  0.79795000  0.82566000  0.89748000  1.0
  O  O136  1  0.00032000  0.49930000  0.50010000  1.0
  O  O137  1  0.07701000  0.31582000  0.52262000  1.0
  O  O138  1  0.03216000  0.53109000  0.58594000  1.0
  O  O139  1  0.15570000  0.50533000  0.44976000  1.0
  O  O140  1  0.02725000  0.37482000  0.58083000  1.0
  O  O141  1  0.15328000  0.39175000  0.44641000  1.0
  O  O142  1  0.08443000  0.58576000  0.53025000  1.0
  O  O143  1  0.00439000  0.65686000  0.44959000  1.0
  O  O144  1  0.88769000  0.49570000  0.44289000  1.0
  O  O145  1  0.89089000  0.65275000  0.44708000  1.0
  O  O146  1  0.99660000  0.38663000  0.44123000  1.0
  O  O147  1  0.87554000  0.52658000  0.58119000  1.0
  O  O148  1  0.81556000  0.57712000  0.52311000  1.0
  O  O149  1  0.74928000  0.25039000  0.25022000  1.0
  O  O150  1  0.59677000  0.35782000  0.30372000  1.0
  O  O151  1  0.66451000  0.16343000  0.21872000  1.0
  O  O152  1  0.72501000  0.37525000  0.16938000  1.0
  O  O153  1  0.59387000  0.24479000  0.29946000  1.0
  O  O154  1  0.67283000  0.43416000  0.22752000  1.0
  O  O155  1  0.72014000  0.21888000  0.16510000  1.0
  O  O156  1  0.87655000  0.22393000  0.16908000  1.0
  O  O157  1  0.86142000  0.25387000  0.30797000  1.0
  O  O158  1  0.93394000  0.17280000  0.22796000  1.0
  O  O159  1  0.75347000  0.36391000  0.30856000  1.0
  O  O160  1  0.74542000  0.09245000  0.29955000  1.0
  O  O161  1  0.85803000  0.09726000  0.30347000  1.0
  O  O162  1  0.25017000  0.75008000  0.74996000  1.0
  O  O163  1  0.37456000  0.72341000  0.66904000  1.0
  O  O164  1  0.36351000  0.75505000  0.80814000  1.0
  O  O165  1  0.17207000  0.93412000  0.72705000  1.0
  O  O166  1  0.43427000  0.67413000  0.72728000  1.0
  O  O167  1  0.22309000  0.87488000  0.66898000  1.0
  O  O168  1  0.25250000  0.86201000  0.80784000  1.0
  O  O169  1  0.09564000  0.85842000  0.80306000  1.0
  O  O170  1  0.16551000  0.66434000  0.71973000  1.0
  O  O171  1  0.09424000  0.74412000  0.80036000  1.0
  O  O172  1  0.21802000  0.71883000  0.66406000  1.0
  O  O173  1  0.35885000  0.59836000  0.80368000  1.0
  O  O174  1  0.24629000  0.59296000  0.80026000  1.0
  O  O175  1  0.50006000  0.00020000  0.99979000  1.0
  O  O176  1  0.50387000  0.15772000  0.95057000  1.0
  O  O177  1  0.38734000  0.99539000  0.94094000  1.0
  O  O178  1  0.65390000  0.89229000  0.94690000  1.0
  O  O179  1  0.39213000  0.15178000  0.94585000  1.0
  O  O180  1  0.65595000  0.00597000  0.95050000  1.0
  O  O181  1  0.49716000  0.88724000  0.94254000  1.0
  O  O182  1  0.57856000  0.81565000  0.02288000  1.0
  O  O183  1  0.53013000  0.03086000  0.08491000  1.0
  O  O184  1  0.52496000  0.87476000  0.08084000  1.0
  O  O185  1  0.58559000  0.08650000  0.03127000  1.0
  O  O186  1  0.31621000  0.07591000  0.02164000  1.0
  O  O187  1  0.37339000  0.02642000  0.08067000  1.0
  F  F188  1  0.78188000  0.51532000  0.39861000  1.0
  F  F189  1  0.96804000  0.23512000  0.35134000  1.0
  F  F190  1  0.15992000  0.66015000  0.54278000  1.0
  F  F191  1  0.09016000  0.58992000  0.70718000  1.0
  F  F192  1  0.70739000  0.20678000  0.09007000  1.0
  F  F193  1  0.54263000  0.04324000  0.15992000  1.0
  F  F194  1  0.23445000  0.96830000  0.85112000  1.0
  F  F195  1  0.51579000  0.78156000  0.89860000  1.0
  F  F196  1  0.28777000  0.52240000  0.40900000  1.0
  F  F197  1  0.46207000  0.22733000  0.34083000  1.0
  F  F198  1  0.77677000  0.54178000  0.65587000  1.0
  F  F199  1  0.47317000  0.70820000  0.59443000  1.0
  F  F200  1  0.04234000  0.27599000  0.65544000  1.0
  F  F201  1  0.20809000  0.97371000  0.59435000  1.0
  F  F202  1  0.78705000  0.78038000  0.40152000  1.0
  F  F203  1  0.96202000  0.96965000  0.34861000  1.0
  F  F204  1  0.70822000  0.47371000  0.09472000  1.0
  F  F205  1  0.54168000  0.77613000  0.15557000  1.0
  F  F206  1  0.09499000  0.10231000  0.21611000  1.0
  F  F207  1  0.15493000  0.14747000  0.03363000  1.0
  F  F208  1  0.46312000  0.46966000  0.84897000  1.0
  F  F209  1  0.28760000  0.28069000  0.90110000  1.0
  F  F210  1  0.96156000  0.72754000  0.84109000  1.0
  F  F211  1  0.78818000  0.02299000  0.90901000  1.0
