# generated using pymatgen
data_NaH5CO4
_symmetry_space_group_name_H-M   'P 1'
_cell_length_a   7.05705000
_cell_length_b   8.00782000
_cell_length_c   8.60549000
_cell_angle_alpha   90.00000000
_cell_angle_beta   90.00000000
_cell_angle_gamma   116.10100000
_symmetry_Int_Tables_number   1
_chemical_formula_structural   NaH5CO4
_chemical_formula_sum   'Na4 H20 C4 O16'
_cell_volume   436.71595685
_cell_formula_units_Z   4
loop_
 _symmetry_equiv_pos_site_id
 _symmetry_equiv_pos_as_xyz
  1  'x, y, z'
loop_
 _atom_site_type_symbol
 _atom_site_label
 _atom_site_symmetry_multiplicity
 _atom_site_fract_x
 _atom_site_fract_y
 _atom_site_fract_z
 _atom_site_occupancy
  Na  Na0  1  0.23525000  0.00002000  0.00004000  1.0
  Na  Na1  1  0.26475000  0.99998000  0.50004000  1.0
  Na  Na2  1  0.76475000  0.99998000  0.99996000  1.0
  Na  Na3  1  0.73525000  0.00002000  0.49996000  1.0
  H  H4  1  0.73515000  0.47053000  0.13492000  1.0
  H  H5  1  0.76485000  0.52947000  0.63492000  1.0
  H  H6  1  0.26485000  0.52947000  0.86508000  1.0
  H  H7  1  0.23515000  0.47053000  0.36508000  1.0
  H  H8  1  0.28524000  0.26682000  0.70889000  1.0
  H  H9  1  0.21476000  0.73318000  0.20889000  1.0
  H  H10  1  0.01880000  0.73326000  0.29109000  1.0
  H  H11  1  0.48120000  0.26674000  0.79109000  1.0
  H  H12  1  0.71476000  0.73318000  0.29111000  1.0
  H  H13  1  0.78524000  0.26682000  0.79111000  1.0
  H  H14  1  0.98120000  0.26674000  0.70891000  1.0
  H  H15  1  0.51880000  0.73326000  0.20891000  1.0
  H  H16  1  0.08852000  0.17757000  0.22344000  1.0
  H  H17  1  0.41148000  0.82243000  0.72344000  1.0
  H  H18  1  0.91148000  0.82243000  0.77656000  1.0
  H  H19  1  0.58852000  0.17757000  0.27656000  1.0
  H  H20  1  0.16443000  0.32911000  0.09512000  1.0
  H  H21  1  0.33557000  0.67089000  0.59512000  1.0
  H  H22  1  0.83557000  0.67089000  0.90488000  1.0
  H  H23  1  0.66443000  0.32911000  0.40487000  1.0
  C  C24  1  0.68266000  0.36577000  0.04038000  1.0
  C  C25  1  0.81735000  0.63423000  0.54038000  1.0
  C  C26  1  0.31734000  0.63423000  0.95962000  1.0
  C  C27  1  0.18265000  0.36577000  0.45962000  1.0
  O  O28  1  0.59751000  0.19581000  0.07782000  1.0
  O  O29  1  0.90249000  0.80419000  0.57782000  1.0
  O  O30  1  0.40249000  0.80419000  0.92218000  1.0
  O  O31  1  0.09751000  0.19581000  0.42218000  1.0
  O  O32  1  0.71328000  0.42697000  0.90116000  1.0
  O  O33  1  0.78672000  0.57303000  0.40116000  1.0
  O  O34  1  0.28672000  0.57303000  0.09884000  1.0
  O  O35  1  0.21328000  0.42697000  0.59884000  1.0
  O  O36  1  0.09555000  0.19182000  0.10811000  1.0
  O  O37  1  0.40445000  0.80818000  0.60811000  1.0
  O  O38  1  0.90444000  0.80818000  0.89189000  1.0
  O  O39  1  0.59555000  0.19182000  0.39189000  1.0
  O  O40  1  0.34068000  0.18170000  0.75004000  1.0
  O  O41  1  0.15932000  0.81830000  0.25004000  1.0
  O  O42  1  0.65932000  0.81830000  0.24996000  1.0
  O  O43  1  0.84068000  0.18170000  0.74996000  1.0
