# generated using pymatgen
data_Zn3H24C30(NO5)2
_symmetry_space_group_name_H-M   'P 1'
_cell_length_a   15.18230000
_cell_length_b   17.74990000
_cell_length_c   17.74990000
_cell_angle_alpha   90.00000000
_cell_angle_beta   90.00000000
_cell_angle_gamma   90.00000000
_symmetry_Int_Tables_number   1
_chemical_formula_structural   Zn3H24C30(NO5)2
_chemical_formula_sum   'Zn12 H96 C120 N8 O40'
_cell_volume   4783.31949674
_cell_formula_units_Z   4
loop_
 _symmetry_equiv_pos_site_id
 _symmetry_equiv_pos_as_xyz
  1  'x, y, z'
loop_
 _atom_site_type_symbol
 _atom_site_label
 _atom_site_symmetry_multiplicity
 _atom_site_fract_x
 _atom_site_fract_y
 _atom_site_fract_z
 _atom_site_occupancy
  Zn  Zn0  1  0.03044000  0.14571000  0.10091000  1.0
  Zn  Zn1  1  0.03044000  0.85429000  0.89909000  1.0
  Zn  Zn2  1  0.96956000  0.10091000  0.85429000  1.0
  Zn  Zn3  1  0.96956000  0.89909000  0.14571000  1.0
  Zn  Zn4  1  0.53044000  0.14571000  0.89909000  1.0
  Zn  Zn5  1  0.53044000  0.85429000  0.10091000  1.0
  Zn  Zn6  1  0.46956000  0.10091000  0.14571000  1.0
  Zn  Zn7  1  0.46956000  0.89909000  0.85429000  1.0
  Zn  Zn8  1  0.25000000  0.14893000  0.14893000  1.0
  Zn  Zn9  1  0.25000000  0.85107000  0.85107000  1.0
  Zn  Zn10  1  0.75000000  0.14893000  0.85107000  1.0
  Zn  Zn11  1  0.75000000  0.85107000  0.14893000  1.0
  H  H12  1  0.22728000  0.13693000  0.38519000  1.0
  H  H13  1  0.22728000  0.86307000  0.61481000  1.0
  H  H14  1  0.77272000  0.38519000  0.86307000  1.0
  H  H15  1  0.77272000  0.61481000  0.13693000  1.0
  H  H16  1  0.72728000  0.13693000  0.61481000  1.0
  H  H17  1  0.72728000  0.86307000  0.38519000  1.0
  H  H18  1  0.27272000  0.38519000  0.13693000  1.0
  H  H19  1  0.27272000  0.61481000  0.86307000  1.0
  H  H20  1  0.19018000  0.12108000  0.52105000  1.0
  H  H21  1  0.19018000  0.87892000  0.47895000  1.0
  H  H22  1  0.80982000  0.52105000  0.87892000  1.0
  H  H23  1  0.80982000  0.47895000  0.12108000  1.0
  H  H24  1  0.69018000  0.12108000  0.47895000  1.0
  H  H25  1  0.69018000  0.87892000  0.52105000  1.0
  H  H26  1  0.30982000  0.52105000  0.12108000  1.0
  H  H27  1  0.30982000  0.47895000  0.87892000  1.0
  H  H28  1  0.91538000  0.10211000  0.46237000  1.0
  H  H29  1  0.91538000  0.89789000  0.53763000  1.0
  H  H30  1  0.08462000  0.46237000  0.89789000  1.0
  H  H31  1  0.08462000  0.53763000  0.10211000  1.0
  H  H32  1  0.41538000  0.10211000  0.53763000  1.0
  H  H33  1  0.41538000  0.89789000  0.46237000  1.0
  H  H34  1  0.58462000  0.46237000  0.10211000  1.0
  H  H35  1  0.58462000  0.53763000  0.89789000  1.0
  H  H36  1  0.95404000  0.12072000  0.32695000  1.0
  H  H37  1  0.95404000  0.87928000  0.67305000  1.0
  H  H38  1  0.04596000  0.32695000  0.87928000  1.0
  H  H39  1  0.04596000  0.67305000  0.12072000  1.0
  H  H40  1  0.45404000  0.12072000  0.67305000  1.0
  H  H41  1  0.45404000  0.87928000  0.32695000  1.0
  H  H42  1  0.54596000  0.32695000  0.12072000  1.0
  H  H43  1  0.54596000  0.67305000  0.87928000  1.0
  H  H44  1  0.90269000  0.16411000  0.57435000  1.0
  H  H45  1  0.90269000  0.83589000  0.42565000  1.0
  H  H46  1  0.09731000  0.57435000  0.83589000  1.0
  H  H47  1  0.09731000  0.42565000  0.16411000  1.0
  H  H48  1  0.40269000  0.16411000  0.42565000  1.0
  H  H49  1  0.40269000  0.83589000  0.57435000  1.0
  H  H50  1  0.59731000  0.57435000  0.16411000  1.0
  H  H51  1  0.59731000  0.42565000  0.83589000  1.0
  H  H52  1  0.87227000  0.15521000  0.71202000  1.0
  H  H53  1  0.87227000  0.84479000  0.28798000  1.0
  H  H54  1  0.12773000  0.71202000  0.84479000  1.0
  H  H55  1  0.12773000  0.28798000  0.15521000  1.0
  H  H56  1  0.37227000  0.15521000  0.28798000  1.0
  H  H57  1  0.37227000  0.84479000  0.71202000  1.0
  H  H58  1  0.62773000  0.71202000  0.15521000  1.0
  H  H59  1  0.62773000  0.28798000  0.84479000  1.0
  H  H60  1  0.10755000  0.04487000  0.75169000  1.0
  H  H61  1  0.10755000  0.95513000  0.24831000  1.0
  H  H62  1  0.89245000  0.75169000  0.95513000  1.0
  H  H63  1  0.89245000  0.24831000  0.04487000  1.0
  H  H64  1  0.60755000  0.04487000  0.24831000  1.0
  H  H65  1  0.60755000  0.95513000  0.75169000  1.0
  H  H66  1  0.39245000  0.75169000  0.04487000  1.0
  H  H67  1  0.39245000  0.24831000  0.95513000  1.0
  H  H68  1  0.14616000  0.04411000  0.61507000  1.0
  H  H69  1  0.14616000  0.95589000  0.38493000  1.0
  H  H70  1  0.85384000  0.61507000  0.95589000  1.0
  H  H71  1  0.85384000  0.38493000  0.04411000  1.0
  H  H72  1  0.64616000  0.04411000  0.38493000  1.0
  H  H73  1  0.64616000  0.95589000  0.61507000  1.0
  H  H74  1  0.35384000  0.61507000  0.04411000  1.0
  H  H75  1  0.35384000  0.38493000  0.95589000  1.0
  H  H76  1  0.22841000  0.09888000  0.98195000  1.0
  H  H77  1  0.22841000  0.90112000  0.01805000  1.0
  H  H78  1  0.77159000  0.98195000  0.90112000  1.0
  H  H79  1  0.77159000  0.01805000  0.09888000  1.0
  H  H80  1  0.72841000  0.09888000  0.01805000  1.0
  H  H81  1  0.72841000  0.90112000  0.98195000  1.0
  H  H82  1  0.27159000  0.98195000  0.09888000  1.0
  H  H83  1  0.27159000  0.01805000  0.90112000  1.0
  H  H84  1  0.26988000  0.23386000  0.00877000  1.0
  H  H85  1  0.26988000  0.76614000  0.99123000  1.0
  H  H86  1  0.73012000  0.00877000  0.76614000  1.0
  H  H87  1  0.73012000  0.99123000  0.23386000  1.0
  H  H88  1  0.76988000  0.23386000  0.99123000  1.0
  H  H89  1  0.76988000  0.76614000  0.00877000  1.0
  H  H90  1  0.23012000  0.00877000  0.23386000  1.0
  H  H91  1  0.23012000  0.99123000  0.76614000  1.0
  H  H92  1  0.16247000  0.26261000  0.98119000  1.0
  H  H93  1  0.16247000  0.73739000  0.01881000  1.0
  H  H94  1  0.83753000  0.98119000  0.73739000  1.0
  H  H95  1  0.83752000  0.01881000  0.26261000  1.0
  H  H96  1  0.66247000  0.26261000  0.01881000  1.0
  H  H97  1  0.66248000  0.73739000  0.98119000  1.0
  H  H98  1  0.33753000  0.98119000  0.26261000  1.0
  H  H99  1  0.33753000  0.01881000  0.73739000  1.0
  H  H100  1  0.23428000  0.21862000  0.91381000  1.0
  H  H101  1  0.23428000  0.78138000  0.08619000  1.0
  H  H102  1  0.76572000  0.91381000  0.78138000  1.0
  H  H103  1  0.76572000  0.08619000  0.21862000  1.0
  H  H104  1  0.73428000  0.21862000  0.08619000  1.0
  H  H105  1  0.73428000  0.78138000  0.91381000  1.0
  H  H106  1  0.26572000  0.91381000  0.21862000  1.0
  H  H107  1  0.26572000  0.08619000  0.78138000  1.0
  C  C108  1  0.09275000  0.13076000  0.34818000  1.0
  C  C109  1  0.09275000  0.86924000  0.65182000  1.0
  C  C110  1  0.90725000  0.34818000  0.86924000  1.0
  C  C111  1  0.90725000  0.65182000  0.13076000  1.0
  C  C112  1  0.59275000  0.13076000  0.65182000  1.0
  C  C113  1  0.59275000  0.86924000  0.34818000  1.0
  C  C114  1  0.40725000  0.34818000  0.13076000  1.0
  C  C115  1  0.40725000  0.65182000  0.86924000  1.0
  C  C116  1  0.15919000  0.12944000  0.40300000  1.0
  C  C117  1  0.15919000  0.87056000  0.59700000  1.0
  C  C118  1  0.84081000  0.40300000  0.87056000  1.0
  C  C119  1  0.84081000  0.59700000  0.12944000  1.0
  C  C120  1  0.65919000  0.12944000  0.59700000  1.0
  C  C121  1  0.65919000  0.87056000  0.40300000  1.0
  C  C122  1  0.34081000  0.40300000  0.12944000  1.0
  C  C123  1  0.34081000  0.59700000  0.87056000  1.0
  C  C124  1  0.13816000  0.11974000  0.47863000  1.0
  C  C125  1  0.13816000  0.88026000  0.52137000  1.0
  C  C126  1  0.86184000  0.47863000  0.88026000  1.0
  C  C127  1  0.86184000  0.52137000  0.11974000  1.0
  C  C128  1  0.63816000  0.11974000  0.52137000  1.0
  C  C129  1  0.63816000  0.88026000  0.47863000  1.0
  C  C130  1  0.36184000  0.47863000  0.11974000  1.0
  C  C131  1  0.36184000  0.52137000  0.88026000  1.0
  C  C132  1  0.04998000  0.11115000  0.50147000  1.0
  C  C133  1  0.04998000  0.88885000  0.49853000  1.0
  C  C134  1  0.95002000  0.50147000  0.88885000  1.0
  C  C135  1  0.95002000  0.49853000  0.11115000  1.0
  C  C136  1  0.54998000  0.11115000  0.49853000  1.0
  C  C137  1  0.54998000  0.88885000  0.50147000  1.0
  C  C138  1  0.45002000  0.50147000  0.11115000  1.0
  C  C139  1  0.45002000  0.49853000  0.88885000  1.0
  C  C140  1  0.98387000  0.11103000  0.44592000  1.0
  C  C141  1  0.98387000  0.88897000  0.55408000  1.0
  C  C142  1  0.01613000  0.44592000  0.88897000  1.0
  C  C143  1  0.01613000  0.55408000  0.11103000  1.0
  C  C144  1  0.48387000  0.11103000  0.55408000  1.0
  C  C145  1  0.48387000  0.88897000  0.44592000  1.0
  C  C146  1  0.51613000  0.44592000  0.11103000  1.0
  C  C147  1  0.51613000  0.55408000  0.88897000  1.0
  C  C148  1  0.00493000  0.12081000  0.37026000  1.0
  C  C149  1  0.00493000  0.87919000  0.62974000  1.0
  C  C150  1  0.99507000  0.37026000  0.87919000  1.0
  C  C151  1  0.99507000  0.62974000  0.12081000  1.0
  C  C152  1  0.50493000  0.12081000  0.62974000  1.0
  C  C153  1  0.50493000  0.87919000  0.37026000  1.0
  C  C154  1  0.49507000  0.37026000  0.12081000  1.0
  C  C155  1  0.49507000  0.62974000  0.87919000  1.0
  C  C156  1  0.02795000  0.10509000  0.58217000  1.0
  C  C157  1  0.02795000  0.89491000  0.41783000  1.0
  C  C158  1  0.97205000  0.58217000  0.89491000  1.0
  C  C159  1  0.97205000  0.41783000  0.10509000  1.0
  C  C160  1  0.52795000  0.10509000  0.41783000  1.0
  C  C161  1  0.52795000  0.89491000  0.58217000  1.0
  C  C162  1  0.47205000  0.58217000  0.10509000  1.0
  C  C163  1  0.47205000  0.41783000  0.89491000  1.0
  C  C164  1  0.94937000  0.13545000  0.61117000  1.0
  C  C165  1  0.94937000  0.86455000  0.38883000  1.0
  C  C166  1  0.05063000  0.61117000  0.86455000  1.0
  C  C167  1  0.05063000  0.38883000  0.13545000  1.0
  C  C168  1  0.44937000  0.13545000  0.38883000  1.0
  C  C169  1  0.44937000  0.86455000  0.61117000  1.0
  C  C170  1  0.55063000  0.61117000  0.13545000  1.0
  C  C171  1  0.55063000  0.38883000  0.86455000  1.0
  C  C172  1  0.93252000  0.13178000  0.68800000  1.0
  C  C173  1  0.93252000  0.86822000  0.31200000  1.0
  C  C174  1  0.06749000  0.68800000  0.86822000  1.0
  C  C175  1  0.06749000  0.31200000  0.13178000  1.0
  C  C176  1  0.43251000  0.13178000  0.31200000  1.0
  C  C177  1  0.43252000  0.86822000  0.68800000  1.0
  C  C178  1  0.56748000  0.68800000  0.13178000  1.0
  C  C179  1  0.56749000  0.31200000  0.86822000  1.0
  C  C180  1  0.06402000  0.06986000  0.70984000  1.0
  C  C181  1  0.06402000  0.93014000  0.29016000  1.0
  C  C182  1  0.93598000  0.70984000  0.93014000  1.0
  C  C183  1  0.93598000  0.29016000  0.06986000  1.0
  C  C184  1  0.56402000  0.06986000  0.29016000  1.0
  C  C185  1  0.56402000  0.93014000  0.70984000  1.0
  C  C186  1  0.43598000  0.70984000  0.06986000  1.0
  C  C187  1  0.43598000  0.29016000  0.93014000  1.0
  C  C188  1  0.08547000  0.07093000  0.63383000  1.0
  C  C189  1  0.08547000  0.92907000  0.36617000  1.0
  C  C190  1  0.91453000  0.63383000  0.92907000  1.0
  C  C191  1  0.91453000  0.36617000  0.07093000  1.0
  C  C192  1  0.58547000  0.07093000  0.36617000  1.0
  C  C193  1  0.58547000  0.92907000  0.63383000  1.0
  C  C194  1  0.41453000  0.63383000  0.07093000  1.0
  C  C195  1  0.41453000  0.36617000  0.92907000  1.0
  C  C196  1  0.11533000  0.14176000  0.26646000  1.0
  C  C197  1  0.11533000  0.85824000  0.73354000  1.0
  C  C198  1  0.88467000  0.26646000  0.85824000  1.0
  C  C199  1  0.88467000  0.73354000  0.14176000  1.0
  C  C200  1  0.61533000  0.14176000  0.73354000  1.0
  C  C201  1  0.61533000  0.85824000  0.26646000  1.0
  C  C202  1  0.38467000  0.26646000  0.14176000  1.0
  C  C203  1  0.38467000  0.73354000  0.85824000  1.0
  C  C204  1  0.17833000  0.14171000  0.99643000  1.0
  C  C205  1  0.17833000  0.85829000  0.00357000  1.0
  C  C206  1  0.82167000  0.99643000  0.85829000  1.0
  C  C207  1  0.82167000  0.00357000  0.14171000  1.0
  C  C208  1  0.67833000  0.14171000  0.00357000  1.0
  C  C209  1  0.67833000  0.85829000  0.99643000  1.0
  C  C210  1  0.32167000  0.99643000  0.14171000  1.0
  C  C211  1  0.32167000  0.00357000  0.85829000  1.0
  C  C212  1  0.09579000  0.12490000  0.95044000  1.0
  C  C213  1  0.09579000  0.87510000  0.04956000  1.0
  C  C214  1  0.90421000  0.95044000  0.87510000  1.0
  C  C215  1  0.90421000  0.04956000  0.12490000  1.0
  C  C216  1  0.59579000  0.12490000  0.04956000  1.0
  C  C217  1  0.59579000  0.87510000  0.95044000  1.0
  C  C218  1  0.40421000  0.95044000  0.12490000  1.0
  C  C219  1  0.40421000  0.04956000  0.87510000  1.0
  C  C220  1  0.21346000  0.21935000  0.97300000  1.0
  C  C221  1  0.21346000  0.78065000  0.02700000  1.0
  C  C222  1  0.78653000  0.97300000  0.78065000  1.0
  C  C223  1  0.78654000  0.02700000  0.21935000  1.0
  C  C224  1  0.71346000  0.21935000  0.02700000  1.0
  C  C225  1  0.71347000  0.78065000  0.97300000  1.0
  C  C226  1  0.28654000  0.97300000  0.21935000  1.0
  C  C227  1  0.28654000  0.02700000  0.78065000  1.0
  N  N228  1  0.98925000  0.10008000  0.73677000  1.0
  N  N229  1  0.98925000  0.89992000  0.26323000  1.0
  N  N230  1  0.01075000  0.73677000  0.89992000  1.0
  N  N231  1  0.01075000  0.26323000  0.10008000  1.0
  N  N232  1  0.48925000  0.10008000  0.26323000  1.0
  N  N233  1  0.48925000  0.89992000  0.73677000  1.0
  N  N234  1  0.51075000  0.73677000  0.10008000  1.0
  N  N235  1  0.51075000  0.26323000  0.89992000  1.0
  O  O236  1  0.05272000  0.14514000  0.21993000  1.0
  O  O237  1  0.05272000  0.85486000  0.78007000  1.0
  O  O238  1  0.94728000  0.21993000  0.85486000  1.0
  O  O239  1  0.94728000  0.78007000  0.14514000  1.0
  O  O240  1  0.55272000  0.14514000  0.78007000  1.0
  O  O241  1  0.55272000  0.85486000  0.21993000  1.0
  O  O242  1  0.44728000  0.21993000  0.14514000  1.0
  O  O243  1  0.44728000  0.78007000  0.85486000  1.0
  O  O244  1  0.19800000  0.14647000  0.25162000  1.0
  O  O245  1  0.19800000  0.85353000  0.74838000  1.0
  O  O246  1  0.80200000  0.25162000  0.85353000  1.0
  O  O247  1  0.80200000  0.74838000  0.14647000  1.0
  O  O248  1  0.69800000  0.14647000  0.74838000  1.0
  O  O249  1  0.69800000  0.85353000  0.25162000  1.0
  O  O250  1  0.30200000  0.25162000  0.14647000  1.0
  O  O251  1  0.30200000  0.74838000  0.85353000  1.0
  O  O252  1  0.15841000  0.13832000  0.07434000  1.0
  O  O253  1  0.15841000  0.86168000  0.92566000  1.0
  O  O254  1  0.84160000  0.07434000  0.86168000  1.0
  O  O255  1  0.84159000  0.92566000  0.13832000  1.0
  O  O256  1  0.65841000  0.13832000  0.92566000  1.0
  O  O257  1  0.65841000  0.86168000  0.07434000  1.0
  O  O258  1  0.34159000  0.07434000  0.13832000  1.0
  O  O259  1  0.34159000  0.92566000  0.86168000  1.0
  O  O260  1  0.02097000  0.12527000  0.98319000  1.0
  O  O261  1  0.02097000  0.87473000  0.01681000  1.0
  O  O262  1  0.97903000  0.98319000  0.87473000  1.0
  O  O263  1  0.97903000  0.01681000  0.12527000  1.0
  O  O264  1  0.52097000  0.12527000  0.01681000  1.0
  O  O265  1  0.52097000  0.87473000  0.98319000  1.0
  O  O266  1  0.47903000  0.98319000  0.12527000  1.0
  O  O267  1  0.47903000  0.01681000  0.87473000  1.0
  O  O268  1  0.10293000  0.11379000  0.87991000  1.0
  O  O269  1  0.10293000  0.88621000  0.12009000  1.0
  O  O270  1  0.89707000  0.87991000  0.88621000  1.0
  O  O271  1  0.89707000  0.12009000  0.11379000  1.0
  O  O272  1  0.60293000  0.11379000  0.12009000  1.0
  O  O273  1  0.60293000  0.88621000  0.87991000  1.0
  O  O274  1  0.39707000  0.87991000  0.11379000  1.0
  O  O275  1  0.39707000  0.12009000  0.88621000  1.0
