# generated using pymatgen
data_NaCuH7C7SO8
_symmetry_space_group_name_H-M   'P 1'
_cell_length_a   11.07170000
_cell_length_b   11.58280000
_cell_length_c   11.58250000
_cell_angle_alpha   108.12400000
_cell_angle_beta   100.11900000
_cell_angle_gamma   100.12000000
_symmetry_Int_Tables_number   1
_chemical_formula_structural   NaCuH7C7SO8
_chemical_formula_sum   'Na4 Cu4 H28 C28 S4 O32'
_cell_volume   1346.91777265
_cell_formula_units_Z   4
loop_
 _symmetry_equiv_pos_site_id
 _symmetry_equiv_pos_as_xyz
  1  'x, y, z'
loop_
 _atom_site_type_symbol
 _atom_site_label
 _atom_site_symmetry_multiplicity
 _atom_site_fract_x
 _atom_site_fract_y
 _atom_site_fract_z
 _atom_site_occupancy
  Na  Na0  1  0.75000000  0.86186000  0.13814000  1.0
  Na  Na1  1  0.25000000  0.13814000  0.86186000  1.0
  Na  Na2  1  0.75000000  0.04766000  0.95234000  1.0
  Na  Na3  1  0.25000000  0.95234000  0.04766000  1.0
  Cu  Cu4  1  0.02461000  0.79545000  0.16769000  1.0
  Cu  Cu5  1  0.47539000  0.83231000  0.20455000  1.0
  Cu  Cu6  1  0.97539000  0.20455000  0.83231000  1.0
  Cu  Cu7  1  0.52461000  0.16769000  0.79545000  1.0
  H  H8  1  0.83609000  0.64622000  0.98183000  1.0
  H  H9  1  0.66391000  0.01816000  0.35378000  1.0
  H  H10  1  0.16391000  0.35378000  0.01817000  1.0
  H  H11  1  0.33609000  0.98183000  0.64622000  1.0
  H  H12  1  0.89925000  0.76622000  0.95015000  1.0
  H  H13  1  0.60075000  0.04985000  0.23378000  1.0
  H  H14  1  0.10075000  0.23379000  0.04985000  1.0
  H  H15  1  0.39925000  0.95015000  0.76622000  1.0
  H  H16  1  0.08867000  0.68502000  0.96913000  1.0
  H  H17  1  0.41133000  0.03087000  0.31498000  1.0
  H  H18  1  0.91133000  0.31498000  0.03087000  1.0
  H  H19  1  0.58866000  0.96912000  0.68502000  1.0
  H  H20  1  0.20807000  0.71424000  0.08751000  1.0
  H  H21  1  0.29193000  0.91249000  0.28576000  1.0
  H  H22  1  0.79193000  0.28577000  0.91249000  1.0
  H  H23  1  0.70807000  0.08751000  0.71424000  1.0
  H  H24  1  0.83608000  0.11172000  0.34358000  1.0
  H  H25  1  0.66392000  0.65642000  0.88828000  1.0
  H  H26  1  0.16392000  0.88828000  0.65642000  1.0
  H  H27  1  0.33609000  0.34358000  0.11171000  1.0
  H  H28  1  0.26417000  0.19850000  0.61574000  1.0
  H  H29  1  0.23583000  0.38426000  0.80150000  1.0
  H  H30  1  0.73583000  0.80151000  0.38427000  1.0
  H  H31  1  0.76417000  0.61573000  0.19849000  1.0
  H  H32  1  0.23788000  0.16601000  0.38888000  1.0
  H  H33  1  0.26212000  0.61112000  0.83399000  1.0
  H  H34  1  0.76212000  0.83400000  0.61113000  1.0
  H  H35  1  0.73788000  0.38887000  0.16600000  1.0
  C  C36  1  0.03372000  0.13546000  0.35230000  1.0
  C  C37  1  0.46629000  0.64771000  0.86454000  1.0
  C  C38  1  0.96629000  0.86455000  0.64771000  1.0
  C  C39  1  0.53371000  0.35228000  0.13545000  1.0
  C  C40  1  0.92983000  0.13050000  0.40349000  1.0
  C  C41  1  0.57018000  0.59650000  0.86951000  1.0
  C  C42  1  0.07018000  0.86951000  0.59651000  1.0
  C  C43  1  0.42983000  0.40349000  0.13049000  1.0
  C  C44  1  0.94188000  0.14657000  0.53066000  1.0
  C  C45  1  0.55812000  0.46934000  0.85343000  1.0
  C  C46  1  0.05812000  0.85344000  0.46935000  1.0
  C  C47  1  0.44188000  0.53065000  0.14657000  1.0
  C  C48  1  0.06528000  0.17116000  0.60877000  1.0
  C  C49  1  0.43472000  0.39123000  0.82885000  1.0
  C  C50  1  0.93472000  0.82885000  0.39124000  1.0
  C  C51  1  0.56528000  0.60876000  0.17115000  1.0
  C  C52  1  0.17081000  0.17995000  0.55462000  1.0
  C  C53  1  0.32919000  0.44539000  0.82005000  1.0
  C  C54  1  0.82919000  0.82006000  0.44539000  1.0
  C  C55  1  0.67081000  0.55461000  0.17995000  1.0
  C  C56  1  0.15584000  0.16151000  0.42900000  1.0
  C  C57  1  0.34416000  0.57101000  0.83849000  1.0
  C  C58  1  0.84416000  0.83850000  0.57100000  1.0
  C  C59  1  0.65584000  0.42899000  0.16150000  1.0
  C  C60  1  0.82406000  0.12652000  0.57293000  1.0
  C  C61  1  0.67594000  0.42708000  0.87348000  1.0
  C  C62  1  0.17594000  0.87348000  0.42707000  1.0
  C  C63  1  0.32407000  0.57292000  0.12652000  1.0
  S  S64  1  0.01235000  0.09945000  0.18925000  1.0
  S  S65  1  0.48765000  0.81075000  0.90055000  1.0
  S  S66  1  0.98765000  0.90055000  0.81075000  1.0
  S  S67  1  0.51235000  0.18925000  0.09945000  1.0
  O  O68  1  0.87522000  0.04769000  0.13477000  1.0
  O  O69  1  0.62478000  0.86524000  0.95232000  1.0
  O  O70  1  0.12478000  0.95231000  0.86524000  1.0
  O  O71  1  0.37522000  0.13476000  0.04768000  1.0
  O  O72  1  0.08614000  0.00627000  0.14882000  1.0
  O  O73  1  0.41386000  0.85119000  0.99373000  1.0
  O  O74  1  0.91386000  0.99373000  0.85119000  1.0
  O  O75  1  0.58614000  0.14881000  0.00626000  1.0
  O  O76  1  0.06051000  0.21737000  0.16982000  1.0
  O  O77  1  0.43949000  0.83018000  0.78264000  1.0
  O  O78  1  0.93950000  0.78263000  0.83018000  1.0
  O  O79  1  0.56051000  0.16983000  0.21736000  1.0
  O  O80  1  0.71615000  0.08274000  0.49830000  1.0
  O  O81  1  0.78385000  0.50170000  0.91725000  1.0
  O  O82  1  0.28384000  0.91726000  0.50170000  1.0
  O  O83  1  0.21616000  0.49830000  0.08274000  1.0
  O  O84  1  0.83022000  0.15295000  0.69288000  1.0
  O  O85  1  0.66978000  0.30712000  0.84704000  1.0
  O  O86  1  0.16978000  0.84705000  0.30712000  1.0
  O  O87  1  0.33022000  0.69288000  0.15295000  1.0
  O  O88  1  0.09076000  0.18387000  0.72862000  1.0
  O  O89  1  0.40923000  0.27138000  0.81612000  1.0
  O  O90  1  0.90924000  0.81613000  0.27138000  1.0
  O  O91  1  0.59076000  0.72862000  0.18388000  1.0
  O  O92  1  0.87533000  0.74063000  0.02078000  1.0
  O  O93  1  0.62467000  0.97922000  0.25937000  1.0
  O  O94  1  0.12467000  0.25937000  0.97922000  1.0
  O  O95  1  0.37533000  0.02078000  0.74063000  1.0
  O  O96  1  0.13658000  0.74797000  0.04959000  1.0
  O  O97  1  0.36342000  0.95041000  0.25203000  1.0
  O  O98  1  0.86341000  0.25203000  0.95041000  1.0
  O  O99  1  0.63659000  0.04958000  0.74797000  1.0
