# generated using pymatgen
data_NdH24C26Cl3O11
_symmetry_space_group_name_H-M   'P 1'
_cell_length_a   8.67240000
_cell_length_b   10.10450000
_cell_length_c   17.81310000
_cell_angle_alpha   77.31230000
_cell_angle_beta   76.93920000
_cell_angle_gamma   71.05460000
_symmetry_Int_Tables_number   1
_chemical_formula_structural   NdH24C26Cl3O11
_chemical_formula_sum   'Nd2 H48 C52 Cl6 O22'
_cell_volume   1419.97468123
_cell_formula_units_Z   2
loop_
 _symmetry_equiv_pos_site_id
 _symmetry_equiv_pos_as_xyz
  1  'x, y, z'
loop_
 _atom_site_type_symbol
 _atom_site_label
 _atom_site_symmetry_multiplicity
 _atom_site_fract_x
 _atom_site_fract_y
 _atom_site_fract_z
 _atom_site_occupancy
  Nd  Nd0  1  0.25347000  0.50383000  0.49271000  1.0
  Nd  Nd1  1  0.74654000  0.49617000  0.50729000  1.0
  H  H2  1  0.47960000  0.48598000  0.21009000  1.0
  H  H3  1  0.52040000  0.51401000  0.78991000  1.0
  H  H4  1  0.36615000  0.35906000  0.23995000  1.0
  H  H5  1  0.63384000  0.64094000  0.76006000  1.0
  H  H6  1  0.03729000  0.74465000  0.11209000  1.0
  H  H7  1  0.96271000  0.25536000  0.88791000  1.0
  H  H8  1  0.02166000  0.73203000  0.97656000  1.0
  H  H9  1  0.97834000  0.26798000  0.02344000  1.0
  H  H10  1  0.41444000  0.33779000  0.98483000  1.0
  H  H11  1  0.58555000  0.66222000  0.01517000  1.0
  H  H12  1  0.43371000  0.35113000  0.11801000  1.0
  H  H13  1  0.56628000  0.64887000  0.88199000  1.0
  H  H14  1  0.86425000  0.91183000  0.56909000  1.0
  H  H15  1  0.13575000  0.08817000  0.43091000  1.0
  H  H16  1  0.01828000  0.87630000  0.48454000  1.0
  H  H17  1  0.98172000  0.12370000  0.51546000  1.0
  H  H18  1  0.55817000  0.16925000  0.38960000  1.0
  H  H19  1  0.44184000  0.83075000  0.61039000  1.0
  H  H20  1  0.56858000  0.18942000  0.24616000  1.0
  H  H21  1  0.43142000  0.81059000  0.75384000  1.0
  H  H22  1  0.03672000  0.86603000  0.23165000  1.0
  H  H23  1  0.96328000  0.13397000  0.76835000  1.0
  H  H24  1  0.03175000  0.84879000  0.37143000  1.0
  H  H25  1  0.96825000  0.15121000  0.62857000  1.0
  H  H26  1  0.49553000  0.90206000  0.43563000  1.0
  H  H27  1  0.50447000  0.09794000  0.56436000  1.0
  H  H28  1  0.59436000  0.82754000  0.35005000  1.0
  H  H29  1  0.40564000  0.17246000  0.64995000  1.0
  H  H30  1  0.18795000  0.19124000  0.26699000  1.0
  H  H31  1  0.81204000  0.80876000  0.73300000  1.0
  H  H32  1  0.14652000  0.20807000  0.13096000  1.0
  H  H33  1  0.85347000  0.79192000  0.86904000  1.0
  H  H34  1  0.46347000  0.78037000  0.12632000  1.0
  H  H35  1  0.53653000  0.21962000  0.87368000  1.0
  H  H36  1  0.50309000  0.76331000  0.26131000  1.0
  H  H37  1  0.49691000  0.23669000  0.73869000  1.0
  H  H38  1  0.29557000  0.40863000  0.70539000  1.0
  H  H39  1  0.70444000  0.59137000  0.29461000  1.0
  H  H40  1  0.08352000  0.43591000  0.75004000  1.0
  H  H41  1  0.91648000  0.56409000  0.24996000  1.0
  H  H42  1  0.01314000  0.67061000  0.66077000  1.0
  H  H43  1  0.98687000  0.32939000  0.33923000  1.0
  H  H44  1  0.16404000  0.66690000  0.71550000  1.0
  H  H45  1  0.83596000  0.33310000  0.28450000  1.0
  H  H46  1  0.02250000  0.41327000  0.64153000  1.0
  H  H47  1  0.97750000  0.58672000  0.35847000  1.0
  H  H48  1  0.35851000  0.62243000  0.61073000  1.0
  H  H49  1  0.64150000  0.37757000  0.38927000  1.0
  C  C50  1  0.32482000  0.49144000  0.32355000  1.0
  C  C51  1  0.67518000  0.50856000  0.67645000  1.0
  C  C52  1  0.35882000  0.47071000  0.23905000  1.0
  C  C53  1  0.64118000  0.52929000  0.76096000  1.0
  C  C54  1  0.23371000  0.54850000  0.12458000  1.0
  C  C55  1  0.76628000  0.45151000  0.87542000  1.0
  C  C56  1  0.11886000  0.65544000  0.08393000  1.0
  C  C57  1  0.88113000  0.34457000  0.91607000  1.0
  C  C58  1  0.11035000  0.64833000  0.00804000  1.0
  C  C59  1  0.88964000  0.35167000  0.99197000  1.0
  C  C60  1  0.21694000  0.53356000  0.97278000  1.0
  C  C61  1  0.78306000  0.46645000  0.02722000  1.0
  C  C62  1  0.33142000  0.42687000  0.01254000  1.0
  C  C63  1  0.66858000  0.57315000  0.98746000  1.0
  C  C64  1  0.34107000  0.43449000  0.08870000  1.0
  C  C65  1  0.65892000  0.56552000  0.91130000  1.0
  C  C66  1  0.84575000  0.75285000  0.51296000  1.0
  C  C67  1  0.15426000  0.24715000  0.48704000  1.0
  C  C68  1  0.88725000  0.88939000  0.50923000  1.0
  C  C69  1  0.11275000  0.11061000  0.49077000  1.0
  C  C70  1  0.79436000  0.01004000  0.38969000  1.0
  C  C71  1  0.20565000  0.98996000  0.61031000  1.0
  C  C72  1  0.66448000  0.10650000  0.35400000  1.0
  C  C73  1  0.33553000  0.89351000  0.64600000  1.0
  C  C74  1  0.66990000  0.11693000  0.27441000  1.0
  C  C75  1  0.33009000  0.88308000  0.72559000  1.0
  C  C76  1  0.80371000  0.03057000  0.23044000  1.0
  C  C77  1  0.19629000  0.96943000  0.76956000  1.0
  C  C78  1  0.93226000  0.93349000  0.26577000  1.0
  C  C79  1  0.06775000  0.06651000  0.73422000  1.0
  C  C80  1  0.92785000  0.92309000  0.34567000  1.0
  C  C81  1  0.07215000  0.07691000  0.65433000  1.0
  C  C82  1  0.40189000  0.74161000  0.42192000  1.0
  C  C83  1  0.59811000  0.25839000  0.57808000  1.0
  C  C84  1  0.47335000  0.86419000  0.38696000  1.0
  C  C85  1  0.52665000  0.13581000  0.61304000  1.0
  C  C86  1  0.34899000  0.97785000  0.27277000  1.0
  C  C87  1  0.65100000  0.02214000  0.72723000  1.0
  C  C88  1  0.24863000  0.10219000  0.23529000  1.0
  C  C89  1  0.75136000  0.89780000  0.76471000  1.0
  C  C90  1  0.22523000  0.11123000  0.15950000  1.0
  C  C91  1  0.77476000  0.88877000  0.84050000  1.0
  C  C92  1  0.30364000  0.99507000  0.12030000  1.0
  C  C93  1  0.69636000  0.00492000  0.87970000  1.0
  C  C94  1  0.40304000  0.87061000  0.15710000  1.0
  C  C95  1  0.59695000  0.12938000  0.84290000  1.0
  C  C96  1  0.42557000  0.86148000  0.23348000  1.0
  C  C97  1  0.57443000  0.13851000  0.76652000  1.0
  C  C98  1  0.16726000  0.45997000  0.69594000  1.0
  C  C99  1  0.83274000  0.54002000  0.30406000  1.0
  C  C100  1  0.14044000  0.61807000  0.67135000  1.0
  C  C101  1  0.85957000  0.38193000  0.32865000  1.0
  Cl  Cl102  1  0.20685000  0.52547000  0.87732000  1.0
  Cl  Cl103  1  0.79314000  0.47454000  0.12268000  1.0
  Cl  Cl104  1  0.80898000  0.04635000  0.13087000  1.0
  Cl  Cl105  1  0.19103000  0.95365000  0.86913000  1.0
  Cl  Cl106  1  0.27769000  0.00700000  0.02511000  1.0
  Cl  Cl107  1  0.72231000  0.99299000  0.97489000  1.0
  O  O108  1  0.96464000  0.63672000  0.51239000  1.0
  O  O109  1  0.03536000  0.36328000  0.48761000  1.0
  O  O110  1  0.17765000  0.53901000  0.35796000  1.0
  O  O111  1  0.82235000  0.46099000  0.64204000  1.0
  O  O112  1  0.77967000  0.00812000  0.46846000  1.0
  O  O113  1  0.22033000  0.99189000  0.53154000  1.0
  O  O114  1  0.49432000  0.62969000  0.45794000  1.0
  O  O115  1  0.50568000  0.37031000  0.54206000  1.0
  O  O116  1  0.69841000  0.75284000  0.51798000  1.0
  O  O117  1  0.30159000  0.24716000  0.48202000  1.0
  O  O118  1  0.36391000  0.98194000  0.34700000  1.0
  O  O119  1  0.63609000  0.01806000  0.65299000  1.0
  O  O120  1  0.24674000  0.64278000  0.59819000  1.0
  O  O121  1  0.75327000  0.35722000  0.40181000  1.0
  O  O122  1  0.14368000  0.40170000  0.63394000  1.0
  O  O123  1  0.85632000  0.59830000  0.36606000  1.0
  O  O124  1  0.44668000  0.45375000  0.35985000  1.0
  O  O125  1  0.55332000  0.54624000  0.64015000  1.0
  O  O126  1  0.22928000  0.56465000  0.19991000  1.0
  O  O127  1  0.77071000  0.43535000  0.80010000  1.0
  O  O128  1  0.25688000  0.74803000  0.41751000  1.0
  O  O129  1  0.74312000  0.25197000  0.58249000  1.0
