# generated using pymatgen
data_CuH10C8N2ClO
_symmetry_space_group_name_H-M   'P 1'
_cell_length_a   4.78016000
_cell_length_b   13.72560000
_cell_length_c   13.94340000
_cell_angle_alpha   90.00000000
_cell_angle_beta   90.00000000
_cell_angle_gamma   89.99990000
_symmetry_Int_Tables_number   1
_chemical_formula_structural   CuH10C8N2ClO
_chemical_formula_sum   'Cu4 H40 C32 N8 Cl4 O4'
_cell_volume   914.83433941
_cell_formula_units_Z   4
loop_
 _symmetry_equiv_pos_site_id
 _symmetry_equiv_pos_as_xyz
  1  'x, y, z'
loop_
 _atom_site_type_symbol
 _atom_site_label
 _atom_site_symmetry_multiplicity
 _atom_site_fract_x
 _atom_site_fract_y
 _atom_site_fract_z
 _atom_site_occupancy
  Cu  Cu0  1  0.11334000  0.78712000  0.57115000  1.0
  Cu  Cu1  1  0.38667000  0.21288000  0.07115000  1.0
  Cu  Cu2  1  0.88667000  0.28712000  0.92885000  1.0
  Cu  Cu3  1  0.61333000  0.71288000  0.42885000  1.0
  H  H4  1  0.85332000  0.70787000  0.83534000  1.0
  H  H5  1  0.64668000  0.29213000  0.33534000  1.0
  H  H6  1  0.14669000  0.20787000  0.66466000  1.0
  H  H7  1  0.35332000  0.79213000  0.16466000  1.0
  H  H8  1  0.88913000  0.97128000  0.63413000  1.0
  H  H9  1  0.61087000  0.02872000  0.13413000  1.0
  H  H10  1  0.11087000  0.47128000  0.86588000  1.0
  H  H11  1  0.38913000  0.52872000  0.36587000  1.0
  H  H12  1  0.95841000  0.08662000  0.76948000  1.0
  H  H13  1  0.54159000  0.91338000  0.26948000  1.0
  H  H14  1  0.04159000  0.58662000  0.73052000  1.0
  H  H15  1  0.45841000  0.41338000  0.23052000  1.0
  H  H16  1  0.33441000  0.05028000  0.89180000  1.0
  H  H17  1  0.16559000  0.94972000  0.39180000  1.0
  H  H18  1  0.66559000  0.55028000  0.60820000  1.0
  H  H19  1  0.83441000  0.44972000  0.10820000  1.0
  H  H20  1  0.60804000  0.89584000  0.87384000  1.0
  H  H21  1  0.89196000  0.10416000  0.37384000  1.0
  H  H22  1  0.39196000  0.39584000  0.62616000  1.0
  H  H23  1  0.10804000  0.60416000  0.12616000  1.0
  H  H24  1  0.40644000  0.70585000  0.69614000  1.0
  H  H25  1  0.09357000  0.29415000  0.19614000  1.0
  H  H26  1  0.59356000  0.20585000  0.80386000  1.0
  H  H27  1  0.90644000  0.79415000  0.30386000  1.0
  H  H28  1  0.72733000  0.76874000  0.68713000  1.0
  H  H29  1  0.77267000  0.23126000  0.18713000  1.0
  H  H30  1  0.27267000  0.26874000  0.81287000  1.0
  H  H31  1  0.22733000  0.73125000  0.31287000  1.0
  H  H32  1  0.48530000  0.55522000  0.98316000  1.0
  H  H33  1  0.01470000  0.44478000  0.48315000  1.0
  H  H34  1  0.51470000  0.05523000  0.51684000  1.0
  H  H35  1  0.98529000  0.94477000  0.01684000  1.0
  H  H36  1  0.53372000  0.67206000  0.03575000  1.0
  H  H37  1  0.96628000  0.32794000  0.53575000  1.0
  H  H38  1  0.46628000  0.17206000  0.46425000  1.0
  H  H39  1  0.03372000  0.82794000  0.96425000  1.0
  H  H40  1  0.81036000  0.61911000  0.96795000  1.0
  H  H41  1  0.68964000  0.38089000  0.46795000  1.0
  H  H42  1  0.18965000  0.11912000  0.53205000  1.0
  H  H43  1  0.31035000  0.88089000  0.03205000  1.0
  C  C44  1  0.04540000  0.95711000  0.68928000  1.0
  C  C45  1  0.45461000  0.04289000  0.18928000  1.0
  C  C46  1  0.95460000  0.45711000  0.81072000  1.0
  C  C47  1  0.54539000  0.54289000  0.31072000  1.0
  C  C48  1  0.08697000  0.02151000  0.76471000  1.0
  C  C49  1  0.41304000  0.97849000  0.26471000  1.0
  C  C50  1  0.91303000  0.52151000  0.73529000  1.0
  C  C51  1  0.58696000  0.47849000  0.23529000  1.0
  C  C52  1  0.29314000  0.00075000  0.83228000  1.0
  C  C53  1  0.20687000  0.99925000  0.33228000  1.0
  C  C54  1  0.70687000  0.50075000  0.66772000  1.0
  C  C55  1  0.79313000  0.49925000  0.16772000  1.0
  C  C56  1  0.44626000  0.91512000  0.82225000  1.0
  C  C57  1  0.05374000  0.08488000  0.32225000  1.0
  C  C58  1  0.55374000  0.41512000  0.67775000  1.0
  C  C59  1  0.94625000  0.58488000  0.17775000  1.0
  C  C60  1  0.38895000  0.85181000  0.74649000  1.0
  C  C61  1  0.11105000  0.14819000  0.24649000  1.0
  C  C62  1  0.61105000  0.35181000  0.75351000  1.0
  C  C63  1  0.88894000  0.64819000  0.25351000  1.0
  C  C64  1  0.54455000  0.75722000  0.73424000  1.0
  C  C65  1  0.95545000  0.24278000  0.23424000  1.0
  C  C66  1  0.45545000  0.25722000  0.76576000  1.0
  C  C67  1  0.04455000  0.74278000  0.26575000  1.0
  C  C68  1  0.46089000  0.67454000  0.88538000  1.0
  C  C69  1  0.03911000  0.32546000  0.38538000  1.0
  C  C70  1  0.53911000  0.17454000  0.61462000  1.0
  C  C71  1  0.96089000  0.82546000  0.11462000  1.0
  C  C72  1  0.58283000  0.62691000  0.97291000  1.0
  C  C73  1  0.91717000  0.37309000  0.47291000  1.0
  C  C74  1  0.41717000  0.12691000  0.52709000  1.0
  C  C75  1  0.08283000  0.87309000  0.02709000  1.0
  N  N76  1  0.19100000  0.87306000  0.67980000  1.0
  N  N77  1  0.30901000  0.12694000  0.17980000  1.0
  N  N78  1  0.80900000  0.37306000  0.82020000  1.0
  N  N79  1  0.69099000  0.62694000  0.32020000  1.0
  N  N80  1  0.64247000  0.71550000  0.82338000  1.0
  N  N81  1  0.85753000  0.28450000  0.32338000  1.0
  N  N82  1  0.35753000  0.21551000  0.67662000  1.0
  N  N83  1  0.14247000  0.78449000  0.17662000  1.0
  Cl  Cl84  1  0.22577000  0.64236000  0.51285000  1.0
  Cl  Cl85  1  0.27424000  0.35764000  0.01285000  1.0
  Cl  Cl86  1  0.77424000  0.14236000  0.98715000  1.0
  Cl  Cl87  1  0.72577000  0.85764000  0.48715000  1.0
  O  O88  1  0.20205000  0.67666000  0.87119000  1.0
  O  O89  1  0.29795000  0.32334000  0.37119000  1.0
  O  O90  1  0.79796000  0.17666000  0.62881000  1.0
  O  O91  1  0.70204000  0.82334000  0.12881000  1.0
