# generated using pymatgen
data_Zn2H16C29N2O13
_symmetry_space_group_name_H-M   'P 1'
_cell_length_a   9.98696000
_cell_length_b   11.12960000
_cell_length_c   15.29830000
_cell_angle_alpha   89.87460000
_cell_angle_beta   86.14090000
_cell_angle_gamma   86.00430000
_symmetry_Int_Tables_number   1
_chemical_formula_structural   Zn2H16C29N2O13
_chemical_formula_sum   'Zn2 H16 C29 N2 O13'
_cell_volume   1692.43457336
_cell_formula_units_Z   1
loop_
 _symmetry_equiv_pos_site_id
 _symmetry_equiv_pos_as_xyz
  1  'x, y, z'
loop_
 _atom_site_type_symbol
 _atom_site_label
 _atom_site_symmetry_multiplicity
 _atom_site_fract_x
 _atom_site_fract_y
 _atom_site_fract_z
 _atom_site_occupancy
  Zn  Zn0  1  0.63537000  0.50328000  0.49021000  1.0
  Zn  Zn1  1  0.35806000  0.52284000  0.50166000  1.0
  H  H2  1  0.60299000  0.91312000  0.52251000  1.0
  H  H3  1  0.82893000  0.58084000  0.06341000  1.0
  H  H4  1  0.29974000  0.91121000  0.49840000  1.0
  H  H5  1  0.69613000  0.57481000  0.27982000  1.0
  H  H6  1  0.01637000  0.64227000  0.36948000  1.0
  H  H7  1  0.18473000  0.47145000  0.65748000  1.0
  H  H8  1  0.11932000  0.47639000  0.16333000  1.0
  H  H9  1  0.88885000  0.53672000  0.82377000  1.0
  H  H10  1  0.29508000  0.13268000  0.52263000  1.0
  H  H11  1  0.59207000  0.10667000  0.45266000  1.0
  H  H12  1  0.85795000  0.64570000  0.54426000  1.0
  H  H13  1  0.89266000  0.43293000  0.42892000  1.0
  H  H14  1  0.29101000  0.48156000  0.22516000  1.0
  H  H15  1  0.18157000  0.42959000  0.92537000  1.0
  H  H16  1  0.30418000  0.45026000  0.78236000  1.0
  H  H17  1  0.71916000  0.52710000  0.76245000  1.0
  C  C18  1  0.48656000  0.28221000  0.48112000  1.0
  C  C19  1  0.39461000  0.46916000  0.81436000  1.0
  C  C20  1  0.51232000  0.49025000  0.76414000  1.0
  C  C21  1  0.51183000  0.49287000  0.66628000  1.0
  C  C22  1  0.62949000  0.51306000  0.80469000  1.0
  C  C23  1  0.39476000  0.95311000  0.50367000  1.0
  C  C24  1  0.50555000  0.87867000  0.51242000  1.0
  C  C25  1  0.39083000  0.08353000  0.50267000  1.0
  C  C26  1  0.49507000  0.14910000  0.47714000  1.0
  C  C27  1  0.90978000  0.57347000  0.50370000  1.0
  C  C28  1  0.05747000  0.57675000  0.48096000  1.0
  C  C29  1  0.61906000  0.54141000  0.08297000  1.0
  C  C30  1  0.50305000  0.74599000  0.50896000  1.0
  C  C31  1  0.48681000  0.53107000  0.32292000  1.0
  C  C32  1  0.61387000  0.55008000  0.17584000  1.0
  C  C33  1  0.49332000  0.52782000  0.22569000  1.0
  C  C34  1  0.37991000  0.49908000  0.18328000  1.0
  C  C35  1  0.37971000  0.49085000  0.09205000  1.0
  C  C36  1  0.50202000  0.51131000  0.04118000  1.0
  C  C37  1  0.10231000  0.50156000  0.61643000  1.0
  C  C38  1  0.13289000  0.44062000  0.09485000  1.0
  C  C39  1  0.87857000  0.56595000  0.89370000  1.0
  C  C40  1  0.26370000  0.45928000  0.04728000  1.0
  C  C41  1  0.27135000  0.45048000  0.95761000  1.0
  C  C42  1  0.39108000  0.47241000  0.90594000  1.0
  C  C43  1  0.50870000  0.50119000  0.94814000  1.0
  C  C44  1  0.63055000  0.52045000  0.89648000  1.0
  C  C45  1  0.74732000  0.54969000  0.94143000  1.0
  C  C46  1  0.73915000  0.55999000  0.03142000  1.0
  N  N47  1  0.83963000  0.49822000  0.46682000  1.0
  N  N48  1  0.15004000  0.53963000  0.53228000  1.0
  O  O49  1  0.59721000  0.33157000  0.46271000  1.0
  O  O50  1  0.09480000  0.61769000  0.40216000  1.0
  O  O51  1  0.98262000  0.50445000  0.64061000  1.0
  O  O52  1  0.04069000  0.39140000  0.06373000  1.0
  O  O53  1  0.97482000  0.60725000  0.92639000  1.0
  O  O54  1  0.37337000  0.33811000  0.50266000  1.0
  O  O55  1  0.62431000  0.47532000  0.62230000  1.0
  O  O56  1  0.39795000  0.51433000  0.63402000  1.0
  O  O57  1  0.61621000  0.68594000  0.51486000  1.0
  O  O58  1  0.39092000  0.70083000  0.49946000  1.0
  O  O59  1  0.59700000  0.55116000  0.35902000  1.0
  O  O60  1  0.37709000  0.51357000  0.36586000  1.0
  O  O61  1  0.72425000  0.57865000  0.21453000  1.0
