# generated using pymatgen
data_CoHC6O5
_symmetry_space_group_name_H-M   'P 1'
_cell_length_a   6.98092000
_cell_length_b   14.75110000
_cell_length_c   14.78816911
_cell_angle_alpha   117.18817373
_cell_angle_beta   98.87227340
_cell_angle_gamma   98.98090000
_symmetry_Int_Tables_number   1
_chemical_formula_structural   CoHC6O5
_chemical_formula_sum   'Co6 H6 C36 O30'
_cell_volume   1293.12504178
_cell_formula_units_Z   6
loop_
 _symmetry_equiv_pos_site_id
 _symmetry_equiv_pos_as_xyz
  1  'x, y, z'
loop_
 _atom_site_type_symbol
 _atom_site_label
 _atom_site_symmetry_multiplicity
 _atom_site_fract_x
 _atom_site_fract_y
 _atom_site_fract_z
 _atom_site_occupancy
  Co  Co0  1  0.04235000  0.74211000  0.42543000  1.0
  Co  Co1  1  0.62970000  0.58339000  0.31400000  1.0
  Co  Co2  1  0.30114000  0.68158000  0.26545000  1.0
  Co  Co3  1  0.95761000  0.25787000  0.57453000  1.0
  Co  Co4  1  0.37022000  0.41660000  0.68600000  1.0
  Co  Co5  1  0.69894000  0.31848000  0.73456000  1.0
  H  H6  1  0.13565000  0.97797000  0.44725000  1.0
  H  H7  1  0.67863000  0.54563000  0.52271000  1.0
  H  H8  1  0.15894000  0.47398000  0.02551000  1.0
  H  H9  1  0.86440000  0.02211000  0.55275000  1.0
  H  H10  1  0.32127000  0.45431000  0.47725000  1.0
  H  H11  1  0.84111000  0.52599000  0.97452000  1.0
  C  C12  1  0.19949000  0.80655000  0.56085000  1.0
  C  C13  1  0.64604000  0.45183000  0.24932000  1.0
  C  C14  1  0.38642000  0.74603000  0.19978000  1.0
  C  C15  1  0.80052000  0.19341000  0.43909000  1.0
  C  C16  1  0.35388000  0.54815000  0.75062000  1.0
  C  C17  1  0.61364000  0.25399000  0.80019000  1.0
  C  C18  1  0.36976000  0.89800000  0.43186000  1.0
  C  C19  1  0.93105000  0.56366000  0.46115000  1.0
  C  C20  1  0.47250000  0.53555000  0.10256000  1.0
  C  C21  1  0.63027000  0.10205000  0.56817000  1.0
  C  C22  1  0.06889000  0.43633000  0.53884000  1.0
  C  C23  1  0.52755000  0.46447000  0.89746000  1.0
  C  C24  1  0.29636000  0.98800000  0.47073000  1.0
  C  C25  1  0.82005000  0.52525000  0.51301000  1.0
  C  C26  1  0.30917000  0.48517000  0.01397000  1.0
  C  C27  1  0.70367000  0.01204000  0.52929000  1.0
  C  C28  1  0.17988000  0.47472000  0.48696000  1.0
  C  C29  1  0.69088000  0.51483000  0.98606000  1.0
  C  C30  1  0.57974000  0.91038000  0.46269000  1.0
  C  C31  1  0.11570000  0.53707000  0.44669000  1.0
  C  C32  1  0.66971000  0.55188000  0.08843000  1.0
  C  C33  1  0.42029000  0.08967000  0.53736000  1.0
  C  C34  1  0.88425000  0.46291000  0.55330000  1.0
  C  C35  1  0.33034000  0.44811000  0.91159000  1.0
  C  C36  1  0.67916000  0.82226000  0.43394000  1.0
  C  C37  1  0.24490000  0.56627000  0.38706000  1.0
  C  C38  1  0.85783000  0.61229000  0.17573000  1.0
  C  C39  1  0.32085000  0.17777000  0.56610000  1.0
  C  C40  1  0.75505000  0.43371000  0.61293000  1.0
  C  C41  1  0.14221000  0.38770000  0.82430000  1.0
  C  C42  1  0.03021000  0.89099000  0.21411000  1.0
  C  C43  1  0.81773000  0.78554000  0.67748000  1.0
  C  C44  1  0.14067000  0.32266000  0.10873000  1.0
  C  C45  1  0.96970000  0.10900000  0.78593000  1.0
  C  C46  1  0.18239000  0.21473000  0.32260000  1.0
  C  C47  1  0.85926000  0.67736000  0.89132000  1.0
  O  O48  1  0.23210000  0.80489000  0.36789000  1.0
  O  O49  1  0.85797000  0.62725000  0.42953000  1.0
  O  O50  1  0.42791000  0.56380000  0.19693000  1.0
  O  O51  1  0.76792000  0.19515000  0.63212000  1.0
  O  O52  1  0.14197000  0.37272000  0.57044000  1.0
  O  O53  1  0.57211000  0.43626000  0.80309000  1.0
  O  O54  1  0.56706000  0.72651000  0.38337000  1.0
  O  O55  1  0.17826000  0.61710000  0.34196000  1.0
  O  O56  1  0.83829000  0.66453000  0.26960000  1.0
  O  O57  1  0.43296000  0.27353000  0.61669000  1.0
  O  O58  1  0.82178000  0.38293000  0.65806000  1.0
  O  O59  1  0.16171000  0.33546000  0.73042000  1.0
  O  O60  1  0.86838000  0.84552000  0.46329000  1.0
  O  O61  1  0.40587000  0.53867000  0.38186000  1.0
  O  O62  1  0.02494000  0.61138000  0.15227000  1.0
  O  O63  1  0.13164000  0.15450000  0.53674000  1.0
  O  O64  1  0.59404000  0.46128000  0.61810000  1.0
  O  O65  1  0.97510000  0.38860000  0.84777000  1.0
  O  O66  1  0.29707000  0.85451000  0.64660000  1.0
  O  O67  1  0.65189000  0.36453000  0.21145000  1.0
  O  O68  1  0.43869000  0.78618000  0.15332000  1.0
  O  O69  1  0.70312000  0.14543000  0.35329000  1.0
  O  O70  1  0.34813000  0.63545000  0.78842000  1.0
  O  O71  1  0.56135000  0.21377000  0.84657000  1.0
  O  O72  1  0.88663000  0.88698000  0.24182000  1.0
  O  O73  1  0.64812000  0.75617000  0.64174000  1.0
  O  O74  1  0.00303000  0.35600000  0.11450000  1.0
  O  O75  1  0.11325000  0.11306000  0.75819000  1.0
  O  O76  1  0.35199000  0.24361000  0.35844000  1.0
  O  O77  1  0.99679000  0.64393000  0.88540000  1.0
