# generated using pymatgen
data_CuH8C12N2O5
_symmetry_space_group_name_H-M   'P 1'
_cell_length_a   8.88765000
_cell_length_b   11.75080000
_cell_length_c   12.11270000
_cell_angle_alpha   68.01770000
_cell_angle_beta   68.48890000
_cell_angle_gamma   67.78460000
_symmetry_Int_Tables_number   1
_chemical_formula_structural   CuH8C12N2O5
_chemical_formula_sum   'Cu4 H32 C48 N8 O20'
_cell_volume   1047.95375374
_cell_formula_units_Z   4
loop_
 _symmetry_equiv_pos_site_id
 _symmetry_equiv_pos_as_xyz
  1  'x, y, z'
loop_
 _atom_site_type_symbol
 _atom_site_label
 _atom_site_symmetry_multiplicity
 _atom_site_fract_x
 _atom_site_fract_y
 _atom_site_fract_z
 _atom_site_occupancy
  Cu  Cu0  1  0.42095000  0.49901000  0.27590000  1.0
  Cu  Cu1  1  0.19597000  0.00097000  0.22409000  1.0
  Cu  Cu2  1  0.57906000  0.50099000  0.72409000  1.0
  Cu  Cu3  1  0.80404000  0.99902000  0.77592000  1.0
  H  H4  1  0.42440000  0.61749000  0.46252000  1.0
  H  H5  1  0.50441000  0.88261000  0.03727000  1.0
  H  H6  1  0.57559000  0.38252000  0.53745000  1.0
  H  H7  1  0.49559000  0.11738000  0.96276000  1.0
  H  H8  1  0.20341000  0.73846000  0.60893000  1.0
  H  H9  1  0.55059000  0.76168000  0.89092000  1.0
  H  H10  1  0.79659000  0.26154000  0.39106000  1.0
  H  H11  1  0.44941000  0.23832000  0.10909000  1.0
  H  H12  1  0.83188000  0.72085000  0.47134000  1.0
  H  H13  1  0.02395000  0.77930000  0.02857000  1.0
  H  H14  1  0.16813000  0.27914000  0.52866000  1.0
  H  H15  1  0.97604000  0.22073000  0.97141000  1.0
  H  H16  1  0.78962000  0.63863000  0.36734000  1.0
  H  H17  1  0.79569000  0.86116000  0.13270000  1.0
  H  H18  1  0.21037000  0.36137000  0.63265000  1.0
  H  H19  1  0.20430000  0.13884000  0.86731000  1.0
  H  H20  1  0.03534000  0.45296000  0.07466000  1.0
  H  H21  1  0.56331000  0.04661000  0.42559000  1.0
  H  H22  1  0.96466000  0.54703000  0.92533000  1.0
  H  H23  1  0.43669000  0.95338000  0.57443000  1.0
  H  H24  1  0.48223000  0.23846000  0.48356000  1.0
  H  H25  1  0.20433000  0.26174000  0.01628000  1.0
  H  H26  1  0.51778000  0.76154000  0.51644000  1.0
  H  H27  1  0.79567000  0.73825000  0.98372000  1.0
  H  H28  1  0.37584000  0.26124000  0.39231000  1.0
  H  H29  1  0.02954000  0.23885000  0.10763000  1.0
  H  H30  1  0.62418000  0.73875000  0.60769000  1.0
  H  H31  1  0.97047000  0.76115000  0.89237000  1.0
  H  H32  1  0.31156000  0.42932000  0.10248000  1.0
  H  H33  1  0.84357000  0.07070000  0.39749000  1.0
  H  H34  1  0.68843000  0.57068000  0.89751000  1.0
  H  H35  1  0.15643000  0.92929000  0.60252000  1.0
  C  C36  1  0.29171000  0.64276000  0.46711000  1.0
  C  C37  1  0.40149000  0.85738000  0.03275000  1.0
  C  C38  1  0.70829000  0.35726000  0.53287000  1.0
  C  C39  1  0.59851000  0.14261000  0.96726000  1.0
  C  C40  1  0.16753000  0.71280000  0.54669000  1.0
  C  C41  1  0.42684000  0.78736000  0.95317000  1.0
  C  C42  1  0.83247000  0.28721000  0.45330000  1.0
  C  C43  1  0.57316000  0.21264000  0.04684000  1.0
  C  C44  1  0.99933000  0.74504000  0.54719000  1.0
  C  C45  1  0.29138000  0.75506000  0.95276000  1.0
  C  C46  1  0.00066000  0.25496000  0.45281000  1.0
  C  C47  1  0.70862000  0.24495000  0.04723000  1.0
  C  C48  1  0.96191000  0.70103000  0.47070000  1.0
  C  C49  1  0.13351000  0.79910000  0.02925000  1.0
  C  C50  1  0.03809000  0.29897000  0.52930000  1.0
  C  C51  1  0.86648000  0.20092000  0.97073000  1.0
  C  C52  1  0.09110000  0.63006000  0.39511000  1.0
  C  C53  1  0.11626000  0.87000000  0.10486000  1.0
  C  C54  1  0.90890000  0.36994000  0.60488000  1.0
  C  C55  1  0.88373000  0.13000000  0.89514000  1.0
  C  C56  1  0.06223000  0.58032000  0.31250000  1.0
  C  C57  1  0.95506000  0.91971000  0.18747000  1.0
  C  C58  1  0.93776000  0.41969000  0.68749000  1.0
  C  C59  1  0.04493000  0.08029000  0.81253000  1.0
  C  C60  1  0.90238000  0.59441000  0.30515000  1.0
  C  C61  1  0.80203000  0.90550000  0.19481000  1.0
  C  C62  1  0.09762000  0.40559000  0.69484000  1.0
  C  C63  1  0.19796000  0.09450000  0.80519000  1.0
  C  C64  1  0.88988000  0.55032000  0.21757000  1.0
  C  C65  1  0.65797000  0.94946000  0.28252000  1.0
  C  C66  1  0.11012000  0.44968000  0.78243000  1.0
  C  C67  1  0.34203000  0.05054000  0.71749000  1.0
  C  C68  1  0.03848000  0.49025000  0.14296000  1.0
  C  C69  1  0.67196000  0.00944000  0.35719000  1.0
  C  C70  1  0.96152000  0.50973000  0.85704000  1.0
  C  C71  1  0.32803000  0.99057000  0.64281000  1.0
  C  C72  1  0.85766000  0.82465000  0.62787000  1.0
  C  C73  1  0.30999000  0.67541000  0.87212000  1.0
  C  C74  1  0.14234000  0.17534000  0.37215000  1.0
  C  C75  1  0.69001000  0.32460000  0.12787000  1.0
  C  C76  1  0.72251000  0.56864000  0.19883000  1.0
  C  C77  1  0.49015000  0.93116000  0.30134000  1.0
  C  C78  1  0.27749000  0.43137000  0.80116000  1.0
  C  C79  1  0.50985000  0.06884000  0.69868000  1.0
  C  C80  1  0.19284000  0.47540000  0.15823000  1.0
  C  C81  1  0.82662000  0.02460000  0.34176000  1.0
  C  C82  1  0.80715000  0.52460000  0.84177000  1.0
  C  C83  1  0.17337000  0.97540000  0.65825000  1.0
  N  N84  1  0.25503000  0.60360000  0.39206000  1.0
  N  N85  1  0.25068000  0.89645000  0.10790000  1.0
  N  N86  1  0.74497000  0.39640000  0.60793000  1.0
  N  N87  1  0.74932000  0.10354000  0.89211000  1.0
  N  N88  1  0.20453000  0.51971000  0.24097000  1.0
  N  N89  1  0.96527000  0.98036000  0.25895000  1.0
  N  N90  1  0.79547000  0.48030000  0.75901000  1.0
  N  N91  1  0.03473000  0.01963000  0.74107000  1.0
  O  O92  1  0.90608000  0.89877000  0.65478000  1.0
  O  O93  1  0.45946000  0.60132000  0.84526000  1.0
  O  O94  1  0.09392000  0.10121000  0.34525000  1.0
  O  O95  1  0.54054000  0.39870000  0.15472000  1.0
  O  O96  1  0.71164000  0.81376000  0.65953000  1.0
  O  O97  1  0.18481000  0.68626000  0.84040000  1.0
  O  O98  1  0.28837000  0.18622000  0.34049000  1.0
  O  O99  1  0.81519000  0.31375000  0.15960000  1.0
  O  O100  1  0.61558000  0.52448000  0.29565000  1.0
  O  O101  1  0.43578000  0.97533000  0.20455000  1.0
  O  O102  1  0.38443000  0.47552000  0.70434000  1.0
  O  O103  1  0.56423000  0.02467000  0.79547000  1.0
  O  O104  1  0.70067000  0.62380000  0.09286000  1.0
  O  O105  1  0.41749000  0.87607000  0.40737000  1.0
  O  O106  1  0.29934000  0.37620000  0.90713000  1.0
  O  O107  1  0.58250000  0.12392000  0.59265000  1.0
  O  O108  1  0.41231000  0.30605000  0.42899000  1.0
  O  O109  1  0.14751000  0.19414000  0.07096000  1.0
  O  O110  1  0.58771000  0.69395000  0.57101000  1.0
  O  O111  1  0.85248000  0.80586000  0.92904000  1.0
