# generated using pymatgen
data_CoH22C28(NO5)2
_symmetry_space_group_name_H-M   'P 1'
_cell_length_a   8.98617000
_cell_length_b   11.40800000
_cell_length_c   13.16457408
_cell_angle_alpha   64.36523118
_cell_angle_beta   81.30953112
_cell_angle_gamma   89.97120000
_symmetry_Int_Tables_number   1
_chemical_formula_structural   CoH22C28(NO5)2
_chemical_formula_sum   'Co2 H44 C56 N4 O20'
_cell_volume   1199.56039461
_cell_formula_units_Z   2
loop_
 _symmetry_equiv_pos_site_id
 _symmetry_equiv_pos_as_xyz
  1  'x, y, z'
loop_
 _atom_site_type_symbol
 _atom_site_label
 _atom_site_symmetry_multiplicity
 _atom_site_fract_x
 _atom_site_fract_y
 _atom_site_fract_z
 _atom_site_occupancy
  Co  Co0  1  0.00000000  0.50001000  0.99999000  1.0
  Co  Co1  1  0.50000000  0.50001000  0.00000000  1.0
  H  H2  1  0.83538000  0.37411000  0.89899000  1.0
  H  H3  1  0.66310000  0.27055000  0.10045000  1.0
  H  H4  1  0.16461000  0.62588000  0.10101000  1.0
  H  H5  1  0.33691000  0.72946000  0.89955000  1.0
  H  H6  1  0.85939000  0.36601000  0.71278000  1.0
  H  H7  1  0.63778000  0.07601000  0.28606000  1.0
  H  H8  1  0.14060000  0.63399000  0.28722000  1.0
  H  H9  1  0.36223000  0.92400000  0.71393000  1.0
  H  H10  1  0.23838000  0.65270000  0.59181000  1.0
  H  H11  1  0.26547000  0.24624000  0.40942000  1.0
  H  H12  1  0.76159000  0.34730000  0.40818000  1.0
  H  H13  1  0.73454000  0.75375000  0.59058000  1.0
  H  H14  1  0.20182000  0.64473000  0.78523000  1.0
  H  H15  1  0.30163000  0.43119000  0.21630000  1.0
  H  H16  1  0.79816000  0.35527000  0.21475000  1.0
  H  H17  1  0.69837000  0.56881000  0.78370000  1.0
  H  H18  1  0.12890000  0.60804000  0.45574000  1.0
  H  H19  1  0.36855000  0.06198000  0.54389000  1.0
  H  H20  1  0.87108000  0.39196000  0.54426000  1.0
  H  H21  1  0.63146000  0.93803000  0.45610000  1.0
  H  H22  1  0.15286000  0.44009000  0.51425000  1.0
  H  H23  1  0.34906000  0.95261000  0.48444000  1.0
  H  H24  1  0.84711000  0.55990000  0.48575000  1.0
  H  H25  1  0.65094000  0.04739000  0.51556000  1.0
  H  H26  1  0.88590000  0.16147000  0.98508000  1.0
  H  H27  1  0.61243000  0.14577000  0.01512000  1.0
  H  H28  1  0.11409000  0.83853000  0.01492000  1.0
  H  H29  1  0.38757000  0.85423000  0.98489000  1.0
  H  H30  1  0.75693000  0.75459000  0.19789000  1.0
  H  H31  1  0.74598000  0.95385000  0.80076000  1.0
  H  H32  1  0.24309000  0.24540000  0.80211000  1.0
  H  H33  1  0.25403000  0.04616000  0.19925000  1.0
  H  H34  1  0.85525000  0.77570000  0.35865000  1.0
  H  H35  1  0.64799000  0.13564000  0.64026000  1.0
  H  H36  1  0.14479000  0.22429000  0.64134000  1.0
  H  H37  1  0.35203000  0.86437000  0.35974000  1.0
  H  H38  1  0.78241000  0.63163000  0.93321000  1.0
  H  H39  1  0.71841000  0.56586000  0.06547000  1.0
  H  H40  1  0.21759000  0.36837000  0.06679000  1.0
  H  H41  1  0.28159000  0.43416000  0.93453000  1.0
  H  H42  1  0.96358000  0.09955000  0.44452000  1.0
  H  H43  1  0.53465000  0.54342000  0.55672000  1.0
  H  H44  1  0.03646000  0.90044000  0.55549000  1.0
  H  H45  1  0.46534000  0.45659000  0.44328000  1.0
  C  C46  1  0.92520000  0.43167000  0.82920000  1.0
  C  C47  1  0.57391000  0.25927000  0.17036000  1.0
  C  C48  1  0.07479000  0.56832000  0.17080000  1.0
  C  C49  1  0.42609000  0.74073000  0.82964000  1.0
  C  C50  1  0.93920000  0.42971000  0.72364000  1.0
  C  C51  1  0.55939000  0.15156000  0.27574000  1.0
  C  C52  1  0.06079000  0.57028000  0.27636000  1.0
  C  C53  1  0.44061000  0.84845000  0.72425000  1.0
  C  C54  1  0.05229000  0.50960000  0.63410000  1.0
  C  C55  1  0.44773000  0.14292000  0.36578000  1.0
  C  C56  1  0.94768000  0.49041000  0.36589000  1.0
  C  C57  1  0.55227000  0.85707000  0.63422000  1.0
  C  C58  1  0.14787000  0.58816000  0.65754000  1.0
  C  C59  1  0.35430000  0.24627000  0.34305000  1.0
  C  C60  1  0.85210000  0.41183000  0.34246000  1.0
  C  C61  1  0.64570000  0.75371000  0.65696000  1.0
  C  C62  1  0.12886000  0.58460000  0.76520000  1.0
  C  C63  1  0.37341000  0.35031000  0.23545000  1.0
  C  C64  1  0.87113000  0.41540000  0.23479000  1.0
  C  C65  1  0.62659000  0.64968000  0.76456000  1.0
  C  C66  1  0.07322000  0.51264000  0.51760000  1.0
  C  C67  1  0.42653000  0.02931000  0.48201000  1.0
  C  C68  1  0.92676000  0.48735000  0.48240000  1.0
  C  C69  1  0.57348000  0.97069000  0.51798000  1.0
  C  C70  1  0.92983000  0.08984000  0.15639000  1.0
  C  C71  1  0.56921000  0.24587000  0.84372000  1.0
  C  C72  1  0.07015000  0.91015000  0.84362000  1.0
  C  C73  1  0.43079000  0.75415000  0.15628000  1.0
  C  C74  1  0.87398000  0.07732000  0.06799000  1.0
  C  C75  1  0.62508000  0.14494000  0.93201000  1.0
  C  C76  1  0.12602000  0.92268000  0.93201000  1.0
  C  C77  1  0.37493000  0.85507000  0.06799000  1.0
  C  C78  1  0.80708000  0.95850000  0.08477000  1.0
  C  C79  1  0.69308000  0.04339000  0.91487000  1.0
  C  C80  1  0.19291000  0.04149000  0.91524000  1.0
  C  C81  1  0.30691000  0.95660000  0.08514000  1.0
  C  C82  1  0.80439000  0.84756000  0.18835000  1.0
  C  C83  1  0.69726000  0.03663000  0.81084000  1.0
  C  C84  1  0.19562000  0.15243000  0.81165000  1.0
  C  C85  1  0.30273000  0.96335000  0.18918000  1.0
  C  C86  1  0.86086000  0.86011000  0.27621000  1.0
  C  C87  1  0.64082000  0.13701000  0.72306000  1.0
  C  C88  1  0.13916000  0.13987000  0.72380000  1.0
  C  C89  1  0.35919000  0.86299000  0.27695000  1.0
  C  C90  1  0.92005000  0.98058000  0.26373000  1.0
  C  C91  1  0.58010000  0.24422000  0.73614000  1.0
  C  C92  1  0.07995000  0.01941000  0.73627000  1.0
  C  C93  1  0.41990000  0.75579000  0.26386000  1.0
  C  C94  1  0.95921000  0.98785000  0.36654000  1.0
  C  C95  1  0.54075000  0.35423000  0.63357000  1.0
  C  C96  1  0.04080000  0.01215000  0.63346000  1.0
  C  C97  1  0.45926000  0.64578000  0.36644000  1.0
  C  C98  1  0.00915000  0.21989000  0.12592000  1.0
  C  C99  1  0.48962000  0.34531000  0.87444000  1.0
  C  C100  1  0.99084000  0.78011000  0.87408000  1.0
  C  C101  1  0.51037000  0.65468000  0.12557000  1.0
  N  N102  1  0.01907000  0.50743000  0.85079000  1.0
  N  N103  1  0.48162000  0.35782000  0.14918000  1.0
  N  N104  1  0.98092000  0.49256000  0.14921000  1.0
  N  N105  1  0.51839000  0.64219000  0.85082000  1.0
  O  O106  1  0.93855000  0.31704000  0.06445000  1.0
  O  O107  1  0.56099000  0.38185000  0.93506000  1.0
  O  O108  1  0.06145000  0.68296000  0.93555000  1.0
  O  O109  1  0.43901000  0.61816000  0.06494000  1.0
  O  O110  1  0.75039000  0.54349000  0.99942000  1.0
  O  O111  1  0.24961000  0.45652000  0.00058000  1.0
  O  O112  1  0.13466000  0.22515000  0.15539000  1.0
  O  O113  1  0.36344000  0.37916000  0.84601000  1.0
  O  O114  1  0.86534000  0.77485000  0.84460000  1.0
  O  O115  1  0.63656000  0.62085000  0.15399000  1.0
  O  O116  1  0.93485000  0.09974000  0.37143000  1.0
  O  O117  1  0.56324000  0.47075000  0.62974000  1.0
  O  O118  1  0.06520000  0.90025000  0.62857000  1.0
  O  O119  1  0.43678000  0.52926000  0.37026000  1.0
  O  O120  1  0.00403000  0.89195000  0.44480000  1.0
  O  O121  1  0.49732000  0.33709000  0.55462000  1.0
  O  O122  1  0.99601000  0.10804000  0.55520000  1.0
  O  O123  1  0.50268000  0.66291000  0.44539000  1.0
  O  O124  1  0.75017000  0.94173000  0.99981000  1.0
  O  O125  1  0.24982000  0.05826000  0.00020000  1.0
