# generated using pymatgen
data_Zn3H9C47(ClO2)6
_symmetry_space_group_name_H-M   'P 1'
_cell_length_a   16.86760000
_cell_length_b   16.86760000
_cell_length_c   17.09170000
_cell_angle_alpha   67.77740000
_cell_angle_beta   67.77800000
_cell_angle_gamma   67.37710000
_symmetry_Int_Tables_number   1
_chemical_formula_structural   Zn3H9C47(ClO2)6
_chemical_formula_sum   'Zn6 H18 C94 Cl12 O24'
_cell_volume   3998.21505366
_cell_formula_units_Z   2
loop_
 _symmetry_equiv_pos_site_id
 _symmetry_equiv_pos_as_xyz
  1  'x, y, z'
loop_
 _atom_site_type_symbol
 _atom_site_label
 _atom_site_symmetry_multiplicity
 _atom_site_fract_x
 _atom_site_fract_y
 _atom_site_fract_z
 _atom_site_occupancy
  Zn  Zn0  1  0.99997000  0.42897000  0.48940000  1.0
  Zn  Zn1  1  0.00409000  0.00408000  0.07100000  1.0
  Zn  Zn2  1  0.99591000  0.99591000  0.92900000  1.0
  Zn  Zn3  1  0.00001000  0.57104000  0.51059000  1.0
  Zn  Zn4  1  0.57104000  0.00001000  0.51059000  1.0
  Zn  Zn5  1  0.42897000  0.99998000  0.48940000  1.0
  H  H6  1  0.72798000  0.72798000  0.53022000  1.0
  H  H7  1  0.07112000  0.19072000  0.02474000  1.0
  H  H8  1  0.19073000  0.07112000  0.02474000  1.0
  H  H9  1  0.80927000  0.92887000  0.97526000  1.0
  H  H10  1  0.91056000  0.72689000  0.89792000  1.0
  H  H11  1  0.08943000  0.27309000  0.10209000  1.0
  H  H12  1  0.27309000  0.08944000  0.10209000  1.0
  H  H13  1  0.72689000  0.91056000  0.89792000  1.0
  H  H14  1  0.27202000  0.27203000  0.46977000  1.0
  H  H15  1  0.10560000  0.42314000  0.24946000  1.0
  H  H16  1  0.89440000  0.57685000  0.75054000  1.0
  H  H17  1  0.57685000  0.89441000  0.75053000  1.0
  H  H18  1  0.42315000  0.10560000  0.24946000  1.0
  H  H19  1  0.10846000  0.34053000  0.15967000  1.0
  H  H20  1  0.89154000  0.65946000  0.84034000  1.0
  H  H21  1  0.65946000  0.89155000  0.84033000  1.0
  H  H22  1  0.34053000  0.10846000  0.15967000  1.0
  H  H23  1  0.92888000  0.80927000  0.97526000  1.0
  C  C24  1  0.01930000  0.55276000  0.33140000  1.0
  C  C25  1  0.41278000  0.41278000  0.45908000  1.0
  C  C26  1  0.59866000  0.00882000  0.09920000  1.0
  C  C27  1  0.95071000  0.73710000  0.99576000  1.0
  C  C28  1  0.04930000  0.26288000  0.00424000  1.0
  C  C29  1  0.26289000  0.04930000  0.00424000  1.0
  C  C30  1  0.73711000  0.95070000  0.99577000  1.0
  C  C31  1  0.94077000  0.68978000  0.95220000  1.0
  C  C32  1  0.58723000  0.58723000  0.54092000  1.0
  C  C33  1  0.05923000  0.31020000  0.04780000  1.0
  C  C34  1  0.31021000  0.05923000  0.04780000  1.0
  C  C35  1  0.68978000  0.94077000  0.95220000  1.0
  C  C36  1  0.07578000  0.45867000  0.19508000  1.0
  C  C37  1  0.92422000  0.54131000  0.80493000  1.0
  C  C38  1  0.54131000  0.92423000  0.80492000  1.0
  C  C39  1  0.45868000  0.07578000  0.19508000  1.0
  C  C40  1  0.07667000  0.41214000  0.14417000  1.0
  C  C41  1  0.92333000  0.58785000  0.85584000  1.0
  C  C42  1  0.58785000  0.92333000  0.85583000  1.0
  C  C43  1  0.41214000  0.07667000  0.14417000  1.0
  C  C44  1  0.55161000  0.29519000  0.43330000  1.0
  C  C45  1  0.83262000  0.00794000  0.07399000  1.0
  C  C46  1  0.16738000  0.99206000  0.92601000  1.0
  C  C47  1  0.99206000  0.16738000  0.92601000  1.0
  C  C48  1  0.00794000  0.83262000  0.07399000  1.0
  C  C49  1  0.44839000  0.70482000  0.56669000  1.0
  C  C50  1  0.32815000  0.59323000  0.46707000  1.0
  C  C51  1  0.67186000  0.40678000  0.53293000  1.0
  C  C52  1  0.40678000  0.67186000  0.53293000  1.0
  C  C53  1  0.59323000  0.32815000  0.46707000  1.0
  C  C54  1  0.28333000  0.67960000  0.48376000  1.0
  C  C55  1  0.70483000  0.44839000  0.56669000  1.0
  C  C56  1  0.71668000  0.32041000  0.51624000  1.0
  C  C57  1  0.32042000  0.71668000  0.51624000  1.0
  C  C58  1  0.67960000  0.28333000  0.48376000  1.0
  C  C59  1  0.45422000  0.58679000  0.51340000  1.0
  C  C60  1  0.54579000  0.41321000  0.48661000  1.0
  C  C61  1  0.41321000  0.54578000  0.48661000  1.0
  C  C62  1  0.29518000  0.55162000  0.43330000  1.0
  C  C63  1  0.58680000  0.45422000  0.51339000  1.0
  C  C64  1  0.54136000  0.54135000  0.52560000  1.0
  C  C65  1  0.45865000  0.45866000  0.47440000  1.0
  C  C66  1  0.67582000  0.54360000  0.55064000  1.0
  C  C67  1  0.32419000  0.45641000  0.44936000  1.0
  C  C68  1  0.45640000  0.32419000  0.44936000  1.0
  C  C69  1  0.54360000  0.67582000  0.55064000  1.0
  C  C70  1  0.72737000  0.59622000  0.54593000  1.0
  C  C71  1  0.27262000  0.40379000  0.45407000  1.0
  C  C72  1  0.40378000  0.27263000  0.45407000  1.0
  C  C73  1  0.59622000  0.72737000  0.54594000  1.0
  C  C74  1  0.68665000  0.68665000  0.54119000  1.0
  C  C75  1  0.31335000  0.31336000  0.45882000  1.0
  C  C76  1  0.98069000  0.44724000  0.66860000  1.0
  C  C77  1  0.00527000  0.54934000  0.04890000  1.0
  C  C78  1  0.99473000  0.45064000  0.95110000  1.0
  C  C79  1  0.45065000  0.99473000  0.95110000  1.0
  C  C80  1  0.54934000  0.00528000  0.04890000  1.0
  C  C81  1  0.03701000  0.45434000  0.07310000  1.0
  C  C82  1  0.44724000  0.98069000  0.66859000  1.0
  C  C83  1  0.96299000  0.54564000  0.92691000  1.0
  C  C84  1  0.54564000  0.96300000  0.92691000  1.0
  C  C85  1  0.45434000  0.03701000  0.07309000  1.0
  C  C86  1  0.03057000  0.40502000  0.02490000  1.0
  C  C87  1  0.96942000  0.59497000  0.97511000  1.0
  C  C88  1  0.59497000  0.96943000  0.97510000  1.0
  C  C89  1  0.55276000  0.01931000  0.33140000  1.0
  C  C90  1  0.40502000  0.03058000  0.02490000  1.0
  C  C91  1  0.98621000  0.69380000  0.07010000  1.0
  C  C92  1  0.01379000  0.30619000  0.92990000  1.0
  C  C93  1  0.30619000  0.01380000  0.92990000  1.0
  C  C94  1  0.69380000  0.98621000  0.07010000  1.0
  C  C95  1  0.99553000  0.74131000  0.11829000  1.0
  C  C96  1  0.00448000  0.25868000  0.88170000  1.0
  C  C97  1  0.25868000  0.00447000  0.88170000  1.0
  C  C98  1  0.74131000  0.99553000  0.11829000  1.0
  C  C99  1  0.99766000  0.69622000  0.20691000  1.0
  C  C100  1  0.00233000  0.30377000  0.79309000  1.0
  C  C101  1  0.30377000  0.00234000  0.79309000  1.0
  C  C102  1  0.69622000  0.99766000  0.20691000  1.0
  C  C103  1  0.01934000  0.60227000  0.23770000  1.0
  C  C104  1  0.98065000  0.39772000  0.76230000  1.0
  C  C105  1  0.39773000  0.98066000  0.76230000  1.0
  C  C106  1  0.60227000  0.01934000  0.23770000  1.0
  C  C107  1  0.03574000  0.55285000  0.17835000  1.0
  C  C108  1  0.96426000  0.44714000  0.82165000  1.0
  C  C109  1  0.44714000  0.96427000  0.82165000  1.0
  C  C110  1  0.55286000  0.03574000  0.17835000  1.0
  C  C111  1  0.17280000  0.43536000  0.47291000  1.0
  C  C112  1  0.82719000  0.56466000  0.52709000  1.0
  C  C113  1  0.56466000  0.82719000  0.52709000  1.0
  C  C114  1  0.43535000  0.17281000  0.47291000  1.0
  C  C115  1  0.00882000  0.59865000  0.09920000  1.0
  C  C116  1  0.99118000  0.40133000  0.90080000  1.0
  C  C117  1  0.40134000  0.99118000  0.90080000  1.0
  Cl  Cl118  1  0.73553000  0.17701000  0.47279000  1.0
  Cl  Cl119  1  0.38795000  0.76525000  0.64238000  1.0
  Cl  Cl120  1  0.76525000  0.38794000  0.64238000  1.0
  Cl  Cl121  1  0.23476000  0.61208000  0.35762000  1.0
  Cl  Cl122  1  0.61207000  0.23476000  0.35762000  1.0
  Cl  Cl123  1  0.96279000  0.75967000  0.27896000  1.0
  Cl  Cl124  1  0.03720000  0.24032000  0.72104000  1.0
  Cl  Cl125  1  0.24033000  0.03720000  0.72104000  1.0
  Cl  Cl126  1  0.26450000  0.82301000  0.52720000  1.0
  Cl  Cl127  1  0.75967000  0.96278000  0.27896000  1.0
  Cl  Cl128  1  0.82301000  0.26449000  0.52719000  1.0
  Cl  Cl129  1  0.17700000  0.73554000  0.47280000  1.0
  O  O130  1  0.00967000  0.47419000  0.35959000  1.0
  O  O131  1  0.86771000  0.49451000  0.50071000  1.0
  O  O132  1  0.49451000  0.86771000  0.50071000  1.0
  O  O133  1  0.50550000  0.13229000  0.49929000  1.0
  O  O134  1  0.13229000  0.50551000  0.49929000  1.0
  O  O135  1  0.13427000  0.38669000  0.46592000  1.0
  O  O136  1  0.86573000  0.61334000  0.53408000  1.0
  O  O137  1  0.61334000  0.86572000  0.53408000  1.0
  O  O138  1  0.99031000  0.52581000  0.64041000  1.0
  O  O139  1  0.38667000  0.13427000  0.46592000  1.0
  O  O140  1  0.02820000  0.59014000  0.37912000  1.0
  O  O141  1  0.97180000  0.40986000  0.62088000  1.0
  O  O142  1  0.40986000  0.97180000  0.62088000  1.0
  O  O143  1  0.59015000  0.02819000  0.37912000  1.0
  O  O144  1  0.52581000  0.99031000  0.64041000  1.0
  O  O145  1  0.86480000  0.01103000  0.99203000  1.0
  O  O146  1  0.13520000  0.98897000  0.00797000  1.0
  O  O147  1  0.98897000  0.13519000  0.00797000  1.0
  O  O148  1  0.01103000  0.86480000  0.99203000  1.0
  O  O149  1  0.47420000  0.00967000  0.35959000  1.0
  O  O150  1  0.97985000  0.12783000  0.88272000  1.0
  O  O151  1  0.02014000  0.87216000  0.11728000  1.0
  O  O152  1  0.87216000  0.02014000  0.11728000  1.0
  O  O153  1  0.12783000  0.97986000  0.88272000  1.0
