# generated using pymatgen
data_MnH16C18(NO3)2
_symmetry_space_group_name_H-M   'P 1'
_cell_length_a   7.45003000
_cell_length_b   10.23440000
_cell_length_c   11.56470000
_cell_angle_alpha   89.99640000
_cell_angle_beta   89.99900000
_cell_angle_gamma   88.56490000
_symmetry_Int_Tables_number   1
_chemical_formula_structural   MnH16C18(NO3)2
_chemical_formula_sum   'Mn2 H32 C36 N4 O12'
_cell_volume   881.49232296
_cell_formula_units_Z   2
loop_
 _symmetry_equiv_pos_site_id
 _symmetry_equiv_pos_as_xyz
  1  'x, y, z'
loop_
 _atom_site_type_symbol
 _atom_site_label
 _atom_site_symmetry_multiplicity
 _atom_site_fract_x
 _atom_site_fract_y
 _atom_site_fract_z
 _atom_site_occupancy
  Mn  Mn0  1  0.24998000  0.74998000  0.28061000  1.0
  Mn  Mn1  1  0.75002000  0.25001000  0.71939000  1.0
  H  H2  1  0.94090000  0.54883000  0.06469000  1.0
  H  H3  1  0.55911000  0.95115000  0.06470000  1.0
  H  H4  1  0.05910000  0.45118000  0.93528000  1.0
  H  H5  1  0.44087000  0.04886000  0.93533000  1.0
  H  H6  1  0.84254000  0.64559000  0.87702000  1.0
  H  H7  1  0.65750000  0.85444000  0.87702000  1.0
  H  H8  1  0.15745000  0.35447000  0.12297000  1.0
  H  H9  1  0.34249000  0.14560000  0.12299000  1.0
  H  H10  1  0.38497000  0.57166000  0.07983000  1.0
  H  H11  1  0.11502000  0.92832000  0.07982000  1.0
  H  H12  1  0.61504000  0.42833000  0.92017000  1.0
  H  H13  1  0.88499000  0.07167000  0.92018000  1.0
  H  H14  1  0.39859000  0.56659000  0.86245000  1.0
  H  H15  1  0.10144000  0.93341000  0.86244000  1.0
  H  H16  1  0.60144000  0.43340000  0.13754000  1.0
  H  H17  1  0.89859000  0.06659000  0.13757000  1.0
  H  H18  1  0.96128000  0.77098000  0.70054000  1.0
  H  H19  1  0.53873000  0.72902000  0.70052000  1.0
  H  H20  1  0.03873000  0.22902000  0.29947000  1.0
  H  H21  1  0.46127000  0.27098000  0.29948000  1.0
  H  H22  1  0.97198000  0.76533000  0.48435000  1.0
  H  H23  1  0.52800000  0.73464000  0.48434000  1.0
  H  H24  1  0.02802000  0.23466000  0.51565000  1.0
  H  H25  1  0.47200000  0.26536000  0.51566000  1.0
  H  H26  1  0.94314000  0.92116000  0.31408000  1.0
  H  H27  1  0.55682000  0.57879000  0.31409000  1.0
  H  H28  1  0.05685000  0.07881000  0.68592000  1.0
  H  H29  1  0.44318000  0.42121000  0.68590000  1.0
  H  H30  1  0.13390000  0.98647000  0.34257000  1.0
  H  H31  1  0.36606000  0.51350000  0.34259000  1.0
  H  H32  1  0.86608000  0.01353000  0.65742000  1.0
  H  H33  1  0.63394000  0.48649000  0.65741000  1.0
  C  C34  1  0.86758000  0.62855000  0.27943000  1.0
  C  C35  1  0.63236000  0.87140000  0.27941000  1.0
  C  C36  1  0.13241000  0.37145000  0.72057000  1.0
  C  C37  1  0.36763000  0.12859000  0.72059000  1.0
  C  C38  1  0.80514000  0.69326000  0.16867000  1.0
  C  C39  1  0.69480000  0.80668000  0.16866000  1.0
  C  C40  1  0.19485000  0.30674000  0.83133000  1.0
  C  C41  1  0.30519000  0.19332000  0.83135000  1.0
  C  C42  1  0.85638000  0.63704000  0.06292000  1.0
  C  C43  1  0.64361000  0.86294000  0.06292000  1.0
  C  C44  1  0.14361000  0.36298000  0.93707000  1.0
  C  C45  1  0.35638000  0.13708000  0.93709000  1.0
  C  C46  1  0.80214000  0.69225000  0.95811000  1.0
  C  C47  1  0.69788000  0.80776000  0.95811000  1.0
  C  C48  1  0.19784000  0.30779000  0.04188000  1.0
  C  C49  1  0.30211000  0.19226000  0.04189000  1.0
  C  C50  1  0.32653000  0.65057000  0.02780000  1.0
  C  C51  1  0.17348000  0.84942000  0.02779000  1.0
  C  C52  1  0.67350000  0.34942000  0.97220000  1.0
  C  C53  1  0.82653000  0.15057000  0.97221000  1.0
  C  C54  1  0.33283000  0.64791000  0.90775000  1.0
  C  C55  1  0.16720000  0.85209000  0.90775000  1.0
  C  C56  1  0.66720000  0.35209000  0.09225000  1.0
  C  C57  1  0.83282000  0.14791000  0.09225000  1.0
  C  C58  1  0.25001000  0.75000000  0.84544000  1.0
  C  C59  1  0.75000000  0.25000000  0.15455000  1.0
  C  C60  1  0.25000000  0.75000000  0.71785000  1.0
  C  C61  1  0.75000000  0.25000000  0.28215000  1.0
  C  C62  1  0.08950000  0.76222000  0.65554000  1.0
  C  C63  1  0.41048000  0.73777000  0.65553000  1.0
  C  C64  1  0.91050000  0.23778000  0.34445000  1.0
  C  C65  1  0.58952000  0.26223000  0.34446000  1.0
  C  C66  1  0.09504000  0.75968000  0.53548000  1.0
  C  C67  1  0.40495000  0.74030000  0.53546000  1.0
  C  C68  1  0.90496000  0.24032000  0.46453000  1.0
  C  C69  1  0.59505000  0.25970000  0.46453000  1.0
  N  N70  1  0.24999000  0.74998000  0.47610000  1.0
  N  N71  1  0.75001000  0.25001000  0.52390000  1.0
  N  N72  1  0.25000000  0.74999000  0.08749000  1.0
  N  N73  1  0.75002000  0.25000000  0.91251000  1.0
  O  O74  1  0.03686000  0.61383000  0.29318000  1.0
  O  O75  1  0.46308000  0.88614000  0.29317000  1.0
  O  O76  1  0.96313000  0.38616000  0.70681000  1.0
  O  O77  1  0.53691000  0.11385000  0.70683000  1.0
  O  O78  1  0.75109000  0.59041000  0.35105000  1.0
  O  O79  1  0.74886000  0.90953000  0.35103000  1.0
  O  O80  1  0.24891000  0.40958000  0.64894000  1.0
  O  O81  1  0.25113000  0.09045000  0.64898000  1.0
  O  O82  1  0.07528000  0.92963000  0.28753000  1.0
  O  O83  1  0.42469000  0.57033000  0.28754000  1.0
  O  O84  1  0.92471000  0.07035000  0.71247000  1.0
  O  O85  1  0.57531000  0.42966000  0.71246000  1.0
