# generated using pymatgen
data_CdH18C26(N2O3)2
_symmetry_space_group_name_H-M   'P 1'
_cell_length_a   9.43729000
_cell_length_b   11.94770000
_cell_length_c   23.86530000
_cell_angle_alpha   89.99970000
_cell_angle_beta   89.99980000
_cell_angle_gamma   67.28200000
_symmetry_Int_Tables_number   1
_chemical_formula_structural   CdH18C26(N2O3)2
_chemical_formula_sum   'Cd4 H72 C104 N16 O24'
_cell_volume   2482.13681415
_cell_formula_units_Z   4
loop_
 _symmetry_equiv_pos_site_id
 _symmetry_equiv_pos_as_xyz
  1  'x, y, z'
loop_
 _atom_site_type_symbol
 _atom_site_label
 _atom_site_symmetry_multiplicity
 _atom_site_fract_x
 _atom_site_fract_y
 _atom_site_fract_z
 _atom_site_occupancy
  Cd  Cd0  1  0.86077000  0.64730000  0.15701000  1.0
  Cd  Cd1  1  0.63923000  0.85271000  0.65701000  1.0
  Cd  Cd2  1  0.13923000  0.35270000  0.84299000  1.0
  Cd  Cd3  1  0.36077000  0.14729000  0.34299000  1.0
  H  H4  1  0.22958000  0.54877000  0.21446000  1.0
  H  H5  1  0.27041000  0.95124000  0.71446000  1.0
  H  H6  1  0.77041000  0.45123000  0.78554000  1.0
  H  H7  1  0.72959000  0.04876000  0.28553000  1.0
  H  H8  1  0.44070000  0.31195000  0.20111000  1.0
  H  H9  1  0.05929000  0.18806000  0.70111000  1.0
  H  H10  1  0.55930000  0.68806000  0.79889000  1.0
  H  H11  1  0.94071000  0.81194000  0.29889000  1.0
  H  H12  1  0.00299000  0.33993000  0.14394000  1.0
  H  H13  1  0.49701000  0.16008000  0.64394000  1.0
  H  H14  1  0.99701000  0.66006000  0.85607000  1.0
  H  H15  1  0.50299000  0.83993000  0.35606000  1.0
  H  H16  1  0.47500000  0.11545000  0.21761000  1.0
  H  H17  1  0.02500000  0.38456000  0.71761000  1.0
  H  H18  1  0.52501000  0.88456000  0.78239000  1.0
  H  H19  1  0.97500000  0.61544000  0.28239000  1.0
  H  H20  1  0.57725000  0.89505000  0.19434000  1.0
  H  H21  1  0.92275000  0.60496000  0.69434000  1.0
  H  H22  1  0.42275000  0.10495000  0.80566000  1.0
  H  H23  1  0.07725000  0.39505000  0.30566000  1.0
  H  H24  1  0.23638000  0.96436000  0.06467000  1.0
  H  H25  1  0.26361000  0.53565000  0.56467000  1.0
  H  H26  1  0.76361000  0.03564000  0.93533000  1.0
  H  H27  1  0.73639000  0.46435000  0.43533000  1.0
  H  H28  1  0.13653000  0.18364000  0.08664000  1.0
  H  H29  1  0.36346000  0.31637000  0.58664000  1.0
  H  H30  1  0.86346000  0.81636000  0.91337000  1.0
  H  H31  1  0.63654000  0.68363000  0.41336000  1.0
  H  H32  1  0.28526000  0.71049000  0.15672000  1.0
  H  H33  1  0.21473000  0.78954000  0.65673000  1.0
  H  H34  1  0.71474000  0.28953000  0.84328000  1.0
  H  H35  1  0.78526000  0.21046000  0.34327000  1.0
  H  H36  1  0.17433000  0.58540000  0.10401000  1.0
  H  H37  1  0.32566000  0.91463000  0.60401000  1.0
  H  H38  1  0.82566000  0.41461000  0.89599000  1.0
  H  H39  1  0.67434000  0.08537000  0.39598000  1.0
  H  H40  1  0.40010000  0.63168000  0.95326000  1.0
  H  H41  1  0.09992000  0.86831000  0.45326000  1.0
  H  H42  1  0.59990000  0.36831000  0.04674000  1.0
  H  H43  1  0.90009000  0.13167000  0.54673000  1.0
  H  H44  1  0.50555000  0.76114000  0.00642000  1.0
  H  H45  1  0.99447000  0.73885000  0.50642000  1.0
  H  H46  1  0.49445000  0.23886000  0.99358000  1.0
  H  H47  1  0.00554000  0.26113000  0.49357000  1.0
  H  H48  1  0.23549000  0.56640000  0.91098000  1.0
  H  H49  1  0.26452000  0.93360000  0.41098000  1.0
  H  H50  1  0.76451000  0.43360000  0.08902000  1.0
  H  H51  1  0.73549000  0.06639000  0.58902000  1.0
  H  H52  1  0.21171000  0.40585000  0.06735000  1.0
  H  H53  1  0.28828000  0.09417000  0.56734000  1.0
  H  H54  1  0.78829000  0.59416000  0.93266000  1.0
  H  H55  1  0.71171000  0.90582000  0.43265000  1.0
  H  H56  1  0.14107000  0.27874000  0.98075000  1.0
  H  H57  1  0.35891000  0.22128000  0.48074000  1.0
  H  H58  1  0.85892000  0.72127000  0.01925000  1.0
  H  H59  1  0.64108000  0.77871000  0.51925000  1.0
  H  H60  1  0.41297000  0.78287000  0.26637000  1.0
  H  H61  1  0.08704000  0.71713000  0.76636000  1.0
  H  H62  1  0.58703000  0.21713000  0.73363000  1.0
  H  H63  1  0.91296000  0.28287000  0.23364000  1.0
  H  H64  1  0.22692000  0.57863000  0.37218000  1.0
  H  H65  1  0.27308000  0.92137000  0.87218000  1.0
  H  H66  1  0.77308000  0.42138000  0.62782000  1.0
  H  H67  1  0.72693000  0.07862000  0.12782000  1.0
  H  H68  1  0.61377000  0.39177000  0.26561000  1.0
  H  H69  1  0.88622000  0.10823000  0.76561000  1.0
  H  H70  1  0.38623000  0.60822000  0.73440000  1.0
  H  H71  1  0.11378000  0.89177000  0.23439000  1.0
  H  H72  1  0.20059000  0.87262000  0.32469000  1.0
  H  H73  1  0.29941000  0.62737000  0.82470000  1.0
  H  H74  1  0.79941000  0.12738000  0.67530000  1.0
  H  H75  1  0.70059000  0.37262000  0.17531000  1.0
  C  C76  1  0.21421000  0.47002000  0.19756000  1.0
  C  C77  1  0.28578000  0.02999000  0.69756000  1.0
  C  C78  1  0.78578000  0.52998000  0.80245000  1.0
  C  C79  1  0.71422000  0.97002000  0.30244000  1.0
  C  C80  1  0.31958000  0.35336000  0.19117000  1.0
  C  C81  1  0.18042000  0.14665000  0.69117000  1.0
  C  C82  1  0.68042000  0.64664000  0.80883000  1.0
  C  C83  1  0.81958000  0.85336000  0.30883000  1.0
  C  C84  1  0.09214000  0.36707000  0.15993000  1.0
  C  C85  1  0.40786000  0.13293000  0.65993000  1.0
  C  C86  1  0.90786000  0.63292000  0.84007000  1.0
  C  C87  1  0.59214000  0.86707000  0.34007000  1.0
  C  C88  1  0.30078000  0.16348000  0.15313000  1.0
  C  C89  1  0.19921000  0.33653000  0.65313000  1.0
  C  C90  1  0.69921000  0.83652000  0.84687000  1.0
  C  C91  1  0.80079000  0.66348000  0.34687000  1.0
  C  C92  1  0.42509000  0.08263000  0.18339000  1.0
  C  C93  1  0.07490000  0.41738000  0.68339000  1.0
  C  C94  1  0.57491000  0.91738000  0.81661000  1.0
  C  C95  1  0.92510000  0.58262000  0.31661000  1.0
  C  C96  1  0.48234000  0.95982000  0.17076000  1.0
  C  C97  1  0.01766000  0.54019000  0.67076000  1.0
  C  C98  1  0.51767000  0.04019000  0.82924000  1.0
  C  C99  1  0.98234000  0.45981000  0.32923000  1.0
  C  C100  1  0.41520000  0.91780000  0.12761000  1.0
  C  C101  1  0.08480000  0.58221000  0.62761000  1.0
  C  C102  1  0.58481000  0.08220000  0.87239000  1.0
  C  C103  1  0.91519000  0.41779000  0.37239000  1.0
  C  C104  1  0.28920000  0.99764000  0.09784000  1.0
  C  C105  1  0.21079000  0.50237000  0.59784000  1.0
  C  C106  1  0.71080000  0.00236000  0.90216000  1.0
  C  C107  1  0.78921000  0.49763000  0.40215000  1.0
  C  C108  1  0.23304000  0.12101000  0.11052000  1.0
  C  C109  1  0.26695000  0.37900000  0.61052000  1.0
  C  C110  1  0.76696000  0.87899000  0.88948000  1.0
  C  C111  1  0.73305000  0.62100000  0.38948000  1.0
  C  C112  1  0.40471000  0.74022000  0.08459000  1.0
  C  C113  1  0.09530000  0.75979000  0.58460000  1.0
  C  C114  1  0.59530000  0.25979000  0.91541000  1.0
  C  C115  1  0.90470000  0.24020000  0.41540000  1.0
  C  C116  1  0.30964000  0.69324000  0.11222000  1.0
  C  C117  1  0.19036000  0.80678000  0.61222000  1.0
  C  C118  1  0.69036000  0.30678000  0.88778000  1.0
  C  C119  1  0.80963000  0.19321000  0.38777000  1.0
  C  C120  1  0.24788000  0.62262000  0.08248000  1.0
  C  C121  1  0.25212000  0.87740000  0.58248000  1.0
  C  C122  1  0.75212000  0.37739000  0.91752000  1.0
  C  C123  1  0.74788000  0.12259000  0.41751000  1.0
  C  C124  1  0.28321000  0.59771000  0.02582000  1.0
  C  C125  1  0.21679000  0.90231000  0.52582000  1.0
  C  C126  1  0.71679000  0.40230000  0.97418000  1.0
  C  C127  1  0.78321000  0.09768000  0.47417000  1.0
  C  C128  1  0.37293000  0.64960000  0.99758000  1.0
  C  C129  1  0.12709000  0.85040000  0.49758000  1.0
  C  C130  1  0.62707000  0.35040000  0.00242000  1.0
  C  C131  1  0.87293000  0.14959000  0.50241000  1.0
  C  C132  1  0.43238000  0.72227000  0.02718000  1.0
  C  C133  1  0.06764000  0.77773000  0.52718000  1.0
  C  C134  1  0.56763000  0.27774000  0.97282000  1.0
  C  C135  1  0.93236000  0.22225000  0.47281000  1.0
  C  C136  1  0.21627000  0.50616000  0.94131000  1.0
  C  C137  1  0.28373000  0.99385000  0.44130000  1.0
  C  C138  1  0.78372000  0.49385000  0.05870000  1.0
  C  C139  1  0.71628000  0.00615000  0.55869000  1.0
  C  C140  1  0.20242000  0.42099000  0.02259000  1.0
  C  C141  1  0.29757000  0.07903000  0.52259000  1.0
  C  C142  1  0.79758000  0.57902000  0.97741000  1.0
  C  C143  1  0.70243000  0.92096000  0.47741000  1.0
  C  C144  1  0.16811000  0.35909000  0.97973000  1.0
  C  C145  1  0.33188000  0.14093000  0.47972000  1.0
  C  C146  1  0.83188000  0.64092000  0.02028000  1.0
  C  C147  1  0.66812000  0.85906000  0.52028000  1.0
  C  C148  1  0.64537000  0.59040000  0.22158000  1.0
  C  C149  1  0.85463000  0.90959000  0.72158000  1.0
  C  C150  1  0.35463000  0.40959000  0.77842000  1.0
  C  C151  1  0.14537000  0.09040000  0.27842000  1.0
  C  C152  1  0.52652000  0.58773000  0.26230000  1.0
  C  C153  1  0.97348000  0.91226000  0.76229000  1.0
  C  C154  1  0.47348000  0.41226000  0.73771000  1.0
  C  C155  1  0.02652000  0.08773000  0.23771000  1.0
  C  C156  1  0.41492000  0.69666000  0.28219000  1.0
  C  C157  1  0.08508000  0.80334000  0.78219000  1.0
  C  C158  1  0.58508000  0.30334000  0.71781000  1.0
  C  C159  1  0.91492000  0.19666000  0.21781000  1.0
  C  C160  1  0.30725000  0.69412000  0.32226000  1.0
  C  C161  1  0.19275000  0.80587000  0.82226000  1.0
  C  C162  1  0.69274000  0.30587000  0.67775000  1.0
  C  C163  1  0.80725000  0.19413000  0.17774000  1.0
  C  C164  1  0.31146000  0.58188000  0.34179000  1.0
  C  C165  1  0.18854000  0.91812000  0.84179000  1.0
  C  C166  1  0.68854000  0.41812000  0.65822000  1.0
  C  C167  1  0.81147000  0.08188000  0.15821000  1.0
  C  C168  1  0.42097000  0.47370000  0.32078000  1.0
  C  C169  1  0.07903000  0.02630000  0.82078000  1.0
  C  C170  1  0.57903000  0.52630000  0.67923000  1.0
  C  C171  1  0.92098000  0.97370000  0.17922000  1.0
  C  C172  1  0.52895000  0.47667000  0.28125000  1.0
  C  C173  1  0.97105000  0.02333000  0.78125000  1.0
  C  C174  1  0.47105000  0.52333000  0.71876000  1.0
  C  C175  1  0.02895000  0.97667000  0.21875000  1.0
  C  C176  1  0.41611000  0.35360000  0.33600000  1.0
  C  C177  1  0.08389000  0.14640000  0.83600000  1.0
  C  C178  1  0.58389000  0.64640000  0.66401000  1.0
  C  C179  1  0.91611000  0.85360000  0.16400000  1.0
  N  N180  1  0.07323000  0.47742000  0.17763000  1.0
  N  N181  1  0.42677000  0.02259000  0.67763000  1.0
  N  N182  1  0.92677000  0.52258000  0.82237000  1.0
  N  N183  1  0.57323000  0.97742000  0.32237000  1.0
  N  N184  1  0.24078000  0.28889000  0.16689000  1.0
  N  N185  1  0.25921000  0.21112000  0.66689000  1.0
  N  N186  1  0.75922000  0.71111000  0.83311000  1.0
  N  N187  1  0.74079000  0.78888000  0.33311000  1.0
  N  N188  1  0.23254000  0.51460000  0.99773000  1.0
  N  N189  1  0.26746000  0.98541000  0.49773000  1.0
  N  N190  1  0.76745000  0.48541000  0.00227000  1.0
  N  N191  1  0.73255000  0.01458000  0.50227000  1.0
  N  N192  1  0.17697000  0.41330000  0.92955000  1.0
  N  N193  1  0.32302000  0.08671000  0.42955000  1.0
  N  N194  1  0.82302000  0.58671000  0.07045000  1.0
  N  N195  1  0.67698000  0.91328000  0.57045000  1.0
  O  O196  1  0.67271000  0.68725000  0.21997000  1.0
  O  O197  1  0.82728000  0.81275000  0.71997000  1.0
  O  O198  1  0.32728000  0.31275000  0.78003000  1.0
  O  O199  1  0.17272000  0.18725000  0.28002000  1.0
  O  O200  1  0.71714000  0.49856000  0.19084000  1.0
  O  O201  1  0.78287000  0.00144000  0.69084000  1.0
  O  O202  1  0.28287000  0.50143000  0.80916000  1.0
  O  O203  1  0.21714000  0.99856000  0.30916000  1.0
  O  O204  1  0.32724000  0.34712000  0.37496000  1.0
  O  O205  1  0.17274000  0.15288000  0.87496000  1.0
  O  O206  1  0.67274000  0.65288000  0.62504000  1.0
  O  O207  1  0.82726000  0.84712000  0.12504000  1.0
  O  O208  1  0.49680000  0.26114000  0.30641000  1.0
  O  O209  1  0.00320000  0.23886000  0.80641000  1.0
  O  O210  1  0.50320000  0.73886000  0.69359000  1.0
  O  O211  1  0.99681000  0.76114000  0.19359000  1.0
  O  O212  1  0.19713000  0.79728000  0.34319000  1.0
  O  O213  1  0.30286000  0.70272000  0.84319000  1.0
  O  O214  1  0.80286000  0.20272000  0.65681000  1.0
  O  O215  1  0.69714000  0.29728000  0.15681000  1.0
  O  O216  1  0.48346000  0.79579000  0.11566000  1.0
  O  O217  1  0.01655000  0.70423000  0.61567000  1.0
  O  O218  1  0.51655000  0.20422000  0.88434000  1.0
  O  O219  1  0.98345000  0.29577000  0.38433000  1.0
