# generated using pymatgen
data_SrPH5C2SO6
_symmetry_space_group_name_H-M   'P 1'
_cell_length_a   5.21151000
_cell_length_b   8.37609000
_cell_length_c   8.80001230
_cell_angle_alpha   86.16109372
_cell_angle_beta   72.78219281
_cell_angle_gamma   76.98520000
_symmetry_Int_Tables_number   1
_chemical_formula_structural   SrPH5C2SO6
_chemical_formula_sum   'Sr2 P2 H10 C4 S2 O12'
_cell_volume   357.49858128
_cell_formula_units_Z   2
loop_
 _symmetry_equiv_pos_site_id
 _symmetry_equiv_pos_as_xyz
  1  'x, y, z'
loop_
 _atom_site_type_symbol
 _atom_site_label
 _atom_site_symmetry_multiplicity
 _atom_site_fract_x
 _atom_site_fract_y
 _atom_site_fract_z
 _atom_site_occupancy
  Sr  Sr0  1  0.61808000  0.17156000  0.55311000  1.0
  Sr  Sr1  1  0.17103000  0.67165000  0.44693000  1.0
  P  P2  1  0.91714000  0.41400000  0.74805000  1.0
  P  P3  1  0.66523000  0.91404000  0.25180000  1.0
  H  H4  1  0.92758000  0.66640000  0.76676000  1.0
  H  H5  1  0.69404000  0.16647000  0.23321000  1.0
  H  H6  1  0.20052000  0.44954000  0.90727000  1.0
  H  H7  1  0.10794000  0.94937000  0.09300000  1.0
  H  H8  1  0.10657000  0.25827000  0.94316000  1.0
  H  H9  1  0.04984000  0.75824000  0.05710000  1.0
  H  H10  1  0.72124000  0.59335000  0.06827000  1.0
  H  H11  1  0.79033000  0.09341000  0.93158000  1.0
  H  H12  1  0.60826000  0.40715000  0.09079000  1.0
  H  H13  1  0.69992000  0.90722000  0.90898000  1.0
  C  C14  1  0.02585000  0.38953000  0.92794000  1.0
  C  C15  1  0.95410000  0.88948000  0.07212000  1.0
  C  C16  1  0.79038000  0.45970000  0.07276000  1.0
  C  C17  1  0.86382000  0.95976000  0.92726000  1.0
  S  S18  1  0.89024000  0.41771000  0.25124000  1.0
  S  S19  1  0.14232000  0.91765000  0.74884000  1.0
  O  O20  1  0.68943000  0.32563000  0.76106000  1.0
  O  O21  1  0.45052000  0.82569000  0.23882000  1.0
  O  O22  1  0.16855000  0.37507000  0.60237000  1.0
  O  O23  1  0.77059000  0.87527000  0.39765000  1.0
  O  O24  1  0.79323000  0.60963000  0.74406000  1.0
  O  O25  1  0.53715000  0.10960000  0.25570000  1.0
  O  O26  1  0.12761000  0.49144000  0.23451000  1.0
  O  O27  1  0.36290000  0.99135000  0.76570000  1.0
  O  O28  1  0.95391000  0.23638000  0.26501000  1.0
  O  O29  1  0.21954000  0.73631000  0.73505000  1.0
  O  O30  1  0.65331000  0.48635000  0.38778000  1.0
  O  O31  1  0.04225000  0.98639000  0.61211000  1.0
