# generated using pymatgen
data_AlH21C45(OF)6
_symmetry_space_group_name_H-M   'P 1'
_cell_length_a   3.94243000
_cell_length_b   23.56710000
_cell_length_c   23.56500000
_cell_angle_alpha   60.06060000
_cell_angle_beta   87.13840000
_cell_angle_gamma   86.87950000
_symmetry_Int_Tables_number   1
_chemical_formula_structural   AlH21C45(OF)6
_chemical_formula_sum   'Al1 H21 C45 O6 F6'
_cell_volume   1893.81881779
_cell_formula_units_Z   1
loop_
 _symmetry_equiv_pos_site_id
 _symmetry_equiv_pos_as_xyz
  1  'x, y, z'
loop_
 _atom_site_type_symbol
 _atom_site_label
 _atom_site_symmetry_multiplicity
 _atom_site_fract_x
 _atom_site_fract_y
 _atom_site_fract_z
 _atom_site_occupancy
  Al  Al0  1  0.99597000  0.49978000  0.50028000  1.0
  H  H1  1  0.50066000  0.32030000  0.68022000  1.0
  H  H2  1  0.50209000  0.25704000  0.80121000  1.0
  H  H3  1  0.84073000  0.16485000  0.01301000  1.0
  H  H4  1  0.48481000  0.80410000  0.25654000  1.0
  H  H5  1  0.23582000  0.89680000  0.22710000  1.0
  H  H6  1  0.24454000  0.01629000  0.16530000  1.0
  H  H7  1  0.52352000  0.10632000  0.10493000  1.0
  H  H8  1  0.53186000  0.67892000  0.49875000  1.0
  H  H9  1  0.53165000  0.79966000  0.44195000  1.0
  H  H10  1  0.81891000  0.01250000  0.31872000  1.0
  H  H11  1  0.55638000  0.25657000  0.43815000  1.0
  H  H12  1  0.26877000  0.23018000  0.37903000  1.0
  H  H13  1  0.26089000  0.16792000  0.32140000  1.0
  H  H14  1  0.54479000  0.10517000  0.28780000  1.0
  H  H15  1  0.58408000  0.49911000  0.32050000  1.0
  H  H16  1  0.58343000  0.44195000  0.25666000  1.0
  H  H17  1  0.86181000  0.31554000  0.16333000  1.0
  H  H18  1  0.51287000  0.43884000  0.80465000  1.0
  H  H19  1  0.21366000  0.37836000  0.89690000  1.0
  H  H20  1  0.22344000  0.32004000  0.01708000  1.0
  H  H21  1  0.54687000  0.28781000  0.10605000  1.0
  C  C22  1  0.48307000  0.45087000  0.60124000  1.0
  C  C23  1  0.52704000  0.44793000  0.45097000  1.0
  C  C24  1  0.48088000  0.60059000  0.44815000  1.0
  C  C25  1  0.49804000  0.34565000  0.70829000  1.0
  C  C26  1  0.50348000  0.31020000  0.77623000  1.0
  C  C27  1  0.68572000  0.24496000  0.92128000  1.0
  C  C28  1  0.69383000  0.21095000  0.98901000  1.0
  C  C29  1  0.46216000  0.71093000  0.34330000  1.0
  C  C30  1  0.48291000  0.77855000  0.30987000  1.0
  C  C31  1  0.37189000  0.92204000  0.24665000  1.0
  C  C32  1  0.37676000  0.98996000  0.21145000  1.0
  C  C33  1  0.48392000  0.41431000  0.67429000  1.0
  C  C34  1  0.50869000  0.34246000  0.81283000  1.0
  C  C35  1  0.51867000  0.30628000  0.88499000  1.0
  C  C36  1  0.53040000  0.23753000  0.02512000  1.0
  C  C37  1  0.53443000  0.20117000  0.09735000  1.0
  C  C38  1  0.53021000  0.13259000  0.13200000  1.0
  C  C39  1  0.51508000  0.70731000  0.44560000  1.0
  C  C40  1  0.51988000  0.77521000  0.41343000  1.0
  C  C41  1  0.67321000  0.92109000  0.33180000  1.0
  C  C42  1  0.68054000  0.98878000  0.29785000  1.0
  C  C43  1  0.53510000  0.34341000  0.44517000  1.0
  C  C44  1  0.55174000  0.30991000  0.41065000  1.0
  C  C45  1  0.40676000  0.24818000  0.33231000  1.0
  C  C46  1  0.40288000  0.21273000  0.29978000  1.0
  C  C47  1  0.48306000  0.67347000  0.41138000  1.0
  C  C48  1  0.50930000  0.81227000  0.34460000  1.0
  C  C49  1  0.52011000  0.88443000  0.30850000  1.0
  C  C50  1  0.53031000  0.02498000  0.23656000  1.0
  C  C51  1  0.53394000  0.09722000  0.20060000  1.0
  C  C52  1  0.54230000  0.13197000  0.23445000  1.0
  C  C53  1  0.57359000  0.44588000  0.34559000  1.0
  C  C54  1  0.57698000  0.41354000  0.30983000  1.0
  C  C55  1  0.72399000  0.33029000  0.24368000  1.0
  C  C56  1  0.72264000  0.29609000  0.21005000  1.0
  C  C57  1  0.47998000  0.44565000  0.71131000  1.0
  C  C58  1  0.49898000  0.41132000  0.77901000  1.0
  C  C59  1  0.35756000  0.33201000  0.92244000  1.0
  C  C60  1  0.36317000  0.29909000  0.99041000  1.0
  C  C61  1  0.54724000  0.41157000  0.41418000  1.0
  C  C62  1  0.56783000  0.34475000  0.34178000  1.0
  C  C63  1  0.56798000  0.30855000  0.30567000  1.0
  C  C64  1  0.55929000  0.23632000  0.23752000  1.0
  C  C65  1  0.54847000  0.20050000  0.20120000  1.0
  C  C66  1  0.54331000  0.23446000  0.13259000  1.0
  O  O67  1  0.25327000  0.57220000  0.43594000  1.0
  O  O68  1  0.23895000  0.49163000  0.57294000  1.0
  O  O69  1  0.28212000  0.43578000  0.49231000  1.0
  O  O70  1  0.70793000  0.57149000  0.49111000  1.0
  O  O71  1  0.75215000  0.49001000  0.43722000  1.0
  O  O72  1  0.72813000  0.43716000  0.57228000  1.0
  F  F73  1  0.52008000  0.30767000  0.51178000  1.0
  F  F74  1  0.47257000  0.51233000  0.68031000  1.0
  F  F75  1  0.43756000  0.68066000  0.30740000  1.0
  F  F76  1  0.89901000  0.38697000  0.21442000  1.0
  F  F77  1  0.86227000  0.21697000  0.88953000  1.0
  F  F78  1  0.83758000  0.88995000  0.38998000  1.0
