# generated using pymatgen
data_Zn4H86C91N20O9
_symmetry_space_group_name_H-M   'P 1'
_cell_length_a   18.91970000
_cell_length_b   20.22290000
_cell_length_c   21.41402345
_cell_angle_alpha   103.14601797
_cell_angle_beta   106.39399548
_cell_angle_gamma   114.70800000
_symmetry_Int_Tables_number   1
_chemical_formula_structural   Zn4H86C91N20O9
_chemical_formula_sum   'Zn4 H86 C91 N20 O9'
_cell_volume   6555.78522541
_cell_formula_units_Z   1
loop_
 _symmetry_equiv_pos_site_id
 _symmetry_equiv_pos_as_xyz
  1  'x, y, z'
loop_
 _atom_site_type_symbol
 _atom_site_label
 _atom_site_symmetry_multiplicity
 _atom_site_fract_x
 _atom_site_fract_y
 _atom_site_fract_z
 _atom_site_occupancy
  Zn  Zn0  1  0.39347000  0.37648000  0.49657000  1.0
  Zn  Zn1  1  0.61757000  0.63702000  0.49450000  1.0
  Zn  Zn2  1  0.40595000  0.49474000  0.40032000  1.0
  Zn  Zn3  1  0.60422000  0.53299000  0.60129000  1.0
  H  H4  1  0.59789000  0.78232000  0.52531000  1.0
  H  H5  1  0.34873000  0.76036000  0.37379000  1.0
  H  H6  1  0.62284000  0.86432000  0.44943000  1.0
  H  H7  1  0.63813000  0.99065000  0.44657000  1.0
  H  H8  1  0.91174000  0.51297000  0.38031000  1.0
  H  H9  1  0.79114000  0.52853000  0.38693000  1.0
  H  H10  1  0.73395000  0.36148000  0.48583000  1.0
  H  H11  1  0.85167000  0.34317000  0.47587000  1.0
  H  H12  1  0.43691000  0.39151000  0.29261000  1.0
  H  H13  1  0.15426000  0.46485000  0.57499000  1.0
  H  H14  1  0.11536000  0.45761000  0.36439000  1.0
  H  H15  1  0.29820000  0.56011000  0.44385000  1.0
  H  H16  1  0.97078000  0.43687000  0.34195000  1.0
  H  H17  1  0.41185000  0.37232000  0.16778000  1.0
  H  H18  1  0.40575000  0.33365000  0.04655000  1.0
  H  H19  1  0.35617000  0.38018000  0.87100000  1.0
  H  H20  1  0.36482000  0.41253000  0.76644000  1.0
  H  H21  1  0.68695000  0.52674000  0.25555000  1.0
  H  H22  1  0.59914000  0.39275000  0.92352000  1.0
  H  H23  1  0.67986000  0.48612000  0.13329000  1.0
  H  H24  1  0.61630000  0.31424000  0.60141000  1.0
  H  H25  1  0.60584000  0.41963000  0.81647000  1.0
  H  H26  1  0.62270000  0.65658000  0.72272000  1.0
  H  H27  1  0.69241000  0.74683000  0.82845000  1.0
  H  H28  1  0.77794000  0.84789000  0.95131000  1.0
  H  H29  1  0.02710000  0.03312000  0.05783000  1.0
  H  H30  1  0.16651000  0.11513000  0.16643000  1.0
  H  H31  1  0.76875000  0.93230000  0.75085000  1.0
  H  H32  1  0.65736000  0.61623000  0.33929000  1.0
  H  H33  1  0.39900000  0.23489000  0.40531000  1.0
  H  H34  1  0.62744000  0.39323000  0.50384000  1.0
  H  H35  1  0.25074000  0.36060000  0.24378000  1.0
  H  H36  1  0.35850000  0.38054000  0.64452000  1.0
  H  H37  1  0.35732000  0.62440000  0.33795000  1.0
  H  H38  1  0.25085000  0.11999000  0.29071000  1.0
  H  H39  1  0.14485000  0.09524000  0.28037000  1.0
  H  H40  1  0.27935000  0.10010000  0.40516000  1.0
  H  H41  1  0.17363000  0.07401000  0.39346000  1.0
  H  H42  1  0.11378000  0.95621000  0.27939000  1.0
  H  H43  1  0.18191000  0.95181000  0.35275000  1.0
  H  H44  1  0.22029000  0.98239000  0.29180000  1.0
  H  H45  1  0.73000000  0.80310000  0.53373000  1.0
  H  H46  1  0.82077000  0.80906000  0.59676000  1.0
  H  H47  1  0.82207000  0.89807000  0.59436000  1.0
  H  H48  1  0.63393000  0.09093000  0.51336000  1.0
  H  H49  1  0.28590000  0.30751000  0.53235000  1.0
  H  H50  1  0.18644000  0.25979000  0.45553000  1.0
  H  H51  1  0.20866000  0.28689000  0.60898000  1.0
  H  H52  1  0.10907000  0.23774000  0.53410000  1.0
  H  H53  1  0.13845000  0.13138000  0.48296000  1.0
  H  H54  1  0.14437000  0.13995000  0.56892000  1.0
  H  H55  1  0.24014000  0.18161000  0.55682000  1.0
  H  H56  1  0.64499000  0.55952000  0.85883000  1.0
  H  H57  1  0.68231000  0.63901000  0.82964000  1.0
  H  H58  1  0.75042000  0.60212000  0.86095000  1.0
  H  H59  1  0.63897000  0.21755000  0.54658000  1.0
  H  H60  1  0.88344000  0.62700000  0.52355000  1.0
  H  H61  1  0.85224000  0.68809000  0.56879000  1.0
  H  H62  1  0.90666000  0.70502000  0.44823000  1.0
  H  H63  1  0.87646000  0.76597000  0.49302000  1.0
  H  H64  1  0.00180000  0.80998000  0.60901000  1.0
  H  H65  1  0.03800000  0.83237000  0.54439000  1.0
  H  H66  1  0.03218000  0.74962000  0.56306000  1.0
  H  H67  1  0.96031000  0.48956000  0.62643000  1.0
  H  H68  1  0.96139000  0.52248000  0.55644000  1.0
  H  H69  1  0.12127000  0.57633000  0.68957000  1.0
  H  H70  1  0.39670000  0.11276000  0.36632000  1.0
  H  H71  1  0.12227000  0.60779000  0.61902000  1.0
  H  H72  1  0.03087000  0.66496000  0.64184000  1.0
  H  H73  1  0.12850000  0.70817000  0.71831000  1.0
  H  H74  1  0.03109000  0.63435000  0.71319000  1.0
  H  H75  1  0.82950000  0.09031000  0.11298000  1.0
  H  H76  1  0.81797000  0.12551000  0.04319000  1.0
  H  H77  1  0.81475000  0.17363000  0.12347000  1.0
  H  H78  1  0.78427000  0.05461000  0.78645000  1.0
  H  H79  1  0.88232000  0.05659000  0.79399000  1.0
  H  H80  1  0.88629000  0.14117000  0.84843000  1.0
  H  H81  1  0.39312000  0.98654000  0.33177000  1.0
  H  H82  1  0.11812000  0.33279000  0.35909000  1.0
  H  H83  1  0.11220000  0.24009000  0.33117000  1.0
  H  H84  1  0.95833000  0.26440000  0.30159000  1.0
  H  H85  1  0.95053000  0.17165000  0.26963000  1.0
  H  H86  1  0.01932000  0.18569000  0.39527000  1.0
  H  H87  1  0.92615000  0.19276000  0.38090000  1.0
  H  H88  1  0.02970000  0.27990000  0.42827000  1.0
  H  H89  1  0.36394000  0.88665000  0.37126000  1.0
  C  C90  1  0.26185000  0.25597000  0.33802000  1.0
  C  C91  1  0.25574000  0.41842000  0.50258000  1.0
  C  C92  1  0.56857000  0.49153000  0.71899000  1.0
  C  C93  1  0.71751000  0.55608000  0.47746000  1.0
  C  C94  1  0.41677000  0.65223000  0.38545000  1.0
  C  C95  1  0.49477000  0.44361000  0.72683000  1.0
  C  C96  1  0.47960000  0.73313000  0.42517000  1.0
  C  C97  1  0.22865000  0.46835000  0.48157000  1.0
  C  C98  1  0.69281000  0.77091000  0.71050000  1.0
  C  C99  1  0.58222000  0.09558000  0.47996000  1.0
  C  C100  1  0.58462000  0.16714000  0.49921000  1.0
  C  C101  1  0.70795000  0.48057000  0.46716000  1.0
  C  C102  1  0.51615000  0.17444000  0.46110000  1.0
  C  C103  1  0.44927000  0.10848000  0.39885000  1.0
  C  C104  1  0.44692000  0.03687000  0.37955000  1.0
  C  C105  1  0.49008000  0.45208000  0.31410000  1.0
  C  C106  1  0.51155000  0.02767000  0.42142000  1.0
  C  C107  1  0.42104000  0.88175000  0.38724000  1.0
  C  C108  1  0.41238000  0.81045000  0.38898000  1.0
  C  C109  1  0.48505000  0.80373000  0.41460000  1.0
  C  C110  1  0.56593000  0.86955000  0.43329000  1.0
  C  C111  1  0.57448000  0.94068000  0.43148000  1.0
  C  C112  1  0.54967000  0.48799000  0.28795000  1.0
  C  C113  1  0.50244000  0.94940000  0.41093000  1.0
  C  C114  1  0.87210000  0.47881000  0.40275000  1.0
  C  C115  1  0.80482000  0.48842000  0.40722000  1.0
  C  C116  1  0.75862000  0.45188000  0.44285000  1.0
  C  C117  1  0.56183000  0.30552000  0.55828000  1.0
  C  C118  1  0.77239000  0.39469000  0.46218000  1.0
  C  C119  1  0.83879000  0.38422000  0.45659000  1.0
  C  C120  1  0.89466000  0.43130000  0.43239000  1.0
  C  C121  1  0.03405000  0.44889000  0.51140000  1.0
  C  C122  1  0.11502000  0.45891000  0.52342000  1.0
  C  C123  1  0.51171000  0.24479000  0.48883000  1.0
  C  C124  1  0.14619000  0.46292000  0.47140000  1.0
  C  C125  1  0.09346000  0.45663000  0.40633000  1.0
  C  C126  1  0.01193000  0.44464000  0.39376000  1.0
  C  C127  1  0.97924000  0.43929000  0.44496000  1.0
  C  C128  1  0.48760000  0.42126000  0.78569000  1.0
  C  C129  1  0.60261000  0.56702000  0.33819000  1.0
  C  C130  1  0.55220000  0.41298000  0.82959000  1.0
  C  C131  1  0.54821000  0.39682000  0.88839000  1.0
  C  C132  1  0.47811000  0.38702000  0.90436000  1.0
  C  C133  1  0.41020000  0.38875000  0.85791000  1.0
  C  C134  1  0.42699000  0.41878000  0.66137000  1.0
  C  C135  1  0.41540000  0.40663000  0.79990000  1.0
  C  C136  1  0.46690000  0.37503000  0.09281000  1.0
  C  C137  1  0.47093000  0.39697000  0.16044000  1.0
  C  C138  1  0.54247000  0.41021000  0.08293000  1.0
  C  C139  1  0.54943000  0.45507000  0.21983000  1.0
  C  C140  1  0.62532000  0.48449000  0.20983000  1.0
  C  C141  1  0.45119000  0.26398000  0.45788000  1.0
  C  C142  1  0.62202000  0.46167000  0.14229000  1.0
  C  C143  1  0.13229000  0.19741000  0.21209000  1.0
  C  C144  1  0.06723000  0.21655000  0.20227000  1.0
  C  C145  1  0.54043000  0.73244000  0.48016000  1.0
  C  C146  1  0.99019000  0.17281000  0.13942000  1.0
  C  C147  1  0.97643000  0.10600000  0.08707000  1.0
  C  C148  1  0.03907000  0.08410000  0.09967000  1.0
  C  C149  1  0.11613000  0.12956000  0.16023000  1.0
  C  C150  1  0.77262000  0.86537000  0.90640000  1.0
  C  C151  1  0.72590000  0.80932000  0.83773000  1.0
  C  C152  1  0.81882000  0.94723000  0.92249000  1.0
  C  C153  1  0.65211000  0.44937000  0.49791000  1.0
  C  C154  1  0.72748000  0.83232000  0.78035000  1.0
  C  C155  1  0.76896000  0.91390000  0.79479000  1.0
  C  C156  1  0.29207000  0.51315000  0.46245000  1.0
  C  C157  1  0.81181000  0.97140000  0.86440000  1.0
  C  C158  1  0.26373000  0.33409000  0.28111000  1.0
  C  C159  1  0.21637000  0.25507000  0.27264000  1.0
  C  C160  1  0.21083000  0.11967000  0.31970000  1.0
  C  C161  1  0.21306000  0.07183000  0.36471000  1.0
  C  C162  1  0.18037000  0.98586000  0.31962000  1.0
  C  C163  1  0.78205000  0.83703000  0.58790000  1.0
  C  C164  1  0.21857000  0.29410000  0.51332000  1.0
  C  C165  1  0.17501000  0.24880000  0.55192000  1.0
  C  C166  1  0.17451000  0.17117000  0.53946000  1.0
  C  C167  1  0.64815000  0.68883000  0.69262000  1.0
  C  C168  1  0.68384000  0.58583000  0.83196000  1.0
  C  C169  1  0.85535000  0.66466000  0.51838000  1.0
  C  C170  1  0.90751000  0.73093000  0.49975000  1.0
  C  C171  1  0.99992000  0.78367000  0.55717000  1.0
  C  C172  1  0.99915000  0.51162000  0.59805000  1.0
  C  C173  1  0.08393000  0.58795000  0.64843000  1.0
  C  C174  1  0.06788000  0.65240000  0.68233000  1.0
  C  C175  1  0.84355000  0.14322000  0.10083000  1.0
  C  C176  1  0.85059000  0.07630000  0.82335000  1.0
  C  C177  1  0.07929000  0.27231000  0.31789000  1.0
  C  C178  1  0.70746000  0.77519000  0.64967000  1.0
  C  C179  1  0.98905000  0.23038000  0.31387000  1.0
  C  C180  1  0.99120000  0.22180000  0.38342000  1.0
  N  N181  1  0.33072000  0.32911000  0.38093000  1.0
  N  N182  1  0.54486000  0.40472000  0.01701000  1.0
  N  N183  1  0.90561000  0.06696000  0.01994000  1.0
  N  N184  1  0.67117000  0.56831000  0.51057000  1.0
  N  N185  1  0.87595000  0.99274000  0.99380000  1.0
  N  N186  1  0.50585000  0.50575000  0.37462000  1.0
  N  N187  1  0.53380000  0.35598000  0.56858000  1.0
  N  N188  1  0.57499000  0.57720000  0.38884000  1.0
  N  N189  1  0.46522000  0.32997000  0.50623000  1.0
  N  N190  1  0.63042000  0.50226000  0.52347000  1.0
  N  N191  1  0.33068000  0.37738000  0.34515000  1.0
  N  N192  1  0.51660000  0.65706000  0.47310000  1.0
  N  N193  1  0.45671000  0.44715000  0.61760000  1.0
  N  N194  1  0.35125000  0.49091000  0.47026000  1.0
  N  N195  1  0.63945000  0.64840000  0.62901000  1.0
  N  N196  1  0.67665000  0.70264000  0.60162000  1.0
  N  N197  1  0.32741000  0.43119000  0.49414000  1.0
  N  N198  1  0.54402000  0.49395000  0.65448000  1.0
  N  N199  1  0.44034000  0.60782000  0.41411000  1.0
  N  N200  1  0.47317000  0.38214000  0.96762000  1.0
  O  O201  1  0.24465000  0.20034000  0.36640000  1.0
  O  O202  1  0.74881000  0.84271000  0.64024000  1.0
  O  O203  1  0.21642000  0.36621000  0.52889000  1.0
  O  O204  1  0.65432000  0.53003000  0.76154000  1.0
  O  O205  1  0.76806000  0.61590000  0.46241000  1.0
  O  O206  1  0.00977000  0.44707000  0.56657000  1.0
  O  O207  1  0.93453000  0.19957000  0.13486000  1.0
  O  O208  1  0.85183000  0.05057000  0.88034000  1.0
  O  O209  1  0.07912000  0.28115000  0.25265000  1.0
