# generated using pymatgen
data_MoH9C13SN(O2F3)2
_symmetry_space_group_name_H-M   'P 1'
_cell_length_a   11.92320000
_cell_length_b   12.49820000
_cell_length_c   13.01680000
_cell_angle_alpha   112.88400000
_cell_angle_beta   106.99600000
_cell_angle_gamma   95.28260000
_symmetry_Int_Tables_number   1
_chemical_formula_structural   MoH9C13SN(O2F3)2
_chemical_formula_sum   'Mo4 H36 C52 S4 N4 O16 F24'
_cell_volume   1661.77767543
_cell_formula_units_Z   4
loop_
 _symmetry_equiv_pos_site_id
 _symmetry_equiv_pos_as_xyz
  1  'x, y, z'
loop_
 _atom_site_type_symbol
 _atom_site_label
 _atom_site_symmetry_multiplicity
 _atom_site_fract_x
 _atom_site_fract_y
 _atom_site_fract_z
 _atom_site_occupancy
  Mo  Mo0  1  0.56334000  0.05626000  0.08898000  1.0
  Mo  Mo1  1  0.43666000  0.94373000  0.91101000  1.0
  Mo  Mo2  1  0.41942000  0.50119000  0.52092000  1.0
  Mo  Mo3  1  0.58054000  0.49881000  0.47910000  1.0
  H  H4  1  0.87568000  0.37194000  0.85560000  1.0
  H  H5  1  0.12433000  0.62806000  0.14440000  1.0
  H  H6  1  0.77529000  0.23447000  0.74047000  1.0
  H  H7  1  0.22472000  0.76554000  0.25953000  1.0
  H  H8  1  0.79309000  0.36278000  0.71312000  1.0
  H  H9  1  0.20691000  0.63722000  0.28688000  1.0
  H  H10  1  0.78730000  0.88567000  0.43443000  1.0
  H  H11  1  0.21270000  0.11433000  0.56557000  1.0
  H  H12  1  0.83978000  0.96531000  0.36455000  1.0
  H  H13  1  0.16022000  0.03469000  0.63544000  1.0
  H  H14  1  0.70710000  0.98525000  0.39616000  1.0
  H  H15  1  0.29291000  0.01475000  0.60384000  1.0
  H  H16  1  0.84788000  0.87946000  0.62510000  1.0
  H  H17  1  0.15213000  0.12055000  0.37491000  1.0
  H  H18  1  0.99603000  0.94147000  0.73451000  1.0
  H  H19  1  0.00398000  0.05853000  0.26549000  1.0
  H  H20  1  0.97427000  0.88150000  0.58021000  1.0
  H  H21  1  0.02574000  0.11849000  0.41979000  1.0
  H  H22  1  0.19078000  0.29590000  0.74016000  1.0
  H  H23  1  0.80923000  0.70410000  0.25984000  1.0
  H  H24  1  0.20599000  0.42353000  0.71024000  1.0
  H  H25  1  0.79402000  0.57647000  0.28976000  1.0
  H  H26  1  0.10733000  0.28656000  0.59733000  1.0
  H  H27  1  0.89268000  0.71344000  0.40267000  1.0
  H  H28  1  0.04440000  0.75576000  0.75734000  1.0
  H  H29  1  0.95560000  0.24424000  0.24266000  1.0
  H  H30  1  0.89114000  0.67498000  0.68709000  1.0
  H  H31  1  0.10886000  0.32502000  0.31290000  1.0
  H  H32  1  0.99163000  0.64323000  0.60843000  1.0
  H  H33  1  0.00836000  0.35677000  0.39157000  1.0
  H  H34  1  0.20442000  0.73543000  0.03426000  1.0
  H  H35  1  0.79558000  0.26457000  0.96574000  1.0
  H  H36  1  0.06036000  0.76507000  0.98880000  1.0
  H  H37  1  0.93965000  0.23493000  0.01120000  1.0
  H  H38  1  0.16674000  0.79285000  0.92622000  1.0
  H  H39  1  0.83326000  0.20715000  0.07378000  1.0
  C  C40  1  0.85777000  0.25268000  0.50709000  1.0
  C  C41  1  0.14223000  0.74732000  0.49290000  1.0
  C  C42  1  0.89401000  0.38445000  0.55749000  1.0
  C  C43  1  0.10598000  0.61554000  0.44252000  1.0
  C  C44  1  0.79556000  0.19147000  0.38295000  1.0
  C  C45  1  0.20445000  0.80853000  0.61704000  1.0
  C  C46  1  0.83305000  0.43832000  0.48834000  1.0
  C  C47  1  0.16694000  0.56168000  0.51166000  1.0
  C  C48  1  0.94302000  0.27552000  0.71424000  1.0
  C  C49  1  0.05699000  0.72448000  0.28576000  1.0
  C  C50  1  0.88637000  0.19552000  0.58031000  1.0
  C  C51  1  0.11363000  0.80448000  0.41969000  1.0
  C  C52  1  0.86991000  0.07121000  0.55148000  1.0
  C  C53  1  0.13010000  0.92879000  0.44852000  1.0
  C  C54  1  0.93041000  0.05133000  0.64819000  1.0
  C  C55  1  0.06961000  0.94867000  0.35182000  1.0
  C  C56  1  0.03874000  0.38144000  0.73665000  1.0
  C  C57  1  0.96127000  0.61856000  0.26335000  1.0
  C  C58  1  0.97762000  0.45094000  0.67212000  1.0
  C  C59  1  0.02238000  0.54906000  0.32788000  1.0
  C  C60  1  0.01639000  0.57687000  0.74156000  1.0
  C  C61  1  0.98360000  0.42313000  0.25844000  1.0
  C  C62  1  0.08363000  0.60807000  0.85968000  1.0
  C  C63  1  0.91638000  0.39193000  0.14032000  1.0
  C  C64  1  0.84024000  0.31383000  0.75941000  1.0
  C  C65  1  0.15977000  0.68618000  0.24059000  1.0
  C  C66  1  0.79763000  0.97198000  0.43077000  1.0
  C  C67  1  0.20238000  0.02802000  0.56923000  1.0
  C  C68  1  0.93774000  0.93253000  0.64775000  1.0
  C  C69  1  0.06227000  0.06747000  0.35225000  1.0
  C  C70  1  0.14294000  0.34415000  0.69379000  1.0
  C  C71  1  0.85707000  0.65585000  0.30621000  1.0
  C  C72  1  0.98429000  0.66752000  0.69631000  1.0
  C  C73  1  0.01570000  0.33248000  0.30369000  1.0
  C  C74  1  0.13205000  0.73151000  0.95730000  1.0
  C  C75  1  0.86795000  0.26849000  0.04270000  1.0
  C  C76  1  0.31834000  0.05522000  0.08104000  1.0
  C  C77  1  0.68166000  0.94478000  0.91897000  1.0
  C  C78  1  0.21313000  0.07911000  0.12534000  1.0
  C  C79  1  0.78687000  0.92088000  0.87466000  1.0
  C  C80  1  0.50828000  0.18949000  0.94857000  1.0
  C  C81  1  0.49173000  0.81052000  0.05143000  1.0
  C  C82  1  0.51602000  0.29460000  0.91542000  1.0
  C  C83  1  0.48398000  0.70540000  0.08458000  1.0
  C  C84  1  0.36831000  0.42765000  0.26734000  1.0
  C  C85  1  0.63167000  0.57235000  0.73266000  1.0
  C  C86  1  0.70343000  0.61014000  0.86513000  1.0
  C  C87  1  0.29656000  0.38987000  0.13487000  1.0
  C  C88  1  0.48222000  0.27164000  0.47002000  1.0
  C  C89  1  0.51776000  0.72836000  0.52999000  1.0
  C  C90  1  0.52278000  0.85482000  0.53783000  1.0
  C  C91  1  0.47721000  0.14518000  0.46217000  1.0
  S  S92  1  0.00693000  0.17830000  0.78025000  1.0
  S  S93  1  0.99308000  0.82171000  0.21975000  1.0
  S  S94  1  0.10741000  0.49020000  0.89469000  1.0
  S  S95  1  0.89260000  0.50981000  0.10532000  1.0
  N  N96  1  0.74640000  0.14846000  0.27923000  1.0
  N  N97  1  0.25360000  0.85154000  0.72077000  1.0
  N  N98  1  0.77423000  0.47835000  0.42914000  1.0
  N  N99  1  0.22576000  0.52165000  0.57087000  1.0
  O  O100  1  0.42558000  0.10259000  0.15697000  1.0
  O  O101  1  0.57443000  0.89742000  0.84304000  1.0
  O  O102  1  0.70885000  0.01459000  0.02874000  1.0
  O  O103  1  0.29117000  0.98541000  0.97127000  1.0
  O  O104  1  0.57314000  0.20644000  0.05321000  1.0
  O  O105  1  0.42687000  0.79356000  0.94680000  1.0
  O  O106  1  0.56000000  0.91040000  0.13299000  1.0
  O  O107  1  0.44001000  0.08961000  0.86701000  1.0
  O  O108  1  0.48219000  0.44126000  0.29698000  1.0
  O  O109  1  0.51780000  0.55875000  0.70303000  1.0
  O  O110  1  0.31191000  0.44560000  0.33985000  1.0
  O  O111  1  0.68808000  0.55440000  0.66015000  1.0
  O  O112  1  0.57047000  0.32024000  0.45437000  1.0
  O  O113  1  0.42951000  0.67977000  0.54563000  1.0
  O  O114  1  0.40011000  0.32258000  0.49706000  1.0
  O  O115  1  0.59987000  0.67742000  0.50295000  1.0
  F  F116  1  0.11741000  0.08524000  0.04225000  1.0
  F  F117  1  0.88259000  0.91475000  0.95775000  1.0
  F  F118  1  0.24550000  0.18255000  0.22678000  1.0
  F  F119  1  0.75451000  0.81744000  0.77321000  1.0
  F  F120  1  0.17544000  0.98867000  0.15062000  1.0
  F  F121  1  0.82456000  0.01132000  0.84937000  1.0
  F  F122  1  0.40593000  0.29739000  0.84869000  1.0
  F  F123  1  0.59407000  0.70261000  0.15130000  1.0
  F  F124  1  0.58772000  0.28115000  0.84776000  1.0
  F  F125  1  0.41228000  0.71886000  0.15224000  1.0
  F  F126  1  0.56402000  0.40049000  0.01267000  1.0
  F  F127  1  0.43596000  0.59951000  0.98733000  1.0
  F  F128  1  0.67032000  0.52447000  0.89707000  1.0
  F  F129  1  0.32968000  0.47553000  0.10294000  1.0
  F  F130  1  0.68133000  0.71343000  0.93628000  1.0
  F  F131  1  0.31866000  0.28658000  0.06372000  1.0
  F  F132  1  0.82390000  0.62845000  0.88921000  1.0
  F  F133  1  0.17609000  0.37155000  0.11079000  1.0
  F  F134  1  0.45473000  0.91191000  0.59803000  1.0
  F  F135  1  0.54527000  0.08810000  0.40197000  1.0
  F  F136  1  0.63750000  0.92291000  0.59257000  1.0
  F  F137  1  0.36249000  0.07708000  0.40742000  1.0
  F  F138  1  0.48016000  0.84798000  0.42530000  1.0
  F  F139  1  0.51984000  0.15201000  0.57470000  1.0
