# generated using pymatgen
data_ZnH17C18(NO)4
_symmetry_space_group_name_H-M   'P 1'
_cell_length_a   10.96150000
_cell_length_b   13.01280000
_cell_length_c   14.44140000
_cell_angle_alpha   89.99960000
_cell_angle_beta   101.87200000
_cell_angle_gamma   89.99980000
_symmetry_Int_Tables_number   1
_chemical_formula_structural   ZnH17C18(NO)4
_chemical_formula_sum   'Zn4 H68 C72 N16 O16'
_cell_volume   2015.85611026
_cell_formula_units_Z   4
loop_
 _symmetry_equiv_pos_site_id
 _symmetry_equiv_pos_as_xyz
  1  'x, y, z'
loop_
 _atom_site_type_symbol
 _atom_site_label
 _atom_site_symmetry_multiplicity
 _atom_site_fract_x
 _atom_site_fract_y
 _atom_site_fract_z
 _atom_site_occupancy
  Zn  Zn0  1  0.11296000  0.77166000  0.68299000  1.0
  Zn  Zn1  1  0.88704000  0.27166000  0.81701000  1.0
  Zn  Zn2  1  0.88704000  0.22834000  0.31701000  1.0
  Zn  Zn3  1  0.11296000  0.72834000  0.18299000  1.0
  H  H4  1  0.61791000  0.15096000  0.50173000  1.0
  H  H5  1  0.38209000  0.65095000  0.99827000  1.0
  H  H6  1  0.38209000  0.84904000  0.49827000  1.0
  H  H7  1  0.61791000  0.34904000  0.00173000  1.0
  H  H8  1  0.60445000  0.12318000  0.33131000  1.0
  H  H9  1  0.39555000  0.62318000  0.16868000  1.0
  H  H10  1  0.39554000  0.87683000  0.66869000  1.0
  H  H11  1  0.60444000  0.37682000  0.83131000  1.0
  H  H12  1  0.39682000  0.09664000  0.22375000  1.0
  H  H13  1  0.60318000  0.59664000  0.27625000  1.0
  H  H14  1  0.60318000  0.90336000  0.77625000  1.0
  H  H15  1  0.39680000  0.40336000  0.72375000  1.0
  H  H16  1  0.20568000  0.09779000  0.29129000  1.0
  H  H17  1  0.79432000  0.59779000  0.20871000  1.0
  H  H18  1  0.79432000  0.90221000  0.70871000  1.0
  H  H19  1  0.20567000  0.40221000  0.79130000  1.0
  H  H20  1  0.17989000  0.15661000  0.53167000  1.0
  H  H21  1  0.82012000  0.65661000  0.96833000  1.0
  H  H22  1  0.82011000  0.84339000  0.46833000  1.0
  H  H23  1  0.17988000  0.34339000  0.03168000  1.0
  H  H24  1  0.10575000  0.13742000  0.41348000  1.0
  H  H25  1  0.89425000  0.63741000  0.08651000  1.0
  H  H26  1  0.89424000  0.86258000  0.58651000  1.0
  H  H27  1  0.10575000  0.36258000  0.91349000  1.0
  H  H28  1  0.34620000  0.18934000  0.61469000  1.0
  H  H29  1  0.65381000  0.68935000  0.88531000  1.0
  H  H30  1  0.65380000  0.81065000  0.38531000  1.0
  H  H31  1  0.34620000  0.31065000  0.11469000  1.0
  H  H32  1  0.44567000  0.08108000  0.63887000  1.0
  H  H33  1  0.55434000  0.58108000  0.86112000  1.0
  H  H34  1  0.55433000  0.91892000  0.36112000  1.0
  H  H35  1  0.44567000  0.41892000  0.13888000  1.0
  H  H36  1  0.16153000  0.01120000  0.64287000  1.0
  H  H37  1  0.83847000  0.51120000  0.85712000  1.0
  H  H38  1  0.83847000  0.98880000  0.35712000  1.0
  H  H39  1  0.16154000  0.48880000  0.14288000  1.0
  H  H40  1  0.09774000  0.75898000  0.45558000  1.0
  H  H41  1  0.90225000  0.25898000  0.04443000  1.0
  H  H42  1  0.90226000  0.24101000  0.54442000  1.0
  H  H43  1  0.09774000  0.74101000  0.95557000  1.0
  H  H44  1  0.12649000  0.93351000  0.35268000  1.0
  H  H45  1  0.87349000  0.43351000  0.14731000  1.0
  H  H46  1  0.87349000  0.06649000  0.64731000  1.0
  H  H47  1  0.12649000  0.56648000  0.85269000  1.0
  H  H48  1  0.65118000  0.12078000  0.74040000  1.0
  H  H49  1  0.34883000  0.62078000  0.75960000  1.0
  H  H50  1  0.34882000  0.87923000  0.25959000  1.0
  H  H51  1  0.65118000  0.37922000  0.24041000  1.0
  H  H52  1  0.71365000  0.42531000  0.66226000  1.0
  H  H53  1  0.28636000  0.92531000  0.83775000  1.0
  H  H54  1  0.28635000  0.57470000  0.33774000  1.0
  H  H55  1  0.71365000  0.07469000  0.16226000  1.0
  H  H56  1  0.48371000  0.35736000  0.55578000  1.0
  H  H57  1  0.51630000  0.85736000  0.94422000  1.0
  H  H58  1  0.51629000  0.64264000  0.44422000  1.0
  H  H59  1  0.48371000  0.14264000  0.05578000  1.0
  H  H60  1  0.85793000  0.94449000  0.85591000  1.0
  H  H61  1  0.14207000  0.44448000  0.64410000  1.0
  H  H62  1  0.14208000  0.05551000  0.14409000  1.0
  H  H63  1  0.85793000  0.55552000  0.35590000  1.0
  H  H64  1  0.94438000  0.84621000  0.92226000  1.0
  H  H65  1  0.05563000  0.34620000  0.57774000  1.0
  H  H66  1  0.05563000  0.15380000  0.07774000  1.0
  H  H67  1  0.94437000  0.65380000  0.42226000  1.0
  H  H68  1  0.12170000  0.98874000  0.96455000  1.0
  H  H69  1  0.87830000  0.48874000  0.53545000  1.0
  H  H70  1  0.87830000  0.01126000  0.03545000  1.0
  H  H71  1  0.12170000  0.51126000  0.46455000  1.0
  C  C72  1  0.30306000  0.11875000  0.43468000  1.0
  C  C73  1  0.69694000  0.61875000  0.06532000  1.0
  C  C74  1  0.69693000  0.88125000  0.56531000  1.0
  C  C75  1  0.30306000  0.38124000  0.93469000  1.0
  C  C76  1  0.41964000  0.13608000  0.49468000  1.0
  C  C77  1  0.58037000  0.63608000  0.00531000  1.0
  C  C78  1  0.58036000  0.86392000  0.50531000  1.0
  C  C79  1  0.41963000  0.36392000  0.99469000  1.0
  C  C80  1  0.52704000  0.13701000  0.45610000  1.0
  C  C81  1  0.47296000  0.63700000  0.04389000  1.0
  C  C82  1  0.47295000  0.86300000  0.54390000  1.0
  C  C83  1  0.52704000  0.36299000  0.95610000  1.0
  C  C84  1  0.51981000  0.12162000  0.35960000  1.0
  C  C85  1  0.48020000  0.62162000  0.14039000  1.0
  C  C86  1  0.48019000  0.87838000  0.64039000  1.0
  C  C87  1  0.51980000  0.37838000  0.85961000  1.0
  C  C88  1  0.40384000  0.10668000  0.29963000  1.0
  C  C89  1  0.59616000  0.60668000  0.20036000  1.0
  C  C90  1  0.59616000  0.89332000  0.70037000  1.0
  C  C91  1  0.40383000  0.39332000  0.79964000  1.0
  C  C92  1  0.29694000  0.10602000  0.33750000  1.0
  C  C93  1  0.70306000  0.60602000  0.16250000  1.0
  C  C94  1  0.70306000  0.89398000  0.66250000  1.0
  C  C95  1  0.29693000  0.39398000  0.83751000  1.0
  C  C96  1  0.18231000  0.10999000  0.46893000  1.0
  C  C97  1  0.81769000  0.60999000  0.03106000  1.0
  C  C98  1  0.81768000  0.89001000  0.53106000  1.0
  C  C99  1  0.18231000  0.39000000  0.96895000  1.0
  C  C100  1  0.43121000  0.15410000  0.59978000  1.0
  C  C101  1  0.56880000  0.65411000  0.90022000  1.0
  C  C102  1  0.56879000  0.84590000  0.40022000  1.0
  C  C103  1  0.43121000  0.34589000  0.09978000  1.0
  C  C104  1  0.15350000  0.96557000  0.57898000  1.0
  C  C105  1  0.84650000  0.46557000  0.92102000  1.0
  C  C106  1  0.84650000  0.03443000  0.42102000  1.0
  C  C107  1  0.15350000  0.53444000  0.07898000  1.0
  C  C108  1  0.11852000  0.83691000  0.47987000  1.0
  C  C109  1  0.88147000  0.33691000  0.02012000  1.0
  C  C110  1  0.88148000  0.16309000  0.52012000  1.0
  C  C111  1  0.11852000  0.66308000  0.97988000  1.0
  C  C112  1  0.13389000  0.92258000  0.42804000  1.0
  C  C113  1  0.86610000  0.42258000  0.07196000  1.0
  C  C114  1  0.86611000  0.07742000  0.57196000  1.0
  C  C115  1  0.13389000  0.57741000  0.92804000  1.0
  C  C116  1  0.63768000  0.19521000  0.70595000  1.0
  C  C117  1  0.36233000  0.69521000  0.79405000  1.0
  C  C118  1  0.36232000  0.80480000  0.29405000  1.0
  C  C119  1  0.63768000  0.30479000  0.20595000  1.0
  C  C120  1  0.66494000  0.35274000  0.66263000  1.0
  C  C121  1  0.33506000  0.85274000  0.83737000  1.0
  C  C122  1  0.33505000  0.64726000  0.33736000  1.0
  C  C123  1  0.66495000  0.14725000  0.16263000  1.0
  C  C124  1  0.55225000  0.32044000  0.61050000  1.0
  C  C125  1  0.44775000  0.82044000  0.88950000  1.0
  C  C126  1  0.44775000  0.67956000  0.38950000  1.0
  C  C127  1  0.55225000  0.17956000  0.11050000  1.0
  C  C128  1  0.01695000  0.89587000  0.80277000  1.0
  C  C129  1  0.98305000  0.39585000  0.69723000  1.0
  C  C130  1  0.98306000  0.10413000  0.19724000  1.0
  C  C131  1  0.01695000  0.60415000  0.30277000  1.0
  C  C132  1  0.95372000  0.91800000  0.88470000  1.0
  C  C133  1  0.04628000  0.41799000  0.61530000  1.0
  C  C134  1  0.04628000  0.08200000  0.11530000  1.0
  C  C135  1  0.95372000  0.58201000  0.38470000  1.0
  C  C136  1  0.02024000  0.00087000  0.95133000  1.0
  C  C137  1  0.97976000  0.50087000  0.54868000  1.0
  C  C138  1  0.97976000  0.99913000  0.04868000  1.0
  C  C139  1  0.02024000  0.49913000  0.45132000  1.0
  C  C140  1  0.99652000  0.10804000  0.90764000  1.0
  C  C141  1  0.00349000  0.60803000  0.59237000  1.0
  C  C142  1  0.00348000  0.89196000  0.09236000  1.0
  C  C143  1  0.99652000  0.39197000  0.40764000  1.0
  N  N144  1  0.13071000  0.86464000  0.57383000  1.0
  N  N145  1  0.86929000  0.36463000  0.92617000  1.0
  N  N146  1  0.86929000  0.13536000  0.42616000  1.0
  N  N147  1  0.13071000  0.63536000  0.07384000  1.0
  N  N148  1  0.15662000  0.00310000  0.49196000  1.0
  N  N149  1  0.84337000  0.50310000  0.00804000  1.0
  N  N150  1  0.84337000  0.99690000  0.50804000  1.0
  N  N151  1  0.15663000  0.49690000  0.99196000  1.0
  N  N152  1  0.71700000  0.27378000  0.72200000  1.0
  N  N153  1  0.28300000  0.77378000  0.77801000  1.0
  N  N154  1  0.28300000  0.72623000  0.27800000  1.0
  N  N155  1  0.71700000  0.22622000  0.22200000  1.0
  N  N156  1  0.53623000  0.22071000  0.63893000  1.0
  N  N157  1  0.46378000  0.72072000  0.86107000  1.0
  N  N158  1  0.46376000  0.77929000  0.36107000  1.0
  N  N159  1  0.53623000  0.27928000  0.13893000  1.0
  O  O160  1  0.99905000  0.80343000  0.76837000  1.0
  O  O161  1  0.00094000  0.30340000  0.73161000  1.0
  O  O162  1  0.00096000  0.19657000  0.23163000  1.0
  O  O163  1  0.99906000  0.69660000  0.26839000  1.0
  O  O164  1  0.08143000  0.96278000  0.77268000  1.0
  O  O165  1  0.91858000  0.46276000  0.72733000  1.0
  O  O166  1  0.91858000  0.03722000  0.22732000  1.0
  O  O167  1  0.08142000  0.53725000  0.27267000  1.0
  O  O168  1  0.88541000  0.12499000  0.85685000  1.0
  O  O169  1  0.11459000  0.62498000  0.64316000  1.0
  O  O170  1  0.11459000  0.87501000  0.14315000  1.0
  O  O171  1  0.88541000  0.37502000  0.35684000  1.0
  O  O172  1  0.07846000  0.17628000  0.92517000  1.0
  O  O173  1  0.92155000  0.67628000  0.57484000  1.0
  O  O174  1  0.92154000  0.82372000  0.07484000  1.0
  O  O175  1  0.07845000  0.32372000  0.42516000  1.0
