# generated using pymatgen
data_Cd3H36C56(NO6)2
_symmetry_space_group_name_H-M   'P 1'
_cell_length_a   9.22265000
_cell_length_b   13.54080000
_cell_length_c   14.13360000
_cell_angle_alpha   116.79150000
_cell_angle_beta   90.82070000
_cell_angle_gamma   106.06260000
_symmetry_Int_Tables_number   1
_chemical_formula_structural   Cd3H36C56(NO6)2
_chemical_formula_sum   'Cd3 H36 C56 N2 O12'
_cell_volume   1494.03041265
_cell_formula_units_Z   1
loop_
 _symmetry_equiv_pos_site_id
 _symmetry_equiv_pos_as_xyz
  1  'x, y, z'
loop_
 _atom_site_type_symbol
 _atom_site_label
 _atom_site_symmetry_multiplicity
 _atom_site_fract_x
 _atom_site_fract_y
 _atom_site_fract_z
 _atom_site_occupancy
  Cd  Cd0  1  0.59775000  0.88359000  0.91409000  1.0
  Cd  Cd1  1  0.40225000  0.11641000  0.08590000  1.0
  Cd  Cd2  1  0.00000000  0.00000000  0.00000000  1.0
  H  H3  1  0.07586000  0.31640000  0.59940000  1.0
  H  H4  1  0.92414000  0.68361000  0.40060000  1.0
  H  H5  1  0.69285000  0.10083000  0.54420000  1.0
  H  H6  1  0.30715000  0.89917000  0.45581000  1.0
  H  H7  1  0.62158000  0.99145000  0.64815000  1.0
  H  H8  1  0.37842000  0.00854000  0.35184000  1.0
  H  H9  1  0.04037000  0.20432000  0.87004000  1.0
  H  H10  1  0.95963000  0.79568000  0.12995000  1.0
  H  H11  1  0.11204000  0.31578000  0.76755000  1.0
  H  H12  1  0.88795000  0.68422000  0.23245000  1.0
  H  H13  1  0.06117000  0.13840000  0.43786000  1.0
  H  H14  1  0.93883000  0.86160000  0.56214000  1.0
  H  H15  1  0.95855000  0.01944000  0.24278000  1.0
  H  H16  1  0.04146000  0.98056000  0.75723000  1.0
  H  H17  1  0.59230000  0.16718000  0.28876000  1.0
  H  H18  1  0.40770000  0.83281000  0.71124000  1.0
  H  H19  1  0.69695000  0.28975000  0.48300000  1.0
  H  H20  1  0.30305000  0.71025000  0.51700000  1.0
  H  H21  1  0.09477000  0.49735000  0.59810000  1.0
  H  H22  1  0.90523000  0.50265000  0.40190000  1.0
  H  H23  1  0.04368000  0.68664000  0.69580000  1.0
  H  H24  1  0.95632000  0.31336000  0.30420000  1.0
  H  H25  1  0.65787000  0.52327000  0.79961000  1.0
  H  H26  1  0.34213000  0.47674000  0.20039000  1.0
  H  H27  1  0.71759000  0.33571000  0.71142000  1.0
  H  H28  1  0.28241000  0.66430000  0.28859000  1.0
  H  H29  1  0.22690000  0.78706000  0.88747000  1.0
  H  H30  1  0.77309000  0.21293000  0.11252000  1.0
  H  H31  1  0.02681000  0.65006000  0.92150000  1.0
  H  H32  1  0.97319000  0.34994000  0.07849000  1.0
  H  H33  1  0.38420000  0.56647000  0.04313000  1.0
  H  H34  1  0.61579000  0.43354000  0.95687000  1.0
  H  H35  1  0.57317000  0.70976000  0.00235000  1.0
  H  H36  1  0.42682000  0.29024000  0.99764000  1.0
  H  H37  1  0.12457000  0.46833000  0.04369000  1.0
  H  H38  1  0.87543000  0.53168000  0.95631000  1.0
  C  C39  1  0.95023000  0.29102000  0.59320000  1.0
  C  C40  1  0.04977000  0.70898000  0.40681000  1.0
  C  C41  1  0.90663000  0.21670000  0.64970000  1.0
  C  C42  1  0.09337000  0.78331000  0.35031000  1.0
  C  C43  1  0.76909000  0.12445000  0.61607000  1.0
  C  C44  1  0.23091000  0.87555000  0.38393000  1.0
  C  C45  1  0.72902000  0.06261000  0.67346000  1.0
  C  C46  1  0.27098000  0.93739000  0.32654000  1.0
  C  C47  1  0.82609000  0.09190000  0.76575000  1.0
  C  C48  1  0.17391000  0.90809000  0.23425000  1.0
  C  C49  1  0.96473000  0.18322000  0.79896000  1.0
  C  C50  1  0.03527000  0.81678000  0.20104000  1.0
  C  C51  1  0.00429000  0.24442000  0.74126000  1.0
  C  C52  1  0.99571000  0.75558000  0.25874000  1.0
  C  C53  1  0.78251000  0.02783000  0.82927000  1.0
  C  C54  1  0.21749000  0.97216000  0.17073000  1.0
  C  C55  1  0.88599000  0.22238000  0.47390000  1.0
  C  C56  1  0.11401000  0.77762000  0.52611000  1.0
  C  C57  1  0.95868000  0.14544000  0.40527000  1.0
  C  C58  1  0.04132000  0.85457000  0.59473000  1.0
  C  C59  1  0.90176000  0.07831000  0.29630000  1.0
  C  C60  1  0.09824000  0.92169000  0.70370000  1.0
  C  C61  1  0.77069000  0.08674000  0.25306000  1.0
  C  C62  1  0.22932000  0.91326000  0.74694000  1.0
  C  C63  1  0.69650000  0.16253000  0.32120000  1.0
  C  C64  1  0.30350000  0.83747000  0.67880000  1.0
  C  C65  1  0.75430000  0.22999000  0.43068000  1.0
  C  C66  1  0.24570000  0.77001000  0.56932000  1.0
  C  C67  1  0.71679000  0.01784000  0.13540000  1.0
  C  C68  1  0.28322000  0.98216000  0.86460000  1.0
  C  C69  1  0.91135000  0.40406000  0.64970000  1.0
  C  C70  1  0.08864000  0.59594000  0.35029000  1.0
  C  C71  1  0.00013000  0.50309000  0.64382000  1.0
  C  C72  1  0.99987000  0.49690000  0.35618000  1.0
  C  C73  1  0.97105000  0.60890000  0.69725000  1.0
  C  C74  1  0.02896000  0.39110000  0.30275000  1.0
  C  C75  1  0.84901000  0.61685000  0.75524000  1.0
  C  C76  1  0.15100000  0.38316000  0.24476000  1.0
  C  C77  1  0.75493000  0.51674000  0.75652000  1.0
  C  C78  1  0.24507000  0.48326000  0.24348000  1.0
  C  C79  1  0.78756000  0.41189000  0.70596000  1.0
  C  C80  1  0.21245000  0.58812000  0.29404000  1.0
  C  C81  1  0.82438000  0.73231000  0.82196000  1.0
  C  C82  1  0.17563000  0.26770000  0.17804000  1.0
  C  C83  1  0.25757000  0.73602000  0.92096000  1.0
  C  C84  1  0.74242000  0.26397000  0.07903000  1.0
  C  C85  1  0.14567000  0.65887000  0.94105000  1.0
  C  C86  1  0.85432000  0.34112000  0.05895000  1.0
  C  C87  1  0.18743000  0.59469000  0.98549000  1.0
  C  C88  1  0.81257000  0.40531000  0.01451000  1.0
  C  C89  1  0.34498000  0.61356000  0.00799000  1.0
  C  C90  1  0.65502000  0.38644000  0.99202000  1.0
  C  C91  1  0.45039000  0.69273000  0.98586000  1.0
  C  C92  1  0.54960000  0.30727000  0.01413000  1.0
  C  C93  1  0.07657000  0.51211000  0.00874000  1.0
  C  C94  1  0.92343000  0.48789000  0.99126000  1.0
  N  N95  1  0.40770000  0.75311000  0.94268000  1.0
  N  N96  1  0.59229000  0.24689000  0.05731000  1.0
  O  O97  1  0.66528000  0.93623000  0.78858000  1.0
  O  O98  1  0.33472000  0.06377000  0.21141000  1.0
  O  O99  1  0.86172000  0.06949000  0.92115000  1.0
  O  O100  1  0.13828000  0.93050000  0.07884000  1.0
  O  O101  1  0.78215000  0.94398000  0.07674000  1.0
  O  O102  1  0.21786000  0.05603000  0.92326000  1.0
  O  O103  1  0.60648000  0.03179000  0.09225000  1.0
  O  O104  1  0.39352000  0.96820000  0.90775000  1.0
  O  O105  1  0.94215000  0.82251000  0.85500000  1.0
  O  O106  1  0.05786000  0.17750000  0.14500000  1.0
  O  O107  1  0.68989000  0.72918000  0.84193000  1.0
  O  O108  1  0.31011000  0.27082000  0.15806000  1.0
