# generated using pymatgen
data_NaH17(C2O)9
_symmetry_space_group_name_H-M   'P 1'
_cell_length_a   7.67249000
_cell_length_b   10.66930000
_cell_length_c   12.99430663
_cell_angle_alpha   107.55251907
_cell_angle_beta   107.12262063
_cell_angle_gamma   90.08580000
_symmetry_Int_Tables_number   1
_chemical_formula_structural   NaH17(C2O)9
_chemical_formula_sum   'Na2 H34 C36 O18'
_cell_volume   964.46750784
_cell_formula_units_Z   2
loop_
 _symmetry_equiv_pos_site_id
 _symmetry_equiv_pos_as_xyz
  1  'x, y, z'
loop_
 _atom_site_type_symbol
 _atom_site_label
 _atom_site_symmetry_multiplicity
 _atom_site_fract_x
 _atom_site_fract_y
 _atom_site_fract_z
 _atom_site_occupancy
  Na  Na0  1  0.92575000  0.74980000  0.99973000  1.0
  Na  Na1  1  0.07425000  0.25019000  0.00026000  1.0
  H  H2  1  0.00000000  0.50000000  0.00000000  1.0
  H  H3  1  0.00000000  0.00000000  0.00001000  1.0
  H  H4  1  0.63591000  0.14930000  0.16162000  1.0
  H  H5  1  0.47354000  0.35070000  0.83835000  1.0
  H  H6  1  0.36409000  0.85070000  0.83838000  1.0
  H  H7  1  0.52645000  0.64930000  0.16166000  1.0
  H  H8  1  0.78908000  0.18641000  0.30345000  1.0
  H  H9  1  0.48564000  0.31380000  0.69664000  1.0
  H  H10  1  0.21091000  0.81359000  0.69655000  1.0
  H  H11  1  0.51436000  0.68620000  0.30338000  1.0
  H  H12  1  0.87795000  0.17701000  0.18976000  1.0
  H  H13  1  0.68770000  0.32310000  0.81048000  1.0
  H  H14  1  0.12205000  0.82300000  0.81025000  1.0
  H  H15  1  0.31230000  0.67691000  0.18954000  1.0
  H  H16  1  0.59406000  0.80335000  0.06192000  1.0
  H  H17  1  0.53131000  0.69742000  0.93788000  1.0
  H  H18  1  0.40593000  0.19665000  0.93808000  1.0
  H  H19  1  0.46869000  0.30258000  0.06212000  1.0
  H  H20  1  0.01507000  0.79091000  0.23636000  1.0
  H  H21  1  0.77795000  0.70957000  0.76374000  1.0
  H  H22  1  0.98493000  0.20909000  0.76363000  1.0
  H  H23  1  0.22206000  0.29043000  0.23626000  1.0
  H  H24  1  0.83799000  0.60206000  0.50067000  1.0
  H  H25  1  0.33789000  0.89820000  0.49940000  1.0
  H  H26  1  0.16202000  0.39793000  0.49933000  1.0
  H  H27  1  0.66211000  0.10180000  0.50061000  1.0
  H  H28  1  0.95284000  0.93978000  0.40506000  1.0
  H  H29  1  0.54749000  0.56063000  0.59486000  1.0
  H  H30  1  0.04716000  0.06023000  0.59493000  1.0
  H  H31  1  0.45252000  0.43937000  0.40514000  1.0
  H  H32  1  0.86658000  0.84584000  0.54112000  1.0
  H  H33  1  0.32588000  0.65441000  0.45866000  1.0
  H  H34  1  0.13343000  0.15417000  0.45888000  1.0
  H  H35  1  0.67413000  0.34559000  0.54134000  1.0
  C  C36  1  0.95725000  0.61148000  0.26914000  1.0
  C  C37  1  0.68781000  0.88900000  0.73102000  1.0
  C  C38  1  0.04275000  0.38851000  0.73084000  1.0
  C  C39  1  0.31219000  0.11100000  0.26898000  1.0
  C  C40  1  0.90690000  0.56167000  0.34636000  1.0
  C  C41  1  0.56054000  0.93875000  0.65383000  1.0
  C  C42  1  0.09311000  0.43833000  0.65363000  1.0
  C  C43  1  0.43944000  0.06125000  0.34617000  1.0
  C  C44  1  0.87642000  0.64502000  0.44348000  1.0
  C  C45  1  0.43328000  0.85530000  0.55657000  1.0
  C  C46  1  0.12358000  0.35497000  0.55651000  1.0
  C  C47  1  0.56671000  0.14469000  0.44343000  1.0
  C  C48  1  0.89380000  0.78154000  0.46567000  1.0
  C  C49  1  0.42830000  0.71877000  0.53426000  1.0
  C  C50  1  0.10622000  0.21846000  0.53433000  1.0
  C  C51  1  0.57170000  0.28123000  0.46574000  1.0
  C  C52  1  0.94219000  0.83349000  0.39015000  1.0
  C  C53  1  0.55186000  0.66691000  0.60981000  1.0
  C  C54  1  0.05780000  0.16651000  0.60983000  1.0
  C  C55  1  0.44814000  0.33309000  0.39019000  1.0
  C  C56  1  0.97451000  0.74931000  0.29373000  1.0
  C  C57  1  0.68034000  0.75116000  0.70635000  1.0
  C  C58  1  0.02549000  0.25068000  0.70625000  1.0
  C  C59  1  0.31966000  0.24884000  0.29365000  1.0
  C  C60  1  0.99010000  0.52396000  0.16344000  1.0
  C  C61  1  0.82617000  0.97651000  0.83688000  1.0
  C  C62  1  0.00992000  0.47602000  0.83655000  1.0
  C  C63  1  0.17383000  0.02347000  0.16312000  1.0
  C  C64  1  0.75068000  0.35031000  0.23929000  1.0
  C  C65  1  0.51023000  0.14973000  0.76052000  1.0
  C  C66  1  0.24934000  0.64968000  0.76071000  1.0
  C  C67  1  0.48975000  0.85027000  0.23948000  1.0
  C  C68  1  0.76240000  0.20651000  0.22257000  1.0
  C  C69  1  0.53931000  0.29361000  0.77751000  1.0
  C  C70  1  0.23759000  0.79349000  0.77743000  1.0
  C  C71  1  0.46068000  0.70639000  0.22250000  1.0
  O  O72  1  0.99376000  0.58081000  0.08791000  1.0
  O  O73  1  0.90637000  0.91925000  0.91181000  1.0
  O  O74  1  0.00624000  0.41920000  0.91208000  1.0
  O  O75  1  0.09362000  0.08076000  0.08820000  1.0
  O  O76  1  0.01341000  0.40496000  0.15026000  1.0
  O  O77  1  0.86168000  0.09594000  0.85076000  1.0
  O  O78  1  0.98661000  0.59505000  0.84974000  1.0
  O  O79  1  0.13832000  0.90407000  0.14924000  1.0
  O  O80  1  0.88866000  0.42629000  0.33153000  1.0
  O  O81  1  0.55741000  0.07412000  0.66878000  1.0
  O  O82  1  0.11133000  0.57371000  0.66846000  1.0
  O  O83  1  0.44258000  0.92589000  0.33123000  1.0
  O  O84  1  0.63480000  0.40081000  0.18142000  1.0
  O  O85  1  0.45069000  0.09891000  0.81773000  1.0
  O  O86  1  0.36519000  0.59920000  0.81857000  1.0
  O  O87  1  0.54932000  0.90109000  0.18229000  1.0
  O  O88  1  0.63780000  0.75073000  0.99954000  1.0
  O  O89  1  0.36220000  0.24927000  0.00046000  1.0
