# generated using pymatgen
data_CdH15C13N5Cl2
_symmetry_space_group_name_H-M   'P 1'
_cell_length_a   9.17164000
_cell_length_b   9.35546000
_cell_length_c   18.57360000
_cell_angle_alpha   90.00000000
_cell_angle_beta   90.00000000
_cell_angle_gamma   107.81900000
_symmetry_Int_Tables_number   1
_chemical_formula_structural   CdH15C13N5Cl2
_chemical_formula_sum   'Cd4 H60 C52 N20 Cl8'
_cell_volume   1517.25277788
_cell_formula_units_Z   4
loop_
 _symmetry_equiv_pos_site_id
 _symmetry_equiv_pos_as_xyz
  1  'x, y, z'
loop_
 _atom_site_type_symbol
 _atom_site_label
 _atom_site_symmetry_multiplicity
 _atom_site_fract_x
 _atom_site_fract_y
 _atom_site_fract_z
 _atom_site_occupancy
  Cd  Cd0  1  0.59811000  0.76726000  0.71292000  1.0
  Cd  Cd1  1  0.90189000  0.23274000  0.21292000  1.0
  Cd  Cd2  1  0.40189000  0.23274000  0.28708000  1.0
  Cd  Cd3  1  0.09811000  0.76726000  0.78708000  1.0
  H  H4  1  0.32831000  0.76392000  0.58906000  1.0
  H  H5  1  0.17169000  0.23608000  0.08906000  1.0
  H  H6  1  0.67169000  0.23608000  0.41094000  1.0
  H  H7  1  0.82831000  0.76392000  0.91094000  1.0
  H  H8  1  0.14936000  0.69463000  0.48411000  1.0
  H  H9  1  0.35064000  0.30537000  0.98411000  1.0
  H  H10  1  0.85064000  0.30537000  0.51589000  1.0
  H  H11  1  0.64936000  0.69463000  0.01589000  1.0
  H  H12  1  0.10486000  0.45209000  0.42151000  1.0
  H  H13  1  0.39515000  0.54791000  0.92151000  1.0
  H  H14  1  0.89515000  0.54791000  0.57849000  1.0
  H  H15  1  0.60485000  0.45209000  0.07849000  1.0
  H  H16  1  0.22989000  0.26430000  0.46237000  1.0
  H  H17  1  0.27011000  0.73570000  0.96237000  1.0
  H  H18  1  0.77011000  0.73570000  0.53763000  1.0
  H  H19  1  0.72989000  0.26430000  0.03763000  1.0
  H  H20  1  0.44578000  0.16409000  0.51959000  1.0
  H  H21  1  0.05422000  0.83591000  0.01959000  1.0
  H  H22  1  0.55422000  0.83590000  0.48042000  1.0
  H  H23  1  0.94578000  0.16409000  0.98042000  1.0
  H  H24  1  0.55342000  0.18609000  0.60155000  1.0
  H  H25  1  0.94658000  0.81391000  0.10155000  1.0
  H  H26  1  0.44658000  0.81391000  0.39846000  1.0
  H  H27  1  0.05342000  0.18609000  0.89845000  1.0
  H  H28  1  0.17641000  0.00854000  0.51622000  1.0
  H  H29  1  0.32359000  0.99146000  0.01622000  1.0
  H  H30  1  0.82359000  0.99146000  0.48378000  1.0
  H  H31  1  0.67641000  0.00854000  0.98378000  1.0
  H  H32  1  0.98700000  0.81711000  0.61776000  1.0
  H  H33  1  0.51300000  0.18289000  0.11776000  1.0
  H  H34  1  0.01300000  0.18289000  0.38224000  1.0
  H  H35  1  0.48700000  0.81711000  0.88224000  1.0
  H  H36  1  0.53242000  0.13971000  0.71541000  1.0
  H  H37  1  0.96758000  0.86029000  0.21541000  1.0
  H  H38  1  0.46758000  0.86029000  0.28459000  1.0
  H  H39  1  0.03242000  0.13971000  0.78459000  1.0
  H  H40  1  0.41671000  0.01139000  0.77713000  1.0
  H  H41  1  0.08328000  0.98861000  0.27713000  1.0
  H  H42  1  0.58328000  0.98862000  0.22287000  1.0
  H  H43  1  0.91671000  0.01139000  0.72287000  1.0
  H  H44  1  0.36768000  0.31463000  0.74249000  1.0
  H  H45  1  0.13232000  0.68536000  0.24249000  1.0
  H  H46  1  0.63232000  0.68537000  0.25751000  1.0
  H  H47  1  0.86768000  0.31464000  0.75751000  1.0
  H  H48  1  0.27838000  0.18585000  0.81080000  1.0
  H  H49  1  0.22162000  0.81415000  0.31080000  1.0
  H  H50  1  0.72162000  0.81415000  0.18920000  1.0
  H  H51  1  0.77838000  0.18585000  0.68920000  1.0
  H  H52  1  0.49487000  0.39972000  0.86007000  1.0
  H  H53  1  0.00513000  0.60028000  0.36007000  1.0
  H  H54  1  0.50513000  0.60028000  0.13993000  1.0
  H  H55  1  0.99487000  0.39972000  0.63993000  1.0
  H  H56  1  0.62426000  0.35271000  0.80120000  1.0
  H  H57  1  0.87574000  0.64729000  0.30120000  1.0
  H  H58  1  0.37575000  0.64729000  0.19880000  1.0
  H  H59  1  0.12426000  0.35271000  0.69880000  1.0
  H  H60  1  0.53333000  0.22598000  0.87113000  1.0
  H  H61  1  0.96667000  0.77401000  0.37113000  1.0
  H  H62  1  0.46666000  0.77401000  0.12887000  1.0
  H  H63  1  0.03333000  0.22598000  0.62887000  1.0
  C  C64  1  0.37693000  0.55077000  0.58448000  1.0
  C  C65  1  0.12307000  0.44923000  0.08448000  1.0
  C  C66  1  0.62307000  0.44923000  0.41552000  1.0
  C  C67  1  0.87693000  0.55077000  0.91552000  1.0
  C  C68  1  0.30480000  0.65575000  0.56238000  1.0
  C  C69  1  0.19520000  0.34425000  0.06238000  1.0
  C  C70  1  0.69520000  0.34425000  0.43762000  1.0
  C  C71  1  0.80480000  0.65575000  0.93762000  1.0
  C  C72  1  0.20594000  0.61573000  0.50414000  1.0
  C  C73  1  0.29407000  0.38427000  0.00414000  1.0
  C  C74  1  0.79407000  0.38427000  0.49586000  1.0
  C  C75  1  0.70594000  0.61573000  0.99586000  1.0
  C  C76  1  0.17874000  0.47595000  0.46876000  1.0
  C  C77  1  0.32127000  0.52405000  0.96876000  1.0
  C  C78  1  0.82127000  0.52405000  0.53124000  1.0
  C  C79  1  0.67873000  0.47595000  0.03124000  1.0
  C  C80  1  0.24663000  0.36975000  0.49103000  1.0
  C  C81  1  0.25337000  0.63025000  0.99103000  1.0
  C  C82  1  0.75337000  0.63025000  0.50897000  1.0
  C  C83  1  0.74663000  0.36975000  0.00897000  1.0
  C  C84  1  0.34589000  0.41021000  0.55000000  1.0
  C  C85  1  0.15411000  0.58979000  0.05000000  1.0
  C  C86  1  0.65412000  0.58979000  0.45000000  1.0
  C  C87  1  0.84588000  0.41021000  0.95000000  1.0
  C  C88  1  0.44606000  0.19026000  0.57726000  1.0
  C  C89  1  0.05394000  0.80973000  0.07726000  1.0
  C  C90  1  0.55394000  0.80973000  0.42274000  1.0
  C  C91  1  0.94606000  0.19027000  0.92274000  1.0
  C  C92  1  0.18734000  0.99552000  0.57380000  1.0
  C  C93  1  0.31266000  0.00448000  0.07380000  1.0
  C  C94  1  0.81266000  0.00448000  0.42620000  1.0
  C  C95  1  0.68734000  0.99552000  0.92620000  1.0
  C  C96  1  0.09782000  0.90092000  0.62364000  1.0
  C  C97  1  0.40218000  0.09908000  0.12364000  1.0
  C  C98  1  0.90218000  0.09908000  0.37636000  1.0
  C  C99  1  0.59782000  0.90092000  0.87636000  1.0
  C  C100  1  0.30408000  0.03434000  0.68133000  1.0
  C  C101  1  0.19592000  0.96566000  0.18133000  1.0
  C  C102  1  0.69592000  0.96566000  0.31867000  1.0
  C  C103  1  0.80408000  0.03434000  0.81867000  1.0
  C  C104  1  0.41689000  0.10102000  0.73886000  1.0
  C  C105  1  0.08311000  0.89898000  0.23886000  1.0
  C  C106  1  0.58311000  0.89898000  0.26114000  1.0
  C  C107  1  0.91689000  0.10102000  0.76114000  1.0
  C  C108  1  0.38513000  0.23116000  0.78023000  1.0
  C  C109  1  0.11487000  0.76884000  0.28023000  1.0
  C  C110  1  0.61487000  0.76884000  0.21977000  1.0
  C  C111  1  0.88513000  0.23117000  0.71977000  1.0
  C  C112  1  0.51670000  0.30615000  0.83109000  1.0
  C  C113  1  0.98330000  0.69385000  0.33109000  1.0
  C  C114  1  0.48330000  0.69385000  0.16891000  1.0
  C  C115  1  0.01670000  0.30615000  0.66891000  1.0
  N  N116  1  0.48524000  0.55695000  0.63699000  1.0
  N  N117  1  0.01476000  0.44305000  0.13699000  1.0
  N  N118  1  0.51476000  0.44305000  0.36301000  1.0
  N  N119  1  0.98523000  0.55695000  0.86301000  1.0
  N  N120  1  0.52007000  0.43203000  0.63765000  1.0
  N  N121  1  0.97993000  0.56797000  0.13765000  1.0
  N  N122  1  0.47993000  0.56797000  0.36235000  1.0
  N  N123  1  0.02007000  0.43203000  0.86235000  1.0
  N  N124  1  0.43725000  0.34143000  0.58565000  1.0
  N  N125  1  0.06275000  0.65857000  0.08564000  1.0
  N  N126  1  0.56275000  0.65856000  0.41436000  1.0
  N  N127  1  0.93725000  0.34143000  0.91436000  1.0
  N  N128  1  0.31739000  0.07888000  0.61057000  1.0
  N  N129  1  0.18261000  0.92112000  0.11057000  1.0
  N  N130  1  0.68261000  0.92112000  0.38943000  1.0
  N  N131  1  0.81738000  0.07888000  0.88943000  1.0
  N  N132  1  0.17124000  0.92538000  0.68967000  1.0
  N  N133  1  0.32876000  0.07462000  0.18967000  1.0
  N  N134  1  0.82877000  0.07462000  0.31033000  1.0
  N  N135  1  0.67124000  0.92538000  0.81033000  1.0
  Cl  Cl136  1  0.65442000  0.94070000  0.60592000  1.0
  Cl  Cl137  1  0.84558000  0.05930000  0.10592000  1.0
  Cl  Cl138  1  0.34558000  0.05930000  0.39408000  1.0
  Cl  Cl139  1  0.15442000  0.94070000  0.89408000  1.0
  Cl  Cl140  1  0.82545000  0.65857000  0.72788000  1.0
  Cl  Cl141  1  0.67455000  0.34143000  0.22788000  1.0
  Cl  Cl142  1  0.17455000  0.34143000  0.27212000  1.0
  Cl  Cl143  1  0.32545000  0.65857000  0.77212000  1.0
