# generated using pymatgen
data_H14RuC19N(OF)4
_symmetry_space_group_name_H-M   'P 1'
_cell_length_a   10.00560000
_cell_length_b   10.26350000
_cell_length_c   10.77790000
_cell_angle_alpha   74.19690000
_cell_angle_beta   71.13070000
_cell_angle_gamma   64.00490000
_symmetry_Int_Tables_number   1
_chemical_formula_structural   H14RuC19N(OF)4
_chemical_formula_sum   'H28 Ru2 C38 N2 O8 F8'
_cell_volume   930.21015324
_cell_formula_units_Z   2
loop_
 _symmetry_equiv_pos_site_id
 _symmetry_equiv_pos_as_xyz
  1  'x, y, z'
loop_
 _atom_site_type_symbol
 _atom_site_label
 _atom_site_symmetry_multiplicity
 _atom_site_fract_x
 _atom_site_fract_y
 _atom_site_fract_z
 _atom_site_occupancy
  H  H0  1  0.20405000  0.61151000  0.81978000  1.0
  H  H1  1  0.79595000  0.38849000  0.18022000  1.0
  H  H2  1  0.42577000  0.67874000  0.67729000  1.0
  H  H3  1  0.57423000  0.32126000  0.32271000  1.0
  H  H4  1  0.66688000  0.48436000  0.57586000  1.0
  H  H5  1  0.33311000  0.51564000  0.42414000  1.0
  H  H6  1  0.77782000  0.27924000  0.79300000  1.0
  H  H7  1  0.22218000  0.72076000  0.20700000  1.0
  H  H8  1  0.01597000  0.27947000  0.81830000  1.0
  H  H9  1  0.98403000  0.72054000  0.18170000  1.0
  H  H10  1  0.08512000  0.18591000  0.03796000  1.0
  H  H11  1  0.91488000  0.81409000  0.96203000  1.0
  H  H12  1  0.41515000  0.05374000  0.41277000  1.0
  H  H13  1  0.58485000  0.94626000  0.58723000  1.0
  H  H14  1  0.41383000  0.21665000  0.44423000  1.0
  H  H15  1  0.58617000  0.78335000  0.55577000  1.0
  H  H16  1  0.30563000  0.11846000  0.56531000  1.0
  H  H17  1  0.69437000  0.88154000  0.43469000  1.0
  H  H18  1  0.34004000  0.14220000  0.22427000  1.0
  H  H19  1  0.65996000  0.85780000  0.77573000  1.0
  H  H20  1  0.16927000  0.29551000  0.20508000  1.0
  H  H21  1  0.83073000  0.70449000  0.79492000  1.0
  H  H22  1  0.33044000  0.32325000  0.21392000  1.0
  H  H23  1  0.66956000  0.67675000  0.78608000  1.0
  H  H24  1  0.97990000  0.44901000  0.29649000  1.0
  H  H25  1  0.02010000  0.55099000  0.70351000  1.0
  H  H26  1  0.79685000  0.67228000  0.38385000  1.0
  H  H27  1  0.20316000  0.32773000  0.61615000  1.0
  Ru  Ru28  1  0.05463000  0.08622000  0.47120000  1.0
  Ru  Ru29  1  0.94537000  0.91378000  0.52880000  1.0
  C  C30  1  0.73067000  0.20045000  0.59709000  1.0
  C  C31  1  0.26933000  0.79954000  0.40291000  1.0
  C  C32  1  0.58283000  0.31192000  0.65605000  1.0
  C  C33  1  0.41718000  0.68807000  0.34396000  1.0
  C  C34  1  0.45694000  0.27750000  0.73510000  1.0
  C  C35  1  0.54306000  0.72250000  0.26490000  1.0
  C  C36  1  0.32413000  0.38638000  0.79320000  1.0
  C  C37  1  0.67587000  0.61361000  0.20680000  1.0
  C  C38  1  0.31048000  0.53018000  0.77344000  1.0
  C  C39  1  0.68952000  0.46981000  0.22656000  1.0
  C  C40  1  0.43477000  0.56586000  0.69416000  1.0
  C  C41  1  0.56523000  0.43413000  0.30584000  1.0
  C  C42  1  0.56869000  0.45832000  0.63712000  1.0
  C  C43  1  0.43131000  0.54168000  0.36289000  1.0
  C  C44  1  0.93271000  0.07704000  0.26443000  1.0
  C  C45  1  0.06728000  0.92296000  0.73556000  1.0
  C  C46  1  0.89099000  0.12691000  0.13439000  1.0
  C  C47  1  0.10901000  0.87310000  0.86560000  1.0
  C  C48  1  0.75902000  0.12498000  0.11753000  1.0
  C  C49  1  0.24098000  0.87503000  0.88246000  1.0
  C  C50  1  0.71924000  0.18076000  0.99544000  1.0
  C  C51  1  0.28076000  0.81925000  0.00456000  1.0
  C  C52  1  0.81007000  0.23714000  0.88769000  1.0
  C  C53  1  0.18993000  0.76287000  0.11230000  1.0
  C  C54  1  0.94314000  0.23764000  0.90309000  1.0
  C  C55  1  0.05686000  0.76236000  0.09691000  1.0
  C  C56  1  0.98243000  0.18450000  0.02489000  1.0
  C  C57  1  0.01757000  0.81550000  0.97511000  1.0
  C  C58  1  0.34435000  0.15233000  0.45905000  1.0
  C  C59  1  0.65566000  0.84767000  0.54095000  1.0
  C  C60  1  0.26582000  0.25112000  0.25152000  1.0
  C  C61  1  0.73418000  0.74888000  0.74848000  1.0
  C  C62  1  0.10880000  0.36971000  0.44764000  1.0
  C  C63  1  0.89120000  0.63029000  0.55236000  1.0
  C  C64  1  0.99192000  0.47083000  0.38476000  1.0
  C  C65  1  0.00808000  0.52917000  0.61524000  1.0
  C  C66  1  0.88545000  0.59788000  0.43607000  1.0
  C  C67  1  0.11455000  0.40212000  0.56393000  1.0
  N  N68  1  0.21302000  0.23592000  0.39771000  1.0
  N  N69  1  0.78698000  0.76408000  0.60229000  1.0
  O  O70  1  0.84452000  0.24023000  0.54615000  1.0
  O  O71  1  0.15548000  0.75977000  0.45385000  1.0
  O  O72  1  0.73834000  0.07156000  0.60160000  1.0
  O  O73  1  0.26166000  0.92844000  0.39840000  1.0
  O  O74  1  0.00316000  0.14303000  0.28794000  1.0
  O  O75  1  0.99684000  0.85697000  0.71206000  1.0
  O  O76  1  0.89642000  0.97403000  0.34483000  1.0
  O  O77  1  0.10358000  0.02597000  0.65517000  1.0
  F  F78  1  0.45823000  0.14054000  0.76085000  1.0
  F  F79  1  0.54177000  0.85945000  0.23916000  1.0
  F  F80  1  0.20546000  0.34806000  0.87164000  1.0
  F  F81  1  0.79454000  0.65194000  0.12836000  1.0
  F  F82  1  0.66293000  0.07504000  0.21941000  1.0
  F  F83  1  0.33707000  0.92497000  0.78058000  1.0
  F  F84  1  0.58829000  0.17900000  0.98479000  1.0
  F  F85  1  0.41171000  0.82100000  0.01521000  1.0
