# generated using pymatgen
data_MoH9C7(NO)3
_symmetry_space_group_name_H-M   'P 1'
_cell_length_a   10.58990000
_cell_length_b   10.58990000
_cell_length_c   10.74513681
_cell_angle_alpha   109.77075781
_cell_angle_beta   109.77075781
_cell_angle_gamma   108.27400000
_symmetry_Int_Tables_number   1
_chemical_formula_structural   MoH9C7(NO)3
_chemical_formula_sum   'Mo4 H36 C28 N12 O12'
_cell_volume   934.25363737
_cell_formula_units_Z   4
loop_
 _symmetry_equiv_pos_site_id
 _symmetry_equiv_pos_as_xyz
  1  'x, y, z'
loop_
 _atom_site_type_symbol
 _atom_site_label
 _atom_site_symmetry_multiplicity
 _atom_site_fract_x
 _atom_site_fract_y
 _atom_site_fract_z
 _atom_site_occupancy
  Mo  Mo0  1  0.18405000  0.18405000  0.66330000  1.0
  Mo  Mo1  1  0.47925000  0.47925000  0.66330000  1.0
  Mo  Mo2  1  0.81595000  0.81595000  0.33670000  1.0
  Mo  Mo3  1  0.52075000  0.52075000  0.33670000  1.0
  H  H4  1  0.12035000  0.86328000  0.32615000  1.0
  H  H5  1  0.20580000  0.46287000  0.32615000  1.0
  H  H6  1  0.13672000  0.87965000  0.67385000  1.0
  H  H7  1  0.53713000  0.79420000  0.67385000  1.0
  H  H8  1  0.87965000  0.13672000  0.67385000  1.0
  H  H9  1  0.79420000  0.53713000  0.67385000  1.0
  H  H10  1  0.86328000  0.12035000  0.32615000  1.0
  H  H11  1  0.46287000  0.20580000  0.32615000  1.0
  H  H12  1  0.10877000  0.68645000  0.14273000  1.0
  H  H13  1  0.03396000  0.45628000  0.14273000  1.0
  H  H14  1  0.31355000  0.89123000  0.85727000  1.0
  H  H15  1  0.54373000  0.96605000  0.85728000  1.0
  H  H16  1  0.89123000  0.31355000  0.85727000  1.0
  H  H17  1  0.96604000  0.54372000  0.85727000  1.0
  H  H18  1  0.68645000  0.10877000  0.14273000  1.0
  H  H19  1  0.45628000  0.03396000  0.14273000  1.0
  H  H20  1  0.30446000  0.73458000  0.24511000  1.0
  H  H21  1  0.94065000  0.51053000  0.24511000  1.0
  H  H22  1  0.26542000  0.69554000  0.75489000  1.0
  H  H23  1  0.48947000  0.05935000  0.75489000  1.0
  H  H24  1  0.69554000  0.26542000  0.75489000  1.0
  H  H25  1  0.05935000  0.48947000  0.75489000  1.0
  H  H26  1  0.73458000  0.30446000  0.24511000  1.0
  H  H27  1  0.51053000  0.94065000  0.24511000  1.0
  H  H28  1  0.16441000  0.49062000  0.00000000  1.0
  H  H29  1  0.83559000  0.50938000  1.00000000  1.0
  H  H30  1  0.50938000  0.83559000  0.00000000  1.0
  H  H31  1  0.49062000  0.16441000  0.00000000  1.0
  H  H32  1  0.43993000  0.66056000  0.10050000  1.0
  H  H33  1  0.66056000  0.43994000  0.10050000  1.0
  H  H34  1  0.33944000  0.56006000  0.89950000  1.0
  H  H35  1  0.56007000  0.33944000  0.89950000  1.0
  H  H36  1  0.03449000  0.82125000  0.00000000  1.0
  H  H37  1  0.96551000  0.17875000  1.00000000  1.0
  H  H38  1  0.17875000  0.96551000  1.00000000  1.0
  H  H39  1  0.82125000  0.03449000  0.00000000  1.0
  C  C40  1  0.21513000  0.97119000  0.36190000  1.0
  C  C41  1  0.14677000  0.39071000  0.36190000  1.0
  C  C42  1  0.02881000  0.78487000  0.63810000  1.0
  C  C43  1  0.60929000  0.85323000  0.63810000  1.0
  C  C44  1  0.78487000  0.02881000  0.63810000  1.0
  C  C45  1  0.85323000  0.60929000  0.63810000  1.0
  C  C46  1  0.97119000  0.21513000  0.36190000  1.0
  C  C47  1  0.39071000  0.14677000  0.36190000  1.0
  C  C48  1  0.26835000  0.87456000  0.14291000  1.0
  C  C49  1  0.87456000  0.26835000  0.14291000  1.0
  C  C50  1  0.12544000  0.73165000  0.85709000  1.0
  C  C51  1  0.73165000  0.12544000  0.85709000  1.0
  C  C52  1  0.21808000  0.72175000  0.14246000  1.0
  C  C53  1  0.92438000  0.42070000  0.14245000  1.0
  C  C54  1  0.27825000  0.78192000  0.85754000  1.0
  C  C55  1  0.57929000  0.07561000  0.85754000  1.0
  C  C56  1  0.78192000  0.27825000  0.85754000  1.0
  C  C57  1  0.07562000  0.57930000  0.85755000  1.0
  C  C58  1  0.72175000  0.21808000  0.14246000  1.0
  C  C59  1  0.42070000  0.92438000  0.14245000  1.0
  C  C60  1  0.19944000  0.59967000  0.00000000  1.0
  C  C61  1  0.80056000  0.40033000  0.00000000  1.0
  C  C62  1  0.40033000  0.80056000  0.00000000  1.0
  C  C63  1  0.59967000  0.19944000  0.00000000  1.0
  C  C64  1  0.35157000  0.64843000  1.00000000  1.0
  C  C65  1  0.64843000  0.35157000  1.00000000  1.0
  C  C66  1  0.14404000  0.85596000  0.00000000  1.0
  C  C67  1  0.85596000  0.14404000  0.00000000  1.0
  N  N68  1  0.26887000  0.10347000  0.48278000  1.0
  N  N69  1  0.21391000  0.37931000  0.48278000  1.0
  N  N70  1  0.89653000  0.73113000  0.51722000  1.0
  N  N71  1  0.62069000  0.78609000  0.51722000  1.0
  N  N72  1  0.73113000  0.89653000  0.51722000  1.0
  N  N73  1  0.78609000  0.62069000  0.51722000  1.0
  N  N74  1  0.10347000  0.26887000  0.48278000  1.0
  N  N75  1  0.37931000  0.21391000  0.48278000  1.0
  N  N76  1  0.28953000  0.99342000  0.28295000  1.0
  N  N77  1  0.99342000  0.28953000  0.28295000  1.0
  N  N78  1  0.00659000  0.71048000  0.71706000  1.0
  N  N79  1  0.71048000  0.00659000  0.71706000  1.0
  O  O80  1  0.36388000  0.36388000  0.72776000  1.0
  O  O81  1  0.63612000  0.63612000  0.27224000  1.0
  O  O82  1  0.00000000  0.00000000  0.50000000  1.0
  O  O83  1  0.50000000  0.50000000  0.50000000  1.0
  O  O84  1  0.26653000  0.10567000  0.76144000  1.0
  O  O85  1  0.49491000  0.65577000  0.76144000  1.0
  O  O86  1  0.89433000  0.73347000  0.23856000  1.0
  O  O87  1  0.34424000  0.50509000  0.23856000  1.0
  O  O88  1  0.73347000  0.89433000  0.23856000  1.0
  O  O89  1  0.50509000  0.34424000  0.23856000  1.0
  O  O90  1  0.10567000  0.26653000  0.76144000  1.0
  O  O91  1  0.65577000  0.49491000  0.76144000  1.0
