# generated using pymatgen
data_NiH13C20N3O4
_symmetry_space_group_name_H-M   'P 1'
_cell_length_a   8.80006000
_cell_length_b   9.98369000
_cell_length_c   15.36880000
_cell_angle_alpha   87.89180000
_cell_angle_beta   89.45090000
_cell_angle_gamma   73.59680000
_symmetry_Int_Tables_number   1
_chemical_formula_structural   NiH13C20N3O4
_chemical_formula_sum   'Ni2 H26 C40 N6 O8'
_cell_volume   1294.42264369
_cell_formula_units_Z   2
loop_
 _symmetry_equiv_pos_site_id
 _symmetry_equiv_pos_as_xyz
  1  'x, y, z'
loop_
 _atom_site_type_symbol
 _atom_site_label
 _atom_site_symmetry_multiplicity
 _atom_site_fract_x
 _atom_site_fract_y
 _atom_site_fract_z
 _atom_site_occupancy
  Ni  Ni0  1  0.94573000  0.92154000  0.64395000  1.0
  Ni  Ni1  1  0.05427000  0.07846000  0.35605000  1.0
  H  H2  1  0.61792000  0.00895000  0.70693000  1.0
  H  H3  1  0.38207000  0.99106000  0.29308000  1.0
  H  H4  1  0.38423000  0.22173000  0.71066000  1.0
  H  H5  1  0.61576000  0.77828000  0.28934000  1.0
  H  H6  1  0.67993000  0.45390000  0.58736000  1.0
  H  H7  1  0.32006000  0.54611000  0.41263000  1.0
  H  H8  1  0.89233000  0.22674000  0.57821000  1.0
  H  H9  1  0.10766000  0.77326000  0.42179000  1.0
  H  H10  1  0.00226000  0.62826000  0.57742000  1.0
  H  H11  1  0.99774000  0.37174000  0.42258000  1.0
  H  H12  1  0.22276000  0.40765000  0.57081000  1.0
  H  H13  1  0.77724000  0.59234000  0.42920000  1.0
  H  H14  1  0.50137000  0.60114000  0.72732000  1.0
  H  H15  1  0.49864000  0.39885000  0.27268000  1.0
  H  H16  1  0.26863000  0.81418000  0.72711000  1.0
  H  H17  1  0.73138000  0.18581000  0.27289000  1.0
  H  H18  1  0.86924000  0.78984000  0.80744000  1.0
  H  H19  1  0.13077000  0.21016000  0.19257000  1.0
  H  H20  1  0.88353000  0.81923000  0.96694000  1.0
  H  H21  1  0.11646000  0.18077000  0.03306000  1.0
  H  H22  1  0.10003000  0.15121000  0.90658000  1.0
  H  H23  1  0.89998000  0.84879000  0.09343000  1.0
  H  H24  1  0.07494000  0.10622000  0.75046000  1.0
  H  H25  1  0.92507000  0.89378000  0.24955000  1.0
  H  H26  1  0.40925000  0.85889000  0.61307000  1.0
  H  H27  1  0.59076000  0.14112000  0.38693000  1.0
  C  C28  1  0.62451000  0.10983000  0.68039000  1.0
  C  C29  1  0.37549000  0.89018000  0.31960000  1.0
  C  C30  1  0.49616000  0.22854000  0.68252000  1.0
  C  C31  1  0.50384000  0.77147000  0.31748000  1.0
  C  C32  1  0.51279000  0.35598000  0.64884000  1.0
  C  C33  1  0.48721000  0.64402000  0.35115000  1.0
  C  C34  1  0.65951000  0.35715000  0.61322000  1.0
  C  C35  1  0.34048000  0.64285000  0.38677000  1.0
  C  C36  1  0.77984000  0.23213000  0.61013000  1.0
  C  C37  1  0.22014000  0.76787000  0.38986000  1.0
  C  C38  1  0.11427000  0.61803000  0.61016000  1.0
  C  C39  1  0.88573000  0.38197000  0.38984000  1.0
  C  C40  1  0.23606000  0.49376000  0.60878000  1.0
  C  C41  1  0.76394000  0.50624000  0.39122000  1.0
  C  C42  1  0.37924000  0.48485000  0.65078000  1.0
  C  C43  1  0.62076000  0.51515000  0.34921000  1.0
  C  C44  1  0.39194000  0.60211000  0.69432000  1.0
  C  C45  1  0.60807000  0.39789000  0.30568000  1.0
  C  C46  1  0.26324000  0.72102000  0.69396000  1.0
  C  C47  1  0.73677000  0.27898000  0.30603000  1.0
  C  C48  1  0.91944000  0.86831000  0.83355000  1.0
  C  C49  1  0.08056000  0.13170000  0.16646000  1.0
  C  C50  1  0.92828000  0.88639000  0.92235000  1.0
  C  C51  1  0.07171000  0.11361000  0.07766000  1.0
  C  C52  1  0.99390000  0.98897000  0.95301000  1.0
  C  C53  1  0.00610000  0.01103000  0.04700000  1.0
  C  C54  1  0.04734000  0.06948000  0.88915000  1.0
  C  C55  1  0.95267000  0.93052000  0.11085000  1.0
  C  C56  1  0.03372000  0.04616000  0.80150000  1.0
  C  C57  1  0.96629000  0.95384000  0.19851000  1.0
  C  C58  1  0.72139000  0.77055000  0.59770000  1.0
  C  C59  1  0.27860000  0.22943000  0.40230000  1.0
  C  C60  1  0.61216000  0.88966000  0.54504000  1.0
  C  C61  1  0.38785000  0.11033000  0.45495000  1.0
  C  C62  1  0.45061000  0.92076000  0.56346000  1.0
  C  C63  1  0.54940000  0.07924000  0.43654000  1.0
  C  C64  1  0.66218000  0.97074000  0.47994000  1.0
  C  C65  1  0.33783000  0.02926000  0.52006000  1.0
  C  C66  1  0.83347000  0.94598000  0.45728000  1.0
  C  C67  1  0.16654000  0.05402000  0.54271000  1.0
  N  N68  1  0.76388000  0.10999000  0.64329000  1.0
  N  N69  1  0.23612000  0.89001000  0.35671000  1.0
  N  N70  1  0.12716000  0.73056000  0.65184000  1.0
  N  N71  1  0.87284000  0.26944000  0.34816000  1.0
  N  N72  1  0.97118000  0.94687000  0.77361000  1.0
  N  N73  1  0.02882000  0.05313000  0.22640000  1.0
  O  O74  1  0.78817000  0.80198000  0.66571000  1.0
  O  O75  1  0.21181000  0.19801000  0.33429000  1.0
  O  O76  1  0.73260000  0.64885000  0.57555000  1.0
  O  O77  1  0.26739000  0.35115000  0.42444000  1.0
  O  O78  1  0.93802000  0.88549000  0.51356000  1.0
  O  O79  1  0.06199000  0.11449000  0.48643000  1.0
  O  O80  1  0.86729000  0.98538000  0.38120000  1.0
  O  O81  1  0.13272000  0.01465000  0.61879000  1.0
