# generated using pymatgen
data_ZnH5C6(NO)3
_symmetry_space_group_name_H-M   'P 1'
_cell_length_a   10.12450000
_cell_length_b   15.75570000
_cell_length_c   15.75560000
_cell_angle_alpha   115.56000000
_cell_angle_beta   102.35600000
_cell_angle_gamma   102.35700000
_symmetry_Int_Tables_number   1
_chemical_formula_structural   ZnH5C6(NO)3
_chemical_formula_sum   'Zn6 H30 C36 N18 O18'
_cell_volume   2076.70587540
_cell_formula_units_Z   6
loop_
 _symmetry_equiv_pos_site_id
 _symmetry_equiv_pos_as_xyz
  1  'x, y, z'
loop_
 _atom_site_type_symbol
 _atom_site_label
 _atom_site_symmetry_multiplicity
 _atom_site_fract_x
 _atom_site_fract_y
 _atom_site_fract_z
 _atom_site_occupancy
  Zn  Zn0  1  0.19134000  0.62043000  0.32290000  1.0
  Zn  Zn1  1  0.86860000  0.67725000  0.29766000  1.0
  Zn  Zn2  1  0.57099000  0.70237000  0.37966000  1.0
  Zn  Zn3  1  0.07099000  0.37966000  0.70237000  1.0
  Zn  Zn4  1  0.69135000  0.32290000  0.62043000  1.0
  Zn  Zn5  1  0.36860000  0.29766000  0.67725000  1.0
  H  H6  1  0.09385000  0.30787000  0.96930000  1.0
  H  H7  1  0.12466000  0.03073000  0.33853000  1.0
  H  H8  1  0.78613000  0.66150000  0.69222000  1.0
  H  H9  1  0.28613000  0.69223000  0.66150000  1.0
  H  H10  1  0.59385000  0.96930000  0.30787000  1.0
  H  H11  1  0.62465000  0.33854000  0.03073000  1.0
  H  H12  1  0.04617000  0.15948000  0.81821000  1.0
  H  H13  1  0.22819000  0.18175000  0.34117000  1.0
  H  H14  1  0.88682000  0.65898000  0.84070000  1.0
  H  H15  1  0.38682000  0.84070000  0.65898000  1.0
  H  H16  1  0.54617000  0.81821000  0.15948000  1.0
  H  H17  1  0.72819000  0.34117000  0.18175000  1.0
  H  H18  1  0.23391000  0.17731000  0.84919000  1.0
  H  H19  1  0.38482000  0.15055000  0.32794000  1.0
  H  H20  1  0.05674000  0.67206000  0.82279000  1.0
  H  H21  1  0.55674000  0.82279000  0.67206000  1.0
  H  H22  1  0.73391000  0.84918000  0.17730000  1.0
  H  H23  1  0.88481000  0.32793000  0.15055000  1.0
  H  H24  1  0.11079000  0.41829000  0.12432000  1.0
  H  H25  1  0.98640000  0.87564000  0.29362000  1.0
  H  H26  1  0.69249000  0.70586000  0.58183000  1.0
  H  H27  1  0.19248000  0.58182000  0.70586000  1.0
  H  H28  1  0.61080000  0.12432000  0.41829000  1.0
  H  H29  1  0.48640000  0.29362000  0.87564000  1.0
  H  H30  1  0.57245000  0.51205000  0.18583000  1.0
  H  H31  1  0.38655000  0.81408000  0.32626000  1.0
  H  H32  1  0.06040000  0.67382000  0.48794000  1.0
  H  H33  1  0.56040000  0.48794000  0.67382000  1.0
  H  H34  1  0.07246000  0.18583000  0.51204000  1.0
  H  H35  1  0.88656000  0.32626000  0.81409000  1.0
  C  C36  1  0.33320000  0.42735000  0.11637000  1.0
  C  C37  1  0.21675000  0.88352000  0.31080000  1.0
  C  C38  1  0.90586000  0.68897000  0.57268000  1.0
  C  C39  1  0.40586000  0.57268000  0.68897000  1.0
  C  C40  1  0.83321000  0.11637000  0.42735000  1.0
  C  C41  1  0.71674000  0.31080000  0.88353000  1.0
  C  C42  1  0.31630000  0.34328000  0.01982000  1.0
  C  C43  1  0.29644000  0.98002000  0.32326000  1.0
  C  C44  1  0.97318000  0.67671000  0.65682000  1.0
  C  C45  1  0.47319000  0.65683000  0.67671000  1.0
  C  C46  1  0.81630000  0.01983000  0.34328000  1.0
  C  C47  1  0.79643000  0.32326000  0.98003000  1.0
  C  C48  1  0.15520000  0.21557000  0.85117000  1.0
  C  C49  1  0.30417000  0.14871000  0.36427000  1.0
  C  C50  1  0.93978000  0.63584000  0.78458000  1.0
  C  C51  1  0.43979000  0.78458000  0.63584000  1.0
  C  C52  1  0.65520000  0.85117000  0.21557000  1.0
  C  C53  1  0.80417000  0.36427000  0.14871000  1.0
  C  C54  1  0.22733000  0.45542000  0.15534000  1.0
  C  C55  1  0.07190000  0.84461000  0.29983000  1.0
  C  C56  1  0.77185000  0.69975000  0.54464000  1.0
  C  C57  1  0.27185000  0.54464000  0.69974000  1.0
  C  C58  1  0.72733000  0.15534000  0.45541000  1.0
  C  C59  1  0.57190000  0.29983000  0.84461000  1.0
  C  C60  1  0.16546000  0.26472000  0.78605000  1.0
  C  C61  1  0.37963000  0.21389000  0.47852000  1.0
  C  C62  1  0.90090000  0.52156000  0.73542000  1.0
  C  C63  1  0.40090000  0.73542000  0.52155000  1.0
  C  C64  1  0.66546000  0.78605000  0.26472000  1.0
  C  C65  1  0.87963000  0.47852000  0.21389000  1.0
  C  C66  1  0.46379000  0.50368000  0.18743000  1.0
  C  C67  1  0.27631000  0.81253000  0.31629000  1.0
  C  C68  1  0.96008000  0.68371000  0.49632000  1.0
  C  C69  1  0.46008000  0.49632000  0.68371000  1.0
  C  C70  1  0.96380000  0.18743000  0.50368000  1.0
  C  C71  1  0.77631000  0.31629000  0.81254000  1.0
  N  N72  1  0.29088000  0.54186000  0.24285000  1.0
  N  N73  1  0.04798000  0.75719000  0.29895000  1.0
  N  N74  1  0.74891000  0.70079000  0.45818000  1.0
  N  N75  1  0.24891000  0.45818000  0.70079000  1.0
  N  N76  1  0.79089000  0.24285000  0.54186000  1.0
  N  N77  1  0.54798000  0.29895000  0.75719000  1.0
  N  N78  1  0.17941000  0.28774000  0.95366000  1.0
  N  N79  1  0.22580000  0.04627000  0.33396000  1.0
  N  N80  1  0.89186000  0.66611000  0.71240000  1.0
  N  N81  1  0.39185000  0.71240000  0.66611000  1.0
  N  N82  1  0.67942000  0.95366000  0.28774000  1.0
  N  N83  1  0.72579000  0.33396000  0.04627000  1.0
  N  N84  1  0.43682000  0.57217000  0.26286000  1.0
  N  N85  1  0.17392000  0.73719000  0.30940000  1.0
  N  N86  1  0.86457000  0.69058000  0.42785000  1.0
  N  N87  1  0.36457000  0.42785000  0.69058000  1.0
  N  N88  1  0.93682000  0.26286000  0.57217000  1.0
  N  N89  1  0.67393000  0.30941000  0.73719000  1.0
  O  O90  1  0.22685000  0.23378000  0.72202000  1.0
  O  O91  1  0.50502000  0.27781000  0.51149000  1.0
  O  O92  1  0.99336000  0.48851000  0.76622000  1.0
  O  O93  1  0.49337000  0.76622000  0.48851000  1.0
  O  O94  1  0.72685000  0.72202000  0.23378000  1.0
  O  O95  1  0.00502000  0.51148000  0.27781000  1.0
  O  O96  1  0.42312000  0.32473000  0.99840000  1.0
  O  O97  1  0.42465000  0.00137000  0.32613000  1.0
  O  O98  1  0.09861000  0.67396000  0.67541000  1.0
  O  O99  1  0.59860000  0.67542000  0.67396000  1.0
  O  O100  1  0.92312000  0.99840000  0.32473000  1.0
  O  O101  1  0.92464000  0.32612000  0.00138000  1.0
  O  O102  1  0.10854000  0.33215000  0.80032000  1.0
  O  O103  1  0.30849000  0.19982000  0.53176000  1.0
  O  O104  1  0.77648000  0.46840000  0.66816000  1.0
  O  O105  1  0.27648000  0.66817000  0.46840000  1.0
  O  O106  1  0.60854000  0.80032000  0.33215000  1.0
  O  O107  1  0.80848000  0.53176000  0.19982000  1.0
