# generated using pymatgen
data_Al2H10C14IO10
_symmetry_space_group_name_H-M   'P 1'
_cell_length_a   6.67776000
_cell_length_b   13.73310000
_cell_length_c   16.45390000
_cell_angle_alpha   90.65700000
_cell_angle_beta   89.58510000
_cell_angle_gamma   89.92190000
_symmetry_Int_Tables_number   1
_chemical_formula_structural   Al2H10C14IO10
_chemical_formula_sum   'Al4 H20 C28 I2 O20'
_cell_volume   1508.78670508
_cell_formula_units_Z   2
loop_
 _symmetry_equiv_pos_site_id
 _symmetry_equiv_pos_as_xyz
  1  'x, y, z'
loop_
 _atom_site_type_symbol
 _atom_site_label
 _atom_site_symmetry_multiplicity
 _atom_site_fract_x
 _atom_site_fract_y
 _atom_site_fract_z
 _atom_site_occupancy
  Al  Al0  1  0.86421000  0.50006000  0.50140000  1.0
  Al  Al1  1  0.36447000  0.50185000  0.49970000  1.0
  Al  Al2  1  0.39988000  0.00963000  0.00574000  1.0
  Al  Al3  1  0.89989000  0.00888000  0.00836000  1.0
  H  H4  1  0.77874000  0.27576000  0.29790000  1.0
  H  H5  1  0.98698000  0.09429000  0.29141000  1.0
  H  H6  1  0.32107000  0.18678000  0.36817000  1.0
  H  H7  1  0.47985000  0.23050000  0.21064000  1.0
  H  H8  1  0.27138000  0.41050000  0.21742000  1.0
  H  H9  1  0.82059000  0.30261000  0.69919000  1.0
  H  H10  1  0.28050000  0.31558000  0.70787000  1.0
  H  H11  1  0.84031000  0.20797000  0.82616000  1.0
  H  H12  1  0.29507000  0.19540000  0.79437000  1.0
  H  H13  1  0.93735000  0.79409000  0.18728000  1.0
  H  H14  1  0.48600000  0.82632000  0.21770000  1.0
  H  H15  1  0.92742000  0.69827000  0.31513000  1.0
  H  H16  1  0.47136000  0.68893000  0.28892000  1.0
  H  H17  1  0.52116000  0.77879000  0.82298000  1.0
  H  H18  1  0.92392000  0.69557000  0.68503000  1.0
  H  H19  1  0.46763000  0.73210000  0.68749000  1.0
  H  H20  1  0.61232000  0.37238000  0.49552000  1.0
  H  H21  1  0.11212000  0.62905000  0.50945000  1.0
  H  H22  1  0.65047000  0.13630000  0.02598000  1.0
  H  H23  1  0.15177000  0.88907000  0.97239000  1.0
  C  C24  1  0.61614000  0.61316000  0.38796000  1.0
  C  C25  1  0.61485000  0.62411000  0.60763000  1.0
  C  C26  1  0.11725000  0.38869000  0.61334000  1.0
  C  C27  1  0.11378000  0.38263000  0.39032000  1.0
  C  C28  1  0.93413000  0.26429000  0.27884000  1.0
  C  C29  1  0.02403000  0.28916000  0.19370000  1.0
  C  C30  1  0.14251000  0.18939000  0.19055000  1.0
  C  C31  1  0.05056000  0.16521000  0.27632000  1.0
  C  C32  1  0.23653000  0.21510000  0.31692000  1.0
  C  C33  1  0.32510000  0.24035000  0.23127000  1.0
  C  C34  1  0.20956000  0.33962000  0.23358000  1.0
  C  C35  1  0.11793000  0.31430000  0.31970000  1.0
  C  C36  1  0.96894000  0.28631000  0.72322000  1.0
  C  C37  1  0.12864000  0.32653000  0.68571000  1.0
  C  C38  1  0.98003000  0.22462000  0.79421000  1.0
  C  C39  1  0.14961000  0.18500000  0.82361000  1.0
  C  C40  1  0.79305000  0.78267000  0.21747000  1.0
  C  C41  1  0.63331000  0.83161000  0.18897000  1.0
  C  C42  1  0.78605000  0.71731000  0.28613000  1.0
  C  C43  1  0.61749000  0.67663000  0.31623000  1.0
  C  C44  1  0.80339000  0.80223000  0.77160000  1.0
  C  C45  1  0.65864000  0.82156000  0.82742000  1.0
  C  C46  1  0.78519000  0.72905000  0.70734000  1.0
  C  C47  1  0.61310000  0.70051000  0.67196000  1.0
  C  C48  1  0.65936000  0.89286000  0.89509000  1.0
  C  C49  1  0.64051000  0.89468000  0.11698000  1.0
  C  C50  1  0.14363000  0.12155000  0.11986000  1.0
  C  C51  1  0.15354000  0.12383000  0.89682000  1.0
  I  I52  1  0.85625000  0.34509000  0.09477000  1.0
  I  I53  1  0.08201000  0.87500000  0.76595000  1.0
  O  O54  1  0.44502000  0.59987000  0.57865000  1.0
  O  O55  1  0.78316000  0.59177000  0.42036000  1.0
  O  O56  1  0.94296000  0.41085000  0.41612000  1.0
  O  O57  1  0.78422000  0.58949000  0.58573000  1.0
  O  O58  1  0.94665000  0.40840000  0.58304000  1.0
  O  O59  1  0.44318000  0.58577000  0.41249000  1.0
  O  O60  1  0.61392000  0.44256000  0.50107000  1.0
  O  O61  1  0.28702000  0.41743000  0.58637000  1.0
  O  O62  1  0.28329000  0.40648000  0.41950000  1.0
  O  O63  1  0.11357000  0.55935000  0.50019000  1.0
  O  O64  1  0.80882000  0.91021000  0.08241000  1.0
  O  O65  1  0.48881000  0.91206000  0.92729000  1.0
  O  O66  1  0.32659000  0.09218000  0.91688000  1.0
  O  O67  1  0.47073000  0.92764000  0.09470000  1.0
  O  O68  1  0.30984000  0.10534000  0.08398000  1.0
  O  O69  1  0.82605000  0.92818000  0.91754000  1.0
  O  O70  1  0.65009000  0.06864000  0.00831000  1.0
  O  O71  1  0.97405000  0.08628000  0.10047000  1.0
  O  O72  1  0.98911000  0.10778000  0.93409000  1.0
  O  O73  1  0.15026000  0.94901000  0.00413000  1.0
