# generated using pymatgen
data_Al3H23C41SO18
_symmetry_space_group_name_H-M   'P 1'
_cell_length_a   12.12250000
_cell_length_b   12.33280000
_cell_length_c   28.00400000
_cell_angle_alpha   90.75800000
_cell_angle_beta   90.31690000
_cell_angle_gamma   118.98000000
_symmetry_Int_Tables_number   1
_chemical_formula_structural   Al3H23C41SO18
_chemical_formula_sum   'Al6 H46 C82 S2 O36'
_cell_volume   3661.83466550
_cell_formula_units_Z   2
loop_
 _symmetry_equiv_pos_site_id
 _symmetry_equiv_pos_as_xyz
  1  'x, y, z'
loop_
 _atom_site_type_symbol
 _atom_site_label
 _atom_site_symmetry_multiplicity
 _atom_site_fract_x
 _atom_site_fract_y
 _atom_site_fract_z
 _atom_site_occupancy
  Al  Al0  1  0.19539000  0.59952000  0.50574000  1.0
  Al  Al1  1  0.93296000  0.34362000  0.50306000  1.0
  Al  Al2  1  0.92388000  0.58301000  0.50294000  1.0
  Al  Al3  1  0.15712000  0.08939000  0.01541000  1.0
  Al  Al4  1  0.41306000  0.07350000  0.01886000  1.0
  Al  Al5  1  0.43196000  0.32661000  0.01918000  1.0
  H  H6  1  0.51758000  0.16121000  0.70094000  1.0
  H  H7  1  0.36776000  0.53713000  0.80050000  1.0
  H  H8  1  0.02260000  0.19060000  0.81549000  1.0
  H  H9  1  0.75621000  0.20212000  0.38283000  1.0
  H  H10  1  0.76335000  0.50425000  0.22246000  1.0
  H  H11  1  0.71763000  0.48135000  0.13506000  1.0
  H  H12  1  0.51230000  0.11255000  0.23845000  1.0
  H  H13  1  0.48104000  0.08872000  0.15100000  1.0
  H  H14  1  0.64187000  0.48135000  0.29579000  1.0
  H  H15  1  0.47616000  0.12452000  0.78733000  1.0
  H  H16  1  0.69578000  0.51686000  0.38259000  1.0
  H  H17  1  0.92822000  0.71211000  0.37015000  1.0
  H  H18  1  0.32147000  0.80431000  0.22498000  1.0
  H  H19  1  0.34912000  0.85574000  0.13878000  1.0
  H  H20  1  0.96112000  0.76910000  0.28447000  1.0
  H  H21  1  0.04191000  0.92449000  0.23325000  1.0
  H  H22  1  0.06812000  0.97161000  0.14648000  1.0
  H  H23  1  0.35616000  0.88005000  0.30115000  1.0
  H  H24  1  0.31906000  0.81435000  0.38583000  1.0
  H  H25  1  0.26976000  0.55760000  0.37719000  1.0
  H  H26  1  0.81763000  0.46650000  0.81960000  1.0
  H  H27  1  0.99898000  0.21279000  0.22034000  1.0
  H  H28  1  0.30330000  0.53623000  0.29052000  1.0
  H  H29  1  0.40008000  0.44584000  0.24007000  1.0
  H  H30  1  0.42877000  0.43186000  0.15252000  1.0
  H  H31  1  0.05435000  0.14289000  0.29697000  1.0
  H  H32  1  0.01574000  0.16656000  0.38353000  1.0
  H  H33  1  0.04477000  0.93094000  0.71256000  1.0
  H  H34  1  0.07190000  0.95669000  0.80097000  1.0
  H  H35  1  0.33266000  0.81280000  0.79727000  1.0
  H  H36  1  0.30702000  0.78873000  0.70848000  1.0
  H  H37  1  0.32548000  0.52875000  0.71258000  1.0
  H  H38  1  0.90911000  0.27250000  0.68610000  1.0
  H  H39  1  0.81463000  0.19964000  0.73692000  1.0
  H  H40  1  0.73055000  0.99225000  0.69424000  1.0
  H  H41  1  0.70192000  0.09753000  0.66016000  1.0
  H  H42  1  0.82662000  0.06815000  0.64415000  1.0
  H  H43  1  0.89464000  0.16385000  0.32217000  1.0
  H  H44  1  0.85168000  0.16204000  0.16247000  1.0
  H  H45  1  0.89423000  0.04291000  0.16644000  1.0
  H  H46  1  0.85498000  0.00578000  0.07577000  1.0
  H  H47  1  0.71524000  0.97272000  0.10876000  1.0
  H  H48  1  0.79626000  0.11234000  0.07622000  1.0
  H  H49  1  0.04651000  0.49784000  0.72036000  1.0
  H  H50  1  0.40350000  0.65953000  0.48458000  1.0
  H  H51  1  0.95274000  0.97599000  0.98391000  1.0
  C  C52  1  0.10883000  0.38526000  0.57327000  1.0
  C  C53  1  0.75126000  0.39905000  0.79394000  1.0
  C  C54  1  0.77342000  0.41914000  0.74545000  1.0
  C  C55  1  0.68943000  0.33476000  0.71052000  1.0
  C  C56  1  0.64337000  0.29303000  0.80987000  1.0
  C  C57  1  0.62098000  0.27770000  0.85956000  1.0
  C  C58  1  0.71280000  0.35252000  0.66098000  1.0
  C  C59  1  0.60421000  0.27162000  0.90254000  1.0
  C  C60  1  0.13076000  0.80088000  0.61356000  1.0
  C  C61  1  0.10947000  0.90776000  0.73120000  1.0
  C  C62  1  0.12414000  0.92145000  0.78038000  1.0
  C  C63  1  0.78705000  0.39236000  0.57108000  1.0
  C  C64  1  0.27165000  0.84028000  0.77831000  1.0
  C  C65  1  0.25753000  0.82707000  0.72909000  1.0
  C  C66  1  0.17487000  0.85895000  0.70491000  1.0
  C  C67  1  0.20408000  0.88651000  0.80475000  1.0
  C  C68  1  0.21474000  0.89715000  0.85509000  1.0
  C  C69  1  0.15251000  0.83276000  0.65545000  1.0
  C  C70  1  0.22255000  0.90836000  0.89849000  1.0
  C  C71  1  0.12446000  0.35703000  0.62154000  1.0
  C  C72  1  0.25954000  0.45647000  0.73582000  1.0
  C  C73  1  0.28324000  0.46096000  0.78445000  1.0
  C  C74  1  0.10384000  0.73797000  0.56813000  1.0
  C  C75  1  0.08885000  0.26507000  0.79313000  1.0
  C  C76  1  0.06437000  0.26029000  0.74434000  1.0
  C  C77  1  0.15132000  0.35607000  0.71464000  1.0
  C  C78  1  0.19861000  0.36411000  0.81355000  1.0
  C  C79  1  0.22335000  0.36140000  0.86275000  1.0
  C  C80  1  0.13398000  0.35220000  0.66470000  1.0
  C  C81  1  0.24039000  0.34837000  0.90469000  1.0
  C  C82  1  0.72708000  0.35989000  0.38825000  1.0
  C  C83  1  0.72889000  0.26152000  0.36356000  1.0
  C  C84  1  0.70294000  0.24436000  0.31470000  1.0
  C  C85  1  0.11295000  0.38343000  0.43542000  1.0
  C  C86  1  0.67081000  0.32333000  0.28876000  1.0
  C  C87  1  0.66769000  0.42021000  0.31484000  1.0
  C  C88  1  0.69606000  0.43953000  0.36346000  1.0
  C  C89  1  0.69879000  0.41337000  0.20700000  1.0
  C  C90  1  0.67555000  0.40070000  0.15791000  1.0
  C  C91  1  0.54251000  0.17952000  0.16693000  1.0
  C  C92  1  0.56107000  0.19328000  0.21606000  1.0
  C  C93  1  0.64297000  0.30963000  0.23676000  1.0
  C  C94  1  0.59970000  0.28279000  0.13742000  1.0
  C  C95  1  0.12156000  0.75944000  0.38299000  1.0
  C  C96  1  0.77469000  0.38615000  0.43844000  1.0
  C  C97  1  0.02142000  0.74928000  0.35456000  1.0
  C  C98  1  0.04073000  0.78220000  0.30683000  1.0
  C  C99  1  0.16070000  0.82812000  0.28641000  1.0
  C  C100  1  0.26144000  0.84104000  0.31567000  1.0
  C  C101  1  0.24183000  0.80604000  0.36318000  1.0
  C  C102  1  0.26617000  0.84177000  0.20812000  1.0
  C  C103  1  0.28130000  0.86936000  0.15980000  1.0
  C  C104  1  0.12179000  0.93366000  0.16423000  1.0
  C  C105  1  0.10737000  0.90648000  0.21249000  1.0
  C  C106  1  0.17879000  0.85962000  0.23536000  1.0
  C  C107  1  0.09929000  0.71240000  0.43252000  1.0
  C  C108  1  0.20915000  0.91545000  0.13747000  1.0
  C  C109  1  0.13937000  0.36387000  0.38521000  1.0
  C  C110  1  0.22308000  0.46721000  0.35921000  1.0
  C  C111  1  0.24185000  0.45463000  0.31097000  1.0
  C  C112  1  0.17892000  0.33866000  0.28746000  1.0
  C  C113  1  0.09814000  0.23440000  0.31427000  1.0
  C  C114  1  0.07783000  0.24689000  0.36256000  1.0
  C  C115  1  0.09351000  0.25796000  0.20571000  1.0
  C  C116  1  0.10914000  0.25272000  0.15620000  1.0
  C  C117  1  0.33497000  0.38575000  0.16783000  1.0
  C  C118  1  0.73582000  0.36621000  0.61848000  1.0
  C  C119  1  0.31881000  0.39323000  0.21655000  1.0
  C  C120  1  0.19737000  0.32851000  0.23585000  1.0
  C  C121  1  0.23250000  0.31608000  0.13688000  1.0
  C  C122  1  0.23892000  0.94726000  0.94778000  1.0
  C  C123  1  0.56217000  0.25851000  0.95121000  1.0
  C  C124  1  0.25816000  0.30773000  0.95053000  1.0
  C  C125  1  0.23020000  0.95555000  0.08699000  1.0
  C  C126  1  0.56641000  0.26312000  0.08570000  1.0
  C  C127  1  0.25756000  0.30010000  0.08631000  1.0
  C  C128  1  0.58264000  0.22817000  0.72709000  1.0
  C  C129  1  0.55970000  0.20736000  0.77560000  1.0
  C  C130  1  0.86384000  0.18613000  0.70630000  1.0
  C  C131  1  0.77565000  0.07908000  0.67445000  1.0
  C  C132  1  0.88793000  0.10948000  0.14207000  1.0
  C  C133  1  0.80874000  0.04570000  0.09807000  1.0
  S  S134  1  0.72301000  0.12521000  0.28544000  1.0
  S  S135  1  0.90971000  0.55926000  0.72977000  1.0
  O  O136  1  0.18458000  0.70958000  0.55291000  1.0
  O  O137  1  0.80316000  0.30925000  0.45764000  1.0
  O  O138  1  0.79236000  0.48752000  0.45821000  1.0
  O  O139  1  0.99370000  0.68948000  0.45188000  1.0
  O  O140  1  0.01441000  0.50660000  0.50359000  1.0
  O  O141  1  0.17740000  0.19885000  0.96127000  1.0
  O  O142  1  0.15912000  0.97417000  0.96515000  1.0
  O  O143  1  0.33763000  0.95728000  0.96975000  1.0
  O  O144  1  0.54113000  0.15971000  0.97256000  1.0
  O  O145  1  0.54330000  0.34496000  0.96794000  1.0
  O  O146  1  0.35620000  0.38272000  0.97554000  1.0
  O  O147  1  0.18512000  0.49266000  0.55955000  1.0
  O  O148  1  0.17369000  0.21292000  0.06135000  1.0
  O  O149  1  0.15697000  0.98988000  0.06887000  1.0
  O  O150  1  0.32574000  0.95792000  0.06557000  1.0
  O  O151  1  0.53372000  0.15535000  0.06800000  1.0
  O  O152  1  0.56377000  0.35081000  0.06267000  1.0
  O  O153  1  0.36992000  0.37448000  0.07094000  1.0
  O  O154  1  0.33737000  0.16402000  0.01704000  1.0
  O  O155  1  0.01508000  0.30058000  0.54870000  1.0
  O  O156  1  0.81245000  0.31234000  0.55202000  1.0
  O  O157  1  0.80871000  0.49510000  0.55305000  1.0
  O  O158  1  0.99784000  0.71104000  0.54731000  1.0
  O  O159  1  0.18280000  0.69358000  0.45182000  1.0
  O  O160  1  0.19252000  0.48114000  0.45690000  1.0
  O  O161  1  0.00689000  0.30156000  0.45290000  1.0
  O  O162  1  0.96015000  0.15986000  0.72566000  1.0
  O  O163  1  0.60493000  0.01186000  0.28256000  1.0
  O  O164  1  0.79848000  0.17687000  0.24371000  1.0
  O  O165  1  0.80506000  0.09839000  0.32367000  1.0
  O  O166  1  0.01288000  0.19278000  0.12524000  1.0
  O  O167  1  0.87299000  0.62427000  0.69694000  1.0
  O  O168  1  0.97879000  0.61589000  0.77327000  1.0
  O  O169  1  0.99050000  0.51178000  0.69882000  1.0
  O  O170  1  0.36058000  0.68245000  0.50830000  1.0
  O  O171  1  0.99153000  0.01767000  0.01377000  1.0
