# generated using pymatgen
data_AlH12(C5O3)6
_symmetry_space_group_name_H-M   'P 1'
_cell_length_a   4.08971000
_cell_length_b   29.33480000
_cell_length_c   29.33529340
_cell_angle_alpha   120.00033085
_cell_angle_beta   90.00119998
_cell_angle_gamma   89.99960000
_symmetry_Int_Tables_number   1
_chemical_formula_structural   AlH12(C5O3)6
_chemical_formula_sum   'Al2 H24 C60 O36'
_cell_volume   3047.86175844
_cell_formula_units_Z   2
loop_
 _symmetry_equiv_pos_site_id
 _symmetry_equiv_pos_as_xyz
  1  'x, y, z'
loop_
 _atom_site_type_symbol
 _atom_site_label
 _atom_site_symmetry_multiplicity
 _atom_site_fract_x
 _atom_site_fract_y
 _atom_site_fract_z
 _atom_site_occupancy
  Al  Al0  1  0.99999000  0.00000000  0.50000000  1.0
  Al  Al1  1  0.00049000  0.33332000  0.16666000  1.0
  H  H2  1  0.47321000  0.57911000  0.36328000  1.0
  H  H3  1  0.52705000  0.57912000  0.21582000  1.0
  H  H4  1  0.52739000  0.75430000  0.45085000  1.0
  H  H5  1  0.47278000  0.75428000  0.30344000  1.0
  H  H6  1  0.47315000  0.13671000  0.21583000  1.0
  H  H7  1  0.52703000  0.28418000  0.36330000  1.0
  H  H8  1  0.52741000  0.04916000  0.30345000  1.0
  H  H9  1  0.47275000  0.19655000  0.45084000  1.0
  H  H10  1  0.47322000  0.28417000  0.92089000  1.0
  H  H11  1  0.52706000  0.13668000  0.92086000  1.0
  H  H12  1  0.52739000  0.19655000  0.74570000  1.0
  H  H13  1  0.47277000  0.04916000  0.74571000  1.0
  H  H14  1  0.07335000  0.43815000  0.28560000  1.0
  H  H15  1  0.92731000  0.43817000  0.15252000  1.0
  H  H16  1  0.92711000  0.89515000  0.51420000  1.0
  H  H17  1  0.07296000  0.89514000  0.38096000  1.0
  H  H18  1  0.07339000  0.21437000  0.15253000  1.0
  H  H19  1  0.92730000  0.34747000  0.28565000  1.0
  H  H20  1  0.92716000  0.98581000  0.38096000  1.0
  H  H21  1  0.07293000  0.11904000  0.51418000  1.0
  H  H22  1  0.07338000  0.34746000  0.06185000  1.0
  H  H23  1  0.92741000  0.21433000  0.06182000  1.0
  H  H24  1  0.92714000  0.11904000  0.60484000  1.0
  H  H25  1  0.07294000  0.98583000  0.60486000  1.0
  C  C26  1  0.50003000  0.04127000  0.58253000  1.0
  C  C27  1  0.50002000  0.91746000  0.45873000  1.0
  C  C28  1  0.50001000  0.04127000  0.45873000  1.0
  C  C29  1  0.50045000  0.41595000  0.20796000  1.0
  C  C30  1  0.50044000  0.29202000  0.20798000  1.0
  C  C31  1  0.50046000  0.29200000  0.08404000  1.0
  C  C32  1  0.50026000  0.47528000  0.23763000  1.0
  C  C33  1  0.47777000  0.50379000  0.29311000  1.0
  C  C34  1  0.48418000  0.55864000  0.32044000  1.0
  C  C35  1  0.50010000  0.58700000  0.29349000  1.0
  C  C36  1  0.51607000  0.55865000  0.23819000  1.0
  C  C37  1  0.52259000  0.50380000  0.21067000  1.0
  C  C38  1  0.49999000  0.64268000  0.32133000  1.0
  C  C39  1  0.50011000  0.69067000  0.34533000  1.0
  C  C40  1  0.50007000  0.74634000  0.37317000  1.0
  C  C41  1  0.51623000  0.77471000  0.42845000  1.0
  C  C42  1  0.52264000  0.82957000  0.45599000  1.0
  C  C43  1  0.50004000  0.85811000  0.42906000  1.0
  C  C44  1  0.47749000  0.82956000  0.37358000  1.0
  C  C45  1  0.48390000  0.77471000  0.34626000  1.0
  C  C46  1  0.50028000  0.26236000  0.23764000  1.0
  C  C47  1  0.47776000  0.20688000  0.21068000  1.0
  C  C48  1  0.48415000  0.17955000  0.23820000  1.0
  C  C49  1  0.50008000  0.20651000  0.29350000  1.0
  C  C50  1  0.51603000  0.26180000  0.32045000  1.0
  C  C51  1  0.52254000  0.28933000  0.29312000  1.0
  C  C52  1  0.50005000  0.17866000  0.32134000  1.0
  C  C53  1  0.50010000  0.15467000  0.34534000  1.0
  C  C54  1  0.50004000  0.12682000  0.37317000  1.0
  C  C55  1  0.51623000  0.07155000  0.34626000  1.0
  C  C56  1  0.52264000  0.04401000  0.37358000  1.0
  C  C57  1  0.50004000  0.07095000  0.42906000  1.0
  C  C58  1  0.47746000  0.12643000  0.45599000  1.0
  C  C59  1  0.48388000  0.15374000  0.42845000  1.0
  C  C60  1  0.50031000  0.26235000  0.02472000  1.0
  C  C61  1  0.47781000  0.28931000  0.99620000  1.0
  C  C62  1  0.48423000  0.26179000  0.94135000  1.0
  C  C63  1  0.50012000  0.20649000  0.91300000  1.0
  C  C64  1  0.51611000  0.17953000  0.94134000  1.0
  C  C65  1  0.52266000  0.20687000  0.99620000  1.0
  C  C66  1  0.50005000  0.17866000  0.85732000  1.0
  C  C67  1  0.50013000  0.15466000  0.80933000  1.0
  C  C68  1  0.50004000  0.12683000  0.75365000  1.0
  C  C69  1  0.51622000  0.15375000  0.72529000  1.0
  C  C70  1  0.52267000  0.12642000  0.67043000  1.0
  C  C71  1  0.50007000  0.07095000  0.64189000  1.0
  C  C72  1  0.47748000  0.04401000  0.67043000  1.0
  C  C73  1  0.48387000  0.07156000  0.72529000  1.0
  C  C74  1  0.45252000  0.47801000  0.32614000  1.0
  C  C75  1  0.54789000  0.47803000  0.15186000  1.0
  C  C76  1  0.54792000  0.85527000  0.51478000  1.0
  C  C77  1  0.45216000  0.85526000  0.34049000  1.0
  C  C78  1  0.45259000  0.17385000  0.15187000  1.0
  C  C79  1  0.54789000  0.34814000  0.32617000  1.0
  C  C80  1  0.54794000  0.98522000  0.34049000  1.0
  C  C81  1  0.45214000  0.15951000  0.51477000  1.0
  C  C82  1  0.45258000  0.34813000  0.02199000  1.0
  C  C83  1  0.54795000  0.17383000  0.02197000  1.0
  C  C84  1  0.54795000  0.15952000  0.64473000  1.0
  C  C85  1  0.45214000  0.98523000  0.64474000  1.0
  O  O86  1  0.26290000  0.00968000  0.45071000  1.0
  O  O87  1  0.26294000  0.04930000  0.55897000  1.0
  O  O88  1  0.26292000  0.94103000  0.49033000  1.0
  O  O89  1  0.73710000  0.04929000  0.49032000  1.0
  O  O90  1  0.73710000  0.94103000  0.45071000  1.0
  O  O91  1  0.73714000  0.00968000  0.55897000  1.0
  O  O92  1  0.26320000  0.28398000  0.10759000  1.0
  O  O93  1  0.26321000  0.39240000  0.17639000  1.0
  O  O94  1  0.26320000  0.32359000  0.21600000  1.0
  O  O95  1  0.73775000  0.32356000  0.10758000  1.0
  O  O96  1  0.73772000  0.28400000  0.17641000  1.0
  O  O97  1  0.73775000  0.39240000  0.21598000  1.0
  O  O98  1  0.23985000  0.43739000  0.30923000  1.0
  O  O99  1  0.61983000  0.49223000  0.36507000  1.0
  O  O100  1  0.76081000  0.43744000  0.12814000  1.0
  O  O101  1  0.38046000  0.49224000  0.12715000  1.0
  O  O102  1  0.76050000  0.89588000  0.53856000  1.0
  O  O103  1  0.38075000  0.84093000  0.53941000  1.0
  O  O104  1  0.23954000  0.89587000  0.35733000  1.0
  O  O105  1  0.61926000  0.84092000  0.30151000  1.0
  O  O106  1  0.23987000  0.19074000  0.12815000  1.0
  O  O107  1  0.61995000  0.13493000  0.12717000  1.0
  O  O108  1  0.76084000  0.37186000  0.30930000  1.0
  O  O109  1  0.38050000  0.37285000  0.36508000  1.0
  O  O110  1  0.76054000  0.96144000  0.35733000  1.0
  O  O111  1  0.38077000  0.96059000  0.30153000  1.0
  O  O112  1  0.23951000  0.14267000  0.53854000  1.0
  O  O113  1  0.61925000  0.19849000  0.53941000  1.0
  O  O114  1  0.23985000  0.37184000  0.06260000  1.0
  O  O115  1  0.61986000  0.37283000  0.00776000  1.0
  O  O116  1  0.76085000  0.19070000  0.06256000  1.0
  O  O117  1  0.38044000  0.13491000  0.00777000  1.0
  O  O118  1  0.76051000  0.14267000  0.60411000  1.0
  O  O119  1  0.38073000  0.19848000  0.65906000  1.0
  O  O120  1  0.23952000  0.96146000  0.60412000  1.0
  O  O121  1  0.61926000  0.96059000  0.65907000  1.0
