# generated using pymatgen
data_CdH11C12(NO2)3
_symmetry_space_group_name_H-M   'P 1'
_cell_length_a   7.83448000
_cell_length_b   8.96134000
_cell_length_c   19.62550000
_cell_angle_alpha   89.99910000
_cell_angle_beta   98.52670000
_cell_angle_gamma   89.99930000
_symmetry_Int_Tables_number   1
_chemical_formula_structural   CdH11C12(NO2)3
_chemical_formula_sum   'Cd4 H44 C48 N12 O24'
_cell_volume   1362.62648008
_cell_formula_units_Z   4
loop_
 _symmetry_equiv_pos_site_id
 _symmetry_equiv_pos_as_xyz
  1  'x, y, z'
loop_
 _atom_site_type_symbol
 _atom_site_label
 _atom_site_symmetry_multiplicity
 _atom_site_fract_x
 _atom_site_fract_y
 _atom_site_fract_z
 _atom_site_occupancy
  Cd  Cd0  1  0.86696000  0.44787000  0.29190000  1.0
  Cd  Cd1  1  0.13305000  0.94786000  0.20810000  1.0
  Cd  Cd2  1  0.13305000  0.55214000  0.70810000  1.0
  Cd  Cd3  1  0.86695000  0.05214000  0.79190000  1.0
  H  H4  1  0.59505000  0.21007000  0.16222000  1.0
  H  H5  1  0.40495000  0.71007000  0.33779000  1.0
  H  H6  1  0.40495000  0.78994000  0.83779000  1.0
  H  H7  1  0.59506000  0.28994000  0.66221000  1.0
  H  H8  1  0.55214000  0.07856000  0.22519000  1.0
  H  H9  1  0.44788000  0.57857000  0.27482000  1.0
  H  H10  1  0.44786000  0.92144000  0.77481000  1.0
  H  H11  1  0.55213000  0.42144000  0.72518000  1.0
  H  H12  1  0.51482000  0.25918000  0.28923000  1.0
  H  H13  1  0.48519000  0.75917000  0.21078000  1.0
  H  H14  1  0.48518000  0.74082000  0.71077000  1.0
  H  H15  1  0.51481000  0.24083000  0.78922000  1.0
  H  H16  1  0.63511000  0.69373000  0.51002000  1.0
  H  H17  1  0.36489000  0.19371000  0.98997000  1.0
  H  H18  1  0.36489000  0.30628000  0.48998000  1.0
  H  H19  1  0.63509000  0.80627000  0.01002000  1.0
  H  H20  1  0.58093000  0.94688000  0.46179000  1.0
  H  H21  1  0.41907000  0.44687000  0.03821000  1.0
  H  H22  1  0.41907000  0.05312000  0.53821000  1.0
  H  H23  1  0.58092000  0.55312000  0.96179000  1.0
  H  H24  1  0.67436000  0.00925000  0.34830000  1.0
  H  H25  1  0.32565000  0.50924000  0.15170000  1.0
  H  H26  1  0.32564000  0.99075000  0.65170000  1.0
  H  H27  1  0.67436000  0.49075000  0.84830000  1.0
  H  H28  1  0.80878000  0.80697000  0.28514000  1.0
  H  H29  1  0.19123000  0.30696000  0.21486000  1.0
  H  H30  1  0.19122000  0.19304000  0.71486000  1.0
  H  H31  1  0.80878000  0.69303000  0.78514000  1.0
  H  H32  1  0.93963000  0.15104000  0.39052000  1.0
  H  H33  1  0.06039000  0.65103000  0.10949000  1.0
  H  H34  1  0.06037000  0.84897000  0.60948000  1.0
  H  H35  1  0.93962000  0.34895000  0.89051000  1.0
  H  H36  1  0.89761000  0.05961000  0.50918000  1.0
  H  H37  1  0.10238000  0.55961000  0.99082000  1.0
  H  H38  1  0.10240000  0.94039000  0.49082000  1.0
  H  H39  1  0.89760000  0.44038000  0.00917000  1.0
  H  H40  1  0.79808000  0.23828000  0.59067000  1.0
  H  H41  1  0.20190000  0.73828000  0.90934000  1.0
  H  H42  1  0.20193000  0.76173000  0.40933000  1.0
  H  H43  1  0.79808000  0.26172000  0.09066000  1.0
  H  H44  1  0.73124000  0.50043000  0.55313000  1.0
  H  H45  1  0.26876000  0.00042000  0.94687000  1.0
  H  H46  1  0.26877000  0.49958000  0.44687000  1.0
  H  H47  1  0.73123000  0.99957000  0.05313000  1.0
  C  C48  1  0.81951000  0.12699000  0.22534000  1.0
  C  C49  1  0.18051000  0.62698000  0.27467000  1.0
  C  C50  1  0.18049000  0.87302000  0.77466000  1.0
  C  C51  1  0.81951000  0.37302000  0.72533000  1.0
  C  C52  1  0.63140000  0.17567000  0.21635000  1.0
  C  C53  1  0.36861000  0.67566000  0.28366000  1.0
  C  C54  1  0.36860000  0.82433000  0.78366000  1.0
  C  C55  1  0.63140000  0.32434000  0.71634000  1.0
  C  C56  1  0.89011000  0.22371000  0.42778000  1.0
  C  C57  1  0.10990000  0.72371000  0.07223000  1.0
  C  C58  1  0.10989000  0.77630000  0.57222000  1.0
  C  C59  1  0.89010000  0.27628000  0.92777000  1.0
  C  C60  1  0.86975000  0.17437000  0.49342000  1.0
  C  C61  1  0.13023000  0.67437000  0.00658000  1.0
  C  C62  1  0.13025000  0.82564000  0.50658000  1.0
  C  C63  1  0.86975000  0.32563000  0.99342000  1.0
  C  C64  1  0.81099000  0.27489000  0.53879000  1.0
  C  C65  1  0.18900000  0.77489000  0.96121000  1.0
  C  C66  1  0.18902000  0.72511000  0.46121000  1.0
  C  C67  1  0.81098000  0.22510000  0.03879000  1.0
  C  C68  1  0.77209000  0.42041000  0.51706000  1.0
  C  C69  1  0.22791000  0.92041000  0.98294000  1.0
  C  C70  1  0.22791000  0.57959000  0.48294000  1.0
  C  C71  1  0.77208000  0.07958000  0.01705000  1.0
  C  C72  1  0.79046000  0.46121000  0.44951000  1.0
  C  C73  1  0.20954000  0.96121000  0.05049000  1.0
  C  C74  1  0.20953000  0.53879000  0.55049000  1.0
  C  C75  1  0.79045000  0.03879000  0.94951000  1.0
  C  C76  1  0.74992000  0.61414000  0.42258000  1.0
  C  C77  1  0.25009000  0.11413000  0.07743000  1.0
  C  C78  1  0.25008000  0.38587000  0.57743000  1.0
  C  C79  1  0.74990000  0.88586000  0.92257000  1.0
  C  C80  1  0.67237000  0.72034000  0.46026000  1.0
  C  C81  1  0.32764000  0.22033000  0.03974000  1.0
  C  C82  1  0.32764000  0.27967000  0.53974000  1.0
  C  C83  1  0.67235000  0.77966000  0.96026000  1.0
  C  C84  1  0.64296000  0.86354000  0.43348000  1.0
  C  C85  1  0.35704000  0.36353000  0.06652000  1.0
  C  C86  1  0.35704000  0.13647000  0.56652000  1.0
  C  C87  1  0.64295000  0.63646000  0.93348000  1.0
  C  C88  1  0.69466000  0.89836000  0.37053000  1.0
  C  C89  1  0.30535000  0.39835000  0.12947000  1.0
  C  C90  1  0.30534000  0.10165000  0.62947000  1.0
  C  C91  1  0.69465000  0.60164000  0.87053000  1.0
  C  C92  1  0.76935000  0.78671000  0.33526000  1.0
  C  C93  1  0.23067000  0.28669000  0.16474000  1.0
  C  C94  1  0.23066000  0.21330000  0.66474000  1.0
  C  C95  1  0.76934000  0.71330000  0.83526000  1.0
  N  N96  1  0.84991000  0.36308000  0.40641000  1.0
  N  N97  1  0.15010000  0.86307000  0.09359000  1.0
  N  N98  1  0.15009000  0.63694000  0.59359000  1.0
  N  N99  1  0.84990000  0.13693000  0.90641000  1.0
  N  N100  1  0.79285000  0.64773000  0.36010000  1.0
  N  N101  1  0.20716000  0.14773000  0.13990000  1.0
  N  N102  1  0.20715000  0.35227000  0.63990000  1.0
  N  N103  1  0.79284000  0.85227000  0.86010000  1.0
  N  N104  1  0.71561000  0.56894000  0.15230000  1.0
  N  N105  1  0.28439000  0.06893000  0.34770000  1.0
  N  N106  1  0.28439000  0.43106000  0.84769000  1.0
  N  N107  1  0.71560000  0.93106000  0.65230000  1.0
  O  O108  1  0.93547000  0.20480000  0.26067000  1.0
  O  O109  1  0.06455000  0.70479000  0.23934000  1.0
  O  O110  1  0.06454000  0.79521000  0.73933000  1.0
  O  O111  1  0.93546000  0.29521000  0.76067000  1.0
  O  O112  1  0.84666000  0.00628000  0.19426000  1.0
  O  O113  1  0.15337000  0.50626000  0.30574000  1.0
  O  O114  1  0.15334000  0.99373000  0.80574000  1.0
  O  O115  1  0.84665000  0.49374000  0.69426000  1.0
  O  O116  1  0.60019000  0.29595000  0.26075000  1.0
  O  O117  1  0.39983000  0.79595000  0.23926000  1.0
  O  O118  1  0.39982000  0.70405000  0.73926000  1.0
  O  O119  1  0.60018000  0.20405000  0.76074000  1.0
  O  O120  1  0.65613000  0.62578000  0.20361000  1.0
  O  O121  1  0.34388000  0.12578000  0.29639000  1.0
  O  O122  1  0.34388000  0.37422000  0.79639000  1.0
  O  O123  1  0.65611000  0.87422000  0.70361000  1.0
  O  O124  1  0.82921000  0.46591000  0.16466000  1.0
  O  O125  1  0.17079000  0.96590000  0.33533000  1.0
  O  O126  1  0.17079000  0.53409000  0.83534000  1.0
  O  O127  1  0.82920000  0.03410000  0.66467000  1.0
  O  O128  1  0.66496000  0.61152000  0.09216000  1.0
  O  O129  1  0.33503000  0.11151000  0.40784000  1.0
  O  O130  1  0.33504000  0.38848000  0.90784000  1.0
  O  O131  1  0.66495000  0.88849000  0.59216000  1.0
