# generated using pymatgen
data_NaH7C8SO8
_symmetry_space_group_name_H-M   'P 1'
_cell_length_a   7.10669000
_cell_length_b   11.14140000
_cell_length_c   13.10970000
_cell_angle_alpha   95.46350000
_cell_angle_beta   89.99970000
_cell_angle_gamma   89.99990000
_symmetry_Int_Tables_number   1
_chemical_formula_structural   NaH7C8SO8
_chemical_formula_sum   'Na4 H28 C32 S4 O32'
_cell_volume   1033.29046132
_cell_formula_units_Z   4
loop_
 _symmetry_equiv_pos_site_id
 _symmetry_equiv_pos_as_xyz
  1  'x, y, z'
loop_
 _atom_site_type_symbol
 _atom_site_label
 _atom_site_symmetry_multiplicity
 _atom_site_fract_x
 _atom_site_fract_y
 _atom_site_fract_z
 _atom_site_occupancy
  Na  Na0  1  0.53005000  0.92152000  0.09919000  1.0
  Na  Na1  1  0.03004000  0.57848000  0.40081000  1.0
  Na  Na2  1  0.46996000  0.07848000  0.90081000  1.0
  Na  Na3  1  0.96995000  0.42152000  0.59919000  1.0
  H  H4  1  0.13962000  0.63065000  0.15734000  1.0
  H  H5  1  0.63963000  0.86935000  0.34266000  1.0
  H  H6  1  0.86037000  0.36934000  0.84266000  1.0
  H  H7  1  0.36038000  0.13065000  0.65734000  1.0
  H  H8  1  0.38230000  0.30303000  0.01219000  1.0
  H  H9  1  0.88230000  0.19697000  0.48782000  1.0
  H  H10  1  0.61770000  0.69697000  0.98781000  1.0
  H  H11  1  0.11771000  0.80303000  0.51219000  1.0
  H  H12  1  0.21990000  0.58550000  0.82904000  1.0
  H  H13  1  0.71990000  0.91450000  0.67096000  1.0
  H  H14  1  0.78010000  0.41450000  0.17095000  1.0
  H  H15  1  0.28010000  0.08550000  0.32904000  1.0
  H  H16  1  0.41332000  0.31081000  0.28008000  1.0
  H  H17  1  0.91332000  0.18919000  0.21992000  1.0
  H  H18  1  0.58668000  0.68919000  0.71991000  1.0
  H  H19  1  0.08669000  0.81081000  0.78008000  1.0
  H  H20  1  0.42257000  0.36666000  0.67329000  1.0
  H  H21  1  0.92256000  0.13334000  0.82672000  1.0
  H  H22  1  0.57744000  0.63334000  0.32672000  1.0
  H  H23  1  0.07743000  0.86666000  0.17328000  1.0
  H  H24  1  0.78383000  0.88462000  0.91546000  1.0
  H  H25  1  0.28382000  0.61538000  0.58453000  1.0
  H  H26  1  0.21618000  0.11538000  0.08453000  1.0
  H  H27  1  0.71618000  0.38462000  0.41547000  1.0
  H  H28  1  0.59085000  0.83213000  0.88286000  1.0
  H  H29  1  0.09085000  0.66788000  0.61714000  1.0
  H  H30  1  0.40915000  0.16788000  0.11714000  1.0
  H  H31  1  0.90915000  0.33213000  0.38286000  1.0
  C  C32  1  0.17477000  0.62092000  0.99245000  1.0
  C  C33  1  0.67478000  0.87908000  0.50756000  1.0
  C  C34  1  0.82522000  0.37908000  0.00755000  1.0
  C  C35  1  0.32523000  0.12092000  0.49245000  1.0
  C  C36  1  0.18594000  0.57661000  0.08813000  1.0
  C  C37  1  0.68595000  0.92339000  0.41187000  1.0
  C  C38  1  0.81405000  0.42339000  0.91187000  1.0
  C  C39  1  0.31406000  0.07661000  0.58813000  1.0
  C  C40  1  0.26141000  0.46151000  0.09547000  1.0
  C  C41  1  0.76141000  0.03849000  0.40453000  1.0
  C  C42  1  0.73859000  0.53848000  0.90453000  1.0
  C  C43  1  0.23859000  0.96152000  0.59547000  1.0
  C  C44  1  0.32175000  0.39176000  0.00736000  1.0
  C  C45  1  0.82176000  0.10824000  0.49264000  1.0
  C  C46  1  0.67824000  0.60824000  0.99264000  1.0
  C  C47  1  0.17824000  0.89176000  0.50736000  1.0
  C  C48  1  0.30373000  0.43540000  0.91144000  1.0
  C  C49  1  0.80373000  0.06460000  0.58856000  1.0
  C  C50  1  0.69627000  0.56460000  0.08856000  1.0
  C  C51  1  0.19628000  0.93540000  0.41144000  1.0
  C  C52  1  0.23079000  0.55102000  0.90370000  1.0
  C  C53  1  0.73079000  0.94897000  0.59630000  1.0
  C  C54  1  0.76921000  0.44897000  0.09630000  1.0
  C  C55  1  0.26921000  0.05103000  0.40370000  1.0
  C  C56  1  0.27587000  0.41896000  0.19936000  1.0
  C  C57  1  0.77587000  0.08103000  0.30065000  1.0
  C  C58  1  0.72413000  0.58104000  0.80065000  1.0
  C  C59  1  0.22414000  0.91897000  0.69936000  1.0
  C  C60  1  0.37117000  0.35951000  0.81882000  1.0
  C  C61  1  0.87116000  0.14049000  0.68119000  1.0
  C  C62  1  0.62883000  0.64049000  0.18118000  1.0
  C  C63  1  0.12883000  0.85951000  0.31881000  1.0
  S  S64  1  0.10881000  0.77434000  0.98587000  1.0
  S  S65  1  0.60881000  0.72566000  0.51414000  1.0
  S  S66  1  0.89119000  0.22566000  0.01414000  1.0
  S  S67  1  0.39119000  0.27434000  0.48586000  1.0
  O  O68  1  0.28558000  0.84095000  0.99054000  1.0
  O  O69  1  0.78558000  0.65905000  0.50946000  1.0
  O  O70  1  0.71442000  0.15905000  0.00946000  1.0
  O  O71  1  0.21442000  0.34095000  0.49054000  1.0
  O  O72  1  0.98233000  0.80681000  0.07331000  1.0
  O  O73  1  0.48234000  0.69319000  0.42669000  1.0
  O  O74  1  0.01767000  0.19319000  0.92669000  1.0
  O  O75  1  0.51766000  0.30681000  0.57331000  1.0
  O  O76  1  0.00675000  0.77977000  0.88776000  1.0
  O  O77  1  0.50674000  0.72023000  0.61224000  1.0
  O  O78  1  0.99326000  0.22023000  0.11224000  1.0
  O  O79  1  0.49326000  0.27977000  0.38776000  1.0
  O  O80  1  0.18906000  0.46653000  0.27367000  1.0
  O  O81  1  0.68906000  0.03347000  0.22633000  1.0
  O  O82  1  0.81094000  0.53347000  0.72633000  1.0
  O  O83  1  0.31095000  0.96653000  0.77367000  1.0
  O  O84  1  0.39485000  0.32663000  0.20543000  1.0
  O  O85  1  0.89485000  0.17337000  0.29457000  1.0
  O  O86  1  0.60515000  0.67336000  0.79457000  1.0
  O  O87  1  0.10515000  0.82663000  0.70543000  1.0
  O  O88  1  0.43398000  0.25644000  0.82114000  1.0
  O  O89  1  0.93397000  0.24357000  0.67887000  1.0
  O  O90  1  0.56601000  0.74356000  0.17886000  1.0
  O  O91  1  0.06603000  0.75643000  0.32113000  1.0
  O  O92  1  0.36107000  0.41608000  0.73405000  1.0
  O  O93  1  0.86107000  0.08391000  0.76596000  1.0
  O  O94  1  0.63893000  0.58392000  0.26595000  1.0
  O  O95  1  0.13892000  0.91609000  0.23405000  1.0
  O  O96  1  0.64866000  0.90083000  0.92331000  1.0
  O  O97  1  0.14866000  0.59917000  0.57669000  1.0
  O  O98  1  0.35134000  0.09917000  0.07669000  1.0
  O  O99  1  0.85134000  0.40083000  0.42331000  1.0
