# generated using pymatgen
data_CaH7C7NO6
_symmetry_space_group_name_H-M   'P 1'
_cell_length_a   7.47011000
_cell_length_b   8.17215000
_cell_length_c   8.17214000
_cell_angle_alpha   101.22500000
_cell_angle_beta   101.09400000
_cell_angle_gamma   101.09400000
_symmetry_Int_Tables_number   1
_chemical_formula_structural   CaH7C7NO6
_chemical_formula_sum   'Ca2 H14 C14 N2 O12'
_cell_volume   466.30035147
_cell_formula_units_Z   2
loop_
 _symmetry_equiv_pos_site_id
 _symmetry_equiv_pos_as_xyz
  1  'x, y, z'
loop_
 _atom_site_type_symbol
 _atom_site_label
 _atom_site_symmetry_multiplicity
 _atom_site_fract_x
 _atom_site_fract_y
 _atom_site_fract_z
 _atom_site_occupancy
  Ca  Ca0  1  0.41091000  0.78567000  0.09799000  1.0
  Ca  Ca1  1  0.91091000  0.09799000  0.78567000  1.0
  H  H2  1  0.37628000  0.76747000  0.49652000  1.0
  H  H3  1  0.87628000  0.49651000  0.76748000  1.0
  H  H4  1  0.41157000  0.27756000  0.60591000  1.0
  H  H5  1  0.91158000  0.60591000  0.27757000  1.0
  H  H6  1  0.44338000  0.38714000  0.11550000  1.0
  H  H7  1  0.94337000  0.11549000  0.38713000  1.0
  H  H8  1  0.79720000  0.83900000  0.30167000  1.0
  H  H9  1  0.29720000  0.30167000  0.83900000  1.0
  H  H10  1  0.81198000  0.93060000  0.14753000  1.0
  H  H11  1  0.31198000  0.14753000  0.93060000  1.0
  H  H12  1  0.02480000  0.58136000  0.04354000  1.0
  H  H13  1  0.52480000  0.04354000  0.58135000  1.0
  H  H14  1  0.00988000  0.73538000  0.95159000  1.0
  H  H15  1  0.50988000  0.95159000  0.73538000  1.0
  C  C16  1  0.39469000  0.63767000  0.45953000  1.0
  C  C17  1  0.89469000  0.45953000  0.63767000  1.0
  C  C18  1  0.40132000  0.53417000  0.57718000  1.0
  C  C19  1  0.90133000  0.57718000  0.53417000  1.0
  C  C20  1  0.39923000  0.61117000  0.75902000  1.0
  C  C21  1  0.89923000  0.75902000  0.61117000  1.0
  C  C22  1  0.41101000  0.36388000  0.51950000  1.0
  C  C23  1  0.91101000  0.51950000  0.36389000  1.0
  C  C24  1  0.42000000  0.30635000  0.34901000  1.0
  C  C25  1  0.92000000  0.34901000  0.30635000  1.0
  C  C26  1  0.42268000  0.12467000  0.27193000  1.0
  C  C27  1  0.92268000  0.27194000  0.12467000  1.0
  C  C28  1  0.42558000  0.42395000  0.24549000  1.0
  C  C29  1  0.92557000  0.24549000  0.42394000  1.0
  N  N30  1  0.40994000  0.58560000  0.29774000  1.0
  N  N31  1  0.90994000  0.29774000  0.58560000  1.0
  O  O32  1  0.41035000  0.77258000  0.80245000  1.0
  O  O33  1  0.91035000  0.80245000  0.77258000  1.0
  O  O34  1  0.38786000  0.51736000  0.86580000  1.0
  O  O35  1  0.88786000  0.86580000  0.51736000  1.0
  O  O36  1  0.43445000  0.01792000  0.36578000  1.0
  O  O37  1  0.93445000  0.36578000  0.01792000  1.0
  O  O38  1  0.41169000  0.08139000  0.11056000  1.0
  O  O39  1  0.91168000  0.11056000  0.08139000  1.0
  O  O40  1  0.73642000  0.83409000  0.18074000  1.0
  O  O41  1  0.23643000  0.18074000  0.83408000  1.0
  O  O42  1  0.08539000  0.70224000  0.04818000  1.0
  O  O43  1  0.58539000  0.04818000  0.70223000  1.0
