# generated using pymatgen
data_ZnH20C19(NO)4
_symmetry_space_group_name_H-M   'P 1'
_cell_length_a   11.87310000
_cell_length_b   11.87240000
_cell_length_c   17.87035836
_cell_angle_alpha   102.86682445
_cell_angle_beta   101.82596400
_cell_angle_gamma   110.88100000
_symmetry_Int_Tables_number   1
_chemical_formula_structural   ZnH20C19(NO)4
_chemical_formula_sum   'Zn4 H80 C76 N16 O16'
_cell_volume   2179.86491001
_cell_formula_units_Z   4
loop_
 _symmetry_equiv_pos_site_id
 _symmetry_equiv_pos_as_xyz
  1  'x, y, z'
loop_
 _atom_site_type_symbol
 _atom_site_label
 _atom_site_symmetry_multiplicity
 _atom_site_fract_x
 _atom_site_fract_y
 _atom_site_fract_z
 _atom_site_occupancy
  Zn  Zn0  1  0.17595000  0.23309000  0.95322000  1.0
  Zn  Zn1  1  0.28006000  0.72278000  0.54673000  1.0
  Zn  Zn2  1  0.82405000  0.76691000  0.04678000  1.0
  Zn  Zn3  1  0.71995000  0.27723000  0.45328000  1.0
  H  H4  1  0.15325000  0.64984000  0.85456000  1.0
  H  H5  1  0.79525000  0.79869000  0.64522000  1.0
  H  H6  1  0.84675000  0.35016000  0.14544000  1.0
  H  H7  1  0.20475000  0.20131000  0.35478000  1.0
  H  H8  1  0.31470000  0.74167000  0.87446000  1.0
  H  H9  1  0.86732000  0.94039000  0.62552000  1.0
  H  H10  1  0.68530000  0.25833000  0.12554000  1.0
  H  H11  1  0.13268000  0.05961000  0.37448000  1.0
  H  H12  1  0.51854000  0.49878000  0.82266000  1.0
  H  H13  1  0.67652000  0.19625000  0.67735000  1.0
  H  H14  1  0.48146000  0.50122000  0.17734000  1.0
  H  H15  1  0.32347000  0.80374000  0.32264000  1.0
  H  H16  1  0.55523000  0.65422000  0.88521000  1.0
  H  H17  1  0.76929000  0.17024000  0.61480000  1.0
  H  H18  1  0.44477000  0.34578000  0.11479000  1.0
  H  H19  1  0.23070000  0.82975000  0.38519000  1.0
  H  H20  1  0.44934000  0.59437000  0.78520000  1.0
  H  H21  1  0.80941000  0.16433000  0.71474000  1.0
  H  H22  1  0.55066000  0.40563000  0.21480000  1.0
  H  H23  1  0.19059000  0.83567000  0.28526000  1.0
  H  H24  1  0.05727000  0.41005000  0.96729000  1.0
  H  H25  1  0.44291000  0.59019000  0.53279000  1.0
  H  H26  1  0.94273000  0.58995000  0.03271000  1.0
  H  H27  1  0.55709000  0.40981000  0.46721000  1.0
  H  H28  1  0.98989000  0.40062000  0.86623000  1.0
  H  H29  1  0.53454000  0.62396000  0.63387000  1.0
  H  H30  1  0.01012000  0.59938000  0.13377000  1.0
  H  H31  1  0.46546000  0.37604000  0.36613000  1.0
  H  H32  1  0.07271000  0.55087000  0.94249000  1.0
  H  H33  1  0.60857000  0.63046000  0.55761000  1.0
  H  H34  1  0.92729000  0.44913000  0.05751000  1.0
  H  H35  1  0.39143000  0.36954000  0.44239000  1.0
  H  H36  1  0.23367000  0.45370000  0.17586000  1.0
  H  H37  1  0.27788000  0.55767000  0.32399000  1.0
  H  H38  1  0.76633000  0.54630000  0.82414000  1.0
  H  H39  1  0.72212000  0.44233000  0.67601000  1.0
  H  H40  1  0.91372000  0.13618000  0.17496000  1.0
  H  H41  1  0.96138000  0.23861000  0.32501000  1.0
  H  H42  1  0.08628000  0.86382000  0.82504000  1.0
  H  H43  1  0.03862000  0.76139000  0.67500000  1.0
  H  H44  1  0.62378000  0.18008000  0.95840000  1.0
  H  H45  1  0.22170000  0.16536000  0.54134000  1.0
  H  H46  1  0.37622000  0.81992000  0.04160000  1.0
  H  H47  1  0.77831000  0.83464000  0.45866000  1.0
  H  H48  1  0.40159000  0.36150000  0.90592000  1.0
  H  H49  1  0.45575000  0.99589000  0.59399000  1.0
  H  H50  1  0.59841000  0.63850000  0.09408000  1.0
  H  H51  1  0.54424000  0.00410000  0.40600000  1.0
  H  H52  1  0.28174000  0.96550000  0.00257000  1.0
  H  H53  1  0.96292000  0.77903000  0.49725000  1.0
  H  H54  1  0.71827000  0.03450000  0.99743000  1.0
  H  H55  1  0.03707000  0.22096000  0.50274000  1.0
  H  H56  1  0.40612000  0.89636000  0.71774000  1.0
  H  H57  1  0.17866000  0.18844000  0.78229000  1.0
  H  H58  1  0.59388000  0.10364000  0.28226000  1.0
  H  H59  1  0.82134000  0.81157000  0.21771000  1.0
  H  H60  1  0.42738000  0.87228000  0.81366000  1.0
  H  H61  1  0.05872000  0.11373000  0.68635000  1.0
  H  H62  1  0.57262000  0.12772000  0.18634000  1.0
  H  H63  1  0.94128000  0.88627000  0.31365000  1.0
  H  H64  1  0.29993000  0.90650000  0.77304000  1.0
  H  H65  1  0.13371000  0.02696000  0.72694000  1.0
  H  H66  1  0.70007000  0.09350000  0.22696000  1.0
  H  H67  1  0.86628000  0.97303000  0.27305000  1.0
  H  H68  1  0.98221000  0.33133000  0.62801000  1.0
  H  H69  1  0.70336000  0.85422000  0.87193000  1.0
  H  H70  1  0.01779000  0.66867000  0.37199000  1.0
  H  H71  1  0.29664000  0.14578000  0.12807000  1.0
  H  H72  1  0.01983000  0.38770000  0.73518000  1.0
  H  H73  1  0.65248000  0.78458000  0.76476000  1.0
  H  H74  1  0.98017000  0.61230000  0.26482000  1.0
  H  H75  1  0.34752000  0.21542000  0.23524000  1.0
  H  H76  1  0.11309000  0.32233000  0.69149000  1.0
  H  H77  1  0.63094000  0.92166000  0.80845000  1.0
  H  H78  1  0.88691000  0.67768000  0.30851000  1.0
  H  H79  1  0.36906000  0.07834000  0.19155000  1.0
  H  H80  1  0.12145000  0.47832000  0.55848000  1.0
  H  H81  1  0.91994000  0.06271000  0.94144000  1.0
  H  H82  1  0.87855000  0.52168000  0.44152000  1.0
  H  H83  1  0.08006000  0.93729000  0.05856000  1.0
  C  C84  1  0.44838000  0.08221000  0.97943000  1.0
  C  C85  1  0.10272000  0.96882000  0.52034000  1.0
  C  C86  1  0.55162000  0.91779000  0.02057000  1.0
  C  C87  1  0.89727000  0.03117000  0.47965000  1.0
  C  C88  1  0.04662000  0.22817000  0.07890000  1.0
  C  C89  1  0.14953000  0.46757000  0.42106000  1.0
  C  C90  1  0.95338000  0.77182000  0.92110000  1.0
  C  C91  1  0.85047000  0.53242000  0.57894000  1.0
  C  C92  1  0.07081000  0.28933000  0.16719000  1.0
  C  C93  1  0.12225000  0.40347000  0.33275000  1.0
  C  C94  1  0.92919000  0.71067000  0.83281000  1.0
  C  C95  1  0.87775000  0.59652000  0.66725000  1.0
  C  C96  1  0.36873000  0.51457000  0.86769000  1.0
  C  C97  1  0.64709000  0.00122000  0.63231000  1.0
  C  C98  1  0.63127000  0.48543000  0.13231000  1.0
  C  C99  1  0.35291000  0.99878000  0.36769000  1.0
  C  C100  1  0.26710000  0.54799000  0.87050000  1.0
  C  C101  1  0.67762000  0.89673000  0.62948000  1.0
  C  C102  1  0.73290000  0.45201000  0.12950000  1.0
  C  C103  1  0.32238000  0.10327000  0.37052000  1.0
  C  C104  1  0.99339000  0.22827000  0.20870000  1.0
  C  C105  1  0.01972000  0.28450000  0.29125000  1.0
  C  C106  1  0.00661000  0.77173000  0.79130000  1.0
  C  C107  1  0.98028000  0.71549000  0.70875000  1.0
  C  C108  1  0.37795000  0.98091000  0.00287000  1.0
  C  C109  1  0.97796000  0.87498000  0.49702000  1.0
  C  C110  1  0.62205000  0.01909000  0.99713000  1.0
  C  C111  1  0.02204000  0.12502000  0.50298000  1.0
  C  C112  1  0.23835000  0.64617000  0.84065000  1.0
  C  C113  1  0.80560000  0.89776000  0.65927000  1.0
  C  C114  1  0.76165000  0.35383000  0.15935000  1.0
  C  C115  1  0.19440000  0.10224000  0.34073000  1.0
  C  C116  1  0.19323000  0.46649000  0.90533000  1.0
  C  C117  1  0.56126000  0.78808000  0.59471000  1.0
  C  C118  1  0.80677000  0.53351000  0.09467000  1.0
  C  C119  1  0.43874000  0.21192000  0.40529000  1.0
  C  C120  1  0.57039000  0.10051000  0.97638000  1.0
  C  C121  1  0.12416000  0.09396000  0.52351000  1.0
  C  C122  1  0.42961000  0.89949000  0.02362000  1.0
  C  C123  1  0.87584000  0.90604000  0.47649000  1.0
  C  C124  1  0.17411000  0.40790000  0.20899000  1.0
  C  C125  1  0.19896000  0.46497000  0.29092000  1.0
  C  C126  1  0.82589000  0.59209000  0.79101000  1.0
  C  C127  1  0.80104000  0.53503000  0.70908000  1.0
  C  C128  1  0.39352000  0.17160000  0.95925000  1.0
  C  C129  1  0.21230000  0.93410000  0.54045000  1.0
  C  C130  1  0.60648000  0.82840000  0.04075000  1.0
  C  C131  1  0.78769000  0.06590000  0.45954000  1.0
  C  C132  1  0.47891000  0.56805000  0.83864000  1.0
  C  C133  1  0.72964000  0.14046000  0.66133000  1.0
  C  C134  1  0.52109000  0.43195000  0.16136000  1.0
  C  C135  1  0.27036000  0.85955000  0.33867000  1.0
  C  C136  1  0.07211000  0.45645000  0.92124000  1.0
  C  C137  1  0.53536000  0.65107000  0.57883000  1.0
  C  C138  1  0.92789000  0.54354000  0.07876000  1.0
  C  C139  1  0.46464000  0.34893000  0.42117000  1.0
  C  C140  1  0.27472000  0.71558000  0.71685000  1.0
  C  C141  1  0.99883000  0.05782000  0.78310000  1.0
  C  C142  1  0.72528000  0.28442000  0.28315000  1.0
  C  C143  1  0.00116000  0.94217000  0.21689000  1.0
  C  C144  1  0.21967000  0.62373000  0.75218000  1.0
  C  C145  1  0.87163000  0.96752000  0.74774000  1.0
  C  C146  1  0.78033000  0.37627000  0.24782000  1.0
  C  C147  1  0.12837000  0.03248000  0.25226000  1.0
  C  C148  1  0.14434000  0.51031000  0.68767000  1.0
  C  C149  1  0.82269000  0.95656000  0.81223000  1.0
  C  C150  1  0.85566000  0.48970000  0.31233000  1.0
  C  C151  1  0.17731000  0.04344000  0.18777000  1.0
  C  C152  1  0.35651000  0.85441000  0.75698000  1.0
  C  C153  1  0.09758000  0.09953000  0.74301000  1.0
  C  C154  1  0.64349000  0.14559000  0.24302000  1.0
  C  C155  1  0.90242000  0.90047000  0.25699000  1.0
  C  C156  1  0.06024000  0.38100000  0.68528000  1.0
  C  C157  1  0.69576000  0.87493000  0.81464000  1.0
  C  C158  1  0.93976000  0.61900000  0.31472000  1.0
  C  C159  1  0.30424000  0.12507000  0.18536000  1.0
  N  N160  1  0.24674000  0.38865000  0.92260000  1.0
  N  N161  1  0.46621000  0.82441000  0.57750000  1.0
  N  N162  1  0.75326000  0.61135000  0.07740000  1.0
  N  N163  1  0.53379000  0.17559000  0.42250000  1.0
  N  N164  1  0.35247000  0.41887000  0.89950000  1.0
  N  N165  1  0.51959000  0.95323000  0.60057000  1.0
  N  N166  1  0.64753000  0.58112000  0.10050000  1.0
  N  N167  1  0.48042000  0.04677000  0.39943000  1.0
  N  N168  1  0.23656000  0.66031000  0.63590000  1.0
  N  N169  1  0.02448000  0.10050000  0.86405000  1.0
  N  N170  1  0.76344000  0.33969000  0.36410000  1.0
  N  N171  1  0.97552000  0.89951000  0.13595000  1.0
  N  N172  1  0.15794000  0.53682000  0.61960000  1.0
  N  N173  1  0.91727000  0.03818000  0.88032000  1.0
  N  N174  1  0.84206000  0.46318000  0.38040000  1.0
  N  N175  1  0.08273000  0.96182000  0.11968000  1.0
  O  O176  1  0.29998000  0.16824000  0.98672000  1.0
  O  O177  1  0.18137000  0.81302000  0.51318000  1.0
  O  O178  1  0.70001000  0.83175000  0.01327000  1.0
  O  O179  1  0.81863000  0.18698000  0.48682000  1.0
  O  O180  1  0.13407000  0.28772000  0.05109000  1.0
  O  O181  1  0.23670000  0.58294000  0.44883000  1.0
  O  O182  1  0.86593000  0.71228000  0.94891000  1.0
  O  O183  1  0.76330000  0.41706000  0.55117000  1.0
  O  O184  1  0.94797000  0.12782000  0.03910000  1.0
  O  O185  1  0.08918000  0.40860000  0.46089000  1.0
  O  O186  1  0.05203000  0.87218000  0.96090000  1.0
  O  O187  1  0.91082000  0.59141000  0.53912000  1.0
  O  O188  1  0.43956000  0.24177000  0.91989000  1.0
  O  O189  1  0.32191000  0.01954000  0.57956000  1.0
  O  O190  1  0.56045000  0.75824000  0.08012000  1.0
  O  O191  1  0.67808000  0.98045000  0.42043000  1.0
