# generated using pymatgen
data_Zn2H10C32S3N6Cl8O11
_symmetry_space_group_name_H-M   'P 1'
_cell_length_a   12.68620000
_cell_length_b   16.14930000
_cell_length_c   17.25180000
_cell_angle_alpha   95.61190000
_cell_angle_beta   93.15440000
_cell_angle_gamma   94.66070000
_symmetry_Int_Tables_number   1
_chemical_formula_structural   Zn2H10C32S3N6Cl8O11
_chemical_formula_sum   'Zn2 H10 C32 S3 N6 Cl8 O11'
_cell_volume   3498.78883170
_cell_formula_units_Z   1
loop_
 _symmetry_equiv_pos_site_id
 _symmetry_equiv_pos_as_xyz
  1  'x, y, z'
loop_
 _atom_site_type_symbol
 _atom_site_label
 _atom_site_symmetry_multiplicity
 _atom_site_fract_x
 _atom_site_fract_y
 _atom_site_fract_z
 _atom_site_occupancy
  Zn  Zn0  1  0.49742000  0.40600000  0.49371000  1.0
  Zn  Zn1  1  0.51571000  0.58723000  0.50341000  1.0
  H  H2  1  0.38927000  0.70615000  0.43909000  1.0
  H  H3  1  0.38368000  0.86231000  0.43430000  1.0
  H  H4  1  0.35444000  0.10108000  0.38702000  1.0
  H  H5  1  0.59336000  0.11637000  0.57736000  1.0
  H  H6  1  0.45241000  0.60713000  0.25936000  1.0
  H  H7  1  0.44776000  0.60622000  0.11309000  1.0
  H  H8  1  0.47031000  0.65833000  0.88823000  1.0
  H  H9  1  0.48679000  0.39397000  0.89199000  1.0
  H  H10  1  0.87834000  0.63321000  0.48658000  1.0
  H  H11  1  0.05435000  0.27370000  0.41327000  1.0
  C  C12  1  0.50852000  0.49443000  0.34837000  1.0
  C  C13  1  0.30276000  0.49980000  0.49559000  1.0
  C  C14  1  0.49413000  0.49924000  0.64635000  1.0
  C  C15  1  0.70979000  0.50587000  0.50090000  1.0
  C  C16  1  0.44763000  0.75155000  0.47177000  1.0
  C  C17  1  0.44452000  0.83659000  0.46945000  1.0
  C  C18  1  0.52286000  0.89090000  0.51321000  1.0
  C  C19  1  0.60110000  0.85714000  0.55875000  1.0
  C  C20  1  0.59798000  0.76924000  0.55754000  1.0
  C  C21  1  0.41113000  0.13677000  0.42963000  1.0
  C  C22  1  0.47196000  0.09746000  0.48240000  1.0
  C  C23  1  0.54451000  0.14551000  0.53596000  1.0
  C  C24  1  0.55335000  0.23159000  0.53428000  1.0
  C  C25  1  0.42673000  0.22367000  0.43178000  1.0
  C  C26  1  0.51451000  0.48837000  0.26078000  1.0
  C  C27  1  0.47880000  0.55505000  0.22264000  1.0
  C  C28  1  0.47630000  0.55486000  0.14246000  1.0
  C  C29  1  0.50970000  0.48639000  0.09648000  1.0
  C  C30  1  0.54759000  0.41913000  0.13327000  1.0
  C  C31  1  0.55113000  0.42017000  0.21529000  1.0
  C  C32  1  0.47487000  0.59682000  0.85720000  1.0
  C  C33  1  0.48319000  0.52765000  0.89915000  1.0
  C  C34  1  0.48386000  0.44802000  0.85923000  1.0
  C  C35  1  0.48123000  0.43847000  0.77831000  1.0
  C  C36  1  0.48109000  0.50787000  0.73330000  1.0
  C  C37  1  0.47318000  0.58664000  0.77591000  1.0
  C  C38  1  0.11063000  0.43283000  0.51166000  1.0
  C  C39  1  0.90026000  0.57093000  0.49539000  1.0
  C  C40  1  0.18627000  0.49798000  0.50245000  1.0
  C  C41  1  0.82624000  0.50517000  0.50311000  1.0
  C  C42  1  0.00390000  0.54468000  0.49998000  1.0
  C  C43  1  0.00636000  0.45944000  0.51086000  1.0
  S  S44  1  0.13006000  0.59143000  0.49484000  1.0
  S  S45  1  0.88094000  0.41212000  0.51737000  1.0
  S  S46  1  0.12869000  0.32687000  0.52261000  1.0
  N  N47  1  0.52331000  0.71867000  0.51467000  1.0
  N  N48  1  0.53190000  0.97851000  0.51404000  1.0
  N  N49  1  0.45666000  0.00889000  0.47859000  1.0
  N  N50  1  0.49463000  0.27171000  0.48406000  1.0
  N  N51  1  0.50495000  0.47766000  0.01471000  1.0
  N  N52  1  0.48954000  0.54282000  0.98177000  1.0
  Cl  Cl53  1  0.69102000  0.72613000  0.61159000  1.0
  Cl  Cl54  1  0.69705000  0.91981000  0.61415000  1.0
  Cl  Cl55  1  0.35782000  0.27099000  0.36380000  1.0
  Cl  Cl56  1  0.64597000  0.28857000  0.59760000  1.0
  Cl  Cl57  1  0.60328000  0.33750000  0.25493000  1.0
  Cl  Cl58  1  0.59102000  0.33657000  0.07697000  1.0
  Cl  Cl59  1  0.45492000  0.67632000  0.73092000  1.0
  Cl  Cl60  1  0.47861000  0.33618000  0.73742000  1.0
  O  O61  1  0.52211000  0.42914000  0.38153000  1.0
  O  O62  1  0.48869000  0.56487000  0.38206000  1.0
  O  O63  1  0.35405000  0.57141000  0.51334000  1.0
  O  O64  1  0.33987000  0.43243000  0.47164000  1.0
  O  O65  1  0.53731000  0.56249000  0.61818000  1.0
  O  O66  1  0.46367000  0.42950000  0.60792000  1.0
  O  O67  1  0.65837000  0.43833000  0.51464000  1.0
  O  O68  1  0.67117000  0.57324000  0.48566000  1.0
  O  O69  1  0.12857000  0.28633000  0.43248000  1.0
  O  O70  1  0.23035000  0.31526000  0.55747000  1.0
  O  O71  1  0.03223000  0.29332000  0.55309000  1.0
