# generated using pymatgen
data_CoH18C20(NO)4
_symmetry_space_group_name_H-M   'P 1'
_cell_length_a   8.11425000
_cell_length_b   13.98750000
_cell_length_c   18.55300000
_cell_angle_alpha   93.96020000
_cell_angle_beta   89.99990000
_cell_angle_gamma   89.99960000
_symmetry_Int_Tables_number   1
_chemical_formula_structural   CoH18C20(NO)4
_chemical_formula_sum   'Co4 H72 C80 N16 O16'
_cell_volume   2100.70180348
_cell_formula_units_Z   4
loop_
 _symmetry_equiv_pos_site_id
 _symmetry_equiv_pos_as_xyz
  1  'x, y, z'
loop_
 _atom_site_type_symbol
 _atom_site_label
 _atom_site_symmetry_multiplicity
 _atom_site_fract_x
 _atom_site_fract_y
 _atom_site_fract_z
 _atom_site_occupancy
  Co  Co0  1  0.90220000  0.74664000  0.96498000  1.0
  Co  Co1  1  0.40220000  0.75336000  0.53503000  1.0
  Co  Co2  1  0.09780000  0.25335000  0.03503000  1.0
  Co  Co3  1  0.59780000  0.24664000  0.46497000  1.0
  H  H4  1  0.42595000  0.00383000  0.94031000  1.0
  H  H5  1  0.92595000  0.49617000  0.55969000  1.0
  H  H6  1  0.57405000  0.99617000  0.05969000  1.0
  H  H7  1  0.07405000  0.50383000  0.44031000  1.0
  H  H8  1  0.46514000  0.08876000  0.87571000  1.0
  H  H9  1  0.96513000  0.41124000  0.62429000  1.0
  H  H10  1  0.53486000  0.91124000  0.12429000  1.0
  H  H11  1  0.03487000  0.58876000  0.37571000  1.0
  H  H12  1  0.26949000  0.08638000  0.91976000  1.0
  H  H13  1  0.76949000  0.41362000  0.58024000  1.0
  H  H14  1  0.73051000  0.91362000  0.08024000  1.0
  H  H15  1  0.23051000  0.58638000  0.41976000  1.0
  H  H16  1  0.40362000  0.13630000  0.03866000  1.0
  H  H17  1  0.90362000  0.36370000  0.46134000  1.0
  H  H18  1  0.59638000  0.86370000  0.96134000  1.0
  H  H19  1  0.09638000  0.63630000  0.53866000  1.0
  H  H20  1  0.59906000  0.13836000  0.99657000  1.0
  H  H21  1  0.09906000  0.36164000  0.50343000  1.0
  H  H22  1  0.40094000  0.86164000  0.00343000  1.0
  H  H23  1  0.90094000  0.63836000  0.49657000  1.0
  H  H24  1  0.66962000  0.47297000  0.87535000  1.0
  H  H25  1  0.16961000  0.02703000  0.62465000  1.0
  H  H26  1  0.33039000  0.52704000  0.12465000  1.0
  H  H27  1  0.83039000  0.97297000  0.37535000  1.0
  H  H28  1  0.48019000  0.61600000  0.87218000  1.0
  H  H29  1  0.98019000  0.88400000  0.62782000  1.0
  H  H30  1  0.51980000  0.38400000  0.12782000  1.0
  H  H31  1  0.01981000  0.11600000  0.37218000  1.0
  H  H32  1  0.08909000  0.46266000  0.97128000  1.0
  H  H33  1  0.58909000  0.03734000  0.52872000  1.0
  H  H34  1  0.91091000  0.53734000  0.02872000  1.0
  H  H35  1  0.41091000  0.96266000  0.47128000  1.0
  H  H36  1  0.24507000  0.46518000  0.28270000  1.0
  H  H37  1  0.74507000  0.03482000  0.21730000  1.0
  H  H38  1  0.75493000  0.53482000  0.71730000  1.0
  H  H39  1  0.25493000  0.96518000  0.78270000  1.0
  H  H40  1  0.37353000  0.36431000  0.29153000  1.0
  H  H41  1  0.87352000  0.13569000  0.20847000  1.0
  H  H42  1  0.62647000  0.63569000  0.70847000  1.0
  H  H43  1  0.12648000  0.86431000  0.79153000  1.0
  H  H44  1  0.16655000  0.36161000  0.32097000  1.0
  H  H45  1  0.66655000  0.13839000  0.17903000  1.0
  H  H46  1  0.83345000  0.63839000  0.67903000  1.0
  H  H47  1  0.33345000  0.86161000  0.82097000  1.0
  H  H48  1  0.27067000  0.37860000  0.16176000  1.0
  H  H49  1  0.77067000  0.12140000  0.33824000  1.0
  H  H50  1  0.72933000  0.62139000  0.83825000  1.0
  H  H51  1  0.22933000  0.87861000  0.66176000  1.0
  H  H52  1  0.06813000  0.37193000  0.19200000  1.0
  H  H53  1  0.56813000  0.12807000  0.30800000  1.0
  H  H54  1  0.93187000  0.62807000  0.80800000  1.0
  H  H55  1  0.43187000  0.87193000  0.69201000  1.0
  H  H56  1  0.29301000  0.98950000  0.29102000  1.0
  H  H57  1  0.79301000  0.51050000  0.20898000  1.0
  H  H58  1  0.70700000  0.01050000  0.70898000  1.0
  H  H59  1  0.20700000  0.48950000  0.79102000  1.0
  H  H60  1  0.22635000  0.84580000  0.20854000  1.0
  H  H61  1  0.72635000  0.65420000  0.29146000  1.0
  H  H62  1  0.77366000  0.15420000  0.79145000  1.0
  H  H63  1  0.27366000  0.34580000  0.70854000  1.0
  H  H64  1  0.08772000  0.02470000  0.03784000  1.0
  H  H65  1  0.58772000  0.47530000  0.46216000  1.0
  H  H66  1  0.91227000  0.97529000  0.96216000  1.0
  H  H67  1  0.41227000  0.52471000  0.53784000  1.0
  H  H68  1  0.66995000  0.27972000  0.92284000  1.0
  H  H69  1  0.16994000  0.22028000  0.57716000  1.0
  H  H70  1  0.33006000  0.72028000  0.07716000  1.0
  H  H71  1  0.83006000  0.77972000  0.42284000  1.0
  H  H72  1  0.25818000  0.19698000  0.29608000  1.0
  H  H73  1  0.75818000  0.30302000  0.20391000  1.0
  H  H74  1  0.74182000  0.80302000  0.70392000  1.0
  H  H75  1  0.24182000  0.69698000  0.79609000  1.0
  C  C76  1  0.40275000  0.07776000  0.92698000  1.0
  C  C77  1  0.90275000  0.42224000  0.57302000  1.0
  C  C78  1  0.59725000  0.92224000  0.07302000  1.0
  C  C79  1  0.09725000  0.57776000  0.42698000  1.0
  C  C80  1  0.46655000  0.14868000  0.98771000  1.0
  C  C81  1  0.96654000  0.35132000  0.51228000  1.0
  C  C82  1  0.53345000  0.85132000  0.01229000  1.0
  C  C83  1  0.03346000  0.64869000  0.48771000  1.0
  C  C84  1  0.43744000  0.24963000  0.97088000  1.0
  C  C85  1  0.93743000  0.25037000  0.52912000  1.0
  C  C86  1  0.56257000  0.75038000  0.02912000  1.0
  C  C87  1  0.06257000  0.74963000  0.47088000  1.0
  C  C88  1  0.48074000  0.38988000  0.92521000  1.0
  C  C89  1  0.98074000  0.11012000  0.57479000  1.0
  C  C90  1  0.51926000  0.61013000  0.07480000  1.0
  C  C91  1  0.01926000  0.88988000  0.42521000  1.0
  C  C92  1  0.54355000  0.47134000  0.89536000  1.0
  C  C93  1  0.04355000  0.02867000  0.60464000  1.0
  C  C94  1  0.45645000  0.52867000  0.10464000  1.0
  C  C95  1  0.95646000  0.97134000  0.39536000  1.0
  C  C96  1  0.43901000  0.54973000  0.89397000  1.0
  C  C97  1  0.93901000  0.95027000  0.60603000  1.0
  C  C98  1  0.56099000  0.45027000  0.10603000  1.0
  C  C99  1  0.06099000  0.04973000  0.39397000  1.0
  C  C100  1  0.27607000  0.54718000  0.92077000  1.0
  C  C101  1  0.77607000  0.95282000  0.57923000  1.0
  C  C102  1  0.72393000  0.45282000  0.07923000  1.0
  C  C103  1  0.22393000  0.04718000  0.42077000  1.0
  C  C104  1  0.21401000  0.46527000  0.95058000  1.0
  C  C105  1  0.71401000  0.03473000  0.54942000  1.0
  C  C106  1  0.78599000  0.53473000  0.04942000  1.0
  C  C107  1  0.28599000  0.96527000  0.45058000  1.0
  C  C108  1  0.31873000  0.38684000  0.95357000  1.0
  C  C109  1  0.81873000  0.11316000  0.54642000  1.0
  C  C110  1  0.68127000  0.61316000  0.04643000  1.0
  C  C111  1  0.18127000  0.88684000  0.45358000  1.0
  C  C112  1  0.16994000  0.63380000  0.91743000  1.0
  C  C113  1  0.66994000  0.86619000  0.58257000  1.0
  C  C114  1  0.83006000  0.36619000  0.08257000  1.0
  C  C115  1  0.33006000  0.13381000  0.41743000  1.0
  C  C116  1  0.24783000  0.38658000  0.27884000  1.0
  C  C117  1  0.74783000  0.11342000  0.22115000  1.0
  C  C118  1  0.75217000  0.61342000  0.72116000  1.0
  C  C119  1  0.25217000  0.88658000  0.77885000  1.0
  C  C120  1  0.19416000  0.34827000  0.20351000  1.0
  C  C121  1  0.69416000  0.15173000  0.29649000  1.0
  C  C122  1  0.80584000  0.65172000  0.79649000  1.0
  C  C123  1  0.30584000  0.84828000  0.70352000  1.0
  C  C124  1  0.19884000  0.24195000  0.19006000  1.0
  C  C125  1  0.69884000  0.25805000  0.30994000  1.0
  C  C126  1  0.80115000  0.75805000  0.80994000  1.0
  C  C127  1  0.30115000  0.74195000  0.69006000  1.0
  C  C128  1  0.22580000  0.08742000  0.20940000  1.0
  C  C129  1  0.72580000  0.41258000  0.29060000  1.0
  C  C130  1  0.77420000  0.91258000  0.79060000  1.0
  C  C131  1  0.27420000  0.58742000  0.70940000  1.0
  C  C132  1  0.25063000  0.99741000  0.23615000  1.0
  C  C133  1  0.75063000  0.50259000  0.26385000  1.0
  C  C134  1  0.74937000  0.00258000  0.76385000  1.0
  C  C135  1  0.24938000  0.49742000  0.73615000  1.0
  C  C136  1  0.21299000  0.91772000  0.19016000  1.0
  C  C137  1  0.71298000  0.58228000  0.30984000  1.0
  C  C138  1  0.78702000  0.08228000  0.80983000  1.0
  C  C139  1  0.28702000  0.41772000  0.69016000  1.0
  C  C140  1  0.15128000  0.92683000  0.11970000  1.0
  C  C141  1  0.65128000  0.57317000  0.38030000  1.0
  C  C142  1  0.84871000  0.07316000  0.88030000  1.0
  C  C143  1  0.34872000  0.42684000  0.61970000  1.0
  C  C144  1  0.13415000  0.01687000  0.09205000  1.0
  C  C145  1  0.63415000  0.48312000  0.40795000  1.0
  C  C146  1  0.86584000  0.98312000  0.90795000  1.0
  C  C147  1  0.36584000  0.51688000  0.59205000  1.0
  C  C148  1  0.17354000  0.09731000  0.13744000  1.0
  C  C149  1  0.67353000  0.40269000  0.36256000  1.0
  C  C150  1  0.82646000  0.90269000  0.86256000  1.0
  C  C151  1  0.32646000  0.59731000  0.63744000  1.0
  C  C152  1  0.09702000  0.83838000  0.07615000  1.0
  C  C153  1  0.59702000  0.66161000  0.42385000  1.0
  C  C154  1  0.90298000  0.16161000  0.92385000  1.0
  C  C155  1  0.40298000  0.33839000  0.57615000  1.0
  N  N156  1  0.54991000  0.30232000  0.93652000  1.0
  N  N157  1  0.04991000  0.19768000  0.56348000  1.0
  N  N158  1  0.45009000  0.69768000  0.06348000  1.0
  N  N159  1  0.95009000  0.80233000  0.43652000  1.0
  N  N160  1  0.29602000  0.29810000  0.98253000  1.0
  N  N161  1  0.79602000  0.20190000  0.51747000  1.0
  N  N162  1  0.70398000  0.70190000  0.01747000  1.0
  N  N163  1  0.20398000  0.79810000  0.48253000  1.0
  N  N164  1  0.23911000  0.17985000  0.24076000  1.0
  N  N165  1  0.73911000  0.32015000  0.25924000  1.0
  N  N166  1  0.76089000  0.82014000  0.75924000  1.0
  N  N167  1  0.26089000  0.67986000  0.74076000  1.0
  N  N168  1  0.16150000  0.19500000  0.12664000  1.0
  N  N169  1  0.66150000  0.30500000  0.37336000  1.0
  N  N170  1  0.83849000  0.80499000  0.87336000  1.0
  N  N171  1  0.33849000  0.69501000  0.62664000  1.0
  O  O172  1  0.21813000  0.70612000  0.88598000  1.0
  O  O173  1  0.71815000  0.79388000  0.61403000  1.0
  O  O174  1  0.78185000  0.29388000  0.11402000  1.0
  O  O175  1  0.28186000  0.20612000  0.38598000  1.0
  O  O176  1  0.02721000  0.62961000  0.94830000  1.0
  O  O177  1  0.52721000  0.87039000  0.55170000  1.0
  O  O178  1  0.97279000  0.37039000  0.05170000  1.0
  O  O179  1  0.47279000  0.12961000  0.44830000  1.0
  O  O180  1  0.14089000  0.75652000  0.09296000  1.0
  O  O181  1  0.64090000  0.74348000  0.40704000  1.0
  O  O182  1  0.85911000  0.24348000  0.90704000  1.0
  O  O183  1  0.35910000  0.25652000  0.59295000  1.0
  O  O184  1  0.00154000  0.85264000  0.02181000  1.0
  O  O185  1  0.50153000  0.64735000  0.47819000  1.0
  O  O186  1  0.99847000  0.14735000  0.97819000  1.0
  O  O187  1  0.49847000  0.35265000  0.52181000  1.0
