# generated using pymatgen
data_CsH10C12N2(ClO2)2
_symmetry_space_group_name_H-M   'P 1'
_cell_length_a   6.12072000
_cell_length_b   10.82960000
_cell_length_c   12.38540000
_cell_angle_alpha   71.03100000
_cell_angle_beta   87.90140000
_cell_angle_gamma   89.76980000
_symmetry_Int_Tables_number   1
_chemical_formula_structural   CsH10C12N2(ClO2)2
_chemical_formula_sum   'Cs2 H20 C24 N4 Cl4 O8'
_cell_volume   775.83499642
_cell_formula_units_Z   2
loop_
 _symmetry_equiv_pos_site_id
 _symmetry_equiv_pos_as_xyz
  1  'x, y, z'
loop_
 _atom_site_type_symbol
 _atom_site_label
 _atom_site_symmetry_multiplicity
 _atom_site_fract_x
 _atom_site_fract_y
 _atom_site_fract_z
 _atom_site_occupancy
  Cs  Cs0  1  0.74341000  0.47409000  0.87614000  1.0
  Cs  Cs1  1  0.25660000  0.52591000  0.12385000  1.0
  H  H2  1  0.75277000  0.34215000  0.20678000  1.0
  H  H3  1  0.24723000  0.65785000  0.79321000  1.0
  H  H4  1  0.69304000  0.25679000  0.12933000  1.0
  H  H5  1  0.30698000  0.74321000  0.87067000  1.0
  H  H6  1  0.36702000  0.82266000  0.60903000  1.0
  H  H7  1  0.63296000  0.17734000  0.39097000  1.0
  H  H8  1  0.15672000  0.92391000  0.52803000  1.0
  H  H9  1  0.84326000  0.07610000  0.47197000  1.0
  H  H10  1  0.31931000  0.83048000  0.46438000  1.0
  H  H11  1  0.68067000  0.16952000  0.53562000  1.0
  H  H12  1  0.82090000  0.81323000  0.48585000  1.0
  H  H13  1  0.17909000  0.18677000  0.51415000  1.0
  H  H14  1  0.98192000  0.71663000  0.42684000  1.0
  H  H15  1  0.01808000  0.28337000  0.57315000  1.0
  H  H16  1  0.62143000  0.60884000  0.48399000  1.0
  H  H17  1  0.37856000  0.39116000  0.51601000  1.0
  H  H18  1  0.63280000  0.61879000  0.62330000  1.0
  H  H19  1  0.36720000  0.38122000  0.37670000  1.0
  H  H20  1  0.81065000  0.51111000  0.58063000  1.0
  H  H21  1  0.18935000  0.48889000  0.41937000  1.0
  C  C22  1  0.72536000  0.04260000  0.01741000  1.0
  C  C23  1  0.27464000  0.95741000  0.98260000  1.0
  C  C24  1  0.74102000  0.01640000  0.90939000  1.0
  C  C25  1  0.25900000  0.98359000  0.09062000  1.0
  C  C26  1  0.75676000  0.88997000  0.90367000  1.0
  C  C27  1  0.24327000  0.11004000  0.09633000  1.0
  C  C28  1  0.76443000  0.77618000  0.00664000  1.0
  C  C29  1  0.23558000  0.22381000  0.99336000  1.0
  C  C30  1  0.74925000  0.80319000  0.11550000  1.0
  C  C31  1  0.25075000  0.19683000  0.88450000  1.0
  C  C32  1  0.73453000  0.92797000  0.12070000  1.0
  C  C33  1  0.26548000  0.07202000  0.87930000  1.0
  C  C34  1  0.74653000  0.12701000  0.80905000  1.0
  C  C35  1  0.25348000  0.87299000  0.19096000  1.0
  C  C36  1  0.76857000  0.86962000  0.79628000  1.0
  C  C37  1  0.23145000  0.13039000  0.20373000  1.0
  C  C38  1  0.07950000  0.71943000  0.58710000  1.0
  C  C39  1  0.92048000  0.28059000  0.41288000  1.0
  C  C40  1  0.24204000  0.83016000  0.54614000  1.0
  C  C41  1  0.75795000  0.16984000  0.45386000  1.0
  C  C42  1  0.90061000  0.71725000  0.50767000  1.0
  C  C43  1  0.09938000  0.28274000  0.49233000  1.0
  C  C44  1  0.73300000  0.60737000  0.55180000  1.0
  C  C45  1  0.26699000  0.39263000  0.44820000  1.0
  N  N46  1  0.75130000  0.21921000  0.72711000  1.0
  N  N47  1  0.24870000  0.78079000  0.27288000  1.0
  N  N48  1  0.77555000  0.85596000  0.70635000  1.0
  N  N49  1  0.22446000  0.14404000  0.29364000  1.0
  Cl  Cl50  1  0.75540000  0.66890000  0.23513000  1.0
  Cl  Cl51  1  0.24459000  0.33109000  0.76487000  1.0
  Cl  Cl52  1  0.73081000  0.96012000  0.24699000  1.0
  Cl  Cl53  1  0.26920000  0.03987000  0.75302000  1.0
  O  O54  1  0.70724000  0.15723000  0.02081000  1.0
  O  O55  1  0.29277000  0.84276000  0.97920000  1.0
  O  O56  1  0.78848000  0.66250000  0.00336000  1.0
  O  O57  1  0.21151000  0.33750000  0.99664000  1.0
  O  O58  1  0.67226000  0.34240000  0.13894000  1.0
  O  O59  1  0.32774000  0.65760000  0.86106000  1.0
  O  O60  1  0.09464000  0.63286000  0.68092000  1.0
  O  O61  1  0.90534000  0.36713000  0.31909000  1.0
