# generated using pymatgen
data_AlH14C21O5F2
_symmetry_space_group_name_H-M   'P 1'
_cell_length_a   6.66720000
_cell_length_b   21.59950000
_cell_length_c   25.43690000
_cell_angle_alpha   84.40010000
_cell_angle_beta   89.99980000
_cell_angle_gamma   89.99980000
_symmetry_Int_Tables_number   1
_chemical_formula_structural   AlH14C21O5F2
_chemical_formula_sum   'Al4 H56 C84 O20 F8'
_cell_volume   3645.63984513
_cell_formula_units_Z   4
loop_
 _symmetry_equiv_pos_site_id
 _symmetry_equiv_pos_as_xyz
  1  'x, y, z'
loop_
 _atom_site_type_symbol
 _atom_site_label
 _atom_site_symmetry_multiplicity
 _atom_site_fract_x
 _atom_site_fract_y
 _atom_site_fract_z
 _atom_site_occupancy
  Al  Al0  1  0.78266000  0.25033000  0.75170000  1.0
  Al  Al1  1  0.21732000  0.74965000  0.24830000  1.0
  Al  Al2  1  0.28265000  0.24966000  0.74829000  1.0
  Al  Al3  1  0.71733000  0.75033000  0.25170000  1.0
  H  H4  1  0.98491000  0.46050000  0.72805000  1.0
  H  H5  1  0.01510000  0.53949000  0.27196000  1.0
  H  H6  1  0.48491000  0.03950000  0.77196000  1.0
  H  H7  1  0.51509000  0.96050000  0.22805000  1.0
  H  H8  1  0.05077000  0.37093000  0.50869000  1.0
  H  H9  1  0.94936000  0.62907000  0.49132000  1.0
  H  H10  1  0.55064000  0.12907000  0.99133000  1.0
  H  H11  1  0.44931000  0.87094000  0.00868000  1.0
  H  H12  1  0.31451000  0.15956000  0.61323000  1.0
  H  H13  1  0.68545000  0.84044000  0.38676000  1.0
  H  H14  1  0.81452000  0.34043000  0.88676000  1.0
  H  H15  1  0.18550000  0.65957000  0.11323000  1.0
  H  H16  1  0.72457000  0.02645000  0.59043000  1.0
  H  H17  1  0.27539000  0.97354000  0.40956000  1.0
  H  H18  1  0.22460000  0.47354000  0.90956000  1.0
  H  H19  1  0.77541000  0.52645000  0.09043000  1.0
  H  H20  1  0.92267000  0.38893000  0.32239000  1.0
  H  H21  1  0.04345000  0.43727000  0.27135000  1.0
  H  H22  1  0.18532000  0.39788000  0.32358000  1.0
  H  H23  1  0.07734000  0.61107000  0.67763000  1.0
  H  H24  1  0.81471000  0.60212000  0.67644000  1.0
  H  H25  1  0.95653000  0.56272000  0.72867000  1.0
  H  H26  1  0.42266000  0.11107000  0.17763000  1.0
  H  H27  1  0.54347000  0.06272000  0.22867000  1.0
  H  H28  1  0.68530000  0.10212000  0.17644000  1.0
  H  H29  1  0.57734000  0.88893000  0.82239000  1.0
  H  H30  1  0.31470000  0.89789000  0.82358000  1.0
  H  H31  1  0.45654000  0.93727000  0.77135000  1.0
  H  H32  1  0.32641000  0.10229000  0.48979000  1.0
  H  H33  1  0.48905000  0.11778000  0.54265000  1.0
  H  H34  1  0.42373000  0.04003000  0.53202000  1.0
  H  H35  1  0.67355000  0.89771000  0.51019000  1.0
  H  H36  1  0.57623000  0.95998000  0.46796000  1.0
  H  H37  1  0.51089000  0.88222000  0.45733000  1.0
  H  H38  1  0.82642000  0.39771000  0.01020000  1.0
  H  H39  1  0.98909000  0.38221000  0.95734000  1.0
  H  H40  1  0.92376000  0.45997000  0.96797000  1.0
  H  H41  1  0.17360000  0.60230000  0.98979000  1.0
  H  H42  1  0.07627000  0.54004000  0.03202000  1.0
  H  H43  1  0.01094000  0.61779000  0.04265000  1.0
  H  H44  1  0.71513000  0.08637000  0.71309000  1.0
  H  H45  1  0.58644000  0.13840000  0.66796000  1.0
  H  H46  1  0.56715000  0.05689000  0.66247000  1.0
  H  H47  1  0.28483000  0.91362000  0.28690000  1.0
  H  H48  1  0.43281000  0.94310000  0.33752000  1.0
  H  H49  1  0.41355000  0.86159000  0.33203000  1.0
  H  H50  1  0.21513000  0.41363000  0.78691000  1.0
  H  H51  1  0.08643000  0.36159000  0.83204000  1.0
  H  H52  1  0.06716000  0.44310000  0.83752000  1.0
  H  H53  1  0.78486000  0.58637000  0.21308000  1.0
  H  H54  1  0.93286000  0.55690000  0.16247000  1.0
  H  H55  1  0.91358000  0.63841000  0.16796000  1.0
  H  H56  1  0.53937000  0.28386000  0.68473000  1.0
  H  H57  1  0.46061000  0.71613000  0.31526000  1.0
  H  H58  1  0.03936000  0.21613000  0.81526000  1.0
  H  H59  1  0.96061000  0.78386000  0.18473000  1.0
  C  C60  1  0.52942000  0.31975000  0.81918000  1.0
  C  C61  1  0.47060000  0.68024000  0.18082000  1.0
  C  C62  1  0.02941000  0.18024000  0.68082000  1.0
  C  C63  1  0.97057000  0.81975000  0.31918000  1.0
  C  C64  1  0.53005000  0.15292000  0.80640000  1.0
  C  C65  1  0.46996000  0.84708000  0.19361000  1.0
  C  C66  1  0.03003000  0.34708000  0.69360000  1.0
  C  C67  1  0.96995000  0.65291000  0.30640000  1.0
  C  C68  1  0.97838000  0.59138000  0.33930000  1.0
  C  C69  1  0.02161000  0.40862000  0.66071000  1.0
  C  C70  1  0.47839000  0.90862000  0.16071000  1.0
  C  C71  1  0.52162000  0.09138000  0.83930000  1.0
  C  C72  1  0.02030000  0.47904000  0.34397000  1.0
  C  C73  1  0.97970000  0.52096000  0.65604000  1.0
  C  C74  1  0.52031000  0.02096000  0.15604000  1.0
  C  C75  1  0.47972000  0.97905000  0.84397000  1.0
  C  C76  1  0.00553000  0.53647000  0.31494000  1.0
  C  C77  1  0.99449000  0.46353000  0.68508000  1.0
  C  C78  1  0.50551000  0.96353000  0.18507000  1.0
  C  C79  1  0.49449000  0.03648000  0.81494000  1.0
  C  C80  1  0.96911000  0.58843000  0.39354000  1.0
  C  C81  1  0.03089000  0.41157000  0.60647000  1.0
  C  C82  1  0.46911000  0.91157000  0.10647000  1.0
  C  C83  1  0.53091000  0.08844000  0.89353000  1.0
  C  C84  1  0.98921000  0.53246000  0.42724000  1.0
  C  C85  1  0.01081000  0.46754000  0.57277000  1.0
  C  C86  1  0.48922000  0.96754000  0.07277000  1.0
  C  C87  1  0.51082000  0.03247000  0.92724000  1.0
  C  C88  1  0.01371000  0.47691000  0.40036000  1.0
  C  C89  1  0.98631000  0.52309000  0.59965000  1.0
  C  C90  1  0.51371000  0.02309000  0.09966000  1.0
  C  C91  1  0.48633000  0.97692000  0.90036000  1.0
  C  C92  1  0.98855000  0.52922000  0.48463000  1.0
  C  C93  1  0.01146000  0.47078000  0.51538000  1.0
  C  C94  1  0.48857000  0.97078000  0.01538000  1.0
  C  C95  1  0.51147000  0.02922000  0.98463000  1.0
  C  C96  1  0.03327000  0.41680000  0.48796000  1.0
  C  C97  1  0.96677000  0.58321000  0.51204000  1.0
  C  C98  1  0.53323000  0.08321000  0.01205000  1.0
  C  C99  1  0.46677000  0.91680000  0.98796000  1.0
  C  C100  1  0.03335000  0.42081000  0.43424000  1.0
  C  C101  1  0.96667000  0.57920000  0.56577000  1.0
  C  C102  1  0.53333000  0.07920000  0.06577000  1.0
  C  C103  1  0.46669000  0.92081000  0.93424000  1.0
  C  C104  1  0.18875000  0.09112000  0.56691000  1.0
  C  C105  1  0.81124000  0.90888000  0.43307000  1.0
  C  C106  1  0.68876000  0.40888000  0.93308000  1.0
  C  C107  1  0.31124000  0.59112000  0.06691000  1.0
  C  C108  1  0.18529000  0.13015000  0.60732000  1.0
  C  C109  1  0.81468000  0.86985000  0.39267000  1.0
  C  C110  1  0.68530000  0.36985000  0.89268000  1.0
  C  C111  1  0.31471000  0.63015000  0.10731000  1.0
  C  C112  1  0.01958000  0.13423000  0.64089000  1.0
  C  C113  1  0.98041000  0.86576000  0.35910000  1.0
  C  C114  1  0.51958000  0.36576000  0.85910000  1.0
  C  C115  1  0.48043000  0.63424000  0.14089000  1.0
  C  C116  1  0.84908000  0.09612000  0.63559000  1.0
  C  C117  1  0.15090000  0.90387000  0.36441000  1.0
  C  C118  1  0.34908000  0.40387000  0.86441000  1.0
  C  C119  1  0.65092000  0.59613000  0.13559000  1.0
  C  C120  1  0.85303000  0.05659000  0.59542000  1.0
  C  C121  1  0.14694000  0.94341000  0.40458000  1.0
  C  C122  1  0.35306000  0.44341000  0.90458000  1.0
  C  C123  1  0.64696000  0.55659000  0.09542000  1.0
  C  C124  1  0.01602000  0.05419000  0.56042000  1.0
  C  C125  1  0.98393000  0.94582000  0.43957000  1.0
  C  C126  1  0.51605000  0.44581000  0.93957000  1.0
  C  C127  1  0.48396000  0.55419000  0.06042000  1.0
  C  C128  1  0.00493000  0.01582000  0.51861000  1.0
  C  C129  1  0.99496000  0.98420000  0.48137000  1.0
  C  C130  1  0.50499000  0.48420000  0.98138000  1.0
  C  C131  1  0.49503000  0.51580000  0.01861000  1.0
  C  C132  1  0.04435000  0.42267000  0.31390000  1.0
  C  C133  1  0.95566000  0.57733000  0.68612000  1.0
  C  C134  1  0.54435000  0.07733000  0.18612000  1.0
  C  C135  1  0.45566000  0.92267000  0.81390000  1.0
  C  C136  1  0.36676000  0.08797000  0.53114000  1.0
  C  C137  1  0.63320000  0.91204000  0.46884000  1.0
  C  C138  1  0.86678000  0.41203000  0.96885000  1.0
  C  C139  1  0.13324000  0.58798000  0.03114000  1.0
  C  C140  1  0.66930000  0.09433000  0.67149000  1.0
  C  C141  1  0.33068000  0.90567000  0.32850000  1.0
  C  C142  1  0.16930000  0.40566000  0.82850000  1.0
  C  C143  1  0.83071000  0.59434000  0.17149000  1.0
  O  O144  1  0.36154000  0.17541000  0.79139000  1.0
  O  O145  1  0.63846000  0.82458000  0.20859000  1.0
  O  O146  1  0.86153000  0.32458000  0.70859000  1.0
  O  O147  1  0.13845000  0.67541000  0.29140000  1.0
  O  O148  1  0.70274000  0.30168000  0.80554000  1.0
  O  O149  1  0.29728000  0.69831000  0.19445000  1.0
  O  O150  1  0.20272000  0.19832000  0.69445000  1.0
  O  O151  1  0.79725000  0.80168000  0.30555000  1.0
  O  O152  1  0.70129000  0.17642000  0.79559000  1.0
  O  O153  1  0.29871000  0.82358000  0.20441000  1.0
  O  O154  1  0.20129000  0.32358000  0.70441000  1.0
  O  O155  1  0.79869000  0.67641000  0.29560000  1.0
  O  O156  1  0.86337000  0.19957000  0.69780000  1.0
  O  O157  1  0.13661000  0.80042000  0.30220000  1.0
  O  O158  1  0.36338000  0.30041000  0.80220000  1.0
  O  O159  1  0.63662000  0.69957000  0.19780000  1.0
  O  O160  1  0.53480000  0.25754000  0.71783000  1.0
  O  O161  1  0.46517000  0.74246000  0.28217000  1.0
  O  O162  1  0.03480000  0.24246000  0.78217000  1.0
  O  O163  1  0.96519000  0.75753000  0.21783000  1.0
  F  F164  1  0.05554000  0.36595000  0.41212000  1.0
  F  F165  1  0.94457000  0.63407000  0.58788000  1.0
  F  F166  1  0.55541000  0.13407000  0.08789000  1.0
  F  F167  1  0.44454000  0.86594000  0.91213000  1.0
  F  F168  1  0.05659000  0.35542000  0.58644000  1.0
  F  F169  1  0.94341000  0.64458000  0.41357000  1.0
  F  F170  1  0.55662000  0.14459000  0.91357000  1.0
  F  F171  1  0.44342000  0.85542000  0.08644000  1.0
