# generated using pymatgen
data_AlH7C13O5F
_symmetry_space_group_name_H-M   'P 1'
_cell_length_a   6.62135000
_cell_length_b   11.04751861
_cell_length_c   15.23300000
_cell_angle_alpha   93.64548573
_cell_angle_beta   101.55190000
_cell_angle_gamma   106.30069396
_symmetry_Int_Tables_number   1
_chemical_formula_structural   AlH7C13O5F
_chemical_formula_sum   'Al2 H14 C26 O10 F2'
_cell_volume   1039.29330978
_cell_formula_units_Z   2
loop_
 _symmetry_equiv_pos_site_id
 _symmetry_equiv_pos_as_xyz
  1  'x, y, z'
loop_
 _atom_site_type_symbol
 _atom_site_label
 _atom_site_symmetry_multiplicity
 _atom_site_fract_x
 _atom_site_fract_y
 _atom_site_fract_z
 _atom_site_occupancy
  Al  Al0  1  0.00770000  0.50469000  0.50061000  1.0
  Al  Al1  1  0.50913000  0.50670000  0.50206000  1.0
  H  H2  1  0.34170000  0.58331000  0.61058000  1.0
  H  H3  1  0.65414000  0.34954000  0.45112000  1.0
  H  H4  1  0.56742000  0.38643000  0.76613000  1.0
  H  H5  1  0.65848000  0.37480000  0.93041000  1.0
  H  H6  1  0.47021000  0.54961000  0.23058000  1.0
  H  H7  1  0.38374000  0.54802000  0.06447000  1.0
  H  H8  1  0.79538000  0.45305000  0.23060000  1.0
  H  H9  1  0.70519000  0.45425000  0.06477000  1.0
  H  H10  1  0.21079000  0.62884000  0.78270000  1.0
  H  H11  1  0.29630000  0.63106000  0.94845000  1.0
  H  H12  1  0.50275000  0.75520000  0.39302000  1.0
  H  H13  1  0.76013000  0.22152000  0.37655000  1.0
  H  H14  1  0.37538000  0.12589000  0.55013000  1.0
  H  H15  1  0.25625000  0.88887000  0.54599000  1.0
  C  C16  1  0.86770000  0.72923000  0.49063000  1.0
  C  C17  1  0.83118000  0.51140000  0.66471000  1.0
  C  C18  1  0.13902000  0.27511000  0.49410000  1.0
  C  C19  1  0.18906000  0.50079000  0.33992000  1.0
  C  C20  1  0.88372000  0.50782000  0.76395000  1.0
  C  C21  1  0.13792000  0.50103000  0.24054000  1.0
  C  C22  1  0.72775000  0.43844000  0.80666000  1.0
  C  C23  1  0.77916000  0.43385000  0.89924000  1.0
  C  C24  1  0.30312000  0.52845000  0.19326000  1.0
  C  C25  1  0.25317000  0.52822000  0.10018000  1.0
  C  C26  1  0.92250000  0.47370000  0.19311000  1.0
  C  C27  1  0.87348000  0.47385000  0.10012000  1.0
  C  C28  1  0.09025000  0.57423000  0.81589000  1.0
  C  C29  1  0.13826000  0.57358000  0.90888000  1.0
  C  C30  1  0.98467000  0.50246000  0.95265000  1.0
  C  C31  1  0.03745000  0.50114000  0.05149000  1.0
  C  C32  1  0.92855000  0.86779000  0.48116000  1.0
  C  C33  1  0.77678000  0.92760000  0.43771000  1.0
  C  C34  1  0.14222000  0.93807000  0.51699000  1.0
  C  C35  1  0.56224000  0.85726000  0.39206000  1.0
  C  C36  1  0.42845000  0.91777000  0.34539000  1.0
  C  C37  1  0.06499000  0.13328000  0.48142000  1.0
  C  C38  1  0.20957000  0.07056000  0.51825000  1.0
  C  C39  1  0.84867000  0.06292000  0.43580000  1.0
  C  C40  1  0.70616000  0.12117000  0.38464000  1.0
  C  C41  1  0.50125000  0.04979000  0.34082000  1.0
  O  O42  1  0.00600000  0.67255000  0.48098000  1.0
  O  O43  1  0.63325000  0.49342000  0.62638000  1.0
  O  O44  1  0.33134000  0.32988000  0.48738000  1.0
  O  O45  1  0.03127000  0.47627000  0.37875000  1.0
  O  O46  1  0.00507000  0.33086000  0.51242000  1.0
  O  O47  1  0.38685000  0.52418000  0.38028000  1.0
  O  O48  1  0.68761000  0.67857000  0.51080000  1.0
  O  O49  1  0.98837000  0.53315000  0.62523000  1.0
  O  O50  1  0.30576000  0.56419000  0.54526000  1.0
  O  O51  1  0.70886000  0.44168000  0.46190000  1.0
  F  F52  1  0.22416000  0.85192000  0.30078000  1.0
  F  F53  1  0.36530000  0.10439000  0.29095000  1.0
