# generated using pymatgen
data_CoH18C26N4O5
_symmetry_space_group_name_H-M   'P 1'
_cell_length_a   12.39220000
_cell_length_b   20.27310000
_cell_length_c   21.44140000
_cell_angle_alpha   90.00020000
_cell_angle_beta   89.99950000
_cell_angle_gamma   89.99990000
_symmetry_Int_Tables_number   1
_chemical_formula_structural   CoH18C26N4O5
_chemical_formula_sum   'Co8 H144 C208 N32 O40'
_cell_volume   5386.68668193
_cell_formula_units_Z   8
loop_
 _symmetry_equiv_pos_site_id
 _symmetry_equiv_pos_as_xyz
  1  'x, y, z'
loop_
 _atom_site_type_symbol
 _atom_site_label
 _atom_site_symmetry_multiplicity
 _atom_site_fract_x
 _atom_site_fract_y
 _atom_site_fract_z
 _atom_site_occupancy
  Co  Co0  1  0.51329000  0.95044000  0.91702000  1.0
  Co  Co1  1  0.51330000  0.04956000  0.58298000  1.0
  Co  Co2  1  0.98669000  0.54955000  0.91703000  1.0
  Co  Co3  1  0.98669000  0.45045000  0.58296000  1.0
  Co  Co4  1  0.48672000  0.04951000  0.08297000  1.0
  Co  Co5  1  0.48673000  0.95049000  0.41704000  1.0
  Co  Co6  1  0.01327000  0.45048000  0.08298000  1.0
  Co  Co7  1  0.01328000  0.54952000  0.41702000  1.0
  H  H8  1  0.22631000  0.56232000  0.65813000  1.0
  H  H9  1  0.22631000  0.43768000  0.84187000  1.0
  H  H10  1  0.27371000  0.93768000  0.65814000  1.0
  H  H11  1  0.27373000  0.06233000  0.84187000  1.0
  H  H12  1  0.77372000  0.43768000  0.34184000  1.0
  H  H13  1  0.77372000  0.56231000  0.15816000  1.0
  H  H14  1  0.72629000  0.06233000  0.34186000  1.0
  H  H15  1  0.72629000  0.93767000  0.15815000  1.0
  H  H16  1  0.27434000  0.94739000  0.91093000  1.0
  H  H17  1  0.27434000  0.05262000  0.58907000  1.0
  H  H18  1  0.22566000  0.55261000  0.91094000  1.0
  H  H19  1  0.22567000  0.44740000  0.58905000  1.0
  H  H20  1  0.72568000  0.05261000  0.08908000  1.0
  H  H21  1  0.72567000  0.94738000  0.41092000  1.0
  H  H22  1  0.77433000  0.44738000  0.08909000  1.0
  H  H23  1  0.77433000  0.55261000  0.41092000  1.0
  H  H24  1  0.38908000  0.62766000  0.69061000  1.0
  H  H25  1  0.38909000  0.37234000  0.80939000  1.0
  H  H26  1  0.11093000  0.87233000  0.69062000  1.0
  H  H27  1  0.11095000  0.12767000  0.80938000  1.0
  H  H28  1  0.61093000  0.37234000  0.30935000  1.0
  H  H29  1  0.61093000  0.62765000  0.19065000  1.0
  H  H30  1  0.88908000  0.12767000  0.30937000  1.0
  H  H31  1  0.88907000  0.87233000  0.19063000  1.0
  H  H32  1  0.65149000  0.77251000  0.79947000  1.0
  H  H33  1  0.65149000  0.22749000  0.70053000  1.0
  H  H34  1  0.84850000  0.72749000  0.79948000  1.0
  H  H35  1  0.84851000  0.27252000  0.70053000  1.0
  H  H36  1  0.34847000  0.22747000  0.20052000  1.0
  H  H37  1  0.34849000  0.77252000  0.29949000  1.0
  H  H38  1  0.15149000  0.27252000  0.20053000  1.0
  H  H39  1  0.15149000  0.72749000  0.29948000  1.0
  H  H40  1  0.34350000  0.78769000  0.65088000  1.0
  H  H41  1  0.34349000  0.21231000  0.84913000  1.0
  H  H42  1  0.15652000  0.71230000  0.65090000  1.0
  H  H43  1  0.15653000  0.28770000  0.84910000  1.0
  H  H44  1  0.65653000  0.21230000  0.34910000  1.0
  H  H45  1  0.65654000  0.78769000  0.15090000  1.0
  H  H46  1  0.84347000  0.28770000  0.34911000  1.0
  H  H47  1  0.84346000  0.71229000  0.15089000  1.0
  H  H48  1  0.65177000  0.70479000  0.70082000  1.0
  H  H49  1  0.65178000  0.29522000  0.79919000  1.0
  H  H50  1  0.84824000  0.79521000  0.70083000  1.0
  H  H51  1  0.84824000  0.20479000  0.79917000  1.0
  H  H52  1  0.34820000  0.29521000  0.29917000  1.0
  H  H53  1  0.34821000  0.70478000  0.20084000  1.0
  H  H54  1  0.15178000  0.20479000  0.29918000  1.0
  H  H55  1  0.15177000  0.79522000  0.20083000  1.0
  H  H56  1  0.24052000  0.65010000  0.47584000  1.0
  H  H57  1  0.24050000  0.34991000  0.02416000  1.0
  H  H58  1  0.25950000  0.84991000  0.47585000  1.0
  H  H59  1  0.25950000  0.15010000  0.02415000  1.0
  H  H60  1  0.75951000  0.34990000  0.52412000  1.0
  H  H61  1  0.75952000  0.65010000  0.97587000  1.0
  H  H62  1  0.74047000  0.15010000  0.52414000  1.0
  H  H63  1  0.74048000  0.84990000  0.97586000  1.0
  H  H64  1  0.75507000  0.95028000  0.91800000  1.0
  H  H65  1  0.75506000  0.04972000  0.58200000  1.0
  H  H66  1  0.74493000  0.54971000  0.91801000  1.0
  H  H67  1  0.74493000  0.45029000  0.58198000  1.0
  H  H68  1  0.24494000  0.04973000  0.08201000  1.0
  H  H69  1  0.24494000  0.95026000  0.41798000  1.0
  H  H70  1  0.25507000  0.45026000  0.08202000  1.0
  H  H71  1  0.25506000  0.54975000  0.41797000  1.0
  H  H72  1  0.34875000  0.85865000  0.74641000  1.0
  H  H73  1  0.34875000  0.14135000  0.75359000  1.0
  H  H74  1  0.15124000  0.64135000  0.74643000  1.0
  H  H75  1  0.15124000  0.35866000  0.75357000  1.0
  H  H76  1  0.65121000  0.14133000  0.25357000  1.0
  H  H77  1  0.65124000  0.85866000  0.24643000  1.0
  H  H78  1  0.84875000  0.35866000  0.25358000  1.0
  H  H79  1  0.84875000  0.64134000  0.24643000  1.0
  H  H80  1  0.49106000  0.84791000  0.02408000  1.0
  H  H81  1  0.49107000  0.15209000  0.47592000  1.0
  H  H82  1  0.00893000  0.65207000  0.02409000  1.0
  H  H83  1  0.00894000  0.34793000  0.47590000  1.0
  H  H84  1  0.50892000  0.15208000  0.97594000  1.0
  H  H85  1  0.50892000  0.84792000  0.52407000  1.0
  H  H86  1  0.99107000  0.34792000  0.97594000  1.0
  H  H87  1  0.99107000  0.65208000  0.52406000  1.0
  H  H88  1  0.40347000  0.71548000  0.50794000  1.0
  H  H89  1  0.40345000  0.28453000  0.99206000  1.0
  H  H90  1  0.09656000  0.78452000  0.50794000  1.0
  H  H91  1  0.09656000  0.21548000  0.99205000  1.0
  H  H92  1  0.59656000  0.28452000  0.49204000  1.0
  H  H93  1  0.59657000  0.71548000  0.00797000  1.0
  H  H94  1  0.90344000  0.21549000  0.49205000  1.0
  H  H95  1  0.90343000  0.78451000  0.00795000  1.0
  H  H96  1  0.00565000  0.01920000  0.83894000  1.0
  H  H97  1  0.00564000  0.98080000  0.66106000  1.0
  H  H98  1  0.49434000  0.48080000  0.83895000  1.0
  H  H99  1  0.49435000  0.51919000  0.66104000  1.0
  H  H100  1  0.99435000  0.98081000  0.16107000  1.0
  H  H101  1  0.99436000  0.01918000  0.33893000  1.0
  H  H102  1  0.50564000  0.51919000  0.16107000  1.0
  H  H103  1  0.50564000  0.48081000  0.33892000  1.0
  H  H104  1  0.53231000  0.05276000  0.81154000  1.0
  H  H105  1  0.53230000  0.94724000  0.68845000  1.0
  H  H106  1  0.96768000  0.44722000  0.81155000  1.0
  H  H107  1  0.96768000  0.55278000  0.68844000  1.0
  H  H108  1  0.46769000  0.94723000  0.18845000  1.0
  H  H109  1  0.46769000  0.05276000  0.31154000  1.0
  H  H110  1  0.03230000  0.55276000  0.18846000  1.0
  H  H111  1  0.03231000  0.44724000  0.31154000  1.0
  H  H112  1  0.15139000  0.83697000  0.06768000  1.0
  H  H113  1  0.15140000  0.16303000  0.43232000  1.0
  H  H114  1  0.34862000  0.66303000  0.06769000  1.0
  H  H115  1  0.34862000  0.33698000  0.43230000  1.0
  H  H116  1  0.84862000  0.16303000  0.93233000  1.0
  H  H117  1  0.84862000  0.83697000  0.56767000  1.0
  H  H118  1  0.65139000  0.33698000  0.93234000  1.0
  H  H119  1  0.65139000  0.66303000  0.56767000  1.0
  H  H120  1  0.34362000  0.80490000  0.09192000  1.0
  H  H121  1  0.34363000  0.19509000  0.40809000  1.0
  H  H122  1  0.15637000  0.69509000  0.09193000  1.0
  H  H123  1  0.15637000  0.30492000  0.40806000  1.0
  H  H124  1  0.65636000  0.19509000  0.90809000  1.0
  H  H125  1  0.65636000  0.80491000  0.59192000  1.0
  H  H126  1  0.84363000  0.30491000  0.90810000  1.0
  H  H127  1  0.84363000  0.69508000  0.59191000  1.0
  H  H128  1  0.87213000  0.08501000  0.77755000  1.0
  H  H129  1  0.87212000  0.91499000  0.72245000  1.0
  H  H130  1  0.62785000  0.41499000  0.77755000  1.0
  H  H131  1  0.62786000  0.58501000  0.72245000  1.0
  H  H132  1  0.12786000  0.91499000  0.22247000  1.0
  H  H133  1  0.12786000  0.08500000  0.27753000  1.0
  H  H134  1  0.37213000  0.58502000  0.22247000  1.0
  H  H135  1  0.37213000  0.41500000  0.27753000  1.0
  H  H136  1  0.02252000  0.89887000  0.00184000  1.0
  H  H137  1  0.02252000  0.10113000  0.49816000  1.0
  H  H138  1  0.47748000  0.60113000  0.00185000  1.0
  H  H139  1  0.47749000  0.39887000  0.49814000  1.0
  H  H140  1  0.97749000  0.10114000  0.99817000  1.0
  H  H141  1  0.97748000  0.89886000  0.50183000  1.0
  H  H142  1  0.52251000  0.39886000  0.99818000  1.0
  H  H143  1  0.52252000  0.60113000  0.50182000  1.0
  H  H144  1  0.67854000  0.10975000  0.75155000  1.0
  H  H145  1  0.67852000  0.89024000  0.74845000  1.0
  H  H146  1  0.82145000  0.39024000  0.75155000  1.0
  H  H147  1  0.82146000  0.60977000  0.74845000  1.0
  H  H148  1  0.32147000  0.89022000  0.24846000  1.0
  H  H149  1  0.32147000  0.10977000  0.25154000  1.0
  H  H150  1  0.17851000  0.60977000  0.24846000  1.0
  H  H151  1  0.17852000  0.39023000  0.25154000  1.0
  C  C152  1  0.26571000  0.59602000  0.62572000  1.0
  C  C153  1  0.26572000  0.40398000  0.87427000  1.0
  C  C154  1  0.23431000  0.90398000  0.62574000  1.0
  C  C155  1  0.23432000  0.09602000  0.87427000  1.0
  C  C156  1  0.73432000  0.40398000  0.37424000  1.0
  C  C157  1  0.73431000  0.59601000  0.12576000  1.0
  C  C158  1  0.76570000  0.09602000  0.37426000  1.0
  C  C159  1  0.76571000  0.90398000  0.12574000  1.0
  C  C160  1  0.22455000  0.60194000  0.56501000  1.0
  C  C161  1  0.22454000  0.39806000  0.93498000  1.0
  C  C162  1  0.27548000  0.89807000  0.56503000  1.0
  C  C163  1  0.27549000  0.10194000  0.93498000  1.0
  C  C164  1  0.77546000  0.39807000  0.43497000  1.0
  C  C165  1  0.77546000  0.60193000  0.06503000  1.0
  C  C166  1  0.72454000  0.10194000  0.43498000  1.0
  C  C167  1  0.72454000  0.89807000  0.06502000  1.0
  C  C168  1  0.49758000  0.74268000  0.67118000  1.0
  C  C169  1  0.49758000  0.25732000  0.82883000  1.0
  C  C170  1  0.00243000  0.75731000  0.67118000  1.0
  C  C171  1  0.00244000  0.24269000  0.82881000  1.0
  C  C172  1  0.50242000  0.25732000  0.32881000  1.0
  C  C173  1  0.50242000  0.74268000  0.17120000  1.0
  C  C174  1  0.99757000  0.24268000  0.32881000  1.0
  C  C175  1  0.99756000  0.75732000  0.17119000  1.0
  C  C176  1  0.50508000  0.86523000  0.83266000  1.0
  C  C177  1  0.50510000  0.13478000  0.66734000  1.0
  C  C178  1  0.99492000  0.63477000  0.83267000  1.0
  C  C179  1  0.99491000  0.36523000  0.66732000  1.0
  C  C180  1  0.49490000  0.13478000  0.16734000  1.0
  C  C181  1  0.49490000  0.86521000  0.33267000  1.0
  C  C182  1  0.00507000  0.36521000  0.16735000  1.0
  C  C183  1  0.00506000  0.63479000  0.33266000  1.0
  C  C184  1  0.50026000  0.81958000  0.77841000  1.0
  C  C185  1  0.50027000  0.18042000  0.72159000  1.0
  C  C186  1  0.99974000  0.68042000  0.77842000  1.0
  C  C187  1  0.99973000  0.31959000  0.72158000  1.0
  C  C188  1  0.49972000  0.18043000  0.22159000  1.0
  C  C189  1  0.49973000  0.81956000  0.27842000  1.0
  C  C190  1  0.00025000  0.31956000  0.22159000  1.0
  C  C191  1  0.00024000  0.68044000  0.27842000  1.0
  C  C192  1  0.40552000  0.67377000  0.60035000  1.0
  C  C193  1  0.40552000  0.32624000  0.89965000  1.0
  C  C194  1  0.09448000  0.82624000  0.60035000  1.0
  C  C195  1  0.09450000  0.17377000  0.89964000  1.0
  C  C196  1  0.59451000  0.32623000  0.39962000  1.0
  C  C197  1  0.59451000  0.67377000  0.10038000  1.0
  C  C198  1  0.90550000  0.17377000  0.39964000  1.0
  C  C199  1  0.90550000  0.82622000  0.10037000  1.0
  C  C200  1  0.82883000  0.01563000  0.85038000  1.0
  C  C201  1  0.82882000  0.98437000  0.64962000  1.0
  C  C202  1  0.67116000  0.48437000  0.85038000  1.0
  C  C203  1  0.67117000  0.51563000  0.64961000  1.0
  C  C204  1  0.17119000  0.98437000  0.14963000  1.0
  C  C205  1  0.17119000  0.01562000  0.35036000  1.0
  C  C206  1  0.32882000  0.51563000  0.14963000  1.0
  C  C207  1  0.32882000  0.48438000  0.35036000  1.0
  C  C208  1  0.13047000  0.56104000  0.54558000  1.0
  C  C209  1  0.13046000  0.43896000  0.95441000  1.0
  C  C210  1  0.36956000  0.93897000  0.54561000  1.0
  C  C211  1  0.36956000  0.06104000  0.95439000  1.0
  C  C212  1  0.86955000  0.43894000  0.45439000  1.0
  C  C213  1  0.86955000  0.56106000  0.04560000  1.0
  C  C214  1  0.63046000  0.06106000  0.45442000  1.0
  C  C215  1  0.63046000  0.93895000  0.04559000  1.0
  C  C216  1  0.28686000  0.91618000  0.95164000  1.0
  C  C217  1  0.28687000  0.08383000  0.54837000  1.0
  C  C218  1  0.21314000  0.58382000  0.95164000  1.0
  C  C219  1  0.21314000  0.41618000  0.54835000  1.0
  C  C220  1  0.71315000  0.08382000  0.04838000  1.0
  C  C221  1  0.71314000  0.91617000  0.45162000  1.0
  C  C222  1  0.78685000  0.41618000  0.04838000  1.0
  C  C223  1  0.78685000  0.58382000  0.45162000  1.0
  C  C224  1  0.35609000  0.63185000  0.64362000  1.0
  C  C225  1  0.35609000  0.36816000  0.85637000  1.0
  C  C226  1  0.14391000  0.86816000  0.64363000  1.0
  C  C227  1  0.14393000  0.13184000  0.85637000  1.0
  C  C228  1  0.64394000  0.36816000  0.35633000  1.0
  C  C229  1  0.64394000  0.63184000  0.14366000  1.0
  C  C230  1  0.85608000  0.13184000  0.35636000  1.0
  C  C231  1  0.85608000  0.86815000  0.14365000  1.0
  C  C232  1  0.19823000  0.89465000  0.98700000  1.0
  C  C233  1  0.19824000  0.10535000  0.51300000  1.0
  C  C234  1  0.30177000  0.60535000  0.98700000  1.0
  C  C235  1  0.30176000  0.39465000  0.51299000  1.0
  C  C236  1  0.80177000  0.10535000  0.01301000  1.0
  C  C237  1  0.80176000  0.89464000  0.48698000  1.0
  C  C238  1  0.69823000  0.39465000  0.01302000  1.0
  C  C239  1  0.69823000  0.60534000  0.48698000  1.0
  C  C240  1  0.58510000  0.77577000  0.76620000  1.0
  C  C241  1  0.58511000  0.22424000  0.73381000  1.0
  C  C242  1  0.91489000  0.72423000  0.76620000  1.0
  C  C243  1  0.91490000  0.27577000  0.73380000  1.0
  C  C244  1  0.41487000  0.22424000  0.23379000  1.0
  C  C245  1  0.41488000  0.77576000  0.26621000  1.0
  C  C246  1  0.08510000  0.27576000  0.23380000  1.0
  C  C247  1  0.08509000  0.72424000  0.26621000  1.0
  C  C248  1  0.41072000  0.78469000  0.68351000  1.0
  C  C249  1  0.41072000  0.21531000  0.81650000  1.0
  C  C250  1  0.08929000  0.71531000  0.68351000  1.0
  C  C251  1  0.08929000  0.28470000  0.81648000  1.0
  C  C252  1  0.58929000  0.21530000  0.31649000  1.0
  C  C253  1  0.58929000  0.78469000  0.18352000  1.0
  C  C254  1  0.91071000  0.28470000  0.31650000  1.0
  C  C255  1  0.91070000  0.71530000  0.18351000  1.0
  C  C256  1  0.58519000  0.73792000  0.71190000  1.0
  C  C257  1  0.58519000  0.26209000  0.78811000  1.0
  C  C258  1  0.91481000  0.76208000  0.71190000  1.0
  C  C259  1  0.91482000  0.23793000  0.78810000  1.0
  C  C260  1  0.41479000  0.26208000  0.28809000  1.0
  C  C261  1  0.41479000  0.73791000  0.21192000  1.0
  C  C262  1  0.08520000  0.23792000  0.28810000  1.0
  C  C263  1  0.08518000  0.76208000  0.21191000  1.0
  C  C264  1  0.27408000  0.64502000  0.52260000  1.0
  C  C265  1  0.27407000  0.35498000  0.97740000  1.0
  C  C266  1  0.22594000  0.85498000  0.52262000  1.0
  C  C267  1  0.22595000  0.14503000  0.97738000  1.0
  C  C268  1  0.72593000  0.35498000  0.47737000  1.0
  C  C269  1  0.72594000  0.64501000  0.02263000  1.0
  C  C270  1  0.77406000  0.14503000  0.47739000  1.0
  C  C271  1  0.77407000  0.85498000  0.02262000  1.0
  C  C272  1  0.74111000  0.98588000  0.88089000  1.0
  C  C273  1  0.74110000  0.01412000  0.61911000  1.0
  C  C274  1  0.75889000  0.51411000  0.88090000  1.0
  C  C275  1  0.75889000  0.48588000  0.61910000  1.0
  C  C276  1  0.25890000  0.01413000  0.11912000  1.0
  C  C277  1  0.25890000  0.98586000  0.38087000  1.0
  C  C278  1  0.24111000  0.48587000  0.11913000  1.0
  C  C279  1  0.24111000  0.51414000  0.38087000  1.0
  C  C280  1  0.41337000  0.82368000  0.73669000  1.0
  C  C281  1  0.41337000  0.17632000  0.76331000  1.0
  C  C282  1  0.08664000  0.67632000  0.73671000  1.0
  C  C283  1  0.08663000  0.32369000  0.76329000  1.0
  C  C284  1  0.58662000  0.17631000  0.26330000  1.0
  C  C285  1  0.58663000  0.82368000  0.23671000  1.0
  C  C286  1  0.91335000  0.32368000  0.26330000  1.0
  C  C287  1  0.91334000  0.67632000  0.23670000  1.0
  C  C288  1  0.40714000  0.86062000  0.01494000  1.0
  C  C289  1  0.40715000  0.13938000  0.48506000  1.0
  C  C290  1  0.09286000  0.63938000  0.01495000  1.0
  C  C291  1  0.09286000  0.36064000  0.48504000  1.0
  C  C292  1  0.59285000  0.13937000  0.98508000  1.0
  C  C293  1  0.59285000  0.86063000  0.51493000  1.0
  C  C294  1  0.90714000  0.36063000  0.98508000  1.0
  C  C295  1  0.90714000  0.63937000  0.51493000  1.0
  C  C296  1  0.36458000  0.68137000  0.54018000  1.0
  C  C297  1  0.36456000  0.31864000  0.95982000  1.0
  C  C298  1  0.13545000  0.81864000  0.54018000  1.0
  C  C299  1  0.13546000  0.18137000  0.95981000  1.0
  C  C300  1  0.63545000  0.31863000  0.45979000  1.0
  C  C301  1  0.63546000  0.68137000  0.04021000  1.0
  C  C302  1  0.86455000  0.18138000  0.45981000  1.0
  C  C303  1  0.86455000  0.81862000  0.04020000  1.0
  C  C304  1  0.93922000  0.99861000  0.86689000  1.0
  C  C305  1  0.93920000  0.00139000  0.63311000  1.0
  C  C306  1  0.56078000  0.50139000  0.86689000  1.0
  C  C307  1  0.56079000  0.49861000  0.63310000  1.0
  C  C308  1  0.06080000  0.00139000  0.13312000  1.0
  C  C309  1  0.06080000  0.99860000  0.36687000  1.0
  C  C310  1  0.43920000  0.49861000  0.13313000  1.0
  C  C311  1  0.43920000  0.50140000  0.36687000  1.0
  C  C312  1  0.61726000  0.04352000  0.82139000  1.0
  C  C313  1  0.61725000  0.95648000  0.67860000  1.0
  C  C314  1  0.88273000  0.45646000  0.82140000  1.0
  C  C315  1  0.88274000  0.54354000  0.67859000  1.0
  C  C316  1  0.38275000  0.95646000  0.17860000  1.0
  C  C317  1  0.38275000  0.04352000  0.32140000  1.0
  C  C318  1  0.11725000  0.54352000  0.17861000  1.0
  C  C319  1  0.11725000  0.45647000  0.32139000  1.0
  C  C320  1  0.21832000  0.85436000  0.03901000  1.0
  C  C321  1  0.21833000  0.14564000  0.46099000  1.0
  C  C322  1  0.28168000  0.64564000  0.03902000  1.0
  C  C323  1  0.28167000  0.35437000  0.46097000  1.0
  C  C324  1  0.78167000  0.14564000  0.96101000  1.0
  C  C325  1  0.78167000  0.85436000  0.53900000  1.0
  C  C326  1  0.71833000  0.35436000  0.96102000  1.0
  C  C327  1  0.71833000  0.64564000  0.53899000  1.0
  C  C328  1  0.32433000  0.83659000  0.05245000  1.0
  C  C329  1  0.32434000  0.16341000  0.44755000  1.0
  C  C330  1  0.17567000  0.66341000  0.05246000  1.0
  C  C331  1  0.17567000  0.33660000  0.44753000  1.0
  C  C332  1  0.67566000  0.16341000  0.94757000  1.0
  C  C333  1  0.67566000  0.83659000  0.55244000  1.0
  C  C334  1  0.82433000  0.33658000  0.94758000  1.0
  C  C335  1  0.82433000  0.66341000  0.55243000  1.0
  C  C336  1  0.80631000  0.06131000  0.80294000  1.0
  C  C337  1  0.80630000  0.93868000  0.69705000  1.0
  C  C338  1  0.69368000  0.43868000  0.80294000  1.0
  C  C339  1  0.69368000  0.56132000  0.69706000  1.0
  C  C340  1  0.19369000  0.93868000  0.19707000  1.0
  C  C341  1  0.19369000  0.06132000  0.30293000  1.0
  C  C342  1  0.30630000  0.56133000  0.19707000  1.0
  C  C343  1  0.30630000  0.43868000  0.30293000  1.0
  C  C344  1  0.08871000  0.91392000  0.97082000  1.0
  C  C345  1  0.08871000  0.08609000  0.52918000  1.0
  C  C346  1  0.41129000  0.58608000  0.97083000  1.0
  C  C347  1  0.41129000  0.41392000  0.52916000  1.0
  C  C348  1  0.91130000  0.08609000  0.02919000  1.0
  C  C349  1  0.91129000  0.91390000  0.47080000  1.0
  C  C350  1  0.58870000  0.41391000  0.02920000  1.0
  C  C351  1  0.58871000  0.58609000  0.47080000  1.0
  C  C352  1  0.69925000  0.07526000  0.78850000  1.0
  C  C353  1  0.69924000  0.92474000  0.71150000  1.0
  C  C354  1  0.80074000  0.42473000  0.78850000  1.0
  C  C355  1  0.80075000  0.57527000  0.71149000  1.0
  C  C356  1  0.30076000  0.92472000  0.21151000  1.0
  C  C357  1  0.30076000  0.07527000  0.28849000  1.0
  C  C358  1  0.19923000  0.57527000  0.21151000  1.0
  C  C359  1  0.19924000  0.42473000  0.28849000  1.0
  N  N360  1  0.38911000  0.90091000  0.96589000  1.0
  N  N361  1  0.38913000  0.09909000  0.53412000  1.0
  N  N362  1  0.11088000  0.59908000  0.96589000  1.0
  N  N363  1  0.11088000  0.40093000  0.53410000  1.0
  N  N364  1  0.61088000  0.09907000  0.03413000  1.0
  N  N365  1  0.61087000  0.90092000  0.46588000  1.0
  N  N366  1  0.88911000  0.40092000  0.03413000  1.0
  N  N367  1  0.88912000  0.59907000  0.46587000  1.0
  N  N368  1  0.63808000  0.99940000  0.86710000  1.0
  N  N369  1  0.63807000  0.00059000  0.63289000  1.0
  N  N370  1  0.86192000  0.50058000  0.86712000  1.0
  N  N371  1  0.86192000  0.49942000  0.63287000  1.0
  N  N372  1  0.36193000  0.00058000  0.13289000  1.0
  N  N373  1  0.36193000  0.99941000  0.36711000  1.0
  N  N374  1  0.13808000  0.49940000  0.13290000  1.0
  N  N375  1  0.13808000  0.50060000  0.36710000  1.0
  N  N376  1  0.95964000  0.96012000  0.91362000  1.0
  N  N377  1  0.95963000  0.03989000  0.58639000  1.0
  N  N378  1  0.54036000  0.53987000  0.91362000  1.0
  N  N379  1  0.54037000  0.46012000  0.58637000  1.0
  N  N380  1  0.04038000  0.03991000  0.08641000  1.0
  N  N381  1  0.04038000  0.96007000  0.41357000  1.0
  N  N382  1  0.45962000  0.46010000  0.08641000  1.0
  N  N383  1  0.45963000  0.53991000  0.41358000  1.0
  N  N384  1  0.06873000  0.94789000  0.92094000  1.0
  N  N385  1  0.06872000  0.05212000  0.57906000  1.0
  N  N386  1  0.43127000  0.55211000  0.92095000  1.0
  N  N387  1  0.43127000  0.44788000  0.57905000  1.0
  N  N388  1  0.93128000  0.05215000  0.07909000  1.0
  N  N389  1  0.93129000  0.94783000  0.42090000  1.0
  N  N390  1  0.56871000  0.44786000  0.07909000  1.0
  N  N391  1  0.56872000  0.55215000  0.42090000  1.0
  O  O392  1  0.50041000  0.70662000  0.61601000  1.0
  O  O393  1  0.50041000  0.29338000  0.88399000  1.0
  O  O394  1  0.99960000  0.79338000  0.61602000  1.0
  O  O395  1  0.99961000  0.20662000  0.88398000  1.0
  O  O396  1  0.49960000  0.29338000  0.38397000  1.0
  O  O397  1  0.49961000  0.70662000  0.11602000  1.0
  O  O398  1  0.00040000  0.20662000  0.38398000  1.0
  O  O399  1  0.00039000  0.79337000  0.11602000  1.0
  O  O400  1  0.07426000  0.53372000  0.58832000  1.0
  O  O401  1  0.07426000  0.46628000  0.91166000  1.0
  O  O402  1  0.42577000  0.96629000  0.58835000  1.0
  O  O403  1  0.42578000  0.03372000  0.91166000  1.0
  O  O404  1  0.92577000  0.46626000  0.41165000  1.0
  O  O405  1  0.92577000  0.53375000  0.08834000  1.0
  O  O406  1  0.57425000  0.03374000  0.41168000  1.0
  O  O407  1  0.57425000  0.96626000  0.08833000  1.0
  O  O408  1  0.44717000  0.91760000  0.83122000  1.0
  O  O409  1  0.44720000  0.08241000  0.66878000  1.0
  O  O410  1  0.05282000  0.58240000  0.83122000  1.0
  O  O411  1  0.05281000  0.41760000  0.66877000  1.0
  O  O412  1  0.55280000  0.08241000  0.16880000  1.0
  O  O413  1  0.55280000  0.91758000  0.33122000  1.0
  O  O414  1  0.94718000  0.41758000  0.16880000  1.0
  O  O415  1  0.94717000  0.58241000  0.33121000  1.0
  O  O416  1  0.11346000  0.55497000  0.48742000  1.0
  O  O417  1  0.11345000  0.44504000  0.01257000  1.0
  O  O418  1  0.38658000  0.94505000  0.48746000  1.0
  O  O419  1  0.38657000  0.05495000  0.01255000  1.0
  O  O420  1  0.88662000  0.44504000  0.51254000  1.0
  O  O421  1  0.88660000  0.55496000  0.98745000  1.0
  O  O422  1  0.61339000  0.05497000  0.51257000  1.0
  O  O423  1  0.61340000  0.94503000  0.98744000  1.0
  O  O424  1  0.56832000  0.85392000  0.87836000  1.0
  O  O425  1  0.56834000  0.14609000  0.62163000  1.0
  O  O426  1  0.93167000  0.64608000  0.87836000  1.0
  O  O427  1  0.93167000  0.35393000  0.62163000  1.0
  O  O428  1  0.43166000  0.14609000  0.12165000  1.0
  O  O429  1  0.43165000  0.85390000  0.37836000  1.0
  O  O430  1  0.06832000  0.35389000  0.12166000  1.0
  O  O431  1  0.06832000  0.64610000  0.37835000  1.0
