# generated using pymatgen
data_CdH4C6(SN2)2
_symmetry_space_group_name_H-M   'P 1'
_cell_length_a   7.29136000
_cell_length_b   7.29324000
_cell_length_c   10.24250000
_cell_angle_alpha   98.80280000
_cell_angle_beta   103.85900000
_cell_angle_gamma   116.64800000
_symmetry_Int_Tables_number   1
_chemical_formula_structural   CdH4C6(SN2)2
_chemical_formula_sum   'Cd2 H8 C12 S4 N8'
_cell_volume   450.84994879
_cell_formula_units_Z   2
loop_
 _symmetry_equiv_pos_site_id
 _symmetry_equiv_pos_as_xyz
  1  'x, y, z'
loop_
 _atom_site_type_symbol
 _atom_site_label
 _atom_site_symmetry_multiplicity
 _atom_site_fract_x
 _atom_site_fract_y
 _atom_site_fract_z
 _atom_site_occupancy
  Cd  Cd0  1  0.65888000  0.90874000  0.75001000  1.0
  Cd  Cd1  1  0.34113000  0.09126000  0.24999000  1.0
  H  H2  1  0.44165000  0.68226000  0.96852000  1.0
  H  H3  1  0.78605000  0.52674000  0.46849000  1.0
  H  H4  1  0.55835000  0.31774000  0.03148000  1.0
  H  H5  1  0.21395000  0.47326000  0.53151000  1.0
  H  H6  1  0.11090000  0.35525000  0.96959000  1.0
  H  H7  1  0.11413000  0.85867000  0.46964000  1.0
  H  H8  1  0.88910000  0.64475000  0.03041000  1.0
  H  H9  1  0.88587000  0.14133000  0.53036000  1.0
  C  C10  1  0.90857000  0.12988000  0.09854000  1.0
  C  C11  1  0.46859000  0.18979000  0.59852000  1.0
  C  C12  1  0.09142000  0.87011000  0.90145000  1.0
  C  C13  1  0.53142000  0.81021000  0.40148000  1.0
  C  C14  1  0.31590000  0.56056000  0.87084000  1.0
  C  C15  1  0.81020000  0.55487000  0.37081000  1.0
  C  C16  1  0.68410000  0.43944000  0.12916000  1.0
  C  C17  1  0.18980000  0.44513000  0.62918000  1.0
  C  C18  1  0.13291000  0.37943000  0.87082000  1.0
  C  C19  1  0.99130000  0.73786000  0.37083000  1.0
  C  C20  1  0.86709000  0.62057000  0.12918000  1.0
  C  C21  1  0.00870000  0.26214000  0.62917000  1.0
  S  S22  1  0.10792000  0.29743000  0.24441000  1.0
  S  S23  1  0.44703000  0.13633000  0.74441000  1.0
  S  S24  1  0.89211000  0.70259000  0.75561000  1.0
  S  S25  1  0.55296000  0.86366000  0.25560000  1.0
  N  N26  1  0.76246000  0.01027000  0.99184000  1.0
  N  N27  1  0.48143000  0.22925000  0.49181000  1.0
  N  N28  1  0.23751000  0.98972000  0.00814000  1.0
  N  N29  1  0.51859000  0.77076000  0.50819000  1.0
  N  N30  1  0.34321000  0.59323000  0.75002000  1.0
  N  N31  1  0.65679000  0.40677000  0.24998000  1.0
  N  N32  1  0.97970000  0.22965000  0.74998000  1.0
  N  N33  1  0.02030000  0.77035000  0.25001000  1.0
