# generated using pymatgen
data_ZnH26C22(N2O3)2
_symmetry_space_group_name_H-M   'P 1'
_cell_length_a   5.22827000
_cell_length_b   7.58069000
_cell_length_c   13.94974697
_cell_angle_alpha   80.44979878
_cell_angle_beta   79.21643589
_cell_angle_gamma   89.98940000
_symmetry_Int_Tables_number   1
_chemical_formula_structural   ZnH26C22(N2O3)2
_chemical_formula_sum   'Zn1 H26 C22 N4 O6'
_cell_volume   535.32033233
_cell_formula_units_Z   1
loop_
 _symmetry_equiv_pos_site_id
 _symmetry_equiv_pos_as_xyz
  1  'x, y, z'
loop_
 _atom_site_type_symbol
 _atom_site_label
 _atom_site_symmetry_multiplicity
 _atom_site_fract_x
 _atom_site_fract_y
 _atom_site_fract_z
 _atom_site_occupancy
  Zn  Zn0  1  0.92923000  0.99964000  0.00007000  1.0
  H  H1  1  0.57030000  0.67621000  0.99853000  1.0
  H  H2  1  0.56888000  0.32323000  0.00159000  1.0
  H  H3  1  0.83046000  0.64164000  0.90209000  1.0
  H  H4  1  0.73301000  0.35773000  0.09796000  1.0
  H  H5  1  0.13122000  0.55094000  0.77126000  1.0
  H  H6  1  0.90366000  0.44890000  0.22886000  1.0
  H  H7  1  0.46244000  0.50120000  0.63577000  1.0
  H  H8  1  0.09882000  0.49855000  0.36444000  1.0
  H  H9  1  0.56835000  0.30707000  0.70493000  1.0
  H  H10  1  0.27447000  0.69235000  0.29537000  1.0
  H  H11  1  0.06231000  0.47378000  0.55711000  1.0
  H  H12  1  0.61976000  0.52690000  0.44266000  1.0
  H  H13  1  0.77913000  0.26825000  0.49805000  1.0
  H  H14  1  0.27851000  0.73319000  0.50143000  1.0
  H  H15  1  0.77112000  0.94200000  0.55766000  1.0
  H  H16  1  0.33158000  0.05933000  0.44196000  1.0
  H  H17  1  0.05753000  0.81835000  0.67700000  1.0
  H  H18  1  0.73802000  0.18214000  0.32281000  1.0
  H  H19  1  0.34166000  0.02070000  0.73395000  1.0
  H  H20  1  0.07817000  0.97896000  0.26613000  1.0
  H  H21  1  0.84126000  0.94349000  0.83422000  1.0
  H  H22  1  0.67588000  0.05592000  0.16588000  1.0
  H  H23  1  0.56134000  0.98279000  0.90192000  1.0
  H  H24  1  0.46350000  0.01670000  0.09819000  1.0
  H  H25  1  0.62468000  0.43852000  0.83899000  1.0
  H  H26  1  0.46469000  0.56089000  0.16120000  1.0
  C  C27  1  0.65333000  0.71661000  0.91953000  1.0
  C  C28  1  0.57310000  0.28291000  0.08057000  1.0
  C  C29  1  0.44393000  0.67428000  0.86344000  1.0
  C  C30  1  0.30783000  0.32542000  0.13666000  1.0
  C  C31  1  0.26507000  0.44347000  0.78768000  1.0
  C  C32  1  0.05383000  0.55639000  0.21247000  1.0
  C  C33  1  0.09837000  0.29264000  0.85991000  1.0
  C  C34  1  0.95914000  0.70721000  0.14024000  1.0
  C  C35  1  0.39455000  0.38023000  0.69020000  1.0
  C  C36  1  0.08578000  0.61952000  0.30995000  1.0
  C  C37  1  0.22395000  0.26197000  0.64982000  1.0
  C  C38  1  0.87517000  0.73814000  0.35013000  1.0
  C  C39  1  0.06444000  0.32965000  0.58277000  1.0
  C  C40  1  0.64829000  0.67097000  0.41701000  1.0
  C  C41  1  0.90405000  0.21463000  0.54965000  1.0
  C  C42  1  0.45521000  0.78643000  0.44993000  1.0
  C  C43  1  0.89751000  0.03040000  0.58364000  1.0
  C  C44  1  0.48365000  0.97065000  0.41602000  1.0
  C  C45  1  0.05665000  0.96195000  0.65006000  1.0
  C  C46  1  0.70965000  0.03864000  0.34981000  1.0
  C  C47  1  0.21956000  0.07653000  0.68190000  1.0
  C  C48  1  0.90377000  0.92354000  0.31808000  1.0
  N  N49  1  0.72575000  0.90827000  0.90278000  1.0
  N  N50  1  0.62871000  0.09124000  0.09734000  1.0
  N  N51  1  0.46475000  0.51647000  0.83061000  1.0
  N  N52  1  0.29625000  0.48316000  0.16960000  1.0
  O  O53  1  0.26231000  0.77843000  0.85375000  1.0
  O  O54  1  0.11637000  0.22149000  0.14629000  1.0
  O  O55  1  0.85896000  0.28556000  0.85798000  1.0
  O  O56  1  0.71781000  0.71389000  0.14199000  1.0
  O  O57  1  0.20857000  0.17919000  0.91722000  1.0
  O  O58  1  0.12646000  0.82075000  0.08296000  1.0
