# generated using pymatgen
data_Cu8H60C33(Br4N3)2
_symmetry_space_group_name_H-M   'P 1'
_cell_length_a   6.65476000
_cell_length_b   14.85572360
_cell_length_c   14.85490000
_cell_angle_alpha   59.99950201
_cell_angle_beta   90.00040000
_cell_angle_gamma   89.99740008
_symmetry_Int_Tables_number   1
_chemical_formula_structural   Cu8H60C33(Br4N3)2
_chemical_formula_sum   'Cu8 H60 C33 Br8 N6'
_cell_volume   1271.81631606
_cell_formula_units_Z   1
loop_
 _symmetry_equiv_pos_site_id
 _symmetry_equiv_pos_as_xyz
  1  'x, y, z'
loop_
 _atom_site_type_symbol
 _atom_site_label
 _atom_site_symmetry_multiplicity
 _atom_site_fract_x
 _atom_site_fract_y
 _atom_site_fract_z
 _atom_site_occupancy
  Cu  Cu0  1  0.53796000  0.06411000  0.05750000  1.0
  Cu  Cu1  1  0.53798000  0.87839000  0.06412000  1.0
  Cu  Cu2  1  0.53796000  0.05750000  0.87840000  1.0
  Cu  Cu3  1  0.23289000  0.00001000  0.00000000  1.0
  Cu  Cu4  1  0.76327000  0.29364000  0.25405000  1.0
  Cu  Cu5  1  0.76329000  0.45234000  0.29363000  1.0
  Cu  Cu6  1  0.76330000  0.25403000  0.45232000  1.0
  Cu  Cu7  1  0.06949000  0.33333333  0.33333333  1.0
  H  H8  1  0.91917000  0.15598000  0.06387000  1.0
  H  H9  1  0.91917000  0.78014000  0.15599000  1.0
  H  H10  1  0.91912000  0.06384000  0.78017000  1.0
  H  H11  1  0.93376000  0.17188000  0.17455000  1.0
  H  H12  1  0.93376000  0.65357000  0.17190000  1.0
  H  H13  1  0.93374000  0.17451000  0.65358000  1.0
  H  H14  1  0.63433000  0.28016000  0.99611000  1.0
  H  H15  1  0.63432000  0.72373000  0.28017000  1.0
  H  H16  1  0.63428000  0.99612000  0.72372000  1.0
  H  H17  1  0.35893000  0.21740000  0.10902000  1.0
  H  H18  1  0.35894000  0.67358000  0.21740000  1.0
  H  H19  1  0.35892000  0.10904000  0.67356000  1.0
  H  H20  1  0.35214000  0.22870000  0.22296000  1.0
  H  H21  1  0.35213000  0.54836000  0.22870000  1.0
  H  H22  1  0.35210000  0.22296000  0.54833000  1.0
  H  H23  1  0.62913000  0.10472000  0.30117000  1.0
  H  H24  1  0.62910000  0.59412000  0.10472000  1.0
  H  H25  1  0.62908000  0.30116000  0.59411000  1.0
  H  H26  1  0.42740000  0.04858000  0.26697000  1.0
  H  H27  1  0.42739000  0.68447000  0.04858000  1.0
  H  H28  1  0.42738000  0.26696000  0.68446000  1.0
  H  H29  1  0.84063000  0.43712000  0.95791000  1.0
  H  H30  1  0.84062000  0.60495000  0.43716000  1.0
  H  H31  1  0.84054000  0.95789000  0.60497000  1.0
  H  H32  1  0.98515000  0.33974000  0.95283000  1.0
  H  H33  1  0.98516000  0.70742000  0.33976000  1.0
  H  H34  1  0.98511000  0.95280000  0.70743000  1.0
  H  H35  1  0.00243000  0.35729000  0.06313000  1.0
  H  H36  1  0.00243000  0.57957000  0.35732000  1.0
  H  H37  1  0.00236000  0.06309000  0.57957000  1.0
  H  H38  1  0.90789000  0.97579000  0.19175000  1.0
  H  H39  1  0.90787000  0.83245000  0.97579000  1.0
  H  H40  1  0.90789000  0.19173000  0.83246000  1.0
  H  H41  1  0.91278000  0.01477000  0.28695000  1.0
  H  H42  1  0.91277000  0.69828000  0.01478000  1.0
  H  H43  1  0.91274000  0.28693000  0.69827000  1.0
  H  H44  1  0.57306000  0.87452000  0.28375000  1.0
  H  H45  1  0.57303000  0.84173000  0.87453000  1.0
  H  H46  1  0.57305000  0.28373000  0.84175000  1.0
  H  H47  1  0.87674000  0.85591000  0.44963000  1.0
  H  H48  1  0.87669000  0.69448000  0.85591000  1.0
  H  H49  1  0.87676000  0.44957000  0.69449000  1.0
  H  H50  1  0.67290000  0.76290000  0.46507000  1.0
  H  H51  1  0.67287000  0.77205000  0.76288000  1.0
  H  H52  1  0.67297000  0.46504000  0.77207000  1.0
  H  H53  1  0.39592000  0.40269000  0.12569000  1.0
  H  H54  1  0.39593000  0.47162000  0.40271000  1.0
  H  H55  1  0.39593000  0.12575000  0.47156000  1.0
  H  H56  1  0.62231000  0.46094000  0.06071000  1.0
  H  H57  1  0.62233000  0.47835000  0.46096000  1.0
  H  H58  1  0.62229000  0.06075000  0.47830000  1.0
  H  H59  1  0.32147000  0.37089000  0.96666000  1.0
  H  H60  1  0.32147000  0.66245000  0.37089000  1.0
  H  H61  1  0.32146000  0.96672000  0.66239000  1.0
  H  H62  1  0.51111000  0.58727000  0.88720000  1.0
  H  H63  1  0.51116000  0.52552000  0.58730000  1.0
  H  H64  1  0.51102000  0.88726000  0.52544000  1.0
  H  H65  1  0.34298000  0.54496000  0.81498000  1.0
  H  H66  1  0.34303000  0.64006000  0.54498000  1.0
  H  H67  1  0.34287000  0.81504000  0.63999000  1.0
  C  C68  1  0.82973000  0.17129000  0.11690000  1.0
  C  C69  1  0.82976000  0.71180000  0.17129000  1.0
  C  C70  1  0.82974000  0.11689000  0.71181000  1.0
  C  C71  1  0.73450000  0.27812000  0.05645000  1.0
  C  C72  1  0.73451000  0.66542000  0.27815000  1.0
  C  C73  1  0.73444000  0.05643000  0.66543000  1.0
  C  C74  1  0.45100000  0.21469000  0.17206000  1.0
  C  C75  1  0.45098000  0.61327000  0.21470000  1.0
  C  C76  1  0.45096000  0.17205000  0.61325000  1.0
  C  C77  1  0.54544000  0.10819000  0.23523000  1.0
  C  C78  1  0.54544000  0.65659000  0.10818000  1.0
  C  C79  1  0.54542000  0.23524000  0.65658000  1.0
  C  C80  1  0.90002000  0.35814000  0.00480000  1.0
  C  C81  1  0.89999000  0.63704000  0.35816000  1.0
  C  C82  1  0.89995000  0.00478000  0.63705000  1.0
  C  C83  1  0.81213000  0.99202000  0.24252000  1.0
  C  C84  1  0.81216000  0.76546000  0.99203000  1.0
  C  C85  1  0.81215000  0.24250000  0.76546000  1.0
  C  C86  1  0.69902000  0.89650000  0.31598000  1.0
  C  C87  1  0.69894000  0.78754000  0.89649000  1.0
  C  C88  1  0.69899000  0.31595000  0.78754000  1.0
  C  C89  1  0.75124000  0.83580000  0.41547000  1.0
  C  C90  1  0.75123000  0.74872000  0.83582000  1.0
  C  C91  1  0.75128000  0.41543000  0.74874000  1.0
  C  C92  1  0.50932000  0.40227000  0.07195000  1.0
  C  C93  1  0.50934000  0.52579000  0.40229000  1.0
  C  C94  1  0.50933000  0.07197000  0.52575000  1.0
  C  C95  1  0.41162000  0.43055000  0.97015000  1.0
  C  C96  1  0.41164000  0.59930000  0.43057000  1.0
  C  C97  1  0.41155000  0.97018000  0.59926000  1.0
  C  C98  1  0.42329000  0.52541000  0.88649000  1.0
  C  C99  1  0.42330000  0.58810000  0.52543000  1.0
  C  C100  1  0.42321000  0.88655000  0.58802000  1.0
  Br  Br101  1  0.82978000  0.00000000  0.00000000  1.0
  Br  Br102  1  0.27064000  0.86871000  0.18120000  1.0
  Br  Br103  1  0.27063000  0.95011000  0.86871000  1.0
  Br  Br104  1  0.27060000  0.18119000  0.95011000  1.0
  Br  Br105  1  0.46233000  0.33333333  0.33337667  1.0
  Br  Br106  1  0.00814000  0.15868000  0.36127000  1.0
  Br  Br107  1  0.00803000  0.48001000  0.15866000  1.0
  Br  Br108  1  0.00811000  0.36129000  0.48003000  1.0
  N  N109  1  0.68510000  0.08386000  0.17197000  1.0
  N  N110  1  0.68509000  0.74416000  0.08387000  1.0
  N  N111  1  0.68507000  0.17196000  0.74416000  1.0
  N  N112  1  0.60724000  0.29763000  0.12824000  1.0
  N  N113  1  0.60725000  0.57414000  0.29763000  1.0
  N  N114  1  0.60722000  0.12824000  0.57412000  1.0
