# generated using pymatgen
data_CdH12C14S2(NO)6
_symmetry_space_group_name_H-M   'P 1'
_cell_length_a   5.54688000
_cell_length_b   12.54550000
_cell_length_c   13.71670000
_cell_angle_alpha   80.18910000
_cell_angle_beta   90.00180000
_cell_angle_gamma   90.00020000
_symmetry_Int_Tables_number   1
_chemical_formula_structural   CdH12C14S2(NO)6
_chemical_formula_sum   'Cd2 H24 C28 S4 N12 O12'
_cell_volume   940.56355180
_cell_formula_units_Z   2
loop_
 _symmetry_equiv_pos_site_id
 _symmetry_equiv_pos_as_xyz
  1  'x, y, z'
loop_
 _atom_site_type_symbol
 _atom_site_label
 _atom_site_symmetry_multiplicity
 _atom_site_fract_x
 _atom_site_fract_y
 _atom_site_fract_z
 _atom_site_occupancy
  Cd  Cd0  1  0.00000000  0.50000000  0.49999000  1.0
  Cd  Cd1  1  0.49999000  0.50000000  0.00000000  1.0
  H  H2  1  0.45121000  0.32454000  0.73976000  1.0
  H  H3  1  0.04877000  0.32452000  0.23979000  1.0
  H  H4  1  0.54879000  0.67546000  0.26024000  1.0
  H  H5  1  0.95120000  0.67548000  0.76022000  1.0
  H  H6  1  0.55010000  0.08470000  0.49534000  1.0
  H  H7  1  0.94991000  0.08468000  0.99537000  1.0
  H  H8  1  0.44995000  0.91530000  0.50465000  1.0
  H  H9  1  0.05011000  0.91531000  0.00464000  1.0
  H  H10  1  0.21952000  0.22463000  0.48287000  1.0
  H  H11  1  0.28047000  0.22461000  0.98291000  1.0
  H  H12  1  0.78053000  0.77538000  0.51712000  1.0
  H  H13  1  0.71954000  0.77538000  0.01711000  1.0
  H  H14  1  0.02020000  0.21846000  0.76763000  1.0
  H  H15  1  0.47981000  0.21843000  0.26765000  1.0
  H  H16  1  0.97980000  0.78155000  0.23237000  1.0
  H  H17  1  0.52017000  0.78157000  0.73236000  1.0
  H  H18  1  0.84531000  0.11102000  0.83150000  1.0
  H  H19  1  0.65473000  0.11099000  0.33152000  1.0
  H  H20  1  0.15469000  0.88898000  0.16849000  1.0
  H  H21  1  0.34526000  0.88900000  0.66848000  1.0
  H  H22  1  0.76530000  0.24825000  0.83705000  1.0
  H  H23  1  0.73471000  0.24823000  0.33707000  1.0
  H  H24  1  0.23469000  0.75174000  0.16295000  1.0
  H  H25  1  0.26527000  0.75176000  0.66294000  1.0
  C  C26  1  0.48797000  0.26915000  0.68854000  1.0
  C  C27  1  0.01202000  0.26913000  0.18857000  1.0
  C  C28  1  0.51204000  0.73085000  0.31145000  1.0
  C  C29  1  0.98796000  0.73087000  0.81144000  1.0
  C  C30  1  0.67819000  0.19611000  0.70083000  1.0
  C  C31  1  0.82181000  0.19609000  0.20086000  1.0
  C  C32  1  0.32182000  0.80389000  0.29916000  1.0
  C  C33  1  0.17817000  0.80391000  0.79915000  1.0
  C  C34  1  0.69589000  0.12747000  0.62961000  1.0
  C  C35  1  0.80412000  0.12745000  0.12963000  1.0
  C  C36  1  0.30413000  0.87254000  0.37038000  1.0
  C  C37  1  0.19588000  0.87255000  0.87037000  1.0
  C  C38  1  0.53460000  0.13693000  0.55045000  1.0
  C  C39  1  0.96540000  0.13691000  0.05048000  1.0
  C  C40  1  0.46543000  0.86308000  0.44954000  1.0
  C  C41  1  0.03460000  0.86309000  0.94953000  1.0
  C  C42  1  0.35267000  0.21224000  0.54177000  1.0
  C  C43  1  0.14732000  0.21223000  0.04181000  1.0
  C  C44  1  0.64735000  0.78776000  0.45822000  1.0
  C  C45  1  0.85268000  0.78777000  0.95821000  1.0
  C  C46  1  0.83598000  0.19356000  0.78958000  1.0
  C  C47  1  0.66403000  0.19353000  0.28960000  1.0
  C  C48  1  0.16402000  0.80644000  0.21042000  1.0
  C  C49  1  0.33595000  0.80646000  0.71041000  1.0
  C  C50  1  0.50455000  0.43469000  0.40039000  1.0
  C  C51  1  0.99544000  0.43468000  0.90040000  1.0
  C  C52  1  0.49546000  0.56532000  0.59959000  1.0
  C  C53  1  0.00453000  0.56532000  0.09960000  1.0
  S  S54  1  0.25142000  0.46368000  0.34125000  1.0
  S  S55  1  0.24856000  0.46366000  0.84127000  1.0
  S  S56  1  0.74858000  0.53634000  0.65873000  1.0
  S  S57  1  0.75144000  0.53634000  0.15873000  1.0
  N  N58  1  0.32708000  0.27624000  0.61234000  1.0
  N  N59  1  0.17290000  0.27623000  0.11237000  1.0
  N  N60  1  0.67294000  0.72376000  0.38765000  1.0
  N  N61  1  0.82708000  0.72377000  0.88764000  1.0
  N  N62  1  0.87479000  0.04185000  0.63699000  1.0
  N  N63  1  0.62523000  0.04183000  0.13701000  1.0
  N  N64  1  0.12524000  0.95815000  0.36300000  1.0
  N  N65  1  0.37477000  0.95817000  0.86299000  1.0
  N  N66  1  0.68652000  0.41087000  0.44397000  1.0
  N  N67  1  0.81345000  0.41086000  0.94399000  1.0
  N  N68  1  0.31345000  0.58913000  0.55601000  1.0
  N  N69  1  0.18655000  0.58913000  0.05601000  1.0
  O  O70  1  0.14400000  0.34110000  0.61038000  1.0
  O  O71  1  0.35596000  0.34110000  0.11041000  1.0
  O  O72  1  0.85602000  0.65890000  0.38961000  1.0
  O  O73  1  0.64402000  0.65891000  0.88960000  1.0
  O  O74  1  0.83386000  0.96446000  0.59320000  1.0
  O  O75  1  0.66616000  0.96443000  0.09322000  1.0
  O  O76  1  0.16615000  0.03555000  0.40680000  1.0
  O  O77  1  0.33385000  0.03556000  0.90679000  1.0
  O  O78  1  0.06011000  0.04987000  0.68635000  1.0
  O  O79  1  0.43990000  0.04984000  0.18636000  1.0
  O  O80  1  0.93991000  0.95014000  0.31364000  1.0
  O  O81  1  0.56009000  0.95016000  0.81364000  1.0
