# generated using pymatgen
data_GdCuH16C16(NO)8
_symmetry_space_group_name_H-M   'P 1'
_cell_length_a   9.25035000
_cell_length_b   10.88650000
_cell_length_c   10.88650000
_cell_angle_alpha   87.96100000
_cell_angle_beta   72.65590000
_cell_angle_gamma   72.65590000
_symmetry_Int_Tables_number   1
_chemical_formula_structural   GdCuH16C16(NO)8
_chemical_formula_sum   'Gd2 Cu2 H32 C32 N16 O16'
_cell_volume   997.17477331
_cell_formula_units_Z   2
loop_
 _symmetry_equiv_pos_site_id
 _symmetry_equiv_pos_as_xyz
  1  'x, y, z'
loop_
 _atom_site_type_symbol
 _atom_site_label
 _atom_site_symmetry_multiplicity
 _atom_site_fract_x
 _atom_site_fract_y
 _atom_site_fract_z
 _atom_site_occupancy
  Gd  Gd0  1  0.25000000  0.53287000  0.46713000  1.0
  Gd  Gd1  1  0.75000000  0.46713000  0.53287000  1.0
  Cu  Cu2  1  0.00000000  0.00000000  0.50000000  1.0
  Cu  Cu3  1  0.50000000  0.50000000  0.00000000  1.0
  H  H4  1  0.38455000  0.19701000  0.56894000  1.0
  H  H5  1  0.11545000  0.43105000  0.80300000  1.0
  H  H6  1  0.61545000  0.80300000  0.43106000  1.0
  H  H7  1  0.88454000  0.56894000  0.19701000  1.0
  H  H8  1  0.35620000  0.88591000  0.82338000  1.0
  H  H9  1  0.14380000  0.17662000  0.11409000  1.0
  H  H10  1  0.64380000  0.11409000  0.17662000  1.0
  H  H11  1  0.85620000  0.82338000  0.88591000  1.0
  H  H12  1  0.06623000  0.94751000  0.86205000  1.0
  H  H13  1  0.43378000  0.13795000  0.05249000  1.0
  H  H14  1  0.93377000  0.05249000  0.13796000  1.0
  H  H15  1  0.56623000  0.86204000  0.94751000  1.0
  H  H16  1  0.93413000  0.13583000  0.75243000  1.0
  H  H17  1  0.56587000  0.24757000  0.86417000  1.0
  H  H18  1  0.06587000  0.86417000  0.24757000  1.0
  H  H19  1  0.43413000  0.75243000  0.13583000  1.0
  H  H20  1  0.38923000  0.71001000  0.57186000  1.0
  H  H21  1  0.11077000  0.42814000  0.28999000  1.0
  H  H22  1  0.61077000  0.28999000  0.42814000  1.0
  H  H23  1  0.88923000  0.57186000  0.71001000  1.0
  H  H24  1  0.31553000  0.79394000  0.47224000  1.0
  H  H25  1  0.18447000  0.52776000  0.20606000  1.0
  H  H26  1  0.68447000  0.20606000  0.52776000  1.0
  H  H27  1  0.81553000  0.47224000  0.79394000  1.0
  H  H28  1  0.41745000  0.26352000  0.33447000  1.0
  H  H29  1  0.08254000  0.66554000  0.73648000  1.0
  H  H30  1  0.58255000  0.73648000  0.66553000  1.0
  H  H31  1  0.91745000  0.33447000  0.26352000  1.0
  H  H32  1  0.53592000  0.34432000  0.27266000  1.0
  H  H33  1  0.96407000  0.72734000  0.65568000  1.0
  H  H34  1  0.46408000  0.65569000  0.72734000  1.0
  H  H35  1  0.03593000  0.27266000  0.34432000  1.0
  C  C36  1  0.15207000  0.17629000  0.65438000  1.0
  C  C37  1  0.34792000  0.34561000  0.82371000  1.0
  C  C38  1  0.84792000  0.82371000  0.34562000  1.0
  C  C39  1  0.65208000  0.65438000  0.17629000  1.0
  C  C40  1  0.31599000  0.14155000  0.63274000  1.0
  C  C41  1  0.18401000  0.36726000  0.85846000  1.0
  C  C42  1  0.68401000  0.85845000  0.36726000  1.0
  C  C43  1  0.81599000  0.63274000  0.14155000  1.0
  C  C44  1  0.39109000  0.03549000  0.69191000  1.0
  C  C45  1  0.10891000  0.30809000  0.96451000  1.0
  C  C46  1  0.60891000  0.96451000  0.30809000  1.0
  C  C47  1  0.89109000  0.69191000  0.03549000  1.0
  C  C48  1  0.29896000  0.96722000  0.77572000  1.0
  C  C49  1  0.20105000  0.22427000  0.03278000  1.0
  C  C50  1  0.70104000  0.03278000  0.22427000  1.0
  C  C51  1  0.79896000  0.77572000  0.96722000  1.0
  C  C52  1  0.13538000  0.00240000  0.79787000  1.0
  C  C53  1  0.36462000  0.20213000  0.99760000  1.0
  C  C54  1  0.86462000  0.99760000  0.20213000  1.0
  C  C55  1  0.63538000  0.79787000  0.00240000  1.0
  C  C56  1  0.06190000  0.10581000  0.73646000  1.0
  C  C57  1  0.43811000  0.26354000  0.89419000  1.0
  C  C58  1  0.93810000  0.89419000  0.26354000  1.0
  C  C59  1  0.56190000  0.73646000  0.10581000  1.0
  C  C60  1  0.56342000  0.99268000  0.66570000  1.0
  C  C61  1  0.93658000  0.33430000  0.00733000  1.0
  C  C62  1  0.43658000  0.00733000  0.33430000  1.0
  C  C63  1  0.06342000  0.66570000  0.99268000  1.0
  C  C64  1  0.06898000  0.28621000  0.58956000  1.0
  C  C65  1  0.43101000  0.41044000  0.71379000  1.0
  C  C66  1  0.93101000  0.71379000  0.41044000  1.0
  C  C67  1  0.56898000  0.58956000  0.28621000  1.0
  N  N68  1  0.66452000  0.05990000  0.60981000  1.0
  N  N69  1  0.83548000  0.39018000  0.94010000  1.0
  N  N70  1  0.33548000  0.94010000  0.39018000  1.0
  N  N71  1  0.16452000  0.60981000  0.05990000  1.0
  N  N72  1  0.80879000  0.97921000  0.60252000  1.0
  N  N73  1  0.69121000  0.39747000  0.02080000  1.0
  N  N74  1  0.19121000  0.02080000  0.39747000  1.0
  N  N75  1  0.30879000  0.60252000  0.97921000  1.0
  N  N76  1  0.79711000  0.86827000  0.65308000  1.0
  N  N77  1  0.70289000  0.34692000  0.13173000  1.0
  N  N78  1  0.20289000  0.13173000  0.34692000  1.0
  N  N79  1  0.29711000  0.65308000  0.86827000  1.0
  N  N80  1  0.64446000  0.87407000  0.69250000  1.0
  N  N81  1  0.85553000  0.30749000  0.12593000  1.0
  N  N82  1  0.35554000  0.12593000  0.30750000  1.0
  N  N83  1  0.14446000  0.69250000  0.87407000  1.0
  O  O84  1  0.13696000  0.36956000  0.53875000  1.0
  O  O85  1  0.36303000  0.46125000  0.63045000  1.0
  O  O86  1  0.86303000  0.63044000  0.46125000  1.0
  O  O87  1  0.63696000  0.53875000  0.36955000  1.0
  O  O88  1  0.93069000  0.28957000  0.58841000  1.0
  O  O89  1  0.56930000  0.41159000  0.71043000  1.0
  O  O90  1  0.06930000  0.71043000  0.41159000  1.0
  O  O91  1  0.43069000  0.58841000  0.28957000  1.0
  O  O92  1  0.30289000  0.72354000  0.53136000  1.0
  O  O93  1  0.19711000  0.46864000  0.27646000  1.0
  O  O94  1  0.69711000  0.27646000  0.46863000  1.0
  O  O95  1  0.80289000  0.53137000  0.72354000  1.0
  O  O96  1  0.46322000  0.32926000  0.35648000  1.0
  O  O97  1  0.03677000  0.64352000  0.67074000  1.0
  O  O98  1  0.53677000  0.67074000  0.64352000  1.0
  O  O99  1  0.96323000  0.35648000  0.32926000  1.0
