# generated using pymatgen
data_CuH6(C4O3)2
_symmetry_space_group_name_H-M   'P 1'
_cell_length_a   7.42181000
_cell_length_b   10.45860000
_cell_length_c   11.24010000
_cell_angle_alpha   85.53680000
_cell_angle_beta   78.60190000
_cell_angle_gamma   82.25160000
_symmetry_Int_Tables_number   1
_chemical_formula_structural   CuH6(C4O3)2
_chemical_formula_sum   'Cu4 H24 C32 O24'
_cell_volume   846.28307088
_cell_formula_units_Z   4
loop_
 _symmetry_equiv_pos_site_id
 _symmetry_equiv_pos_as_xyz
  1  'x, y, z'
loop_
 _atom_site_type_symbol
 _atom_site_label
 _atom_site_symmetry_multiplicity
 _atom_site_fract_x
 _atom_site_fract_y
 _atom_site_fract_z
 _atom_site_occupancy
  Cu  Cu0  1  0.92273000  0.76969000  0.65673000  1.0
  Cu  Cu1  1  0.07725000  0.23031000  0.34328000  1.0
  Cu  Cu2  1  0.41254000  0.78977000  0.45961000  1.0
  Cu  Cu3  1  0.58744000  0.21023000  0.54040000  1.0
  H  H4  1  0.30515000  0.21976000  0.03361000  1.0
  H  H5  1  0.69485000  0.78024000  0.96640000  1.0
  H  H6  1  0.00513000  0.17474000  0.99505000  1.0
  H  H7  1  0.99486000  0.82527000  0.00495000  1.0
  H  H8  1  0.99360000  0.03967000  0.82223000  1.0
  H  H9  1  0.00637000  0.96033000  0.17779000  1.0
  H  H10  1  0.78801000  0.57271000  0.04066000  1.0
  H  H11  1  0.21200000  0.42728000  0.95934000  1.0
  H  H12  1  0.69346000  0.39681000  0.19314000  1.0
  H  H13  1  0.30655000  0.60318000  0.80686000  1.0
  H  H14  1  0.60704000  0.19527000  0.12556000  1.0
  H  H15  1  0.39296000  0.80473000  0.87444000  1.0
  H  H16  1  0.88484000  0.92715000  0.47314000  1.0
  H  H17  1  0.11514000  0.07286000  0.52685000  1.0
  H  H18  1  0.96622000  0.78937000  0.42275000  1.0
  H  H19  1  0.03374000  0.21063000  0.57726000  1.0
  H  H20  1  0.06147000  0.53835000  0.61076000  1.0
  H  H21  1  0.93853000  0.46167000  0.38926000  1.0
  H  H22  1  0.11731000  0.62747000  0.48827000  1.0
  H  H23  1  0.88267000  0.37254000  0.51174000  1.0
  H  H24  1  0.58652000  0.62746000  0.60285000  1.0
  H  H25  1  0.41354000  0.37258000  0.39714000  1.0
  H  H26  1  0.41953000  0.57339000  0.56144000  1.0
  H  H27  1  0.58081000  0.42648000  0.43838000  1.0
  C  C28  1  0.28918000  0.01382000  0.76307000  1.0
  C  C29  1  0.71079000  0.98618000  0.23694000  1.0
  C  C30  1  0.46085000  0.04206000  0.78290000  1.0
  C  C31  1  0.53912000  0.95794000  0.21711000  1.0
  C  C32  1  0.46405000  0.11831000  0.87942000  1.0
  C  C33  1  0.53593000  0.88168000  0.12059000  1.0
  C  C34  1  0.30087000  0.16547000  0.95579000  1.0
  C  C35  1  0.69911000  0.83454000  0.04422000  1.0
  C  C36  1  0.13178000  0.13820000  0.93442000  1.0
  C  C37  1  0.86821000  0.86181000  0.06558000  1.0
  C  C38  1  0.12483000  0.06330000  0.83860000  1.0
  C  C39  1  0.87515000  0.93671000  0.16142000  1.0
  C  C40  1  0.27681000  0.93134000  0.66265000  1.0
  C  C41  1  0.72319000  0.06866000  0.33736000  1.0
  C  C42  1  0.64196000  0.99104000  0.70628000  1.0
  C  C43  1  0.35801000  0.00895000  0.29373000  1.0
  C  C44  1  0.65859000  0.25825000  0.93685000  1.0
  C  C45  1  0.34140000  0.74174000  0.06315000  1.0
  C  C46  1  0.70934000  0.35652000  0.84993000  1.0
  C  C47  1  0.29066000  0.64348000  0.15008000  1.0
  C  C48  1  0.75309000  0.47135000  0.88890000  1.0
  C  C49  1  0.24691000  0.52864000  0.11111000  1.0
  C  C50  1  0.75092000  0.48440000  0.01191000  1.0
  C  C51  1  0.24909000  0.51559000  0.98810000  1.0
  C  C52  1  0.69744000  0.38586000  0.09717000  1.0
  C  C53  1  0.30255000  0.61414000  0.90283000  1.0
  C  C54  1  0.64941000  0.27293000  0.06022000  1.0
  C  C55  1  0.35059000  0.72707000  0.93978000  1.0
  C  C56  1  0.72809000  0.33361000  0.71766000  1.0
  C  C57  1  0.27190000  0.66639000  0.28235000  1.0
  C  C58  1  0.79029000  0.57975000  0.79620000  1.0
  C  C59  1  0.20970000  0.42025000  0.20381000  1.0
  O  O60  1  0.11939000  0.91787000  0.64211000  1.0
  O  O61  1  0.88059000  0.08212000  0.35790000  1.0
  O  O62  1  0.43126000  0.88023000  0.60048000  1.0
  O  O63  1  0.56873000  0.11978000  0.39952000  1.0
  O  O64  1  0.71442000  0.05575000  0.61213000  1.0
  O  O65  1  0.28554000  0.94425000  0.38787000  1.0
  O  O66  1  0.71862000  0.88466000  0.74557000  1.0
  O  O67  1  0.28137000  0.11534000  0.25444000  1.0
  O  O68  1  0.58381000  0.30572000  0.68481000  1.0
  O  O69  1  0.41618000  0.69428000  0.31519000  1.0
  O  O70  1  0.88630000  0.33841000  0.64880000  1.0
  O  O71  1  0.11370000  0.66159000  0.35120000  1.0
  O  O72  1  0.70858000  0.59121000  0.70684000  1.0
  O  O73  1  0.29138000  0.40877000  0.29318000  1.0
  O  O74  1  0.90753000  0.65537000  0.80945000  1.0
  O  O75  1  0.09245000  0.34463000  0.19055000  1.0
  O  O76  1  0.63722000  0.13939000  0.89644000  1.0
  O  O77  1  0.36277000  0.86061000  0.10356000  1.0
  O  O78  1  0.87681000  0.83386000  0.48869000  1.0
  O  O79  1  0.12316000  0.16615000  0.51131000  1.0
  O  O80  1  0.11279000  0.61867000  0.58031000  1.0
  O  O81  1  0.88717000  0.38136000  0.41969000  1.0
  O  O82  1  0.52283000  0.62434000  0.53254000  1.0
  O  O83  1  0.47732000  0.37571000  0.46740000  1.0
