# generated using pymatgen
data_CuH10C16N(ClO2)2
_symmetry_space_group_name_H-M   'P 1'
_cell_length_a   9.71378000
_cell_length_b   10.39010000
_cell_length_c   19.38260000
_cell_angle_alpha   89.99960000
_cell_angle_beta   89.99990000
_cell_angle_gamma   72.81400000
_symmetry_Int_Tables_number   1
_chemical_formula_structural   CuH10C16N(ClO2)2
_chemical_formula_sum   'Cu4 H40 C64 N4 Cl8 O16'
_cell_volume   1868.88595203
_cell_formula_units_Z   4
loop_
 _symmetry_equiv_pos_site_id
 _symmetry_equiv_pos_as_xyz
  1  'x, y, z'
loop_
 _atom_site_type_symbol
 _atom_site_label
 _atom_site_symmetry_multiplicity
 _atom_site_fract_x
 _atom_site_fract_y
 _atom_site_fract_z
 _atom_site_occupancy
  Cu  Cu0  1  0.63164000  0.50224000  0.50319000  1.0
  Cu  Cu1  1  0.86836000  0.99776000  0.00319000  1.0
  Cu  Cu2  1  0.36835000  0.49775000  0.49681000  1.0
  Cu  Cu3  1  0.13166000  0.00225000  0.99681000  1.0
  H  H4  1  0.66034000  0.54795000  0.72940000  1.0
  H  H5  1  0.83966000  0.95205000  0.22939000  1.0
  H  H6  1  0.33965000  0.45204000  0.27060000  1.0
  H  H7  1  0.16035000  0.04795000  0.77060000  1.0
  H  H8  1  0.36172000  0.74248000  0.88946000  1.0
  H  H9  1  0.13827000  0.75752000  0.38946000  1.0
  H  H10  1  0.63826000  0.25753000  0.11053000  1.0
  H  H11  1  0.86174000  0.24247000  0.61053000  1.0
  H  H12  1  0.16157000  0.79154000  0.80531000  1.0
  H  H13  1  0.33842000  0.70846000  0.30531000  1.0
  H  H14  1  0.83842000  0.20845000  0.19468000  1.0
  H  H15  1  0.66159000  0.29155000  0.69468000  1.0
  H  H16  1  0.20796000  0.71139000  0.68321000  1.0
  H  H17  1  0.29204000  0.78860000  0.18321000  1.0
  H  H18  1  0.79204000  0.28859000  0.31678000  1.0
  H  H19  1  0.70797000  0.21141000  0.81678000  1.0
  H  H20  1  0.41696000  0.10764000  0.58605000  1.0
  H  H21  1  0.08303000  0.39236000  0.08605000  1.0
  H  H22  1  0.58304000  0.89236000  0.41396000  1.0
  H  H23  1  0.91696000  0.60764000  0.91396000  1.0
  H  H24  1  0.49445000  0.86638000  0.62417000  1.0
  H  H25  1  0.00554000  0.63362000  0.12417000  1.0
  H  H26  1  0.50553000  0.13362000  0.37583000  1.0
  H  H27  1  0.99446000  0.36638000  0.87583000  1.0
  H  H28  1  0.75074000  0.73108000  0.61408000  1.0
  H  H29  1  0.74926000  0.76891000  0.11408000  1.0
  H  H30  1  0.24924000  0.26890000  0.38593000  1.0
  H  H31  1  0.25075000  0.23110000  0.88592000  1.0
  H  H32  1  0.85378000  0.07588000  0.52949000  1.0
  H  H33  1  0.64621000  0.42412000  0.02949000  1.0
  H  H34  1  0.14622000  0.92410000  0.47052000  1.0
  H  H35  1  0.35378000  0.57590000  0.97051000  1.0
  H  H36  1  0.89047000  0.45772000  0.60701000  1.0
  H  H37  1  0.60953000  0.04228000  0.10701000  1.0
  H  H38  1  0.10952000  0.54229000  0.39299000  1.0
  H  H39  1  0.39049000  0.95771000  0.89299000  1.0
  H  H40  1  0.84211000  0.56606000  0.40053000  1.0
  H  H41  1  0.65789000  0.93394000  0.90053000  1.0
  H  H42  1  0.15788000  0.43394000  0.59947000  1.0
  H  H43  1  0.34213000  0.06606000  0.09947000  1.0
  C  C44  1  0.46329000  0.57511000  0.62662000  1.0
  C  C45  1  0.03671000  0.92489000  0.12661000  1.0
  C  C46  1  0.53670000  0.42487000  0.37338000  1.0
  C  C47  1  0.96330000  0.07513000  0.87338000  1.0
  C  C48  1  0.43635000  0.62469000  0.69930000  1.0
  C  C49  1  0.06365000  0.87532000  0.19930000  1.0
  C  C50  1  0.56365000  0.37531000  0.30070000  1.0
  C  C51  1  0.93636000  0.12470000  0.80070000  1.0
  C  C52  1  0.55118000  0.60061000  0.74604000  1.0
  C  C53  1  0.94882000  0.89939000  0.24603000  1.0
  C  C54  1  0.44881000  0.39939000  0.25397000  1.0
  C  C55  1  0.05119000  0.10061000  0.75397000  1.0
  C  C56  1  0.52232000  0.64265000  0.81419000  1.0
  C  C57  1  0.97768000  0.85735000  0.31419000  1.0
  C  C58  1  0.47767000  0.35735000  0.18581000  1.0
  C  C59  1  0.02233000  0.14265000  0.68581000  1.0
  C  C60  1  0.38303000  0.71149000  0.83593000  1.0
  C  C61  1  0.11697000  0.78852000  0.33593000  1.0
  C  C62  1  0.61696000  0.28852000  0.16406000  1.0
  C  C63  1  0.88304000  0.21148000  0.66406000  1.0
  C  C64  1  0.27028000  0.73750000  0.78835000  1.0
  C  C65  1  0.22972000  0.76250000  0.28836000  1.0
  C  C66  1  0.72970000  0.26250000  0.21164000  1.0
  C  C67  1  0.77030000  0.23750000  0.71164000  1.0
  C  C68  1  0.29560000  0.69321000  0.72041000  1.0
  C  C69  1  0.20440000  0.80679000  0.22041000  1.0
  C  C70  1  0.70439000  0.30679000  0.27959000  1.0
  C  C71  1  0.79561000  0.19321000  0.77959000  1.0
  C  C72  1  0.58335000  0.25121000  0.53566000  1.0
  C  C73  1  0.91665000  0.24879000  0.03566000  1.0
  C  C74  1  0.41665000  0.74878000  0.46435000  1.0
  C  C75  1  0.08336000  0.75122000  0.96434000  1.0
  C  C76  1  0.63006000  0.10613000  0.55633000  1.0
  C  C77  1  0.86994000  0.39387000  0.05632000  1.0
  C  C78  1  0.36993000  0.89387000  0.44368000  1.0
  C  C79  1  0.13006000  0.60613000  0.94368000  1.0
  C  C80  1  0.52900000  0.04690000  0.58266000  1.0
  C  C81  1  0.97099000  0.45309000  0.08266000  1.0
  C  C82  1  0.47099000  0.95309000  0.41735000  1.0
  C  C83  1  0.02900000  0.54691000  0.91734000  1.0
  C  C84  1  0.57292000  0.91287000  0.60381000  1.0
  C  C85  1  0.92707000  0.58713000  0.10380000  1.0
  C  C86  1  0.42707000  0.08712000  0.39620000  1.0
  C  C87  1  0.07292000  0.41288000  0.89620000  1.0
  C  C88  1  0.71731000  0.83648000  0.59867000  1.0
  C  C89  1  0.78269000  0.66352000  0.09867000  1.0
  C  C90  1  0.28269000  0.16352000  0.40133000  1.0
  C  C91  1  0.21731000  0.33649000  0.90133000  1.0
  C  C92  1  0.81698000  0.89685000  0.57228000  1.0
  C  C93  1  0.68302000  0.60314000  0.07228000  1.0
  C  C94  1  0.18302000  0.10313000  0.42772000  1.0
  C  C95  1  0.31698000  0.39687000  0.92772000  1.0
  C  C96  1  0.77521000  0.03069000  0.55070000  1.0
  C  C97  1  0.72479000  0.46931000  0.05070000  1.0
  C  C98  1  0.22479000  0.96930000  0.44930000  1.0
  C  C99  1  0.27521000  0.53070000  0.94930000  1.0
  C  C100  1  0.91312000  0.53740000  0.44504000  1.0
  C  C101  1  0.58688000  0.96260000  0.94504000  1.0
  C  C102  1  0.08687000  0.46260000  0.55496000  1.0
  C  C103  1  0.41314000  0.03739000  0.05496000  1.0
  C  C104  1  0.94009000  0.47635000  0.55904000  1.0
  C  C105  1  0.55991000  0.02365000  0.05904000  1.0
  C  C106  1  0.05990000  0.52366000  0.44096000  1.0
  C  C107  1  0.44010000  0.97634000  0.94096000  1.0
  N  N108  1  0.85344000  0.51337000  0.50417000  1.0
  N  N109  1  0.64656000  0.98663000  0.00417000  1.0
  N  N110  1  0.14655000  0.48664000  0.49583000  1.0
  N  N111  1  0.35346000  0.01336000  0.99583000  1.0
  Cl  Cl112  1  0.66159000  0.60732000  0.87396000  1.0
  Cl  Cl113  1  0.83841000  0.89269000  0.37396000  1.0
  Cl  Cl114  1  0.33839000  0.39269000  0.12604000  1.0
  Cl  Cl115  1  0.16161000  0.10731000  0.62604000  1.0
  Cl  Cl116  1  0.99777000  0.80479000  0.56634000  1.0
  Cl  Cl117  1  0.50223000  0.69521000  0.06634000  1.0
  Cl  Cl118  1  0.00222000  0.19519000  0.43366000  1.0
  Cl  Cl119  1  0.49777000  0.30481000  0.93365000  1.0
  O  O120  1  0.59020000  0.55504000  0.60246000  1.0
  O  O121  1  0.90981000  0.94496000  0.10246000  1.0
  O  O122  1  0.40980000  0.44492000  0.39754000  1.0
  O  O123  1  0.09020000  0.05508000  0.89754000  1.0
  O  O124  1  0.35545000  0.55717000  0.59491000  1.0
  O  O125  1  0.14456000  0.94283000  0.09491000  1.0
  O  O126  1  0.64455000  0.44284000  0.40509000  1.0
  O  O127  1  0.85546000  0.05717000  0.90509000  1.0
  O  O128  1  0.68246000  0.30861000  0.52934000  1.0
  O  O129  1  0.81754000  0.19139000  0.02934000  1.0
  O  O130  1  0.31753000  0.69138000  0.47065000  1.0
  O  O131  1  0.18247000  0.80861000  0.97065000  1.0
  O  O132  1  0.44886000  0.30644000  0.52676000  1.0
  O  O133  1  0.05114000  0.19356000  0.02676000  1.0
  O  O134  1  0.55113000  0.69355000  0.47325000  1.0
  O  O135  1  0.94887000  0.80645000  0.97325000  1.0
