# generated using pymatgen
data_Al2P3H9(CO3)3
_symmetry_space_group_name_H-M   'P 1'
_cell_length_a   8.63063000
_cell_length_b   13.94400000
_cell_length_c   13.94400000
_cell_angle_alpha   60.00000000
_cell_angle_beta   89.99990000
_cell_angle_gamma   89.99990000
_symmetry_Int_Tables_number   1
_chemical_formula_structural   Al2P3H9(CO3)3
_chemical_formula_sum   'Al8 P12 H36 C12 O36'
_cell_volume   1453.27525366
_cell_formula_units_Z   4
loop_
 _symmetry_equiv_pos_site_id
 _symmetry_equiv_pos_as_xyz
  1  'x, y, z'
loop_
 _atom_site_type_symbol
 _atom_site_label
 _atom_site_symmetry_multiplicity
 _atom_site_fract_x
 _atom_site_fract_y
 _atom_site_fract_z
 _atom_site_occupancy
  Al  Al0  1  0.51326000  0.66666667  0.66666667  1.0
  Al  Al1  1  0.01326000  0.33333333  0.33333333  1.0
  Al  Al2  1  0.44343000  0.51204000  0.39257000  1.0
  Al  Al3  1  0.44343000  0.39257000  0.09539000  1.0
  Al  Al4  1  0.94343000  0.60743000  0.48796000  1.0
  Al  Al5  1  0.44343000  0.09539000  0.51204000  1.0
  Al  Al6  1  0.94343000  0.48796000  0.90461000  1.0
  Al  Al7  1  0.94343000  0.90462000  0.60742000  1.0
  P  P8  1  0.30032000  0.65440000  0.48200000  1.0
  P  P9  1  0.30032000  0.48200000  0.86360000  1.0
  P  P10  1  0.80032000  0.51800000  0.34560000  1.0
  P  P11  1  0.30032000  0.86360000  0.65440000  1.0
  P  P12  1  0.80032000  0.34560000  0.13640000  1.0
  P  P13  1  0.80032000  0.13640000  0.51800000  1.0
  P  P14  1  0.77060000  0.81486000  0.46772000  1.0
  P  P15  1  0.77060000  0.46772000  0.71742000  1.0
  P  P16  1  0.27060000  0.53229000  0.18513000  1.0
  P  P17  1  0.77060000  0.71741000  0.81487000  1.0
  P  P18  1  0.27060000  0.18514000  0.28258000  1.0
  P  P19  1  0.27060000  0.28258000  0.53228000  1.0
  H  H20  1  0.20418000  0.82106000  0.32787000  1.0
  H  H21  1  0.20418000  0.32787000  0.85107000  1.0
  H  H22  1  0.70418000  0.67213000  0.17894000  1.0
  H  H23  1  0.20418000  0.85107000  0.82106000  1.0
  H  H24  1  0.70418000  0.17894000  0.14893000  1.0
  H  H25  1  0.70418000  0.14893000  0.67213000  1.0
  H  H26  1  0.37558000  0.84398000  0.38695000  1.0
  H  H27  1  0.37558000  0.38695000  0.76907000  1.0
  H  H28  1  0.87558000  0.61305000  0.15602000  1.0
  H  H29  1  0.37558000  0.76907000  0.84398000  1.0
  H  H30  1  0.87558000  0.15602000  0.23093000  1.0
  H  H31  1  0.87558000  0.23093000  0.61305000  1.0
  H  H32  1  0.19389000  0.82519000  0.45432000  1.0
  H  H33  1  0.19389000  0.45432000  0.72049000  1.0
  H  H34  1  0.69389000  0.54568000  0.17481000  1.0
  H  H35  1  0.19389000  0.72049000  0.82519000  1.0
  H  H36  1  0.69389000  0.17481000  0.27951000  1.0
  H  H37  1  0.69389000  0.27951000  0.54568000  1.0
  H  H38  1  0.79800000  0.94731000  0.27367000  1.0
  H  H39  1  0.79800000  0.27367000  0.77902000  1.0
  H  H40  1  0.29800000  0.72633000  0.05269000  1.0
  H  H41  1  0.79800000  0.77902000  0.94731000  1.0
  H  H42  1  0.29800000  0.05269000  0.22098000  1.0
  H  H43  1  0.29800000  0.22098000  0.72633000  1.0
  H  H44  1  0.61923000  0.96336000  0.32905000  1.0
  H  H45  1  0.61922000  0.32905000  0.70759000  1.0
  H  H46  1  0.11922000  0.67095000  0.03664000  1.0
  H  H47  1  0.61923000  0.70759000  0.96336000  1.0
  H  H48  1  0.11922000  0.03664000  0.29241000  1.0
  H  H49  1  0.11923000  0.29241000  0.67095000  1.0
  H  H50  1  0.64270000  0.85158000  0.30132000  1.0
  H  H51  1  0.64269000  0.30131000  0.84710000  1.0
  H  H52  1  0.14270000  0.69869000  0.14841000  1.0
  H  H53  1  0.64270000  0.84709000  0.85159000  1.0
  H  H54  1  0.14269000  0.14842000  0.15290000  1.0
  H  H55  1  0.14270000  0.15291000  0.69868000  1.0
  C  C56  1  0.26443000  0.80038000  0.40513000  1.0
  C  C57  1  0.26443000  0.40513000  0.79449000  1.0
  C  C58  1  0.76443000  0.59487000  0.19962000  1.0
  C  C59  1  0.26443000  0.79449000  0.80038000  1.0
  C  C60  1  0.76443000  0.19962000  0.20551000  1.0
  C  C61  1  0.76443000  0.20551000  0.59487000  1.0
  C  C62  1  0.70128000  0.90306000  0.32939000  1.0
  C  C63  1  0.70128000  0.32939000  0.76755000  1.0
  C  C64  1  0.20128000  0.67061000  0.09694000  1.0
  C  C65  1  0.70128000  0.76755000  0.90306000  1.0
  C  C66  1  0.20128000  0.09694000  0.23245000  1.0
  C  C67  1  0.20128000  0.23245000  0.67061000  1.0
  O  O68  1  0.38762000  0.61890000  0.58818000  1.0
  O  O69  1  0.38762000  0.58818000  0.79292000  1.0
  O  O70  1  0.88762000  0.41182000  0.38110000  1.0
  O  O71  1  0.38762000  0.79292000  0.61890000  1.0
  O  O72  1  0.88762000  0.38110000  0.20708000  1.0
  O  O73  1  0.88762000  0.20708000  0.41182000  1.0
  O  O74  1  0.39189000  0.62866000  0.40148000  1.0
  O  O75  1  0.39189000  0.40148000  0.96986000  1.0
  O  O76  1  0.89189000  0.59852000  0.37134000  1.0
  O  O77  1  0.39190000  0.96986000  0.62866000  1.0
  O  O78  1  0.89189000  0.37134000  0.03014000  1.0
  O  O79  1  0.89189000  0.03014000  0.59852000  1.0
  O  O80  1  0.14326000  0.59177000  0.50897000  1.0
  O  O81  1  0.14326000  0.50897000  0.89926000  1.0
  O  O82  1  0.64326000  0.49103000  0.40823000  1.0
  O  O83  1  0.14326000  0.89926000  0.59177000  1.0
  O  O84  1  0.64326000  0.40823000  0.10074000  1.0
  O  O85  1  0.64326000  0.10074000  0.49103000  1.0
  O  O86  1  0.63711000  0.74782000  0.53894000  1.0
  O  O87  1  0.63711000  0.53894000  0.71324000  1.0
  O  O88  1  0.13711000  0.46106000  0.25218000  1.0
  O  O89  1  0.63711000  0.71324000  0.74782000  1.0
  O  O90  1  0.13711000  0.25218000  0.28676000  1.0
  O  O91  1  0.13711000  0.28676000  0.46106000  1.0
  O  O92  1  0.84789000  0.89197000  0.50371000  1.0
  O  O93  1  0.84789000  0.50372000  0.60432000  1.0
  O  O94  1  0.34788000  0.49628000  0.10804000  1.0
  O  O95  1  0.84788000  0.60433000  0.89196000  1.0
  O  O96  1  0.34789000  0.10803000  0.39568000  1.0
  O  O97  1  0.34788000  0.39568000  0.49628000  1.0
  O  O98  1  0.89999000  0.74140000  0.46086000  1.0
  O  O99  1  0.89999000  0.46085000  0.79774000  1.0
  O  O100  1  0.39999000  0.53914000  0.25859000  1.0
  O  O101  1  0.89999000  0.79773000  0.74141000  1.0
  O  O102  1  0.39999000  0.25860000  0.20226000  1.0
  O  O103  1  0.39999000  0.20227000  0.53914000  1.0
