# generated using pymatgen
data_Li2H7(C2O3)2
_symmetry_space_group_name_H-M   'P 1'
_cell_length_a   7.79996000
_cell_length_b   8.17377000
_cell_length_c   11.04980094
_cell_angle_alpha   84.41532083
_cell_angle_beta   69.33161254
_cell_angle_gamma   90.00320000
_symmetry_Int_Tables_number   1
_chemical_formula_structural   Li2H7(C2O3)2
_chemical_formula_sum   'Li8 H28 C16 O24'
_cell_volume   655.56324215
_cell_formula_units_Z   4
loop_
 _symmetry_equiv_pos_site_id
 _symmetry_equiv_pos_as_xyz
  1  'x, y, z'
loop_
 _atom_site_type_symbol
 _atom_site_label
 _atom_site_symmetry_multiplicity
 _atom_site_fract_x
 _atom_site_fract_y
 _atom_site_fract_z
 _atom_site_occupancy
  Li  Li0  1  0.13806000  0.94388000  0.38550000  1.0
  Li  Li1  1  0.52332000  0.55597000  0.61450000  1.0
  Li  Li2  1  0.86193000  0.05612000  0.61450000  1.0
  Li  Li3  1  0.47669000  0.44404000  0.38550000  1.0
  Li  Li4  1  0.14285000  0.06106000  0.13501000  1.0
  Li  Li5  1  0.27764000  0.43895000  0.86481000  1.0
  Li  Li6  1  0.85716000  0.93894000  0.86498000  1.0
  Li  Li7  1  0.72236000  0.56106000  0.13518000  1.0
  H  H8  1  0.34262000  0.23049000  0.24145000  1.0
  H  H9  1  0.58382000  0.26953000  0.75838000  1.0
  H  H10  1  0.65739000  0.76951000  0.75854000  1.0
  H  H11  1  0.41618000  0.73046000  0.24162000  1.0
  H  H12  1  0.48332000  0.12362000  0.13844000  1.0
  H  H13  1  0.62154000  0.37638000  0.86139000  1.0
  H  H14  1  0.51668000  0.87638000  0.86156000  1.0
  H  H15  1  0.37846000  0.62362000  0.13861000  1.0
  H  H16  1  0.38373000  0.13573000  0.92572000  1.0
  H  H17  1  0.30981000  0.36438000  0.07402000  1.0
  H  H18  1  0.61626000  0.86427000  0.07428000  1.0
  H  H19  1  0.69019000  0.63563000  0.92598000  1.0
  H  H20  1  0.20543000  0.10492000  0.90160000  1.0
  H  H21  1  0.10729000  0.39504000  0.09844000  1.0
  H  H22  1  0.79456000  0.89509000  0.09840000  1.0
  H  H23  1  0.89271000  0.60497000  0.90156000  1.0
  H  H24  1  0.02312000  0.48942000  0.28680000  1.0
  H  H25  1  0.30875000  0.01092000  0.71276000  1.0
  H  H26  1  0.97689000  0.51057000  0.71319000  1.0
  H  H27  1  0.69125000  0.98910000  0.28724000  1.0
  H  H28  1  0.79908000  0.53595000  0.38096000  1.0
  H  H29  1  0.17978000  0.96346000  0.61833000  1.0
  H  H30  1  0.20090000  0.46405000  0.61905000  1.0
  H  H31  1  0.82025000  0.03655000  0.38166000  1.0
  H  H32  1  0.14624000  0.63593000  0.42990000  1.0
  H  H33  1  0.57592000  0.86430000  0.57043000  1.0
  H  H34  1  0.85378000  0.36408000  0.57009000  1.0
  H  H35  1  0.42409000  0.13571000  0.42957000  1.0
  C  C36  1  0.96049000  0.73523000  0.25371000  1.0
  C  C37  1  0.21377000  0.76469000  0.74622000  1.0
  C  C38  1  0.03950000  0.26478000  0.74629000  1.0
  C  C39  1  0.78623000  0.23531000  0.25379000  1.0
  C  C40  1  0.94206000  0.58096000  0.34779000  1.0
  C  C41  1  0.28932000  0.91888000  0.65195000  1.0
  C  C42  1  0.05794000  0.41903000  0.65221000  1.0
  C  C43  1  0.71068000  0.08113000  0.34806000  1.0
  C  C44  1  0.00429000  0.58698000  0.46474000  1.0
  C  C45  1  0.46903000  0.91302000  0.53527000  1.0
  C  C46  1  0.99572000  0.41301000  0.53527000  1.0
  C  C47  1  0.53096000  0.08698000  0.46474000  1.0
  C  C48  1  0.88633000  0.70193000  0.55839000  1.0
  C  C49  1  0.44527000  0.79797000  0.44154000  1.0
  C  C50  1  0.11368000  0.29810000  0.44159000  1.0
  C  C51  1  0.55472000  0.20202000  0.55846000  1.0
  O  O52  1  0.06298000  0.85745000  0.25274000  1.0
  O  O53  1  0.31528000  0.64245000  0.74710000  1.0
  O  O54  1  0.93703000  0.14254000  0.74727000  1.0
  O  O55  1  0.68474000  0.35755000  0.25289000  1.0
  O  O56  1  0.87219000  0.73070000  0.17660000  1.0
  O  O57  1  0.04845000  0.76910000  0.82348000  1.0
  O  O58  1  0.12778000  0.26926000  0.82340000  1.0
  O  O59  1  0.95153000  0.23089000  0.17653000  1.0
  O  O60  1  0.94770000  0.84788000  0.55018000  1.0
  O  O61  1  0.49917000  0.65224000  0.44947000  1.0
  O  O62  1  0.05231000  0.15211000  0.44983000  1.0
  O  O63  1  0.50083000  0.34776000  0.55052000  1.0
  O  O64  1  0.73058000  0.64872000  0.63977000  1.0
  O  O65  1  0.37045000  0.85088000  0.36036000  1.0
  O  O66  1  0.26942000  0.35128000  0.36023000  1.0
  O  O67  1  0.62954000  0.14911000  0.63963000  1.0
  O  O68  1  0.36106000  0.16917000  0.16312000  1.0
  O  O69  1  0.52391000  0.33074000  0.83680000  1.0
  O  O70  1  0.63894000  0.83083000  0.83688000  1.0
  O  O71  1  0.47608000  0.66926000  0.16320000  1.0
  O  O72  1  0.28390000  0.05121000  0.94746000  1.0
  O  O73  1  0.23157000  0.44886000  0.05246000  1.0
  O  O74  1  0.71609000  0.94880000  0.05254000  1.0
  O  O75  1  0.76842000  0.55116000  0.94755000  1.0
