# generated using pymatgen
data_AlH12C27(NO4)3
_symmetry_space_group_name_H-M   'P 1'
_cell_length_a   4.14712000
_cell_length_b   15.74030000
_cell_length_c   15.77440000
_cell_angle_alpha   60.07330000
_cell_angle_beta   85.87240000
_cell_angle_gamma   87.47350000
_symmetry_Int_Tables_number   1
_chemical_formula_structural   AlH12C27(NO4)3
_chemical_formula_sum   'Al1 H12 C27 N3 O12'
_cell_volume   890.05339019
_cell_formula_units_Z   1
loop_
 _symmetry_equiv_pos_site_id
 _symmetry_equiv_pos_as_xyz
  1  'x, y, z'
loop_
 _atom_site_type_symbol
 _atom_site_label
 _atom_site_symmetry_multiplicity
 _atom_site_fract_x
 _atom_site_fract_y
 _atom_site_fract_z
 _atom_site_occupancy
  Al  Al0  1  0.01817000  0.49701000  0.50123000  1.0
  H  H1  1  0.44487000  0.95367000  0.13726000  1.0
  H  H2  1  0.70245000  0.39892000  0.94771000  1.0
  H  H3  1  0.78726000  0.15007000  0.39059000  1.0
  H  H4  1  0.33170000  0.48855000  0.24788000  1.0
  H  H5  1  0.34813000  0.40001000  0.15236000  1.0
  H  H6  1  0.25451000  0.24585000  0.77212000  1.0
  H  H7  1  0.26578000  0.15214000  0.95523000  1.0
  H  H8  1  0.50869000  0.76731000  0.49932000  1.0
  H  H9  1  0.50466000  0.95058000  0.41014000  1.0
  H  H10  1  0.08375000  0.67715000  0.29508000  1.0
  H  H11  1  0.39069000  0.20066000  0.57354000  1.0
  H  H12  1  0.33070000  0.57970000  0.71484000  1.0
  C  C13  1  0.50526000  0.64910000  0.42411000  1.0
  C  C14  1  0.54572000  0.42487000  0.42487000  1.0
  C  C15  1  0.48991000  0.42434000  0.64913000  1.0
  C  C16  1  0.47862000  0.75849000  0.36791000  1.0
  C  C17  1  0.47705000  0.37346000  0.75779000  1.0
  C  C18  1  0.55548000  0.36949000  0.37135000  1.0
  C  C19  1  0.45306000  0.81081000  0.26567000  1.0
  C  C20  1  0.45672000  0.91312000  0.21663000  1.0
  C  C21  1  0.60331000  0.41760000  0.80699000  1.0
  C  C22  1  0.60524000  0.36572000  0.90878000  1.0
  C  C23  1  0.68737000  0.27408000  0.41197000  1.0
  C  C24  1  0.69212000  0.22470000  0.35910000  1.0
  C  C25  1  0.43266000  0.41466000  0.27795000  1.0
  C  C26  1  0.44298000  0.36582000  0.22490000  1.0
  C  C27  1  0.35111000  0.27861000  0.81153000  1.0
  C  C28  1  0.35783000  0.22655000  0.91305000  1.0
  C  C29  1  0.49235000  0.80887000  0.42000000  1.0
  C  C30  1  0.49199000  0.91072000  0.37053000  1.0
  C  C31  1  0.47818000  0.96365000  0.26806000  1.0
  C  C32  1  0.49306000  0.07179000  0.21410000  1.0
  C  C33  1  0.48363000  0.27024000  0.96225000  1.0
  C  C34  1  0.49301000  0.21612000  0.07011000  1.0
  C  C35  1  0.56777000  0.26984000  0.26602000  1.0
  C  C36  1  0.55111000  0.21554000  0.21252000  1.0
  C  C37  1  0.43180000  0.76233000  0.20475000  1.0
  C  C38  1  0.81844000  0.22174000  0.51226000  1.0
  C  C39  1  0.74549000  0.51871000  0.75487000  1.0
  N  N40  1  0.45882000  0.11835000  0.11682000  1.0
  N  N41  1  0.53610000  0.26842000  0.11463000  1.0
  N  N42  1  0.54287000  0.11709000  0.26525000  1.0
  O  O43  1  0.26960000  0.40631000  0.60810000  1.0
  O  O44  1  0.27298000  0.60360000  0.48568000  1.0
  O  O45  1  0.31024000  0.48464000  0.41003000  1.0
  O  O46  1  0.72684000  0.48264000  0.60471000  1.0
  O  O47  1  0.77451000  0.40959000  0.48105000  1.0
  O  O48  1  0.76306000  0.61030000  0.40771000  1.0
  O  O49  1  0.23214000  0.68450000  0.24012000  1.0
  O  O50  1  0.58849000  0.79065000  0.12738000  1.0
  O  O51  1  0.62523000  0.19765000  0.59077000  1.0
  O  O52  1  0.10816000  0.19925000  0.51926000  1.0
  O  O53  1  0.57108000  0.59690000  0.70046000  1.0
  O  O54  1  0.03014000  0.52626000  0.76830000  1.0
