# generated using pymatgen
data_Cu3H34C56(NO4)4
_symmetry_space_group_name_H-M   'P 1'
_cell_length_a   10.42930000
_cell_length_b   10.57610000
_cell_length_c   11.75830000
_cell_angle_alpha   83.11920000
_cell_angle_beta   86.24760000
_cell_angle_gamma   70.91780000
_symmetry_Int_Tables_number   1
_chemical_formula_structural   Cu3H34C56(NO4)4
_chemical_formula_sum   'Cu3 H34 C56 N4 O16'
_cell_volume   1216.38361815
_cell_formula_units_Z   1
loop_
 _symmetry_equiv_pos_site_id
 _symmetry_equiv_pos_as_xyz
  1  'x, y, z'
loop_
 _atom_site_type_symbol
 _atom_site_label
 _atom_site_symmetry_multiplicity
 _atom_site_fract_x
 _atom_site_fract_y
 _atom_site_fract_z
 _atom_site_occupancy
  Cu  Cu0  1  0.50004000  0.00010000  0.49993000  1.0
  Cu  Cu1  1  0.77085000  0.77731000  0.69560000  1.0
  Cu  Cu2  1  0.22934000  0.22304000  0.30449000  1.0
  H  H3  1  0.92070000  0.70286000  0.93987000  1.0
  H  H4  1  0.07951000  0.29709000  0.06014000  1.0
  H  H5  1  0.24740000  0.48395000  0.92085000  1.0
  H  H6  1  0.75269000  0.51604000  0.07912000  1.0
  H  H7  1  0.49324000  0.39193000  0.86771000  1.0
  H  H8  1  0.50682000  0.60794000  0.13222000  1.0
  H  H9  1  0.59876000  0.52668000  0.72498000  1.0
  H  H10  1  0.40138000  0.47322000  0.27500000  1.0
  H  H11  1  0.21400000  0.83814000  0.68710000  1.0
  H  H12  1  0.78617000  0.16180000  0.31284000  1.0
  H  H13  1  0.41338000  0.80412000  0.87660000  1.0
  H  H14  1  0.58667000  0.19594000  0.12326000  1.0
  H  H15  1  0.19745000  0.88507000  0.99016000  1.0
  H  H16  1  0.80262000  0.11472000  0.00976000  1.0
  H  H17  1  0.20165000  0.95928000  0.18358000  1.0
  H  H18  1  0.79844000  0.04026000  0.81644000  1.0
  H  H19  1  0.63728000  0.84669000  0.15519000  1.0
  H  H20  1  0.36285000  0.15252000  0.84497000  1.0
  H  H21  1  0.78046000  0.51406000  0.85206000  1.0
  H  H22  1  0.21955000  0.48624000  0.14821000  1.0
  H  H23  1  0.95262000  0.28368000  0.87397000  1.0
  H  H24  1  0.04719000  0.71652000  0.12609000  1.0
  H  H25  1  0.16705000  0.23582000  0.75319000  1.0
  H  H26  1  0.83273000  0.76430000  0.24683000  1.0
  H  H27  1  0.30922000  0.32601000  0.59730000  1.0
  H  H28  1  0.69055000  0.67410000  0.40264000  1.0
  H  H29  1  0.32939000  0.51277000  0.45947000  1.0
  H  H30  1  0.67036000  0.48728000  0.54047000  1.0
  H  H31  1  0.22062000  0.75627000  0.36393000  1.0
  H  H32  1  0.77913000  0.24383000  0.63600000  1.0
  H  H33  1  0.81478000  0.97255000  0.48346000  1.0
  H  H34  1  0.18506000  0.02758000  0.51663000  1.0
  H  H35  1  0.01583000  0.96282000  0.34926000  1.0
  H  H36  1  0.98392000  0.03729000  0.65071000  1.0
  C  C37  1  0.06991000  0.73076000  0.83999000  1.0
  C  C38  1  0.93023000  0.26916000  0.15990000  1.0
  C  C39  1  0.21587000  0.66774000  0.80782000  1.0
  C  C40  1  0.78427000  0.33220000  0.19212000  1.0
  C  C41  1  0.29453000  0.54133000  0.85861000  1.0
  C  C42  1  0.70558000  0.45861000  0.14135000  1.0
  C  C43  1  0.43190000  0.48950000  0.82787000  1.0
  C  C44  1  0.56821000  0.51039000  0.17207000  1.0
  C  C45  1  0.49086000  0.56327000  0.74746000  1.0
  C  C46  1  0.50928000  0.43663000  0.25252000  1.0
  C  C47  1  0.41267000  0.68877000  0.69571000  1.0
  C  C48  1  0.58747000  0.31117000  0.30430000  1.0
  C  C49  1  0.27504000  0.73980000  0.72554000  1.0
  C  C50  1  0.72510000  0.26013000  0.27442000  1.0
  C  C51  1  0.47913000  0.77251000  0.61726000  1.0
  C  C52  1  0.52102000  0.22753000  0.38278000  1.0
  C  C53  1  0.66772000  0.77878000  0.93772000  1.0
  C  C54  1  0.33230000  0.22117000  0.06226000  1.0
  C  C55  1  0.53848000  0.82074000  0.00863000  1.0
  C  C56  1  0.46159000  0.17887000  0.99140000  1.0
  C  C57  1  0.41423000  0.83083000  0.96292000  1.0
  C  C58  1  0.58582000  0.16895000  0.03704000  1.0
  C  C59  1  0.29377000  0.87628000  0.02691000  1.0
  C  C60  1  0.70631000  0.12335000  0.97307000  1.0
  C  C61  1  0.29578000  0.91508000  0.13590000  1.0
  C  C62  1  0.70431000  0.08443000  0.86415000  1.0
  C  C63  1  0.42005000  0.90283000  0.18307000  1.0
  C  C64  1  0.58003000  0.09675000  0.81695000  1.0
  C  C65  1  0.54110000  0.85425000  0.11965000  1.0
  C  C66  1  0.45901000  0.14512000  0.88044000  1.0
  C  C67  1  0.42078000  0.94866000  0.29805000  1.0
  C  C68  1  0.57925000  0.05145000  0.70176000  1.0
  C  C69  1  0.87234000  0.48837000  0.79808000  1.0
  C  C70  1  0.12761000  0.51190000  0.20212000  1.0
  C  C71  1  0.97023000  0.35990000  0.81009000  1.0
  C  C72  1  0.02963000  0.64030000  0.19001000  1.0
  C  C73  1  0.08862000  0.33392000  0.74371000  1.0
  C  C74  1  0.91120000  0.66623000  0.25634000  1.0
  C  C75  1  0.10836000  0.43633000  0.66272000  1.0
  C  C76  1  0.89149000  0.56383000  0.33735000  1.0
  C  C77  1  0.22756000  0.42217000  0.59095000  1.0
  C  C78  1  0.77225000  0.57795000  0.40907000  1.0
  C  C79  1  0.23819000  0.52624000  0.51373000  1.0
  C  C80  1  0.76161000  0.47388000  0.48628000  1.0
  C  C81  1  0.13015000  0.65171000  0.49978000  1.0
  C  C82  1  0.86967000  0.34843000  0.50026000  1.0
  C  C83  1  0.13127000  0.76223000  0.41947000  1.0
  C  C84  1  0.86852000  0.23790000  0.58051000  1.0
  C  C85  1  0.00219000  0.56094000  0.65346000  1.0
  C  C86  1  0.99773000  0.43926000  0.34669000  1.0
  C  C87  1  0.01199000  0.66774000  0.57048000  1.0
  C  C88  1  0.98791000  0.33245000  0.42963000  1.0
  C  C89  1  0.90519000  0.88375000  0.48587000  1.0
  C  C90  1  0.09467000  0.11641000  0.51417000  1.0
  C  C91  1  0.01836000  0.87668000  0.41136000  1.0
  C  C92  1  0.98146000  0.12344000  0.58864000  1.0
  N  N93  1  0.88808000  0.58594000  0.72151000  1.0
  N  N94  1  0.11190000  0.41433000  0.27873000  1.0
  N  N95  1  0.90394000  0.78231000  0.56430000  1.0
  N  N96  1  0.09600000  0.21790000  0.43581000  1.0
  O  O97  1  0.02442000  0.65808000  0.92273000  1.0
  O  O98  1  0.97581000  0.34202000  0.07740000  1.0
  O  O99  1  0.99910000  0.84041000  0.79288000  1.0
  O  O100  1  0.00092000  0.15934000  0.20679000  1.0
  O  O101  1  0.39913000  0.88742000  0.57484000  1.0
  O  O102  1  0.60104000  0.11256000  0.42511000  1.0
  O  O103  1  0.60546000  0.73095000  0.59902000  1.0
  O  O104  1  0.39470000  0.26910000  0.40114000  1.0
  O  O105  1  0.77895000  0.75107000  0.98701000  1.0
  O  O106  1  0.22114000  0.24859000  0.01295000  1.0
  O  O107  1  0.65110000  0.77531000  0.83077000  1.0
  O  O108  1  0.34880000  0.22532000  0.16911000  1.0
  O  O109  1  0.53015000  0.90699000  0.35353000  1.0
  O  O110  1  0.46985000  0.09332000  0.64630000  1.0
  O  O111  1  0.30999000  0.02683000  0.33893000  1.0
  O  O112  1  0.69000000  0.97338000  0.66070000  1.0
