# generated using pymatgen
data_CoHCO3
_symmetry_space_group_name_H-M   'P 1'
_cell_length_a   7.37311000
_cell_length_b   7.38617000
_cell_length_c   7.46945000
_cell_angle_alpha   93.28280000
_cell_angle_beta   92.89040000
_cell_angle_gamma   93.13920000
_symmetry_Int_Tables_number   1
_chemical_formula_structural   CoHCO3
_chemical_formula_sum   'Co6 H6 C6 O18'
_cell_volume   404.91645470
_cell_formula_units_Z   6
loop_
 _symmetry_equiv_pos_site_id
 _symmetry_equiv_pos_as_xyz
  1  'x, y, z'
loop_
 _atom_site_type_symbol
 _atom_site_label
 _atom_site_symmetry_multiplicity
 _atom_site_fract_x
 _atom_site_fract_y
 _atom_site_fract_z
 _atom_site_occupancy
  Co  Co0  1  0.20344000  0.46376000  0.56886000  1.0
  Co  Co1  1  0.55724000  0.22057000  0.46257000  1.0
  Co  Co2  1  0.46761000  0.55664000  0.22420000  1.0
  Co  Co3  1  0.79648000  0.53636000  0.43114000  1.0
  Co  Co4  1  0.44259000  0.77960000  0.53722000  1.0
  Co  Co5  1  0.53273000  0.44354000  0.77579000  1.0
  H  H6  1  0.94051000  0.90707000  0.65402000  1.0
  H  H7  1  0.62830000  0.94112000  0.90271000  1.0
  H  H8  1  0.91788000  0.66355000  0.95475000  1.0
  H  H9  1  0.05924000  0.09222000  0.34705000  1.0
  H  H10  1  0.37052000  0.05892000  0.09699000  1.0
  H  H11  1  0.08327000  0.33626000  0.04535000  1.0
  C  C12  1  0.05893000  0.82370000  0.63441000  1.0
  C  C13  1  0.61354000  0.05903000  0.81953000  1.0
  C  C14  1  0.83622000  0.62406000  0.06796000  1.0
  C  C15  1  0.94089000  0.17595000  0.36589000  1.0
  C  C16  1  0.38569000  0.94105000  0.18011000  1.0
  C  C17  1  0.16473000  0.37601000  0.93217000  1.0
  O  O18  1  0.01904000  0.65292000  0.59744000  1.0
  O  O19  1  0.60121000  0.02245000  0.64885000  1.0
  O  O20  1  0.67169000  0.56698000  0.02816000  1.0
  O  O21  1  0.98074000  0.34680000  0.40248000  1.0
  O  O22  1  0.39816000  0.97778000  0.35075000  1.0
  O  O23  1  0.32923000  0.43324000  0.97187000  1.0
  O  O24  1  0.08588000  0.36141000  0.77758000  1.0
  O  O25  1  0.78506000  0.09840000  0.34919000  1.0
  O  O26  1  0.39066000  0.78656000  0.10245000  1.0
  O  O27  1  0.91462000  0.63878000  0.22276000  1.0
  O  O28  1  0.21470000  0.90133000  0.65096000  1.0
  O  O29  1  0.60915000  0.21354000  0.89720000  1.0
  O  O30  1  0.37719000  0.30767000  0.60334000  1.0
  O  O31  1  0.51672000  0.33583000  0.27009000  1.0
  O  O32  1  0.29846000  0.59912000  0.39991000  1.0
  O  O33  1  0.62275000  0.69254000  0.39647000  1.0
  O  O34  1  0.48329000  0.66427000  0.72972000  1.0
  O  O35  1  0.70161000  0.40096000  0.60008000  1.0
