# generated using pymatgen
data_LiH8C4SClO2
_symmetry_space_group_name_H-M   'P 1'
_cell_length_a   6.46164000
_cell_length_b   9.49963000
_cell_length_c   10.77510000
_cell_angle_alpha   89.99910000
_cell_angle_beta   90.00000000
_cell_angle_gamma   89.99940000
_symmetry_Int_Tables_number   1
_chemical_formula_structural   LiH8C4SClO2
_chemical_formula_sum   'Li4 H32 C16 S4 Cl4 O8'
_cell_volume   661.41000176
_cell_formula_units_Z   4
loop_
 _symmetry_equiv_pos_site_id
 _symmetry_equiv_pos_as_xyz
  1  'x, y, z'
loop_
 _atom_site_type_symbol
 _atom_site_label
 _atom_site_symmetry_multiplicity
 _atom_site_fract_x
 _atom_site_fract_y
 _atom_site_fract_z
 _atom_site_occupancy
  Li  Li0  1  0.89445000  0.59500000  0.01987000  1.0
  Li  Li1  1  0.39445000  0.09502000  0.48014000  1.0
  Li  Li2  1  0.89446000  0.90498000  0.51987000  1.0
  Li  Li3  1  0.39446000  0.40499000  0.98013000  1.0
  H  H4  1  0.70748000  0.56287000  0.78496000  1.0
  H  H5  1  0.20746000  0.06288000  0.71505000  1.0
  H  H6  1  0.70745000  0.93713000  0.28496000  1.0
  H  H7  1  0.20746000  0.43711000  0.21504000  1.0
  H  H8  1  0.73060000  0.62589000  0.62803000  1.0
  H  H9  1  0.23060000  0.12590000  0.87197000  1.0
  H  H10  1  0.73059000  0.87410000  0.12803000  1.0
  H  H11  1  0.23061000  0.37410000  0.37197000  1.0
  H  H12  1  0.99115000  0.39469000  0.75514000  1.0
  H  H13  1  0.49113000  0.89469000  0.74486000  1.0
  H  H14  1  0.99112000  0.10531000  0.25514000  1.0
  H  H15  1  0.49112000  0.60531000  0.24486000  1.0
  H  H16  1  0.86233000  0.37977000  0.61034000  1.0
  H  H17  1  0.36233000  0.87978000  0.88966000  1.0
  H  H18  1  0.86231000  0.12022000  0.11034000  1.0
  H  H19  1  0.36230000  0.62022000  0.38966000  1.0
  H  H20  1  0.25663000  0.42826000  0.59266000  1.0
  H  H21  1  0.75663000  0.92826000  0.90732000  1.0
  H  H22  1  0.25662000  0.07174000  0.09268000  1.0
  H  H23  1  0.75662000  0.57175000  0.40733000  1.0
  H  H24  1  0.10060000  0.55670000  0.51678000  1.0
  H  H25  1  0.60061000  0.05669000  0.98322000  1.0
  H  H26  1  0.10059000  0.94331000  0.01677000  1.0
  H  H27  1  0.60059000  0.44332000  0.48322000  1.0
  H  H28  1  0.31189000  0.58336000  0.77200000  1.0
  H  H29  1  0.81188000  0.08336000  0.72799000  1.0
  H  H30  1  0.31186000  0.91664000  0.27201000  1.0
  H  H31  1  0.81188000  0.41665000  0.22800000  1.0
  H  H32  1  0.31963000  0.70711000  0.64473000  1.0
  H  H33  1  0.81962000  0.20711000  0.85525000  1.0
  H  H34  1  0.31962000  0.79289000  0.14474000  1.0
  H  H35  1  0.81963000  0.29290000  0.35527000  1.0
  C  C36  1  0.81396000  0.57914000  0.70685000  1.0
  C  C37  1  0.31395000  0.07914000  0.79315000  1.0
  C  C38  1  0.81395000  0.92086000  0.20685000  1.0
  C  C39  1  0.31395000  0.42086000  0.29315000  1.0
  C  C40  1  0.94667000  0.45251000  0.67092000  1.0
  C  C41  1  0.44666000  0.95252000  0.82908000  1.0
  C  C42  1  0.94665000  0.04748000  0.17092000  1.0
  C  C43  1  0.44665000  0.54748000  0.32908000  1.0
  C  C44  1  0.14108000  0.51103000  0.60725000  1.0
  C  C45  1  0.64108000  0.01103000  0.89274000  1.0
  C  C46  1  0.14106000  0.98896000  0.10725000  1.0
  C  C47  1  0.64107000  0.48897000  0.39274000  1.0
  C  C48  1  0.22752000  0.62589000  0.69194000  1.0
  C  C49  1  0.72752000  0.12589000  0.80805000  1.0
  C  C50  1  0.22751000  0.87412000  0.19194000  1.0
  C  C51  1  0.72751000  0.37411000  0.30806000  1.0
  S  S52  1  0.00022000  0.71038000  0.75367000  1.0
  S  S53  1  0.50021000  0.21039000  0.74634000  1.0
  S  S54  1  0.00021000  0.78962000  0.25366000  1.0
  S  S55  1  0.50022000  0.28961000  0.24634000  1.0
  Cl  Cl56  1  0.53597000  0.62786000  0.00044000  1.0
  Cl  Cl57  1  0.03597000  0.12784000  0.49955000  1.0
  Cl  Cl58  1  0.53597000  0.87215000  0.50045000  1.0
  Cl  Cl59  1  0.03597000  0.37214000  0.99956000  1.0
  O  O60  1  0.01034000  0.72165000  0.88917000  1.0
  O  O61  1  0.51032000  0.22166000  0.61083000  1.0
  O  O62  1  0.01033000  0.77834000  0.38917000  1.0
  O  O63  1  0.51035000  0.27835000  0.11083000  1.0
  O  O64  1  0.96310000  0.84356000  0.68867000  1.0
  O  O65  1  0.46310000  0.34355000  0.81133000  1.0
  O  O66  1  0.96307000  0.65644000  0.18868000  1.0
  O  O67  1  0.46310000  0.15644000  0.31133000  1.0
