# generated using pymatgen
data_CuH12C8N3
_symmetry_space_group_name_H-M   'P 1'
_cell_length_a   12.17180000
_cell_length_b   12.19070000
_cell_length_c   12.32400000
_cell_angle_alpha   106.27700000
_cell_angle_beta   106.30300000
_cell_angle_gamma   105.91100000
_symmetry_Int_Tables_number   1
_chemical_formula_structural   CuH12C8N3
_chemical_formula_sum   'Cu6 H72 C48 N18'
_cell_volume   1556.35360215
_cell_formula_units_Z   6
loop_
 _symmetry_equiv_pos_site_id
 _symmetry_equiv_pos_as_xyz
  1  'x, y, z'
loop_
 _atom_site_type_symbol
 _atom_site_label
 _atom_site_symmetry_multiplicity
 _atom_site_fract_x
 _atom_site_fract_y
 _atom_site_fract_z
 _atom_site_occupancy
  Cu  Cu0  1  0.97850000  0.60009000  0.11250000  1.0
  Cu  Cu1  1  0.11156000  0.97631000  0.59881000  1.0
  Cu  Cu2  1  0.60028000  0.11142000  0.97867000  1.0
  Cu  Cu3  1  0.02150000  0.39991000  0.88750000  1.0
  Cu  Cu4  1  0.88844000  0.02369000  0.40119000  1.0
  Cu  Cu5  1  0.39972000  0.88858000  0.02133000  1.0
  H  H6  1  0.16119000  0.85725000  0.24085000  1.0
  H  H7  1  0.24176000  0.15996000  0.85650000  1.0
  H  H8  1  0.85729000  0.24278000  0.16236000  1.0
  H  H9  1  0.83880000  0.14275000  0.75915000  1.0
  H  H10  1  0.75824000  0.84003000  0.14351000  1.0
  H  H11  1  0.14271000  0.75724000  0.83765000  1.0
  H  H12  1  0.32161000  0.91288000  0.27122000  1.0
  H  H13  1  0.27232000  0.32024000  0.91173000  1.0
  H  H14  1  0.91375000  0.27306000  0.32110000  1.0
  H  H15  1  0.67839000  0.08712000  0.72878000  1.0
  H  H16  1  0.72768000  0.67975000  0.08826000  1.0
  H  H17  1  0.08625000  0.72694000  0.67891000  1.0
  H  H18  1  0.23490000  0.06664000  0.23025000  1.0
  H  H19  1  0.23070000  0.23492000  0.06354000  1.0
  H  H20  1  0.06693000  0.23055000  0.23509000  1.0
  H  H21  1  0.76511000  0.93336000  0.76976000  1.0
  H  H22  1  0.76930000  0.76508000  0.93646000  1.0
  H  H23  1  0.93307000  0.76946000  0.76491000  1.0
  H  H24  1  0.12497000  0.95380000  0.08398000  1.0
  H  H25  1  0.08325000  0.12483000  0.95164000  1.0
  H  H26  1  0.95338000  0.08375000  0.12567000  1.0
  H  H27  1  0.87503000  0.04620000  0.91602000  1.0
  H  H28  1  0.91675000  0.87517000  0.04836000  1.0
  H  H29  1  0.04661000  0.91626000  0.87434000  1.0
  H  H30  1  0.28590000  0.00747000  0.11317000  1.0
  H  H31  1  0.11180000  0.28549000  0.00477000  1.0
  H  H32  1  0.00769000  0.11197000  0.28468000  1.0
  H  H33  1  0.71410000  0.99254000  0.88684000  1.0
  H  H34  1  0.88820000  0.71451000  0.99523000  1.0
  H  H35  1  0.99231000  0.88804000  0.71532000  1.0
  H  H36  1  0.27775000  0.62801000  0.80208000  1.0
  H  H37  1  0.79992000  0.27939000  0.62714000  1.0
  H  H38  1  0.62742000  0.80114000  0.27727000  1.0
  H  H39  1  0.72226000  0.37200000  0.19792000  1.0
  H  H40  1  0.20007000  0.72061000  0.37286000  1.0
  H  H41  1  0.37258000  0.19886000  0.72274000  1.0
  H  H42  1  0.21947000  0.48349000  0.81289000  1.0
  H  H43  1  0.81191000  0.22036000  0.48445000  1.0
  H  H44  1  0.48291000  0.81334000  0.21956000  1.0
  H  H45  1  0.78053000  0.51652000  0.18710000  1.0
  H  H46  1  0.18810000  0.77963000  0.51555000  1.0
  H  H47  1  0.51709000  0.18665000  0.78043000  1.0
  H  H48  1  0.44812000  0.55008000  0.86120000  1.0
  H  H49  1  0.86093000  0.44890000  0.55068000  1.0
  H  H50  1  0.55002000  0.86028000  0.44519000  1.0
  H  H51  1  0.55188000  0.44992000  0.13880000  1.0
  H  H52  1  0.13907000  0.55110000  0.44932000  1.0
  H  H53  1  0.44997000  0.13972000  0.55481000  1.0
  H  H54  1  0.42037000  0.54817000  0.99532000  1.0
  H  H55  1  0.99648000  0.42010000  0.54944000  1.0
  H  H56  1  0.54803000  0.99648000  0.41908000  1.0
  H  H57  1  0.57962000  0.45182000  0.00468000  1.0
  H  H58  1  0.00352000  0.57990000  0.45056000  1.0
  H  H59  1  0.45197000  0.00351000  0.58091000  1.0
  H  H60  1  0.47773000  0.69098000  0.97965000  1.0
  H  H61  1  0.97996000  0.47820000  0.69062000  1.0
  H  H62  1  0.69107000  0.97972000  0.47572000  1.0
  H  H63  1  0.52227000  0.30902000  0.02035000  1.0
  H  H64  1  0.02004000  0.52180000  0.30938000  1.0
  H  H65  1  0.30892000  0.02028000  0.52428000  1.0
  H  H66  1  0.23030000  0.56813000  0.19777000  1.0
  H  H67  1  0.19814000  0.23083000  0.56808000  1.0
  H  H68  1  0.56819000  0.19867000  0.23156000  1.0
  H  H69  1  0.76970000  0.43186000  0.80223000  1.0
  H  H70  1  0.80187000  0.76917000  0.43193000  1.0
  H  H71  1  0.43181000  0.80133000  0.76844000  1.0
  H  H72  1  0.46979000  0.49173000  0.31171000  1.0
  H  H73  1  0.31120000  0.46884000  0.49181000  1.0
  H  H74  1  0.49213000  0.31104000  0.46900000  1.0
  H  H75  1  0.53021000  0.50826000  0.68829000  1.0
  H  H76  1  0.68880000  0.53117000  0.50821000  1.0
  H  H77  1  0.50787000  0.68897000  0.53100000  1.0
  C  C78  1  0.20849000  0.76328000  0.10086000  1.0
  C  C79  1  0.10076000  0.20768000  0.76264000  1.0
  C  C80  1  0.76345000  0.10197000  0.20895000  1.0
  C  C81  1  0.79152000  0.23673000  0.89914000  1.0
  C  C82  1  0.89925000  0.79231000  0.23736000  1.0
  C  C83  1  0.23655000  0.89804000  0.79106000  1.0
  C  C84  1  0.22857000  0.87977000  0.19922000  1.0
  C  C85  1  0.19954000  0.22757000  0.87851000  1.0
  C  C86  1  0.88012000  0.20054000  0.22894000  1.0
  C  C87  1  0.77143000  0.12023000  0.80078000  1.0
  C  C88  1  0.80046000  0.77243000  0.12149000  1.0
  C  C89  1  0.11987000  0.79947000  0.77107000  1.0
  C  C90  1  0.21770000  0.98285000  0.15395000  1.0
  C  C91  1  0.15347000  0.21737000  0.98041000  1.0
  C  C92  1  0.98295000  0.15388000  0.21774000  1.0
  C  C93  1  0.78230000  0.01716000  0.84605000  1.0
  C  C94  1  0.84653000  0.78263000  0.01959000  1.0
  C  C95  1  0.01705000  0.84612000  0.78226000  1.0
  C  C96  1  0.23103000  0.63431000  0.95663000  1.0
  C  C97  1  0.95619000  0.23152000  0.63447000  1.0
  C  C98  1  0.63406000  0.95759000  0.23145000  1.0
  C  C99  1  0.76897000  0.36570000  0.04337000  1.0
  C  C100  1  0.04381000  0.76848000  0.36553000  1.0
  C  C101  1  0.36594000  0.04241000  0.76855000  1.0
  C  C102  1  0.28131000  0.58099000  0.86678000  1.0
  C  C103  1  0.86585000  0.28227000  0.58121000  1.0
  C  C104  1  0.58065000  0.86707000  0.28099000  1.0
  C  C105  1  0.71869000  0.41901000  0.13322000  1.0
  C  C106  1  0.13415000  0.71773000  0.41879000  1.0
  C  C107  1  0.41935000  0.13293000  0.71901000  1.0
  C  C108  1  0.41478000  0.59317000  0.92927000  1.0
  C  C109  1  0.92941000  0.41520000  0.59363000  1.0
  C  C110  1  0.59309000  0.92949000  0.41304000  1.0
  C  C111  1  0.58522000  0.40683000  0.07072000  1.0
  C  C112  1  0.07059000  0.58480000  0.40638000  1.0
  C  C113  1  0.40690000  0.07051000  0.58696000  1.0
  C  C114  1  0.30690000  0.54436000  0.23628000  1.0
  C  C115  1  0.23638000  0.30705000  0.54446000  1.0
  C  C116  1  0.54460000  0.23671000  0.30757000  1.0
  C  C117  1  0.69310000  0.45563000  0.76372000  1.0
  C  C118  1  0.76363000  0.69293000  0.45552000  1.0
  C  C119  1  0.45540000  0.76328000  0.69243000  1.0
  C  C120  1  0.39319000  0.51665000  0.27702000  1.0
  C  C121  1  0.27670000  0.39264000  0.51655000  1.0
  C  C122  1  0.51695000  0.27691000  0.39306000  1.0
  C  C123  1  0.60680000  0.48334000  0.72298000  1.0
  C  C124  1  0.72332000  0.60736000  0.48344000  1.0
  C  C125  1  0.48305000  0.72309000  0.60694000  1.0
  N  N126  1  0.12012000  0.65227000  0.06803000  1.0
  N  N127  1  0.06796000  0.11932000  0.65244000  1.0
  N  N128  1  0.65251000  0.06823000  0.12019000  1.0
  N  N129  1  0.87988000  0.34773000  0.93197000  1.0
  N  N130  1  0.93204000  0.88068000  0.34756000  1.0
  N  N131  1  0.34749000  0.93178000  0.87981000  1.0
  N  N132  1  0.13502000  0.56945000  0.97537000  1.0
  N  N133  1  0.97513000  0.13511000  0.57017000  1.0
  N  N134  1  0.56944000  0.97550000  0.13506000  1.0
  N  N135  1  0.86498000  0.43055000  0.02463000  1.0
  N  N136  1  0.02487000  0.86489000  0.42983000  1.0
  N  N137  1  0.43056000  0.02450000  0.86495000  1.0
  N  N138  1  0.27866000  0.75567000  0.03263000  1.0
  N  N139  1  0.03232000  0.27872000  0.75493000  1.0
  N  N140  1  0.75552000  0.03440000  0.27949000  1.0
  N  N141  1  0.72134000  0.24433000  0.96737000  1.0
  N  N142  1  0.96768000  0.72128000  0.24507000  1.0
  N  N143  1  0.24448000  0.96560000  0.72051000  1.0
