# generated using pymatgen
data_LaH10C5O8
_symmetry_space_group_name_H-M   'P 1'
_cell_length_a   8.93017000
_cell_length_b   8.93010000
_cell_length_c   14.89121140
_cell_angle_alpha   105.81988572
_cell_angle_beta   105.82019076
_cell_angle_gamma   95.14480000
_symmetry_Int_Tables_number   1
_chemical_formula_structural   LaH10C5O8
_chemical_formula_sum   'La4 H40 C20 O32'
_cell_volume   1081.88848548
_cell_formula_units_Z   4
loop_
 _symmetry_equiv_pos_site_id
 _symmetry_equiv_pos_as_xyz
  1  'x, y, z'
loop_
 _atom_site_type_symbol
 _atom_site_label
 _atom_site_symmetry_multiplicity
 _atom_site_fract_x
 _atom_site_fract_y
 _atom_site_fract_z
 _atom_site_occupancy
  La  La0  1  0.50306000  0.25305000  0.00611000  1.0
  La  La1  1  0.74696000  0.49696000  0.49390000  1.0
  La  La2  1  0.49695000  0.74695000  0.99389000  1.0
  La  La3  1  0.25304000  0.50305000  0.50610000  1.0
  H  H4  1  0.04082000  0.60869000  0.15160000  1.0
  H  H5  1  0.11054000  0.04297000  0.15148000  1.0
  H  H6  1  0.95704000  0.88946000  0.34852000  1.0
  H  H7  1  0.39131000  0.95918000  0.34840000  1.0
  H  H8  1  0.95918000  0.39130000  0.84840000  1.0
  H  H9  1  0.88945000  0.95703000  0.84851000  1.0
  H  H10  1  0.04297000  0.11055000  0.65149000  1.0
  H  H11  1  0.60869000  0.04083000  0.65160000  1.0
  H  H12  1  0.91838000  0.75367000  0.12970000  1.0
  H  H13  1  0.21117000  0.87614000  0.12964000  1.0
  H  H14  1  0.12386000  0.78883000  0.37036000  1.0
  H  H15  1  0.24633000  0.08163000  0.37030000  1.0
  H  H16  1  0.08163000  0.24632000  0.87030000  1.0
  H  H17  1  0.78882000  0.12385000  0.87035000  1.0
  H  H18  1  0.87615000  0.21118000  0.62965000  1.0
  H  H19  1  0.75367000  0.91838000  0.62970000  1.0
  H  H20  1  0.97916000  0.63658000  0.03443000  1.0
  H  H21  1  0.05519000  0.89791000  0.03436000  1.0
  H  H22  1  0.10210000  0.94482000  0.46564000  1.0
  H  H23  1  0.36342000  0.02083000  0.46556000  1.0
  H  H24  1  0.02083000  0.36341000  0.96556000  1.0
  H  H25  1  0.94481000  0.10209000  0.96564000  1.0
  H  H26  1  0.89791000  0.05518000  0.53436000  1.0
  H  H27  1  0.63659000  0.97918000  0.53444000  1.0
  H  H28  1  0.55106000  0.37623000  0.83588000  1.0
  H  H29  1  0.28520000  0.95950000  0.83575000  1.0
  H  H30  1  0.04050000  0.71480000  0.66425000  1.0
  H  H31  1  0.62378000  0.44895000  0.66413000  1.0
  H  H32  1  0.44894000  0.62377000  0.16412000  1.0
  H  H33  1  0.71480000  0.04049000  0.16425000  1.0
  H  H34  1  0.95950000  0.28519000  0.33575000  1.0
  H  H35  1  0.37623000  0.55107000  0.33588000  1.0
  H  H36  1  0.52562000  0.19185000  0.78396000  1.0
  H  H37  1  0.25829000  0.09187000  0.78374000  1.0
  H  H38  1  0.90814000  0.74170000  0.71626000  1.0
  H  H39  1  0.80815000  0.47437000  0.71604000  1.0
  H  H40  1  0.47438000  0.80816000  0.21604000  1.0
  H  H41  1  0.74171000  0.90813000  0.21626000  1.0
  H  H42  1  0.09186000  0.25829000  0.28374000  1.0
  H  H43  1  0.19186000  0.52563000  0.28396000  1.0
  C  C44  1  0.79706000  0.51185000  0.06698000  1.0
  C  C45  1  0.26974000  0.05520000  0.06679000  1.0
  C  C46  1  0.94481000  0.73026000  0.43321000  1.0
  C  C47  1  0.48815000  0.20294000  0.43303000  1.0
  C  C48  1  0.20294000  0.48815000  0.93302000  1.0
  C  C49  1  0.73025000  0.94479000  0.93321000  1.0
  C  C50  1  0.05520000  0.26974000  0.56679000  1.0
  C  C51  1  0.51184000  0.79705000  0.56697000  1.0
  C  C52  1  0.94275000  0.63564000  0.09918000  1.0
  C  C53  1  0.15625000  0.96363000  0.09908000  1.0
  C  C54  1  0.03638000  0.84375000  0.40092000  1.0
  C  C55  1  0.36436000  0.05725000  0.40082000  1.0
  C  C56  1  0.05725000  0.36436000  0.90082000  1.0
  C  C57  1  0.84374000  0.03637000  0.90092000  1.0
  C  C58  1  0.96363000  0.15625000  0.59908000  1.0
  C  C59  1  0.63564000  0.94276000  0.59918000  1.0
  C  C60  1  0.68305000  0.31694000  0.25001000  1.0
  C  C61  1  0.56662000  0.43339000  0.25001000  1.0
  C  C62  1  0.31694000  0.68304000  0.74999000  1.0
  C  C63  1  0.43339000  0.56661000  0.74999000  1.0
  O  O64  1  0.80736000  0.37146000  0.06677000  1.0
  O  O65  1  0.25918000  0.19534000  0.06649000  1.0
  O  O66  1  0.80468000  0.74083000  0.43352000  1.0
  O  O67  1  0.62854000  0.19264000  0.43324000  1.0
  O  O68  1  0.19264000  0.62854000  0.93324000  1.0
  O  O69  1  0.74083000  0.80466000  0.93351000  1.0
  O  O70  1  0.19532000  0.25916000  0.56648000  1.0
  O  O71  1  0.37147000  0.80737000  0.56677000  1.0
  O  O72  1  0.65993000  0.55039000  0.03785000  1.0
  O  O73  1  0.37780000  0.98753000  0.03772000  1.0
  O  O74  1  0.01248000  0.62221000  0.46229000  1.0
  O  O75  1  0.44959000  0.34007000  0.46214000  1.0
  O  O76  1  0.34007000  0.44959000  0.96214000  1.0
  O  O77  1  0.62220000  0.01246000  0.96228000  1.0
  O  O78  1  0.98753000  0.37780000  0.53772000  1.0
  O  O79  1  0.55040000  0.65993000  0.53785000  1.0
  O  O80  1  0.66383000  0.21178000  0.16933000  1.0
  O  O81  1  0.50482000  0.45756000  0.16924000  1.0
  O  O82  1  0.54245000  0.49518000  0.33076000  1.0
  O  O83  1  0.78821000  0.33618000  0.33067000  1.0
  O  O84  1  0.33617000  0.78822000  0.83067000  1.0
  O  O85  1  0.49519000  0.54245000  0.83077000  1.0
  O  O86  1  0.45755000  0.50482000  0.66924000  1.0
  O  O87  1  0.21179000  0.66383000  0.66933000  1.0
  O  O88  1  0.57107000  0.27274000  0.84733000  1.0
  O  O89  1  0.27661000  0.07441000  0.84718000  1.0
  O  O90  1  0.92559000  0.72340000  0.65283000  1.0
  O  O91  1  0.72726000  0.42893000  0.65267000  1.0
  O  O92  1  0.42893000  0.72727000  0.15267000  1.0
  O  O93  1  0.72339000  0.92558000  0.15282000  1.0
  O  O94  1  0.07441000  0.27661000  0.34718000  1.0
  O  O95  1  0.27274000  0.57107000  0.34733000  1.0
