# generated using pymatgen
data_Cd3H36C38S2(N3O11)2
_symmetry_space_group_name_H-M   'P 1'
_cell_length_a   9.87554000
_cell_length_b   9.97803672
_cell_length_c   14.24100000
_cell_angle_alpha   102.77450548
_cell_angle_beta   94.95170000
_cell_angle_gamma   118.10990405
_symmetry_Int_Tables_number   1
_chemical_formula_structural   Cd3H36C38S2(N3O11)2
_chemical_formula_sum   'Cd3 H36 C38 S2 N6 O22'
_cell_volume   1177.15358254
_cell_formula_units_Z   1
loop_
 _symmetry_equiv_pos_site_id
 _symmetry_equiv_pos_as_xyz
  1  'x, y, z'
loop_
 _atom_site_type_symbol
 _atom_site_label
 _atom_site_symmetry_multiplicity
 _atom_site_fract_x
 _atom_site_fract_y
 _atom_site_fract_z
 _atom_site_occupancy
  Cd  Cd0  1  0.89112000  0.16771000  0.95699000  1.0
  Cd  Cd1  1  0.10888000  0.83229000  0.04301000  1.0
  Cd  Cd2  1  0.50000000  0.50000000  0.50000000  1.0
  H  H3  1  0.85582000  0.43910000  0.06753000  1.0
  H  H4  1  0.14418000  0.56090000  0.93247000  1.0
  H  H5  1  0.76365000  0.28528000  0.10296000  1.0
  H  H6  1  0.23634000  0.71472000  0.89704000  1.0
  H  H7  1  0.63619000  0.84150000  0.59718000  1.0
  H  H8  1  0.36381000  0.15850000  0.40281000  1.0
  H  H9  1  0.45319000  0.76392000  0.58550000  1.0
  H  H10  1  0.54681000  0.23608000  0.41449000  1.0
  H  H11  1  0.85396000  0.86921000  0.87635000  1.0
  H  H12  1  0.14603000  0.13079000  0.12365000  1.0
  H  H13  1  0.02916000  0.98207000  0.88312000  1.0
  H  H14  1  0.97084000  0.01793000  0.11688000  1.0
  H  H15  1  0.00258000  0.30811000  0.62110000  1.0
  H  H16  1  0.99742000  0.69189000  0.37889000  1.0
  H  H17  1  0.40961000  0.05122000  0.68534000  1.0
  H  H18  1  0.59039000  0.94878000  0.31466000  1.0
  H  H19  1  0.01299000  0.30619000  0.20400000  1.0
  H  H20  1  0.98700000  0.69380000  0.79600000  1.0
  H  H21  1  0.79453000  0.89833000  0.20063000  1.0
  H  H22  1  0.20547000  0.10167000  0.79937000  1.0
  H  H23  1  0.80415000  0.23481000  0.30427000  1.0
  H  H24  1  0.19583000  0.76518000  0.69573000  1.0
  H  H25  1  0.17469000  0.41600000  0.56138000  1.0
  H  H26  1  0.82530000  0.58400000  0.43862000  1.0
  H  H27  1  0.56459000  0.15468000  0.56421000  1.0
  H  H28  1  0.43542000  0.84533000  0.43579000  1.0
  H  H29  1  0.55006000  0.05723000  0.84517000  1.0
  H  H30  1  0.44995000  0.94278000  0.15483000  1.0
  H  H31  1  0.29250000  0.41646000  0.29065000  1.0
  H  H32  1  0.70749000  0.58353000  0.70934000  1.0
  H  H33  1  0.98284000  0.28154000  0.77130000  1.0
  H  H34  1  0.01717000  0.71847000  0.22870000  1.0
  H  H35  1  0.39399000  0.64898000  0.95656000  1.0
  H  H36  1  0.60601000  0.35102000  0.04344000  1.0
  H  H37  1  0.40763000  0.44270000  0.18986000  1.0
  H  H38  1  0.59237000  0.55730000  0.81015000  1.0
  C  C39  1  0.53650000  0.10145000  0.70241000  1.0
  C  C40  1  0.46351000  0.89856000  0.29760000  1.0
  C  C41  1  0.04278000  0.32493000  0.28291000  1.0
  C  C42  1  0.95722000  0.67507000  0.71709000  1.0
  C  C43  1  0.68006000  0.79472000  0.16250000  1.0
  C  C44  1  0.31994000  0.20528000  0.83750000  1.0
  C  C45  1  0.92793000  0.28636000  0.33820000  1.0
  C  C46  1  0.07206000  0.71363000  0.66180000  1.0
  C  C47  1  0.37914000  0.53342000  0.07033000  1.0
  C  C48  1  0.62086000  0.46658000  0.92967000  1.0
  C  C49  1  0.13156000  0.38392000  0.48215000  1.0
  C  C50  1  0.86844000  0.61608000  0.51785000  1.0
  C  C51  1  0.67593000  0.91438000  0.02481000  1.0
  C  C52  1  0.32407000  0.08562000  0.97519000  1.0
  C  C53  1  0.62263000  0.15897000  0.63383000  1.0
  C  C54  1  0.37738000  0.84103000  0.36618000  1.0
  C  C55  1  0.97182000  0.31434000  0.43999000  1.0
  C  C56  1  0.02818000  0.68566000  0.56001000  1.0
  C  C57  1  0.61270000  0.10690000  0.79105000  1.0
  C  C58  1  0.38731000  0.89311000  0.20895000  1.0
  C  C59  1  0.78610000  0.22085000  0.65614000  1.0
  C  C60  1  0.21391000  0.77916000  0.34386000  1.0
  C  C61  1  0.21506000  0.39814000  0.02630000  1.0
  C  C62  1  0.78494000  0.60186000  0.97370000  1.0
  C  C63  1  0.60839000  0.67219000  0.20481000  1.0
  C  C64  1  0.39161000  0.32781000  0.79519000  1.0
  C  C65  1  0.19831000  0.38750000  0.33046000  1.0
  C  C66  1  0.80168000  0.61249000  0.66954000  1.0
  C  C67  1  0.85562000  0.22930000  0.74945000  1.0
  C  C68  1  0.14439000  0.77071000  0.25056000  1.0
  C  C69  1  0.45154000  0.65479000  0.02707000  1.0
  C  C70  1  0.54846000  0.34521000  0.97294000  1.0
  C  C71  1  0.46066000  0.54047000  0.15839000  1.0
  C  C72  1  0.53935000  0.45953000  0.84161000  1.0
  C  C73  1  0.60166000  0.78497000  0.07237000  1.0
  C  C74  1  0.39834000  0.21503000  0.92763000  1.0
  C  C75  1  0.84516000  0.26727000  0.49714000  1.0
  C  C76  1  0.15484000  0.73273000  0.50286000  1.0
  S  S77  1  0.70533000  0.69080000  0.32242000  1.0
  S  S78  1  0.29467000  0.30920000  0.67758000  1.0
  N  N79  1  0.88696000  0.27295000  0.59226000  1.0
  N  N80  1  0.11305000  0.72705000  0.40774000  1.0
  N  N81  1  0.77026000  0.17320000  0.81418000  1.0
  N  N82  1  0.22975000  0.82681000  0.18582000  1.0
  N  N83  1  0.24213000  0.41728000  0.42837000  1.0
  N  N84  1  0.75787000  0.58272000  0.57163000  1.0
  O  O85  1  0.85976000  0.34605000  0.08181000  1.0
  O  O86  1  0.14024000  0.65395000  0.91819000  1.0
  O  O87  1  0.54298000  0.74744000  0.60083000  1.0
  O  O88  1  0.45701000  0.25256000  0.39917000  1.0
  O  O89  1  0.57439000  0.59529000  0.36601000  1.0
  O  O90  1  0.42561000  0.40470000  0.63399000  1.0
  O  O91  1  0.92280000  0.96678000  0.85985000  1.0
  O  O92  1  0.07719000  0.03321000  0.14014000  1.0
  O  O93  1  0.16058000  0.28147000  0.06137000  1.0
  O  O94  1  0.83942000  0.71853000  0.93863000  1.0
  O  O95  1  0.60408000  0.90842000  0.94548000  1.0
  O  O96  1  0.39592000  0.09158000  0.05452000  1.0
  O  O97  1  0.79424000  0.85961000  0.37684000  1.0
  O  O98  1  0.20576000  0.14039000  0.62317000  1.0
  O  O99  1  0.80406000  0.61796000  0.30113000  1.0
  O  O100  1  0.19594000  0.38204000  0.69887000  1.0
  O  O101  1  0.13034000  0.40439000  0.95549000  1.0
  O  O102  1  0.86966000  0.59560000  0.04451000  1.0
  O  O103  1  0.70776000  0.22197000  0.45605000  1.0
  O  O104  1  0.29223000  0.77803000  0.54395000  1.0
  O  O105  1  0.81638000  0.03000000  0.07048000  1.0
  O  O106  1  0.18362000  0.97000000  0.92952000  1.0
