# generated using pymatgen
data_CoH16C20N6O5
_symmetry_space_group_name_H-M   'P 1'
_cell_length_a   8.38857000
_cell_length_b   10.03370000
_cell_length_c   11.43690000
_cell_angle_alpha   81.63360000
_cell_angle_beta   88.83360000
_cell_angle_gamma   85.03410000
_symmetry_Int_Tables_number   1
_chemical_formula_structural   CoH16C20N6O5
_chemical_formula_sum   'Co2 H32 C40 N12 O10'
_cell_volume   948.77681284
_cell_formula_units_Z   2
loop_
 _symmetry_equiv_pos_site_id
 _symmetry_equiv_pos_as_xyz
  1  'x, y, z'
loop_
 _atom_site_type_symbol
 _atom_site_label
 _atom_site_symmetry_multiplicity
 _atom_site_fract_x
 _atom_site_fract_y
 _atom_site_fract_z
 _atom_site_occupancy
  Co  Co0  1  0.98832000  0.69778000  0.89007000  1.0
  Co  Co1  1  0.01168000  0.30222000  0.10994000  1.0
  H  H2  1  0.01824000  0.24297000  0.39637000  1.0
  H  H3  1  0.98175000  0.75703000  0.60363000  1.0
  H  H4  1  0.05861000  0.14202000  0.90170000  1.0
  H  H5  1  0.94139000  0.85798000  0.09830000  1.0
  H  H6  1  0.06527000  0.46448000  0.60853000  1.0
  H  H7  1  0.93473000  0.53552000  0.39147000  1.0
  H  H8  1  0.03388000  0.05378000  0.54608000  1.0
  H  H9  1  0.96612000  0.94622000  0.45392000  1.0
  H  H10  1  0.19673000  0.90334000  0.02268000  1.0
  H  H11  1  0.80327000  0.09666000  0.97732000  1.0
  H  H12  1  0.31812000  0.49863000  0.97629000  1.0
  H  H13  1  0.68188000  0.50137000  0.02372000  1.0
  H  H14  1  0.67250000  0.88177000  0.91136000  1.0
  H  H15  1  0.32750000  0.11823000  0.08864000  1.0
  H  H16  1  0.73391000  0.57332000  0.70059000  1.0
  H  H17  1  0.26609000  0.42667000  0.29941000  1.0
  H  H18  1  0.46435000  0.93584000  0.13116000  1.0
  H  H19  1  0.53566000  0.06416000  0.86884000  1.0
  H  H20  1  0.61537000  0.80063000  0.13594000  1.0
  H  H21  1  0.38463000  0.19937000  0.86405000  1.0
  H  H22  1  0.62322000  0.92815000  0.33395000  1.0
  H  H23  1  0.37679000  0.07185000  0.66605000  1.0
  H  H24  1  0.26265000  0.57512000  0.48876000  1.0
  H  H25  1  0.73735000  0.42488000  0.51124000  1.0
  H  H26  1  0.28821000  0.64451000  0.27336000  1.0
  H  H27  1  0.71179000  0.35549000  0.72664000  1.0
  H  H28  1  0.59212000  0.86419000  0.54891000  1.0
  H  H29  1  0.40788000  0.13581000  0.45109000  1.0
  H  H30  1  0.29086000  0.72060000  0.69686000  1.0
  H  H31  1  0.70914000  0.27940000  0.30314000  1.0
  H  H32  1  0.39592000  0.56155000  0.68558000  1.0
  H  H33  1  0.60408000  0.43845000  0.31442000  1.0
  C  C34  1  0.06820000  0.31275000  0.76306000  1.0
  C  C35  1  0.93180000  0.68725000  0.23694000  1.0
  C  C36  1  0.05668000  0.17608000  0.80703000  1.0
  C  C37  1  0.94332000  0.82392000  0.19297000  1.0
  C  C38  1  0.06362000  0.35701000  0.64123000  1.0
  C  C39  1  0.93638000  0.64299000  0.35877000  1.0
  C  C40  1  0.04035000  0.08371000  0.72836000  1.0
  C  C41  1  0.95966000  0.91629000  0.27164000  1.0
  C  C42  1  0.02056000  0.93926000  0.77528000  1.0
  C  C43  1  0.97943000  0.06074000  0.22472000  1.0
  C  C44  1  0.05129000  0.26370000  0.56244000  1.0
  C  C45  1  0.94870000  0.73630000  0.43756000  1.0
  C  C46  1  0.07727000  0.41217000  0.84783000  1.0
  C  C47  1  0.92273000  0.58783000  0.15217000  1.0
  C  C48  1  0.04131000  0.12703000  0.60654000  1.0
  C  C49  1  0.95869000  0.87296000  0.39346000  1.0
  C  C50  1  0.25712000  0.80282000  0.02516000  1.0
  C  C51  1  0.74289000  0.19719000  0.97484000  1.0
  C  C52  1  0.32096000  0.59713000  0.00397000  1.0
  C  C53  1  0.67904000  0.40287000  0.99603000  1.0
  C  C54  1  0.46041000  0.78863000  0.28855000  1.0
  C  C55  1  0.53960000  0.21137000  0.71145000  1.0
  C  C56  1  0.64673000  0.81261000  0.85120000  1.0
  C  C57  1  0.35327000  0.18738000  0.14880000  1.0
  C  C58  1  0.68267000  0.65373000  0.74687000  1.0
  C  C59  1  0.31733000  0.34627000  0.25313000  1.0
  C  C60  1  0.48908000  0.82659000  0.15729000  1.0
  C  C61  1  0.51092000  0.17341000  0.84271000  1.0
  C  C62  1  0.42620000  0.71367000  0.53436000  1.0
  C  C63  1  0.57380000  0.28633000  0.46564000  1.0
  C  C64  1  0.54348000  0.85084000  0.36757000  1.0
  C  C65  1  0.45652000  0.14916000  0.63243000  1.0
  C  C66  1  0.34196000  0.65280000  0.45511000  1.0
  C  C67  1  0.65805000  0.34720000  0.54489000  1.0
  C  C68  1  0.35743000  0.69104000  0.33354000  1.0
  C  C69  1  0.64257000  0.30896000  0.66646000  1.0
  C  C70  1  0.52595000  0.81414000  0.48920000  1.0
  C  C71  1  0.47405000  0.18586000  0.51080000  1.0
  C  C72  1  0.40272000  0.67145000  0.66559000  1.0
  C  C73  1  0.59728000  0.32855000  0.33441000  1.0
  N  N74  1  0.20797000  0.70226000  0.97340000  1.0
  N  N75  1  0.79203000  0.29774000  0.02660000  1.0
  N  N76  1  0.75982000  0.71812000  0.81967000  1.0
  N  N77  1  0.24018000  0.28188000  0.18033000  1.0
  N  N78  1  0.39354000  0.75849000  0.08378000  1.0
  N  N79  1  0.60646000  0.24152000  0.91622000  1.0
  N  N80  1  0.53004000  0.70788000  0.73644000  1.0
  N  N81  1  0.46996000  0.29211000  0.26356000  1.0
  N  N82  1  0.43600000  0.62710000  0.07141000  1.0
  N  N83  1  0.56400000  0.37290000  0.92860000  1.0
  N  N84  1  0.50524000  0.81106000  0.80197000  1.0
  N  N85  1  0.49476000  0.18894000  0.19803000  1.0
  O  O86  1  0.97250000  0.91140000  0.88257000  1.0
  O  O87  1  0.02750000  0.08860000  0.11743000  1.0
  O  O88  1  0.05204000  0.84578000  0.71155000  1.0
  O  O89  1  0.94796000  0.15422000  0.28846000  1.0
  O  O90  1  0.10939000  0.36620000  0.95586000  1.0
  O  O91  1  0.89062000  0.63381000  0.04414000  1.0
  O  O92  1  0.05426000  0.53743000  0.80759000  1.0
  O  O93  1  0.94574000  0.46257000  0.19241000  1.0
  O  O94  1  0.04795000  0.31144000  0.44500000  1.0
  O  O95  1  0.95205000  0.68856000  0.55500000  1.0
