# generated using pymatgen
data_ZnH13C17O7
_symmetry_space_group_name_H-M   'P 1'
_cell_length_a   10.12940000
_cell_length_b   18.46200000
_cell_length_c   27.12692683
_cell_angle_alpha   89.99997680
_cell_angle_beta   79.89813978
_cell_angle_gamma   89.99940000
_symmetry_Int_Tables_number   1
_chemical_formula_structural   ZnH13C17O7
_chemical_formula_sum   'Zn8 H104 C136 O56'
_cell_volume   4994.33506330
_cell_formula_units_Z   8
loop_
 _symmetry_equiv_pos_site_id
 _symmetry_equiv_pos_as_xyz
  1  'x, y, z'
loop_
 _atom_site_type_symbol
 _atom_site_label
 _atom_site_symmetry_multiplicity
 _atom_site_fract_x
 _atom_site_fract_y
 _atom_site_fract_z
 _atom_site_occupancy
  Zn  Zn0  1  0.15931000  0.80244000  0.30606000  1.0
  Zn  Zn1  1  0.34069000  0.30243000  0.19394000  1.0
  Zn  Zn2  1  0.84068000  0.19756000  0.69395000  1.0
  Zn  Zn3  1  0.65931000  0.69756000  0.80606000  1.0
  Zn  Zn4  1  0.40143000  0.72870000  0.21763000  1.0
  Zn  Zn5  1  0.09858000  0.22871000  0.28237000  1.0
  Zn  Zn6  1  0.59857000  0.27130000  0.78237000  1.0
  Zn  Zn7  1  0.90142000  0.77129000  0.71763000  1.0
  H  H8  1  0.40208000  0.89335000  0.39843000  1.0
  H  H9  1  0.09792000  0.39336000  0.10157000  1.0
  H  H10  1  0.59791000  0.10665000  0.60158000  1.0
  H  H11  1  0.90208000  0.60665000  0.89843000  1.0
  H  H12  1  0.71448000  0.78511000  0.29740000  1.0
  H  H13  1  0.78553000  0.28507000  0.20259000  1.0
  H  H14  1  0.28550000  0.21490000  0.70260000  1.0
  H  H15  1  0.21448000  0.71488000  0.79739000  1.0
  H  H16  1  0.10522000  0.39139000  0.38783000  1.0
  H  H17  1  0.39481000  0.89140000  0.11216000  1.0
  H  H18  1  0.89478000  0.60860000  0.61217000  1.0
  H  H19  1  0.60520000  0.10861000  0.88783000  1.0
  H  H20  1  0.13140000  0.62415000  0.38770000  1.0
  H  H21  1  0.36858000  0.12415000  0.11230000  1.0
  H  H22  1  0.86858000  0.37584000  0.61230000  1.0
  H  H23  1  0.63141000  0.87585000  0.88771000  1.0
  H  H24  1  0.81613000  0.91347000  0.41680000  1.0
  H  H25  1  0.68387000  0.41346000  0.08320000  1.0
  H  H26  1  0.18387000  0.08653000  0.58320000  1.0
  H  H27  1  0.31613000  0.58653000  0.91680000  1.0
  H  H28  1  0.29733000  0.50318000  0.25552000  1.0
  H  H29  1  0.20270000  0.00318000  0.24448000  1.0
  H  H30  1  0.70268000  0.49681000  0.74448000  1.0
  H  H31  1  0.79729000  0.99681000  0.75552000  1.0
  H  H32  1  0.68488000  0.83811000  0.48231000  1.0
  H  H33  1  0.81513000  0.33811000  0.01769000  1.0
  H  H34  1  0.31512000  0.16190000  0.51769000  1.0
  H  H35  1  0.18488000  0.66189000  0.98231000  1.0
  H  H36  1  0.31430000  0.46325000  0.42679000  1.0
  H  H37  1  0.18570000  0.96325000  0.07321000  1.0
  H  H38  1  0.68570000  0.53675000  0.57321000  1.0
  H  H39  1  0.81430000  0.03675000  0.92679000  1.0
  H  H40  1  0.88747000  0.56941000  0.39354000  1.0
  H  H41  1  0.61252000  0.06942000  0.10646000  1.0
  H  H42  1  0.11252000  0.43058000  0.60646000  1.0
  H  H43  1  0.38748000  0.93059000  0.89354000  1.0
  H  H44  1  0.48530000  0.98536000  0.62996000  1.0
  H  H45  1  0.01471000  0.48536000  0.87004000  1.0
  H  H46  1  0.51472000  0.01464000  0.37004000  1.0
  H  H47  1  0.98529000  0.51464000  0.12996000  1.0
  H  H48  1  0.49009000  0.38500000  0.40834000  1.0
  H  H49  1  0.00991000  0.88501000  0.09166000  1.0
  H  H50  1  0.50991000  0.61500000  0.59166000  1.0
  H  H51  1  0.99009000  0.11500000  0.90834000  1.0
  H  H52  1  0.64241000  0.39727000  0.43281000  1.0
  H  H53  1  0.85759000  0.89728000  0.06719000  1.0
  H  H54  1  0.35759000  0.60272000  0.56719000  1.0
  H  H55  1  0.14241000  0.10272000  0.93281000  1.0
  H  H56  1  0.53844000  0.47402000  0.42561000  1.0
  H  H57  1  0.96157000  0.97402000  0.07439000  1.0
  H  H58  1  0.46156000  0.52598000  0.57439000  1.0
  H  H59  1  0.03844000  0.02598000  0.92561000  1.0
  H  H60  1  0.86174000  0.77626000  0.50238000  1.0
  H  H61  1  0.63828000  0.27627000  0.99762000  1.0
  H  H62  1  0.13828000  0.22375000  0.49762000  1.0
  H  H63  1  0.36173000  0.72374000  0.00238000  1.0
  H  H64  1  0.70729000  0.72584000  0.51044000  1.0
  H  H65  1  0.79273000  0.22585000  0.98956000  1.0
  H  H66  1  0.29273000  0.27416000  0.48956000  1.0
  H  H67  1  0.20728000  0.77416000  0.01044000  1.0
  H  H68  1  0.83606000  0.70020000  0.54449000  1.0
  H  H69  1  0.66395000  0.20020000  0.95552000  1.0
  H  H70  1  0.16395000  0.29981000  0.45552000  1.0
  H  H71  1  0.33605000  0.79980000  0.04449000  1.0
  H  H72  1  0.35619000  0.69967000  0.12208000  1.0
  H  H73  1  0.14382000  0.19968000  0.37792000  1.0
  H  H74  1  0.64381000  0.30031000  0.87792000  1.0
  H  H75  1  0.85619000  0.80032000  0.62209000  1.0
  H  H76  1  0.32290000  0.63569000  0.15716000  1.0
  H  H77  1  0.17709000  0.13570000  0.34285000  1.0
  H  H78  1  0.67711000  0.36429000  0.84285000  1.0
  H  H79  1  0.82289000  0.86429000  0.65716000  1.0
  H  H80  1  0.64322000  0.66524000  0.18770000  1.0
  H  H81  1  0.85679000  0.16524000  0.31231000  1.0
  H  H82  1  0.35680000  0.33477000  0.81230000  1.0
  H  H83  1  0.14319000  0.83476000  0.68770000  1.0
  H  H84  1  0.63529000  0.72552000  0.22980000  1.0
  H  H85  1  0.86472000  0.22551000  0.27020000  1.0
  H  H86  1  0.36471000  0.27450000  0.77020000  1.0
  H  H87  1  0.13529000  0.77450000  0.72980000  1.0
  H  H88  1  0.71417000  0.58077000  0.35004000  1.0
  H  H89  1  0.78583000  0.08076000  0.14996000  1.0
  H  H90  1  0.28584000  0.41923000  0.64996000  1.0
  H  H91  1  0.21419000  0.91923000  0.85003000  1.0
  H  H92  1  0.77714000  0.66686000  0.36655000  1.0
  H  H93  1  0.72286000  0.16686000  0.13345000  1.0
  H  H94  1  0.22287000  0.33314000  0.63345000  1.0
  H  H95  1  0.27714000  0.83314000  0.86656000  1.0
  H  H96  1  0.60852000  0.65970000  0.35500000  1.0
  H  H97  1  0.89148000  0.15970000  0.14500000  1.0
  H  H98  1  0.39149000  0.34030000  0.64500000  1.0
  H  H99  1  0.10852000  0.84030000  0.85500000  1.0
  H  H100  1  0.43486000  0.89920000  0.69062000  1.0
  H  H101  1  0.06515000  0.39920000  0.80938000  1.0
  H  H102  1  0.56517000  0.10081000  0.30938000  1.0
  H  H103  1  0.93485000  0.60080000  0.19062000  1.0
  H  H104  1  0.57567000  0.95424000  0.69905000  1.0
  H  H105  1  0.92433000  0.45424000  0.80096000  1.0
  H  H106  1  0.42436000  0.04578000  0.30095000  1.0
  H  H107  1  0.07566000  0.54577000  0.19905000  1.0
  H  H108  1  0.55718000  0.86438000  0.72504000  1.0
  H  H109  1  0.94283000  0.36439000  0.77496000  1.0
  H  H110  1  0.44285000  0.13563000  0.27496000  1.0
  H  H111  1  0.05717000  0.63562000  0.22504000  1.0
  C  C112  1  0.50819000  0.88107000  0.38683000  1.0
  C  C113  1  0.99181000  0.38107000  0.11317000  1.0
  C  C114  1  0.49180000  0.11893000  0.61318000  1.0
  C  C115  1  0.00818000  0.61893000  0.88683000  1.0
  C  C116  1  0.54687000  0.83725000  0.34468000  1.0
  C  C117  1  0.95312000  0.33723000  0.15532000  1.0
  C  C118  1  0.45311000  0.16276000  0.65533000  1.0
  C  C119  1  0.04688000  0.66275000  0.84467000  1.0
  C  C120  1  0.68148000  0.81928000  0.32984000  1.0
  C  C121  1  0.81854000  0.31925000  0.17014000  1.0
  C  C122  1  0.31851000  0.18073000  0.67016000  1.0
  C  C123  1  0.18148000  0.68071000  0.82984000  1.0
  C  C124  1  0.20381000  0.44022000  0.31931000  1.0
  C  C125  1  0.29622000  0.94022000  0.18068000  1.0
  C  C126  1  0.79620000  0.55978000  0.68069000  1.0
  C  C127  1  0.70378000  0.05978000  0.81931000  1.0
  C  C128  1  0.44352000  0.81147000  0.31559000  1.0
  C  C129  1  0.05648000  0.31146000  0.18441000  1.0
  C  C130  1  0.55647000  0.18854000  0.68441000  1.0
  C  C131  1  0.94352000  0.68852000  0.81559000  1.0
  C  C132  1  0.05555000  0.50624000  0.44870000  1.0
  C  C133  1  0.44445000  0.00624000  0.05130000  1.0
  C  C134  1  0.94445000  0.49376000  0.55130000  1.0
  C  C135  1  0.55555000  0.99376000  0.94870000  1.0
  C  C136  1  0.24520000  0.64101000  0.29235000  1.0
  C  C137  1  0.25481000  0.14101000  0.20765000  1.0
  C  C138  1  0.75480000  0.35898000  0.70765000  1.0
  C  C139  1  0.74517000  0.85898000  0.79235000  1.0
  C  C140  1  0.57259000  0.93558000  0.50619000  1.0
  C  C141  1  0.92741000  0.43558000  0.99381000  1.0
  C  C142  1  0.42740000  0.06442000  0.49381000  1.0
  C  C143  1  0.07259000  0.56442000  0.00619000  1.0
  C  C144  1  0.55500000  0.95657000  0.45759000  1.0
  C  C145  1  0.94500000  0.45657000  0.04241000  1.0
  C  C146  1  0.44500000  0.04344000  0.54241000  1.0
  C  C147  1  0.05500000  0.54344000  0.95759000  1.0
  C  C148  1  0.77754000  0.84578000  0.35632000  1.0
  C  C149  1  0.72247000  0.34575000  0.14367000  1.0
  C  C150  1  0.22245000  0.15423000  0.64368000  1.0
  C  C151  1  0.27754000  0.65422000  0.85632000  1.0
  C  C152  1  0.51607000  0.97905000  0.54893000  1.0
  C  C153  1  0.98393000  0.47905000  0.95108000  1.0
  C  C154  1  0.48393000  0.02095000  0.45108000  1.0
  C  C155  1  0.01606000  0.52095000  0.04893000  1.0
  C  C156  1  0.13761000  0.44208000  0.36897000  1.0
  C  C157  1  0.36240000  0.94208000  0.13103000  1.0
  C  C158  1  0.86240000  0.55792000  0.63103000  1.0
  C  C159  1  0.63759000  0.05792000  0.86897000  1.0
  C  C160  1  0.60308000  0.90933000  0.41360000  1.0
  C  C161  1  0.89692000  0.40933000  0.08640000  1.0
  C  C162  1  0.39692000  0.09067000  0.58640000  1.0
  C  C163  1  0.10308000  0.59067000  0.91360000  1.0
  C  C164  1  0.11437000  0.50770000  0.39482000  1.0
  C  C165  1  0.38564000  0.00770000  0.10518000  1.0
  C  C166  1  0.88563000  0.49230000  0.60518000  1.0
  C  C167  1  0.61436000  0.99230000  0.89482000  1.0
  C  C168  1  0.21443000  0.57067000  0.31876000  1.0
  C  C169  1  0.28559000  0.07067000  0.18124000  1.0
  C  C170  1  0.78558000  0.42933000  0.68124000  1.0
  C  C171  1  0.71439000  0.92933000  0.81876000  1.0
  C  C172  1  0.15083000  0.57203000  0.36901000  1.0
  C  C173  1  0.34918000  0.07203000  0.13099000  1.0
  C  C174  1  0.84917000  0.42797000  0.63099000  1.0
  C  C175  1  0.65082000  0.92797000  0.86901000  1.0
  C  C176  1  0.73889000  0.89159000  0.39759000  1.0
  C  C177  1  0.76112000  0.39158000  0.10240000  1.0
  C  C178  1  0.26111000  0.10841000  0.60241000  1.0
  C  C179  1  0.23888000  0.60841000  0.89759000  1.0
  C  C180  1  0.13311000  0.47610000  0.48209000  1.0
  C  C181  1  0.36689000  0.97610000  0.01791000  1.0
  C  C182  1  0.86689000  0.52390000  0.51791000  1.0
  C  C183  1  0.63311000  0.02391000  0.98209000  1.0
  C  C184  1  0.24498000  0.50467000  0.29416000  1.0
  C  C185  1  0.25505000  0.00467000  0.20584000  1.0
  C  C186  1  0.75504000  0.49533000  0.70584000  1.0
  C  C187  1  0.74494000  0.99533000  0.79416000  1.0
  C  C188  1  0.92390000  0.53126000  0.46572000  1.0
  C  C189  1  0.57610000  0.03127000  0.03428000  1.0
  C  C190  1  0.07610000  0.46873000  0.53428000  1.0
  C  C191  1  0.42390000  0.96874000  0.96572000  1.0
  C  C192  1  0.64407000  0.87124000  0.51448000  1.0
  C  C193  1  0.85593000  0.37124000  0.98553000  1.0
  C  C194  1  0.35592000  0.12876000  0.48553000  1.0
  C  C195  1  0.14406000  0.62876000  0.01448000  1.0
  C  C196  1  0.26927000  0.45464000  0.46573000  1.0
  C  C197  1  0.23072000  0.95464000  0.03427000  1.0
  C  C198  1  0.73072000  0.54536000  0.53427000  1.0
  C  C199  1  0.76927000  0.04536000  0.96573000  1.0
  C  C200  1  0.60210000  0.89260000  0.60417000  1.0
  C  C201  1  0.89791000  0.39260000  0.89583000  1.0
  C  C202  1  0.39791000  0.10741000  0.39584000  1.0
  C  C203  1  0.10209000  0.60741000  0.10417000  1.0
  C  C204  1  0.84399000  0.56308000  0.43290000  1.0
  C  C205  1  0.65601000  0.06309000  0.06710000  1.0
  C  C206  1  0.15601000  0.43691000  0.56710000  1.0
  C  C207  1  0.34399000  0.93692000  0.93290000  1.0
  C  C208  1  0.53116000  0.95411000  0.59751000  1.0
  C  C209  1  0.96885000  0.45411000  0.90249000  1.0
  C  C210  1  0.46886000  0.04590000  0.40249000  1.0
  C  C211  1  0.03115000  0.54590000  0.09751000  1.0
  C  C212  1  0.66237000  0.85063000  0.56146000  1.0
  C  C213  1  0.83763000  0.35063000  0.93855000  1.0
  C  C214  1  0.33763000  0.14937000  0.43855000  1.0
  C  C215  1  0.16236000  0.64937000  0.06146000  1.0
  C  C216  1  0.53904000  0.41597000  0.43486000  1.0
  C  C217  1  0.96096000  0.91597000  0.06514000  1.0
  C  C218  1  0.46096000  0.58403000  0.56514000  1.0
  C  C219  1  0.03904000  0.08403000  0.93486000  1.0
  C  C220  1  0.34445000  0.42477000  0.49806000  1.0
  C  C221  1  0.15555000  0.92478000  0.00193000  1.0
  C  C222  1  0.65555000  0.57523000  0.50193000  1.0
  C  C223  1  0.84445000  0.07523000  0.99806000  1.0
  C  C224  1  0.78776000  0.74603000  0.52923000  1.0
  C  C225  1  0.71225000  0.24604000  0.97077000  1.0
  C  C226  1  0.21225000  0.25397000  0.47077000  1.0
  C  C227  1  0.28775000  0.75397000  0.02924000  1.0
  C  C228  1  0.71485000  0.58600000  0.45012000  1.0
  C  C229  1  0.78516000  0.08600000  0.04987000  1.0
  C  C230  1  0.28515000  0.41400000  0.54988000  1.0
  C  C231  1  0.21484000  0.91401000  0.95012000  1.0
  C  C232  1  0.92024000  0.82483000  0.33826000  1.0
  C  C233  1  0.57976000  0.32480000  0.16173000  1.0
  C  C234  1  0.07974000  0.17518000  0.66174000  1.0
  C  C235  1  0.42025000  0.67517000  0.83826000  1.0
  C  C236  1  0.68777000  0.63191000  0.37038000  1.0
  C  C237  1  0.81223000  0.13191000  0.12962000  1.0
  C  C238  1  0.31224000  0.36809000  0.62962000  1.0
  C  C239  1  0.18777000  0.86809000  0.87038000  1.0
  C  C240  1  0.22544000  0.36929000  0.29296000  1.0
  C  C241  1  0.27458000  0.86929000  0.20703000  1.0
  C  C242  1  0.77456000  0.63071000  0.70703000  1.0
  C  C243  1  0.72544000  0.13071000  0.79296000  1.0
  C  C244  1  0.54189000  0.89858000  0.69357000  1.0
  C  C245  1  0.95812000  0.39859000  0.80643000  1.0
  C  C246  1  0.45814000  0.10143000  0.30643000  1.0
  C  C247  1  0.04188000  0.60142000  0.19357000  1.0
  O  O248  1  0.32569000  0.83581000  0.32949000  1.0
  O  O249  1  0.17430000  0.33580000  0.17052000  1.0
  O  O250  1  0.67428000  0.16418000  0.67053000  1.0
  O  O251  1  0.82570000  0.66418000  0.82948000  1.0
  O  O252  1  0.19360000  0.69698000  0.31468000  1.0
  O  O253  1  0.30637000  0.19698000  0.18532000  1.0
  O  O254  1  0.80636000  0.30301000  0.68531000  1.0
  O  O255  1  0.69361000  0.80302000  0.81469000  1.0
  O  O256  1  0.31937000  0.63959000  0.24873000  1.0
  O  O257  1  0.18064000  0.13959000  0.25128000  1.0
  O  O258  1  0.68065000  0.36041000  0.75128000  1.0
  O  O259  1  0.81933000  0.86040000  0.74873000  1.0
  O  O260  1  0.48128000  0.76798000  0.27903000  1.0
  O  O261  1  0.01872000  0.26797000  0.22097000  1.0
  O  O262  1  0.51871000  0.23204000  0.72097000  1.0
  O  O263  1  0.98129000  0.73201000  0.77902000  1.0
  O  O264  1  0.73339000  0.79059000  0.57146000  1.0
  O  O265  1  0.76661000  0.29060000  0.92855000  1.0
  O  O266  1  0.26661000  0.20941000  0.42855000  1.0
  O  O267  1  0.23339000  0.70941000  0.07146000  1.0
  O  O268  1  0.63302000  0.61840000  0.42181000  1.0
  O  O269  1  0.86698000  0.11841000  0.07818000  1.0
  O  O270  1  0.36699000  0.38159000  0.57818000  1.0
  O  O271  1  0.13300000  0.88162000  0.92181000  1.0
  O  O272  1  0.47459000  0.40344000  0.48547000  1.0
  O  O273  1  0.02541000  0.90344000  0.01453000  1.0
  O  O274  1  0.52541000  0.59656000  0.51453000  1.0
  O  O275  1  0.97458000  0.09657000  0.98547000  1.0
  O  O276  1  0.01374000  0.85217000  0.35888000  1.0
  O  O277  1  0.48627000  0.35215000  0.14110000  1.0
  O  O278  1  0.98625000  0.14782000  0.64112000  1.0
  O  O279  1  0.51375000  0.64781000  0.85887000  1.0
  O  O280  1  0.94730000  0.78036000  0.30191000  1.0
  O  O281  1  0.55270000  0.28034000  0.19808000  1.0
  O  O282  1  0.05268000  0.21965000  0.69808000  1.0
  O  O283  1  0.44731000  0.71966000  0.80192000  1.0
  O  O284  1  0.39392000  0.67145000  0.14706000  1.0
  O  O285  1  0.10609000  0.17146000  0.35294000  1.0
  O  O286  1  0.60609000  0.32854000  0.85294000  1.0
  O  O287  1  0.89391000  0.82854000  0.64707000  1.0
  O  O288  1  0.31615000  0.36564000  0.25460000  1.0
  O  O289  1  0.18386000  0.86563000  0.24539000  1.0
  O  O290  1  0.68383000  0.63437000  0.74539000  1.0
  O  O291  1  0.81618000  0.13436000  0.75461000  1.0
  O  O292  1  0.14805000  0.31772000  0.31200000  1.0
  O  O293  1  0.35197000  0.81772000  0.18799000  1.0
  O  O294  1  0.85194000  0.68228000  0.68799000  1.0
  O  O295  1  0.64803000  0.18228000  0.81200000  1.0
  O  O296  1  0.61375000  0.71438000  0.19671000  1.0
  O  O297  1  0.88625000  0.21438000  0.30329000  1.0
  O  O298  1  0.38625000  0.28563000  0.80329000  1.0
  O  O299  1  0.11374000  0.78562000  0.69671000  1.0
  O  O300  1  0.61953000  0.86605000  0.64989000  1.0
  O  O301  1  0.88049000  0.36605000  0.85011000  1.0
  O  O302  1  0.38050000  0.13396000  0.35011000  1.0
  O  O303  1  0.11951000  0.63396000  0.14989000  1.0
