# generated using pymatgen
data_FeAg2H16(C7N2)4
_symmetry_space_group_name_H-M   'P 1'
_cell_length_a   9.29416000
_cell_length_b   10.79320000
_cell_length_c   13.13730000
_cell_angle_alpha   89.99720000
_cell_angle_beta   92.97260000
_cell_angle_gamma   89.99710000
_symmetry_Int_Tables_number   1
_chemical_formula_structural   FeAg2H16(C7N2)4
_chemical_formula_sum   'Fe2 Ag4 H32 C56 N16'
_cell_volume   1316.07829476
_cell_formula_units_Z   2
loop_
 _symmetry_equiv_pos_site_id
 _symmetry_equiv_pos_as_xyz
  1  'x, y, z'
loop_
 _atom_site_type_symbol
 _atom_site_label
 _atom_site_symmetry_multiplicity
 _atom_site_fract_x
 _atom_site_fract_y
 _atom_site_fract_z
 _atom_site_occupancy
  Fe  Fe0  1  0.01837000  0.49687000  0.01020000  1.0
  Fe  Fe1  1  0.51837000  0.00316000  0.51019000  1.0
  Ag  Ag2  1  0.73674000  0.18089000  0.19141000  1.0
  Ag  Ag3  1  0.75689000  0.68036000  0.30831000  1.0
  Ag  Ag4  1  0.25691000  0.81963000  0.80832000  1.0
  Ag  Ag5  1  0.23674000  0.31913000  0.69143000  1.0
  H  H6  1  0.66890000  0.42783000  0.98625000  1.0
  H  H7  1  0.82987000  0.94139000  0.50564000  1.0
  H  H8  1  0.32981000  0.55881000  0.00573000  1.0
  H  H9  1  0.16889000  0.07231000  0.48622000  1.0
  H  H10  1  0.45048000  0.44694000  0.86502000  1.0
  H  H11  1  0.04771000  0.95885000  0.62450000  1.0
  H  H12  1  0.54765000  0.54130000  0.12460000  1.0
  H  H13  1  0.95049000  0.05325000  0.36498000  1.0
  H  H14  1  0.71744000  0.64827000  0.66224000  1.0
  H  H15  1  0.77926000  0.13894000  0.83868000  1.0
  H  H16  1  0.27927000  0.36087000  0.33864000  1.0
  H  H17  1  0.21739000  0.85165000  0.16231000  1.0
  H  H18  1  0.92431000  0.62020000  0.79254000  1.0
  H  H19  1  0.57161000  0.11189000  0.71202000  1.0
  H  H20  1  0.07161000  0.38795000  0.21199000  1.0
  H  H21  1  0.42425000  0.87972000  0.29262000  1.0
  H  H22  1  0.12864000  0.66560000  0.30444000  1.0
  H  H23  1  0.36458000  0.16494000  0.19448000  1.0
  H  H24  1  0.86449000  0.33491000  0.69452000  1.0
  H  H25  1  0.62870000  0.83424000  0.80449000  1.0
  H  H26  1  0.35084000  0.62050000  0.41596000  1.0
  H  H27  1  0.14441000  0.11912000  0.08167000  1.0
  H  H28  1  0.64431000  0.38071000  0.58172000  1.0
  H  H29  1  0.85087000  0.87940000  0.91601000  1.0
  H  H30  1  0.08124000  0.62653000  0.67390000  1.0
  H  H31  1  0.41782000  0.12333000  0.82592000  1.0
  H  H32  1  0.91778000  0.37669000  0.32598000  1.0
  H  H33  1  0.58120000  0.87362000  0.17392000  1.0
  H  H34  1  0.87287000  0.68282000  0.55166000  1.0
  H  H35  1  0.62470000  0.17913000  0.94936000  1.0
  H  H36  1  0.12466000  0.32092000  0.44944000  1.0
  H  H37  1  0.37284000  0.81728000  0.05168000  1.0
  C  C38  1  0.86735000  0.26794000  0.09272000  1.0
  C  C39  1  0.63599000  0.76950000  0.41153000  1.0
  C  C40  1  0.13598000  0.73053000  0.91154000  1.0
  C  C41  1  0.36731000  0.23206000  0.59273000  1.0
  C  C42  1  0.84954000  0.61175000  0.18225000  1.0
  C  C43  1  0.65834000  0.11366000  0.32335000  1.0
  C  C44  1  0.15840000  0.38638000  0.82338000  1.0
  C  C45  1  0.34958000  0.88824000  0.68226000  1.0
  C  C46  1  0.67399000  0.47615000  0.91359000  1.0
  C  C47  1  0.82378000  0.98440000  0.58017000  1.0
  C  C48  1  0.32372000  0.51572000  0.08024000  1.0
  C  C49  1  0.17398000  0.02397000  0.41357000  1.0
  C  C50  1  0.55366000  0.48690000  0.84666000  1.0
  C  C51  1  0.94419000  0.99472000  0.64642000  1.0
  C  C52  1  0.44414000  0.50536000  0.14648000  1.0
  C  C53  1  0.05365000  0.01323000  0.34665000  1.0
  C  C54  1  0.56749000  0.55006000  0.75379000  1.0
  C  C55  1  0.93159000  0.05099000  0.74243000  1.0
  C  C56  1  0.43156000  0.44900000  0.24247000  1.0
  C  C57  1  0.06747000  0.95000000  0.25381000  1.0
  C  C58  1  0.70363000  0.59848000  0.73312000  1.0
  C  C59  1  0.79397000  0.09380000  0.76588000  1.0
  C  C60  1  0.29396000  0.40610000  0.26588000  1.0
  C  C61  1  0.20360000  0.90151000  0.23316000  1.0
  C  C62  1  0.81751000  0.58310000  0.80456000  1.0
  C  C63  1  0.67867000  0.07926000  0.69626000  1.0
  C  C64  1  0.17866000  0.42065000  0.19626000  1.0
  C  C65  1  0.31747000  0.91688000  0.30462000  1.0
  C  C66  1  0.12342000  0.65849000  0.38707000  1.0
  C  C67  1  0.37147000  0.15673000  0.11206000  1.0
  C  C68  1  0.87138000  0.34317000  0.61212000  1.0
  C  C69  1  0.62344000  0.84143000  0.88712000  1.0
  C  C70  1  0.24609000  0.63144000  0.44834000  1.0
  C  C71  1  0.24970000  0.12942000  0.05000000  1.0
  C  C72  1  0.74962000  0.37045000  0.55006000  1.0
  C  C73  1  0.74611000  0.86850000  0.94838000  1.0
  C  C74  1  0.23225000  0.61882000  0.55394000  1.0
  C  C75  1  0.26492000  0.11623000  0.94456000  1.0
  C  C76  1  0.76486000  0.38370000  0.44462000  1.0
  C  C77  1  0.73225000  0.88118000  0.05397000  1.0
  C  C78  1  0.09503000  0.63627000  0.59250000  1.0
  C  C79  1  0.40298000  0.13321000  0.90714000  1.0
  C  C80  1  0.90294000  0.36678000  0.40721000  1.0
  C  C81  1  0.59501000  0.86381000  0.09253000  1.0
  C  C82  1  0.98063000  0.66651000  0.52495000  1.0
  C  C83  1  0.51652000  0.16325000  0.97540000  1.0
  C  C84  1  0.01648000  0.33674000  0.47548000  1.0
  C  C85  1  0.48062000  0.83354000  0.02498000  1.0
  C  C86  1  0.44972000  0.56798000  0.68316000  1.0
  C  C87  1  0.04945000  0.06749000  0.81292000  1.0
  C  C88  1  0.54942000  0.43247000  0.31296000  1.0
  C  C89  1  0.94971000  0.93207000  0.18318000  1.0
  C  C90  1  0.35130000  0.59048000  0.62102000  1.0
  C  C91  1  0.14682000  0.08852000  0.87646000  1.0
  C  C92  1  0.64677000  0.41143000  0.37653000  1.0
  C  C93  1  0.85129000  0.90955000  0.12106000  1.0
  N  N94  1  0.91592000  0.57389000  0.11528000  1.0
  N  N95  1  0.60756000  0.07809000  0.39794000  1.0
  N  N96  1  0.10760000  0.42195000  0.89796000  1.0
  N  N97  1  0.41596000  0.92611000  0.61529000  1.0
  N  N98  1  0.93381000  0.34502000  0.05278000  1.0
  N  N99  1  0.58672000  0.84933000  0.45969000  1.0
  N  N100  1  0.08670000  0.65070000  0.95970000  1.0
  N  N101  1  0.43379000  0.15499000  0.55278000  1.0
  N  N102  1  0.80291000  0.52330000  0.89289000  1.0
  N  N103  1  0.69112000  0.02504000  0.60384000  1.0
  N  N104  1  0.19110000  0.47498000  0.10387000  1.0
  N  N105  1  0.30288000  0.97674000  0.39292000  1.0
  N  N106  1  0.99315000  0.67703000  0.42392000  1.0
  N  N107  1  0.50269000  0.17450000  0.07631000  1.0
  N  N108  1  0.00263000  0.32544000  0.57638000  1.0
  N  N109  1  0.49315000  0.82292000  0.92397000  1.0
