# generated using pymatgen
data_GdPH15C7NO7
_symmetry_space_group_name_H-M   'P 1'
_cell_length_a   5.44579000
_cell_length_b   12.29920000
_cell_length_c   20.26060000
_cell_angle_alpha   90.00000000
_cell_angle_beta   91.12630000
_cell_angle_gamma   89.99990000
_symmetry_Int_Tables_number   1
_chemical_formula_structural   GdPH15C7NO7
_chemical_formula_sum   'Gd4 P4 H60 C28 N4 O28'
_cell_volume   1356.76971268
_cell_formula_units_Z   4
loop_
 _symmetry_equiv_pos_site_id
 _symmetry_equiv_pos_as_xyz
  1  'x, y, z'
loop_
 _atom_site_type_symbol
 _atom_site_label
 _atom_site_symmetry_multiplicity
 _atom_site_fract_x
 _atom_site_fract_y
 _atom_site_fract_z
 _atom_site_occupancy
  Gd  Gd0  1  0.63233000  0.14564000  0.02636000  1.0
  Gd  Gd1  1  0.36767000  0.64564000  0.47364000  1.0
  Gd  Gd2  1  0.36766000  0.85436000  0.97364000  1.0
  Gd  Gd3  1  0.63233000  0.35436000  0.52636000  1.0
  P  P4  1  0.87700000  0.02550000  0.91070000  1.0
  P  P5  1  0.12299000  0.52550000  0.58929000  1.0
  P  P6  1  0.12299000  0.97450000  0.08929000  1.0
  P  P7  1  0.87702000  0.47450000  0.41071000  1.0
  H  H8  1  0.20805000  0.18320000  0.93572000  1.0
  H  H9  1  0.79194000  0.68320000  0.56428000  1.0
  H  H10  1  0.79194000  0.81681000  0.06428000  1.0
  H  H11  1  0.20806000  0.31680000  0.43572000  1.0
  H  H12  1  0.43895000  0.18465000  0.88910000  1.0
  H  H13  1  0.56105000  0.68465000  0.61090000  1.0
  H  H14  1  0.56104000  0.81535000  0.11090000  1.0
  H  H15  1  0.43895000  0.31535000  0.38910000  1.0
  H  H16  1  0.79617000  0.37507000  0.05486000  1.0
  H  H17  1  0.20383000  0.87506000  0.44514000  1.0
  H  H18  1  0.20384000  0.62494000  0.94514000  1.0
  H  H19  1  0.79617000  0.12493000  0.55487000  1.0
  H  H20  1  0.04233000  0.30636000  0.04170000  1.0
  H  H21  1  0.95768000  0.80636000  0.45830000  1.0
  H  H22  1  0.95767000  0.69364000  0.95830000  1.0
  H  H23  1  0.04233000  0.19364000  0.54170000  1.0
  H  H24  1  0.71538000  0.96130000  0.80898000  1.0
  H  H25  1  0.28462000  0.46130000  0.69102000  1.0
  H  H26  1  0.28462000  0.03871000  0.19102000  1.0
  H  H27  1  0.71539000  0.53871000  0.30898000  1.0
  H  H28  1  0.60398000  0.09268000  0.82320000  1.0
  H  H29  1  0.39602000  0.59267000  0.67680000  1.0
  H  H30  1  0.39602000  0.90733000  0.17680000  1.0
  H  H31  1  0.60398000  0.40733000  0.32321000  1.0
  H  H32  1  0.75782000  0.07446000  0.69153000  1.0
  H  H33  1  0.24218000  0.57447000  0.80847000  1.0
  H  H34  1  0.24219000  0.92554000  0.30847000  1.0
  H  H35  1  0.75780000  0.42553000  0.19153000  1.0
  H  H36  1  0.92344000  0.95528000  0.71556000  1.0
  H  H37  1  0.07657000  0.45529000  0.78444000  1.0
  H  H38  1  0.07657000  0.04472000  0.28444000  1.0
  H  H39  1  0.92342000  0.54471000  0.21556000  1.0
  H  H40  1  0.11846000  0.04885000  0.62105000  1.0
  H  H41  1  0.88155000  0.54886000  0.87896000  1.0
  H  H42  1  0.88155000  0.95115000  0.37896000  1.0
  H  H43  1  0.11843000  0.45114000  0.12104000  1.0
  H  H44  1  0.31725000  0.04302000  0.69120000  1.0
  H  H45  1  0.68276000  0.54303000  0.80880000  1.0
  H  H46  1  0.68276000  0.95697000  0.30880000  1.0
  H  H47  1  0.31723000  0.45697000  0.19120000  1.0
  H  H48  1  0.99206000  0.23849000  0.65506000  1.0
  H  H49  1  0.00794000  0.73850000  0.84494000  1.0
  H  H50  1  0.00795000  0.76151000  0.34494000  1.0
  H  H51  1  0.99207000  0.26150000  0.15506000  1.0
  H  H52  1  0.22542000  0.32847000  0.74770000  1.0
  H  H53  1  0.77458000  0.82847000  0.75230000  1.0
  H  H54  1  0.77459000  0.67153000  0.25230000  1.0
  H  H55  1  0.22541000  0.17153000  0.24770000  1.0
  H  H56  1  0.37897000  0.20526000  0.76465000  1.0
  H  H57  1  0.62104000  0.70526000  0.73535000  1.0
  H  H58  1  0.62104000  0.79474000  0.23535000  1.0
  H  H59  1  0.37895000  0.29474000  0.26465000  1.0
  H  H60  1  0.01002000  0.22689000  0.83658000  1.0
  H  H61  1  0.98999000  0.72689000  0.66342000  1.0
  H  H62  1  0.98999000  0.77312000  0.16342000  1.0
  H  H63  1  0.01000000  0.27311000  0.33658000  1.0
  H  H64  1  0.81958000  0.24244000  0.76488000  1.0
  H  H65  1  0.18043000  0.74244000  0.73512000  1.0
  H  H66  1  0.18044000  0.75757000  0.23512000  1.0
  H  H67  1  0.81956000  0.25756000  0.26488000  1.0
  C  C68  1  0.77447000  0.04270000  0.82503000  1.0
  C  C69  1  0.22553000  0.54270000  0.67497000  1.0
  C  C70  1  0.22553000  0.95730000  0.17497000  1.0
  C  C71  1  0.77447000  0.45730000  0.32503000  1.0
  C  C72  1  0.93317000  0.04435000  0.71434000  1.0
  C  C73  1  0.06684000  0.54435000  0.78566000  1.0
  C  C74  1  0.06683000  0.95565000  0.28566000  1.0
  C  C75  1  0.93315000  0.45564000  0.21434000  1.0
  C  C76  1  0.14597000  0.07951000  0.67161000  1.0
  C  C77  1  0.85404000  0.57951000  0.82839000  1.0
  C  C78  1  0.85404000  0.92049000  0.32839000  1.0
  C  C79  1  0.14595000  0.42048000  0.17161000  1.0
  C  C80  1  0.16874000  0.20402000  0.67297000  1.0
  C  C81  1  0.83126000  0.70403000  0.82703000  1.0
  C  C82  1  0.83128000  0.79598000  0.32703000  1.0
  C  C83  1  0.16872000  0.29597000  0.17297000  1.0
  C  C84  1  0.20696000  0.23993000  0.74444000  1.0
  C  C85  1  0.79305000  0.73993000  0.75556000  1.0
  C  C86  1  0.79305000  0.76007000  0.25556000  1.0
  C  C87  1  0.20695000  0.26007000  0.24444000  1.0
  C  C88  1  0.98902000  0.20219000  0.78474000  1.0
  C  C89  1  0.01098000  0.70220000  0.71526000  1.0
  C  C90  1  0.01099000  0.79781000  0.21526000  1.0
  C  C91  1  0.98901000  0.29780000  0.28473000  1.0
  C  C92  1  0.35667000  0.24452000  0.62488000  1.0
  C  C93  1  0.64335000  0.74452000  0.87512000  1.0
  C  C94  1  0.64336000  0.75548000  0.37513000  1.0
  C  C95  1  0.35664000  0.25549000  0.12487000  1.0
  N  N96  1  0.96456000  0.08353000  0.78211000  1.0
  N  N97  1  0.03544000  0.58353000  0.71789000  1.0
  N  N98  1  0.03544000  0.91647000  0.21789000  1.0
  N  N99  1  0.96455000  0.41646000  0.28211000  1.0
  O  O100  1  0.65133000  0.98564000  0.94976000  1.0
  O  O101  1  0.34866000  0.48564000  0.55024000  1.0
  O  O102  1  0.34867000  0.01436000  0.05024000  1.0
  O  O103  1  0.65135000  0.51436000  0.44976000  1.0
  O  O104  1  0.93712000  0.13818000  0.94163000  1.0
  O  O105  1  0.06287000  0.63818000  0.55837000  1.0
  O  O106  1  0.06287000  0.86183000  0.05837000  1.0
  O  O107  1  0.93713000  0.36182000  0.44163000  1.0
  O  O108  1  0.08870000  0.94518000  0.91172000  1.0
  O  O109  1  0.91129000  0.44518000  0.58828000  1.0
  O  O110  1  0.91130000  0.05482000  0.08828000  1.0
  O  O111  1  0.08871000  0.55482000  0.41172000  1.0
  O  O112  1  0.31782000  0.22397000  0.56263000  1.0
  O  O113  1  0.68217000  0.72397000  0.93737000  1.0
  O  O114  1  0.68218000  0.77603000  0.43737000  1.0
  O  O115  1  0.31783000  0.27603000  0.06263000  1.0
  O  O116  1  0.54340000  0.29896000  0.64275000  1.0
  O  O117  1  0.45657000  0.79896000  0.85725000  1.0
  O  O118  1  0.45660000  0.70103000  0.35725000  1.0
  O  O119  1  0.54345000  0.20104000  0.14275000  1.0
  O  O120  1  0.38668000  0.20719000  0.93263000  1.0
  O  O121  1  0.61331000  0.70719000  0.56738000  1.0
  O  O122  1  0.61331000  0.79282000  0.06737000  1.0
  O  O123  1  0.38669000  0.29281000  0.43263000  1.0
  O  O124  1  0.85951000  0.31364000  0.03041000  1.0
  O  O125  1  0.14050000  0.81364000  0.46959000  1.0
  O  O126  1  0.14049000  0.68636000  0.96960000  1.0
  O  O127  1  0.85951000  0.18635000  0.53041000  1.0
