# generated using pymatgen
data_CdH13C20NO4
_symmetry_space_group_name_H-M   'P 1'
_cell_length_a   10.00770000
_cell_length_b   10.25750000
_cell_length_c   19.85640000
_cell_angle_alpha   90.00000000
_cell_angle_beta   89.99990000
_cell_angle_gamma   112.26500000
_symmetry_Int_Tables_number   1
_chemical_formula_structural   CdH13C20NO4
_chemical_formula_sum   'Cd4 H52 C80 N4 O16'
_cell_volume   1886.36275741
_cell_formula_units_Z   4
loop_
 _symmetry_equiv_pos_site_id
 _symmetry_equiv_pos_as_xyz
  1  'x, y, z'
loop_
 _atom_site_type_symbol
 _atom_site_label
 _atom_site_symmetry_multiplicity
 _atom_site_fract_x
 _atom_site_fract_y
 _atom_site_fract_z
 _atom_site_occupancy
  Cd  Cd0  1  0.08550000  0.90921000  0.99493000  1.0
  Cd  Cd1  1  0.08550000  0.40921000  0.50507000  1.0
  Cd  Cd2  1  0.91450000  0.09079000  0.00507000  1.0
  Cd  Cd3  1  0.91451000  0.59079000  0.49493000  1.0
  H  H4  1  0.61630000  0.62145000  0.96167000  1.0
  H  H5  1  0.61630000  0.12144000  0.53833000  1.0
  H  H6  1  0.38370000  0.37856000  0.03833000  1.0
  H  H7  1  0.38370000  0.87856000  0.46167000  1.0
  H  H8  1  0.22489000  0.46581000  0.02952000  1.0
  H  H9  1  0.22489000  0.96581000  0.47048000  1.0
  H  H10  1  0.77511000  0.53419000  0.97048000  1.0
  H  H11  1  0.77511000  0.03419000  0.52952000  1.0
  H  H12  1  0.07427000  0.61010000  0.03112000  1.0
  H  H13  1  0.07427000  0.11010000  0.46888000  1.0
  H  H14  1  0.92573000  0.38990000  0.96888000  1.0
  H  H15  1  0.92573000  0.88990000  0.53112000  1.0
  H  H16  1  0.39671000  0.95158000  0.94330000  1.0
  H  H17  1  0.39671000  0.45157000  0.55670000  1.0
  H  H18  1  0.60329000  0.04843000  0.05670000  1.0
  H  H19  1  0.60329000  0.54843000  0.44330000  1.0
  H  H20  1  0.56790000  0.82557000  0.94148000  1.0
  H  H21  1  0.56790000  0.32557000  0.55852000  1.0
  H  H22  1  0.43210000  0.17443000  0.05852000  1.0
  H  H23  1  0.43210000  0.67443000  0.44148000  1.0
  H  H24  1  0.57187000  0.81330000  0.13356000  1.0
  H  H25  1  0.57186000  0.31330000  0.36644000  1.0
  H  H26  1  0.42814000  0.18670000  0.86644000  1.0
  H  H27  1  0.42813000  0.68669000  0.63356000  1.0
  H  H28  1  0.43090000  0.43699000  0.25518000  1.0
  H  H29  1  0.43091000  0.93699000  0.24482000  1.0
  H  H30  1  0.56909000  0.56301000  0.74482000  1.0
  H  H31  1  0.56910000  0.06301000  0.75518000  1.0
  H  H32  1  0.64951000  0.39520000  0.22262000  1.0
  H  H33  1  0.64952000  0.89520000  0.27738000  1.0
  H  H34  1  0.35048000  0.60480000  0.77738000  1.0
  H  H35  1  0.35049000  0.10480000  0.72262000  1.0
  H  H36  1  0.82970000  0.56248000  0.14372000  1.0
  H  H37  1  0.82969000  0.06248000  0.35628000  1.0
  H  H38  1  0.17030000  0.43752000  0.85628000  1.0
  H  H39  1  0.17031000  0.93752000  0.64372000  1.0
  H  H40  1  0.35398000  0.57587000  0.31971000  1.0
  H  H41  1  0.35398000  0.07587000  0.18029000  1.0
  H  H42  1  0.64602000  0.42413000  0.68029000  1.0
  H  H43  1  0.64602000  0.92413000  0.81971000  1.0
  H  H44  1  0.32817000  0.74832000  0.12453000  1.0
  H  H45  1  0.32817000  0.24832000  0.37546000  1.0
  H  H46  1  0.67183000  0.25168000  0.87546000  1.0
  H  H47  1  0.67183000  0.75168000  0.62454000  1.0
  H  H48  1  0.12082000  0.80366000  0.16335000  1.0
  H  H49  1  0.12082000  0.30366000  0.33664000  1.0
  H  H50  1  0.87918000  0.19634000  0.83665000  1.0
  H  H51  1  0.87918000  0.69634000  0.66335000  1.0
  H  H52  1  0.03316000  0.74986000  0.28248000  1.0
  H  H53  1  0.03316000  0.24986000  0.21752000  1.0
  H  H54  1  0.96684000  0.25014000  0.71752000  1.0
  H  H55  1  0.96684000  0.75014000  0.78248000  1.0
  C  C56  1  0.51274000  0.56355000  0.98600000  1.0
  C  C57  1  0.51274000  0.06355000  0.51400000  1.0
  C  C58  1  0.48726000  0.43645000  0.01400000  1.0
  C  C59  1  0.48726000  0.93645000  0.48600000  1.0
  C  C60  1  0.41189000  0.63465000  0.98589000  1.0
  C  C61  1  0.41189000  0.13465000  0.51411000  1.0
  C  C62  1  0.58811000  0.36535000  0.01411000  1.0
  C  C63  1  0.58811000  0.86535000  0.48589000  1.0
  C  C64  1  0.26933000  0.57326000  0.01028000  1.0
  C  C65  1  0.26933000  0.07326000  0.48972000  1.0
  C  C66  1  0.73067000  0.42674000  0.98972000  1.0
  C  C67  1  0.73067000  0.92674000  0.51028000  1.0
  C  C68  1  0.18346000  0.65206000  0.01054000  1.0
  C  C69  1  0.18346000  0.15206000  0.48946000  1.0
  C  C70  1  0.81654000  0.34794000  0.98946000  1.0
  C  C71  1  0.81654000  0.84794000  0.51054000  1.0
  C  C72  1  0.36468000  0.84418000  0.96226000  1.0
  C  C73  1  0.36468000  0.34418000  0.53774000  1.0
  C  C74  1  0.63532000  0.15582000  0.03774000  1.0
  C  C75  1  0.63532000  0.65582000  0.46226000  1.0
  C  C76  1  0.45833000  0.77330000  0.96095000  1.0
  C  C77  1  0.45833000  0.27330000  0.53905000  1.0
  C  C78  1  0.54167000  0.22670000  0.03905000  1.0
  C  C79  1  0.54167000  0.72670000  0.46095000  1.0
  C  C80  1  0.81155000  0.79482000  0.08495000  1.0
  C  C81  1  0.81155000  0.29482000  0.41505000  1.0
  C  C82  1  0.18845000  0.20518000  0.91505000  1.0
  C  C83  1  0.18845000  0.70517000  0.58495000  1.0
  C  C84  1  0.70824000  0.69545000  0.13341000  1.0
  C  C85  1  0.70824000  0.19545000  0.36659000  1.0
  C  C86  1  0.29176000  0.30455000  0.86659000  1.0
  C  C87  1  0.29176000  0.80454000  0.63341000  1.0
  C  C88  1  0.58553000  0.71987000  0.15299000  1.0
  C  C89  1  0.58554000  0.21987000  0.34702000  1.0
  C  C90  1  0.41446000  0.28013000  0.84701000  1.0
  C  C91  1  0.41446000  0.78012000  0.65299000  1.0
  C  C92  1  0.48434000  0.62860000  0.19727000  1.0
  C  C93  1  0.48434000  0.12860000  0.30273000  1.0
  C  C94  1  0.51565000  0.37140000  0.80273000  1.0
  C  C95  1  0.51566000  0.87140000  0.69727000  1.0
  C  C96  1  0.50957000  0.51120000  0.22177000  1.0
  C  C97  1  0.50957000  0.01121000  0.27823000  1.0
  C  C98  1  0.49043000  0.48880000  0.77823000  1.0
  C  C99  1  0.49043000  0.98879000  0.72177000  1.0
  C  C100  1  0.63259000  0.48707000  0.20294000  1.0
  C  C101  1  0.63259000  0.98708000  0.29707000  1.0
  C  C102  1  0.36741000  0.51293000  0.79706000  1.0
  C  C103  1  0.36741000  0.01292000  0.70294000  1.0
  C  C104  1  0.73276000  0.57915000  0.15887000  1.0
  C  C105  1  0.73276000  0.07915000  0.34113000  1.0
  C  C106  1  0.26724000  0.42085000  0.84113000  1.0
  C  C107  1  0.26724000  0.92085000  0.65887000  1.0
  C  C108  1  0.13750000  0.62470000  0.37896000  1.0
  C  C109  1  0.13750000  0.12470000  0.12104000  1.0
  C  C110  1  0.86250000  0.37530000  0.62104000  1.0
  C  C111  1  0.86250000  0.87530000  0.87896000  1.0
  C  C112  1  0.18922000  0.65966000  0.30776000  1.0
  C  C113  1  0.18922000  0.15966000  0.19224000  1.0
  C  C114  1  0.81078000  0.34034000  0.69224000  1.0
  C  C115  1  0.81078000  0.84034000  0.80776000  1.0
  C  C116  1  0.30400000  0.62562000  0.28478000  1.0
  C  C117  1  0.30400000  0.12563000  0.21522000  1.0
  C  C118  1  0.69600000  0.37438000  0.71522000  1.0
  C  C119  1  0.69600000  0.87437000  0.78478000  1.0
  C  C120  1  0.35705000  0.65781000  0.21906000  1.0
  C  C121  1  0.35705000  0.15781000  0.28094000  1.0
  C  C122  1  0.64295000  0.34219000  0.78094000  1.0
  C  C123  1  0.64295000  0.84219000  0.71906000  1.0
  C  C124  1  0.28906000  0.72262000  0.17597000  1.0
  C  C125  1  0.28906000  0.22262000  0.32403000  1.0
  C  C126  1  0.71094000  0.27738000  0.82403000  1.0
  C  C127  1  0.71094000  0.77738000  0.67597000  1.0
  C  C128  1  0.17210000  0.75411000  0.19791000  1.0
  C  C129  1  0.17210000  0.25411000  0.30209000  1.0
  C  C130  1  0.82790000  0.24589000  0.80209000  1.0
  C  C131  1  0.82790000  0.74589000  0.69791000  1.0
  C  C132  1  0.12283000  0.72429000  0.26405000  1.0
  C  C133  1  0.12283000  0.22429000  0.23595000  1.0
  C  C134  1  0.87717000  0.27571000  0.73594000  1.0
  C  C135  1  0.87717000  0.77571000  0.76405000  1.0
  N  N136  1  0.22979000  0.78553000  0.98731000  1.0
  N  N137  1  0.22979000  0.28553000  0.51269000  1.0
  N  N138  1  0.77021000  0.21447000  0.01269000  1.0
  N  N139  1  0.77021000  0.71447000  0.48731000  1.0
  O  O140  1  0.91703000  0.76392000  0.06458000  1.0
  O  O141  1  0.91703000  0.26392000  0.43542000  1.0
  O  O142  1  0.08297000  0.23608000  0.93542000  1.0
  O  O143  1  0.08297000  0.73608000  0.56458000  1.0
  O  O144  1  0.78495000  0.90199000  0.06746000  1.0
  O  O145  1  0.78495000  0.40199000  0.43254000  1.0
  O  O146  1  0.21505000  0.09801000  0.93254000  1.0
  O  O147  1  0.21505000  0.59801000  0.56746000  1.0
  O  O148  1  0.18491000  0.54350000  0.41143000  1.0
  O  O149  1  0.18492000  0.04350000  0.08857000  1.0
  O  O150  1  0.81509000  0.45650000  0.58857000  1.0
  O  O151  1  0.81509000  0.95650000  0.91143000  1.0
  O  O152  1  0.05030000  0.67800000  0.40151000  1.0
  O  O153  1  0.05030000  0.17800000  0.09848000  1.0
  O  O154  1  0.94970000  0.32200000  0.59849000  1.0
  O  O155  1  0.94970000  0.82200000  0.90151000  1.0
