# generated using pymatgen
data_Ag3H11C14(NO5)2
_symmetry_space_group_name_H-M   'P 1'
_cell_length_a   6.64492000
_cell_length_b   10.57940000
_cell_length_c   12.96020000
_cell_angle_alpha   66.67280000
_cell_angle_beta   82.64370000
_cell_angle_gamma   83.33090000
_symmetry_Int_Tables_number   1
_chemical_formula_structural   Ag3H11C14(NO5)2
_chemical_formula_sum   'Ag6 H22 C28 N4 O20'
_cell_volume   827.58787365
_cell_formula_units_Z   2
loop_
 _symmetry_equiv_pos_site_id
 _symmetry_equiv_pos_as_xyz
  1  'x, y, z'
loop_
 _atom_site_type_symbol
 _atom_site_label
 _atom_site_symmetry_multiplicity
 _atom_site_fract_x
 _atom_site_fract_y
 _atom_site_fract_z
 _atom_site_occupancy
  Ag  Ag0  1  0.49999000  0.00000000  0.00000000  1.0
  Ag  Ag1  1  0.00001000  0.00000000  0.00000000  1.0
  Ag  Ag2  1  0.43129000  0.53694000  0.08992000  1.0
  Ag  Ag3  1  0.56870000  0.46306000  0.91007000  1.0
  Ag  Ag4  1  0.12408000  0.60404000  0.92265000  1.0
  Ag  Ag5  1  0.87592000  0.39597000  0.07735000  1.0
  H  H6  1  0.68418000  0.93314000  0.39947000  1.0
  H  H7  1  0.31581000  0.06686000  0.60053000  1.0
  H  H8  1  0.68577000  0.67592000  0.47914000  1.0
  H  H9  1  0.31423000  0.32408000  0.52086000  1.0
  H  H10  1  0.34486000  0.77561000  0.20349000  1.0
  H  H11  1  0.65515000  0.22438000  0.79652000  1.0
  H  H12  1  0.22975000  0.72225000  0.40527000  1.0
  H  H13  1  0.77026000  0.27775000  0.59473000  1.0
  H  H14  1  0.16928000  0.91510000  0.47345000  1.0
  H  H15  1  0.83072000  0.08490000  0.52655000  1.0
  H  H16  1  0.80735000  0.05599000  0.19892000  1.0
  H  H17  1  0.19265000  0.94401000  0.80108000  1.0
  H  H18  1  0.38546000  0.76740000  0.70437000  1.0
  H  H19  1  0.61453000  0.23260000  0.29563000  1.0
  H  H20  1  0.14766000  0.77910000  0.69672000  1.0
  H  H21  1  0.85234000  0.22090000  0.30328000  1.0
  H  H22  1  0.02315000  0.34022000  0.39254000  1.0
  H  H23  1  0.97685000  0.65978000  0.60746000  1.0
  H  H24  1  0.47597000  0.50867000  0.31725000  1.0
  H  H25  1  0.52404000  0.49133000  0.68275000  1.0
  H  H26  1  0.24060000  0.51532000  0.30684000  1.0
  H  H27  1  0.75940000  0.48468000  0.69316000  1.0
  C  C28  1  0.80587000  0.94391000  0.23475000  1.0
  C  C29  1  0.19412000  0.05609000  0.76526000  1.0
  C  C30  1  0.73820000  0.87476000  0.34735000  1.0
  C  C31  1  0.26180000  0.12524000  0.65265000  1.0
  C  C32  1  0.73949000  0.73157000  0.39120000  1.0
  C  C33  1  0.26050000  0.26843000  0.60880000  1.0
  C  C34  1  0.80990000  0.66147000  0.32058000  1.0
  C  C35  1  0.19010000  0.33854000  0.67942000  1.0
  C  C36  1  0.86934000  0.73799000  0.20643000  1.0
  C  C37  1  0.13066000  0.26200000  0.79358000  1.0
  C  C38  1  0.82242000  0.50633000  0.37007000  1.0
  C  C39  1  0.17758000  0.49367000  0.62994000  1.0
  C  C40  1  0.92378000  0.66576000  0.12542000  1.0
  C  C41  1  0.07623000  0.33424000  0.87459000  1.0
  C  C42  1  0.31842000  0.85785000  0.23517000  1.0
  C  C43  1  0.68158000  0.14215000  0.76483000  1.0
  C  C44  1  0.25241000  0.82830000  0.34795000  1.0
  C  C45  1  0.74759000  0.17170000  0.65205000  1.0
  C  C46  1  0.22143000  0.93575000  0.38545000  1.0
  C  C47  1  0.77857000  0.06426000  0.61455000  1.0
  C  C48  1  0.25790000  0.07008000  0.30942000  1.0
  C  C49  1  0.74210000  0.92992000  0.69058000  1.0
  C  C50  1  0.32578000  0.09248000  0.19677000  1.0
  C  C51  1  0.67422000  0.90752000  0.80323000  1.0
  C  C52  1  0.23334000  0.18146000  0.35608000  1.0
  C  C53  1  0.76666000  0.81853000  0.64392000  1.0
  C  C54  1  0.37321000  0.23528000  0.11310000  1.0
  C  C55  1  0.62680000  0.76472000  0.88689000  1.0
  N  N56  1  0.86941000  0.87689000  0.16573000  1.0
  N  N57  1  0.13059000  0.12311000  0.83427000  1.0
  N  N58  1  0.35582000  0.98651000  0.16173000  1.0
  N  N59  1  0.64418000  0.01348000  0.83827000  1.0
  O  O60  1  0.02351000  0.72808000  0.03156000  1.0
  O  O61  1  0.97650000  0.27192000  0.96845000  1.0
  O  O62  1  0.86048000  0.54585000  0.16174000  1.0
  O  O63  1  0.13951000  0.45416000  0.83826000  1.0
  O  O64  1  0.00996000  0.44968000  0.38413000  1.0
  O  O65  1  0.99005000  0.55032000  0.61587000  1.0
  O  O66  1  0.66929000  0.43987000  0.40309000  1.0
  O  O67  1  0.33073000  0.56014000  0.59691000  1.0
  O  O68  1  0.38587000  0.22166000  0.37785000  1.0
  O  O69  1  0.61412000  0.77834000  0.62215000  1.0
  O  O70  1  0.04651000  0.21791000  0.38146000  1.0
  O  O71  1  0.95349000  0.78209000  0.61854000  1.0
  O  O72  1  0.29683000  0.33256000  0.14351000  1.0
  O  O73  1  0.70318000  0.66745000  0.85648000  1.0
  O  O74  1  0.48533000  0.24673000  0.02343000  1.0
  O  O75  1  0.51467000  0.75326000  0.97657000  1.0
  O  O76  1  0.36778000  0.55579000  0.26543000  1.0
  O  O77  1  0.63222000  0.44421000  0.73457000  1.0
  O  O78  1  0.25159000  0.77381000  0.74708000  1.0
  O  O79  1  0.74841000  0.22619000  0.25292000  1.0
