# generated using pymatgen
data_CuH21C19(NO3)2
_symmetry_space_group_name_H-M   'P 1'
_cell_length_a   9.25511000
_cell_length_b   9.87784000
_cell_length_c   12.54980000
_cell_angle_alpha   69.74620000
_cell_angle_beta   72.91830000
_cell_angle_gamma   73.63130000
_symmetry_Int_Tables_number   1
_chemical_formula_structural   CuH21C19(NO3)2
_chemical_formula_sum   'Cu2 H42 C38 N4 O12'
_cell_volume   1007.91713836
_cell_formula_units_Z   2
loop_
 _symmetry_equiv_pos_site_id
 _symmetry_equiv_pos_as_xyz
  1  'x, y, z'
loop_
 _atom_site_type_symbol
 _atom_site_label
 _atom_site_symmetry_multiplicity
 _atom_site_fract_x
 _atom_site_fract_y
 _atom_site_fract_z
 _atom_site_occupancy
  Cu  Cu0  1  0.21313000  0.34092000  0.16449000  1.0
  Cu  Cu1  1  0.78687000  0.65908000  0.83551000  1.0
  H  H2  1  0.93253000  0.84716000  0.44838000  1.0
  H  H3  1  0.06747000  0.15283000  0.55162000  1.0
  H  H4  1  0.90186000  0.93471000  0.30633000  1.0
  H  H5  1  0.09814000  0.06529000  0.69367000  1.0
  H  H6  1  0.36359000  0.87647000  0.80423000  1.0
  H  H7  1  0.63640000  0.12353000  0.19577000  1.0
  H  H8  1  0.50435000  0.70217000  0.15677000  1.0
  H  H9  1  0.49565000  0.29783000  0.84323000  1.0
  H  H10  1  0.13703000  0.92981000  0.05950000  1.0
  H  H11  1  0.86297000  0.07019000  0.94051000  1.0
  H  H12  1  0.97279000  0.05626000  0.10549000  1.0
  H  H13  1  0.02721000  0.94375000  0.89451000  1.0
  H  H14  1  0.45209000  0.78697000  0.99031000  1.0
  H  H15  1  0.54791000  0.21303000  0.00969000  1.0
  H  H16  1  0.20444000  0.11934000  0.87102000  1.0
  H  H17  1  0.79556000  0.88065000  0.12898000  1.0
  H  H18  1  0.03340000  0.24586000  0.91150000  1.0
  H  H19  1  0.96660000  0.75414000  0.08851000  1.0
  H  H20  1  0.14241000  0.50371000  0.92328000  1.0
  H  H21  1  0.85759000  0.49628000  0.07672000  1.0
  H  H22  1  0.20542000  0.86889000  0.38495000  1.0
  H  H23  1  0.79458000  0.13111000  0.61505000  1.0
  H  H24  1  0.19691000  0.92971000  0.23755000  1.0
  H  H25  1  0.80309000  0.07029000  0.76245000  1.0
  H  H26  1  0.32345000  0.24065000  0.38892000  1.0
  H  H27  1  0.67655000  0.75935000  0.61108000  1.0
  H  H28  1  0.47708000  0.33907000  0.47203000  1.0
  H  H29  1  0.52292000  0.66093000  0.52797000  1.0
  H  H30  1  0.19932000  0.73556000  0.77113000  1.0
  H  H31  1  0.80068000  0.26444000  0.22888000  1.0
  H  H32  1  0.56478000  0.57654000  0.35315000  1.0
  H  H33  1  0.43522000  0.42346000  0.64685000  1.0
  H  H34  1  0.12207000  0.63825000  0.37647000  1.0
  H  H35  1  0.87793000  0.36175000  0.62353000  1.0
  H  H36  1  0.07828000  0.72592000  0.23726000  1.0
  H  H37  1  0.92172000  0.27409000  0.76273000  1.0
  H  H38  1  0.85174000  0.60935000  0.46457000  1.0
  H  H39  1  0.14826000  0.39065000  0.53543000  1.0
  H  H40  1  0.79592000  0.71732000  0.33167000  1.0
  H  H41  1  0.20409000  0.28268000  0.66832000  1.0
  H  H42  1  0.91606000  0.28999000  0.38297000  1.0
  H  H43  1  0.08393000  0.71002000  0.61702000  1.0
  C  C44  1  0.98828000  0.86012000  0.35598000  1.0
  C  C45  1  0.01172000  0.13988000  0.64403000  1.0
  C  C46  1  0.20748000  0.20410000  0.00543000  1.0
  C  C47  1  0.79252000  0.79589000  0.99457000  1.0
  C  C48  1  0.08893000  0.09028000  0.32708000  1.0
  C  C49  1  0.91107000  0.90972000  0.67293000  1.0
  C  C50  1  0.38081000  0.53778000  0.17117000  1.0
  C  C51  1  0.61919000  0.46222000  0.82883000  1.0
  C  C52  1  0.33203000  0.77683000  0.86962000  1.0
  C  C53  1  0.66797000  0.22316000  0.13038000  1.0
  C  C54  1  0.46345000  0.60146000  0.21159000  1.0
  C  C55  1  0.53655000  0.39854000  0.78841000  1.0
  C  C56  1  0.04696000  0.02390000  0.02841000  1.0
  C  C57  1  0.95304000  0.97609000  0.97159000  1.0
  C  C58  1  0.38027000  0.72828000  0.97454000  1.0
  C  C59  1  0.61973000  0.27172000  0.02546000  1.0
  C  C60  1  0.33978000  0.59973000  0.05658000  1.0
  C  C61  1  0.66022000  0.40027000  0.94342000  1.0
  C  C62  1  0.12192000  0.15244000  0.94519000  1.0
  C  C63  1  0.87808000  0.84756000  0.05481000  1.0
  C  C64  1  0.21027000  0.56924000  0.93494000  1.0
  C  C65  1  0.78973000  0.43076000  0.06507000  1.0
  C  C66  1  0.12722000  0.93127000  0.32517000  1.0
  C  C67  1  0.87278000  0.06873000  0.67483000  1.0
  C  C68  1  0.36602000  0.34247000  0.34230000  1.0
  C  C69  1  0.63398000  0.65753000  0.65771000  1.0
  C  C70  1  0.44988000  0.39857000  0.38709000  1.0
  C  C71  1  0.55012000  0.60143000  0.61291000  1.0
  C  C72  1  0.24411000  0.69831000  0.84980000  1.0
  C  C73  1  0.75589000  0.30168000  0.15020000  1.0
  C  C74  1  0.49820000  0.53029000  0.32075000  1.0
  C  C75  1  0.50180000  0.46971000  0.67925000  1.0
  C  C76  1  0.03113000  0.71140000  0.33092000  1.0
  C  C77  1  0.96888000  0.28860000  0.66908000  1.0
  C  C78  1  0.92248000  0.50247000  0.33013000  1.0
  C  C79  1  0.07752000  0.49754000  0.66986000  1.0
  C  C80  1  0.89141000  0.63828000  0.36966000  1.0
  C  C81  1  0.10859000  0.36172000  0.63034000  1.0
  N  N82  1  0.25845000  0.52103000  0.03465000  1.0
  N  N83  1  0.74155000  0.47896000  0.96535000  1.0
  N  N84  1  0.33255000  0.41081000  0.23723000  1.0
  N  N85  1  0.66745000  0.58920000  0.76277000  1.0
  O  O86  1  0.35145000  0.17887000  0.98418000  1.0
  O  O87  1  0.64856000  0.82113000  0.01581000  1.0
  O  O88  1  0.11671000  0.27327000  0.07964000  1.0
  O  O89  1  0.88329000  0.72672000  0.92037000  1.0
  O  O90  1  0.94981000  0.14919000  0.36109000  1.0
  O  O91  1  0.05019000  0.85082000  0.63891000  1.0
  O  O92  1  0.20385000  0.15562000  0.29330000  1.0
  O  O93  1  0.79614000  0.84438000  0.70671000  1.0
  O  O94  1  0.98106000  0.50317000  0.22742000  1.0
  O  O95  1  0.01895000  0.49683000  0.77258000  1.0
  O  O96  1  0.88214000  0.38551000  0.41351000  1.0
  O  O97  1  0.11785000  0.61450000  0.58649000  1.0
