# generated using pymatgen
data_CoH6(C2N7)2
_symmetry_space_group_name_H-M   'P 1'
_cell_length_a   6.44204000
_cell_length_b   8.99233000
_cell_length_c   9.36999000
_cell_angle_alpha   74.52950000
_cell_angle_beta   87.24350000
_cell_angle_gamma   70.70920000
_symmetry_Int_Tables_number   1
_chemical_formula_structural   CoH6(C2N7)2
_chemical_formula_sum   'Co2 H12 C8 N28'
_cell_volume   493.27732693
_cell_formula_units_Z   2
loop_
 _symmetry_equiv_pos_site_id
 _symmetry_equiv_pos_as_xyz
  1  'x, y, z'
loop_
 _atom_site_type_symbol
 _atom_site_label
 _atom_site_symmetry_multiplicity
 _atom_site_fract_x
 _atom_site_fract_y
 _atom_site_fract_z
 _atom_site_occupancy
  Co  Co0  1  0.99922000  0.99893000  0.99717000  1.0
  Co  Co1  1  0.50088000  0.99968000  0.50056000  1.0
  H  H2  1  0.56826000  0.85751000  0.05079000  1.0
  H  H3  1  0.43091000  0.14253000  0.94956000  1.0
  H  H4  1  0.92061000  0.60101000  0.11148000  1.0
  H  H5  1  0.07925000  0.39907000  0.88850000  1.0
  H  H6  1  0.87753000  0.41387000  0.11621000  1.0
  H  H7  1  0.12235000  0.58617000  0.88388000  1.0
  H  H8  1  0.76890000  0.19818000  0.27410000  1.0
  H  H9  1  0.23159000  0.80153000  0.72623000  1.0
  H  H10  1  0.83777000  0.57070000  0.37719000  1.0
  H  H11  1  0.16235000  0.42938000  0.62282000  1.0
  H  H12  1  0.06755000  0.40670000  0.34656000  1.0
  H  H13  1  0.93251000  0.59337000  0.65330000  1.0
  C  C14  1  0.48794000  0.76571000  0.07282000  1.0
  C  C15  1  0.51151000  0.23415000  0.92703000  1.0
  C  C16  1  0.82927000  0.51871000  0.16412000  1.0
  C  C17  1  0.17059000  0.48140000  0.83592000  1.0
  C  C18  1  0.73033000  0.23337000  0.37662000  1.0
  C  C19  1  0.27021000  0.76637000  0.62372000  1.0
  C  C20  1  0.88826000  0.46578000  0.32966000  1.0
  C  C21  1  0.11180000  0.53431000  0.67033000  1.0
  N  N22  1  0.24092000  0.10688000  0.22406000  1.0
  N  N23  1  0.75845000  0.89505000  0.77599000  1.0
  N  N24  1  0.19653000  0.11411000  0.70644000  1.0
  N  N25  1  0.80405000  0.88527000  0.29379000  1.0
  N  N26  1  0.59555000  0.60528000  0.12825000  1.0
  N  N27  1  0.40422000  0.39471000  0.87202000  1.0
  N  N28  1  0.62769000  0.16762000  0.48990000  1.0
  N  N29  1  0.37341000  0.83195000  0.51072000  1.0
  N  N30  1  0.27566000  0.78613000  0.05890000  1.0
  N  N31  1  0.72394000  0.21328000  0.94043000  1.0
  N  N32  1  0.38527000  0.11580000  0.29274000  1.0
  N  N33  1  0.61494000  0.88372000  0.70809000  1.0
  N  N34  1  0.77972000  0.35244000  0.41313000  1.0
  N  N35  1  0.22040000  0.64762000  0.58693000  1.0
  N  N36  1  0.70876000  0.35939000  0.55024000  1.0
  N  N37  1  0.29146000  0.64083000  0.44980000  1.0
  N  N38  1  0.61689000  0.24768000  0.59586000  1.0
  N  N39  1  0.38387000  0.75227000  0.40451000  1.0
  N  N40  1  0.22022000  0.13074000  0.57651000  1.0
  N  N41  1  0.78128000  0.86713000  0.42392000  1.0
  N  N42  1  0.44773000  0.52466000  0.14835000  1.0
  N  N43  1  0.55250000  0.47495000  0.85193000  1.0
  N  N44  1  0.25654000  0.63429000  0.10644000  1.0
  N  N45  1  0.74361000  0.36496000  0.89328000  1.0
  N  N46  1  0.16928000  0.10462000  0.83364000  1.0
  N  N47  1  0.82851000  0.89639000  0.16620000  1.0
  N  N48  1  0.09568000  0.11148000  0.14849000  1.0
  N  N49  1  0.90333000  0.89231000  0.85090000  1.0
