# generated using pymatgen
data_ZnH6(C5N6)2
_symmetry_space_group_name_H-M   'P 1'
_cell_length_a   8.35454000
_cell_length_b   9.46520000
_cell_length_c   17.80560000
_cell_angle_alpha   90.00000000
_cell_angle_beta   90.00000000
_cell_angle_gamma   90.00000000
_symmetry_Int_Tables_number   1
_chemical_formula_structural   ZnH6(C5N6)2
_chemical_formula_sum   'Zn4 H24 C40 N48'
_cell_volume   1408.02041114
_cell_formula_units_Z   4
loop_
 _symmetry_equiv_pos_site_id
 _symmetry_equiv_pos_as_xyz
  1  'x, y, z'
loop_
 _atom_site_type_symbol
 _atom_site_label
 _atom_site_symmetry_multiplicity
 _atom_site_fract_x
 _atom_site_fract_y
 _atom_site_fract_z
 _atom_site_occupancy
  Zn  Zn0  1  0.00000000  0.50000000  0.00000000  1.0
  Zn  Zn1  1  0.50000000  0.50000000  0.50000000  1.0
  Zn  Zn2  1  0.00000000  0.00000000  0.50000000  1.0
  Zn  Zn3  1  0.50000000  0.00000000  0.00000000  1.0
  H  H4  1  0.91403000  0.69439000  0.31659000  1.0
  H  H5  1  0.58596000  0.30561000  0.81659000  1.0
  H  H6  1  0.08597000  0.19439000  0.18341000  1.0
  H  H7  1  0.41404000  0.80561000  0.68341000  1.0
  H  H8  1  0.08596000  0.30561000  0.68341000  1.0
  H  H9  1  0.41404000  0.69439000  0.18341000  1.0
  H  H10  1  0.91404000  0.80561000  0.81659000  1.0
  H  H11  1  0.58596000  0.19439000  0.31659000  1.0
  H  H12  1  0.77401000  0.46713000  0.28141000  1.0
  H  H13  1  0.72599000  0.53287000  0.78141000  1.0
  H  H14  1  0.22599000  0.96713000  0.21859000  1.0
  H  H15  1  0.27401000  0.03287000  0.71859000  1.0
  H  H16  1  0.22599000  0.53287000  0.71859000  1.0
  H  H17  1  0.27401000  0.46713000  0.21859000  1.0
  H  H18  1  0.77401000  0.03287000  0.78141000  1.0
  H  H19  1  0.72599000  0.96713000  0.28141000  1.0
  H  H20  1  0.80530000  0.38369000  0.14585000  1.0
  H  H21  1  0.69470000  0.61631000  0.64585000  1.0
  H  H22  1  0.19470000  0.88369000  0.35415000  1.0
  H  H23  1  0.30530000  0.11631000  0.85415000  1.0
  H  H24  1  0.19470000  0.61631000  0.85415000  1.0
  H  H25  1  0.30530000  0.38369000  0.35415000  1.0
  H  H26  1  0.80530000  0.11631000  0.64585000  1.0
  H  H27  1  0.69470000  0.88369000  0.14585000  1.0
  C  C28  1  0.03368000  0.66549000  0.14344000  1.0
  C  C29  1  0.46632000  0.33451000  0.64344000  1.0
  C  C30  1  0.96632000  0.16549000  0.35656000  1.0
  C  C31  1  0.53368000  0.83451000  0.85656000  1.0
  C  C32  1  0.96632000  0.33451000  0.85656000  1.0
  C  C33  1  0.53368000  0.66549000  0.35656000  1.0
  C  C34  1  0.03368000  0.83451000  0.64344000  1.0
  C  C35  1  0.46632000  0.16549000  0.14344000  1.0
  C  C36  1  0.92566000  0.64916000  0.26040000  1.0
  C  C37  1  0.57434000  0.35084000  0.76040000  1.0
  C  C38  1  0.07434000  0.14916000  0.23960000  1.0
  C  C39  1  0.42566000  0.85084000  0.73960000  1.0
  C  C40  1  0.07434000  0.35084000  0.73960000  1.0
  C  C41  1  0.42566000  0.64916000  0.23960000  1.0
  C  C42  1  0.92566000  0.85084000  0.76040000  1.0
  C  C43  1  0.57434000  0.14916000  0.26040000  1.0
  C  C44  1  0.84530000  0.52555000  0.24071000  1.0
  C  C45  1  0.65470000  0.47445000  0.74071000  1.0
  C  C46  1  0.15470000  0.02555000  0.25929000  1.0
  C  C47  1  0.34530000  0.97445000  0.75929000  1.0
  C  C48  1  0.15470000  0.47445000  0.75929000  1.0
  C  C49  1  0.34530000  0.52555000  0.25929000  1.0
  C  C50  1  0.84530000  0.97445000  0.74071000  1.0
  C  C51  1  0.65470000  0.02555000  0.24071000  1.0
  C  C52  1  0.86473000  0.47827000  0.16720000  1.0
  C  C53  1  0.63527000  0.52172000  0.66720000  1.0
  C  C54  1  0.13527000  0.97827000  0.33280000  1.0
  C  C55  1  0.36473000  0.02172000  0.83280000  1.0
  C  C56  1  0.13527000  0.52172000  0.83280000  1.0
  C  C57  1  0.36473000  0.47827000  0.33280000  1.0
  C  C58  1  0.86473000  0.02172000  0.66720000  1.0
  C  C59  1  0.63527000  0.97828000  0.16720000  1.0
  C  C60  1  0.13711000  0.73319000  0.08782000  1.0
  C  C61  1  0.36289000  0.26681000  0.58782000  1.0
  C  C62  1  0.86289000  0.23319000  0.41218000  1.0
  C  C63  1  0.63711000  0.76681000  0.91218000  1.0
  C  C64  1  0.86289000  0.26681000  0.91218000  1.0
  C  C65  1  0.63711000  0.73319000  0.41218000  1.0
  C  C66  1  0.13711000  0.76681000  0.58782000  1.0
  C  C67  1  0.36289000  0.23319000  0.08782000  1.0
  N  N68  1  0.14607000  0.68117000  0.01731000  1.0
  N  N69  1  0.35393000  0.31883000  0.51730000  1.0
  N  N70  1  0.85393000  0.18117000  0.48269000  1.0
  N  N71  1  0.64607000  0.81883000  0.98269000  1.0
  N  N72  1  0.85392000  0.31883000  0.98269000  1.0
  N  N73  1  0.64607000  0.68117000  0.48270000  1.0
  N  N74  1  0.14607000  0.81883000  0.51731000  1.0
  N  N75  1  0.35393000  0.18117000  0.01731000  1.0
  N  N76  1  0.24993000  0.76134000  0.98035000  1.0
  N  N77  1  0.25007000  0.23866000  0.48035000  1.0
  N  N78  1  0.75007000  0.26134000  0.51965000  1.0
  N  N79  1  0.74993000  0.73866000  0.01965000  1.0
  N  N80  1  0.75007000  0.23866000  0.01965000  1.0
  N  N81  1  0.74993000  0.76134000  0.51965000  1.0
  N  N82  1  0.24993000  0.73866000  0.48035000  1.0
  N  N83  1  0.25007000  0.26134000  0.98035000  1.0
  N  N84  1  0.30236000  0.85900000  0.02812000  1.0
  N  N85  1  0.19764000  0.14100000  0.52812000  1.0
  N  N86  1  0.69764000  0.35900000  0.47188000  1.0
  N  N87  1  0.80236000  0.64100000  0.97188000  1.0
  N  N88  1  0.69764000  0.14100000  0.97188000  1.0
  N  N89  1  0.80236000  0.85900000  0.47188000  1.0
  N  N90  1  0.30236000  0.64100000  0.52812000  1.0
  N  N91  1  0.19764000  0.35900000  0.02812000  1.0
  N  N92  1  0.23463000  0.84479000  0.09594000  1.0
  N  N93  1  0.26537000  0.15521000  0.59594000  1.0
  N  N94  1  0.76537000  0.34479000  0.40406000  1.0
  N  N95  1  0.73463000  0.65521000  0.90406000  1.0
  N  N96  1  0.76537000  0.15521000  0.90406000  1.0
  N  N97  1  0.73463000  0.84479000  0.40406000  1.0
  N  N98  1  0.23463000  0.65521000  0.59594000  1.0
  N  N99  1  0.26537000  0.34479000  0.09594000  1.0
  N  N100  1  0.95859000  0.54767000  0.11866000  1.0
  N  N101  1  0.54141000  0.45233000  0.61866000  1.0
  N  N102  1  0.04141000  0.04767000  0.38134000  1.0
  N  N103  1  0.45859000  0.95233000  0.88134000  1.0
  N  N104  1  0.04141000  0.45233000  0.88134000  1.0
  N  N105  1  0.45859000  0.54767000  0.38134000  1.0
  N  N106  1  0.95859000  0.95233000  0.61866000  1.0
  N  N107  1  0.54141000  0.04767000  0.11866000  1.0
  N  N108  1  0.02033000  0.71988000  0.21240000  1.0
  N  N109  1  0.47967000  0.28012000  0.71240000  1.0
  N  N110  1  0.97967000  0.21988000  0.28760000  1.0
  N  N111  1  0.52033000  0.78012000  0.78760000  1.0
  N  N112  1  0.97967000  0.28012000  0.78760000  1.0
  N  N113  1  0.52033000  0.71988000  0.28760000  1.0
  N  N114  1  0.02033000  0.78012000  0.71240000  1.0
  N  N115  1  0.47967000  0.21988000  0.21240000  1.0
