# generated using pymatgen
data_CdH7C7NCl2O
_symmetry_space_group_name_H-M   'P 1'
_cell_length_a   7.25004000
_cell_length_b   8.08156000
_cell_length_c   9.35487000
_cell_angle_alpha   109.32100000
_cell_angle_beta   94.97930000
_cell_angle_gamma   113.16200000
_symmetry_Int_Tables_number   1
_chemical_formula_structural   CdH7C7NCl2O
_chemical_formula_sum   'Cd2 H14 C14 N2 Cl4 O2'
_cell_volume   460.44996661
_cell_formula_units_Z   2
loop_
 _symmetry_equiv_pos_site_id
 _symmetry_equiv_pos_as_xyz
  1  'x, y, z'
loop_
 _atom_site_type_symbol
 _atom_site_label
 _atom_site_symmetry_multiplicity
 _atom_site_fract_x
 _atom_site_fract_y
 _atom_site_fract_z
 _atom_site_occupancy
  Cd  Cd0  1  0.26709000  0.01663000  0.07679000  1.0
  Cd  Cd1  1  0.73291000  0.98337000  0.92321000  1.0
  H  H2  1  0.26981000  0.01009000  0.65227000  1.0
  H  H3  1  0.73018000  0.98991000  0.34773000  1.0
  H  H4  1  0.98754000  0.67390000  0.57119000  1.0
  H  H5  1  0.01246000  0.32610000  0.42881000  1.0
  H  H6  1  0.80682000  0.47206000  0.28283000  1.0
  H  H7  1  0.19319000  0.52794000  0.71718000  1.0
  H  H8  1  0.91453000  0.62601000  0.09268000  1.0
  H  H9  1  0.08547000  0.37399000  0.90732000  1.0
  H  H10  1  0.64567000  0.46460000  0.62816000  1.0
  H  H11  1  0.35434000  0.53540000  0.37183000  1.0
  H  H12  1  0.58394000  0.26186000  0.68441000  1.0
  H  H13  1  0.41606000  0.73814000  0.31559000  1.0
  H  H14  1  0.40835000  0.35917000  0.67949000  1.0
  H  H15  1  0.59166000  0.64083000  0.32051000  1.0
  C  C16  1  0.24465000  0.99347000  0.41424000  1.0
  C  C17  1  0.75534000  0.00653000  0.58575000  1.0
  C  C18  1  0.18955000  0.92155000  0.52893000  1.0
  C  C19  1  0.81045000  0.07846000  0.47107000  1.0
  C  C20  1  0.03118000  0.73136000  0.48252000  1.0
  C  C21  1  0.96882000  0.26864000  0.51748000  1.0
  C  C22  1  0.93123000  0.62090000  0.32463000  1.0
  C  C23  1  0.06877000  0.37910000  0.67538000  1.0
  C  C24  1  0.99171000  0.70535000  0.21729000  1.0
  C  C25  1  0.00828000  0.29465000  0.78272000  1.0
  C  C26  1  0.42072000  0.19123000  0.45261000  1.0
  C  C27  1  0.57928000  0.80877000  0.54741000  1.0
  C  C28  1  0.52158000  0.32731000  0.61947000  1.0
  C  C29  1  0.47843000  0.67269000  0.38053000  1.0
  N  N30  1  0.14533000  0.88592000  0.26132000  1.0
  N  N31  1  0.85467000  0.11408000  0.73868000  1.0
  Cl  Cl32  1  0.05956000  0.23576000  0.14311000  1.0
  Cl  Cl33  1  0.94045000  0.76425000  0.85688000  1.0
  Cl  Cl34  1  0.53022000  0.21111000  0.96013000  1.0
  Cl  Cl35  1  0.46979000  0.78889000  0.03987000  1.0
  O  O36  1  0.48085000  0.23920000  0.34563000  1.0
  O  O37  1  0.51916000  0.76079000  0.65436000  1.0
