# generated using pymatgen
data_CuH5C7NO5
_symmetry_space_group_name_H-M   'P 1'
_cell_length_a   8.74786000
_cell_length_b   9.42171000
_cell_length_c   11.48750000
_cell_angle_alpha   90.00150000
_cell_angle_beta   71.34700000
_cell_angle_gamma   90.00010000
_symmetry_Int_Tables_number   1
_chemical_formula_structural   CuH5C7NO5
_chemical_formula_sum   'Cu4 H20 C28 N4 O20'
_cell_volume   897.06498437
_cell_formula_units_Z   4
loop_
 _symmetry_equiv_pos_site_id
 _symmetry_equiv_pos_as_xyz
  1  'x, y, z'
loop_
 _atom_site_type_symbol
 _atom_site_label
 _atom_site_symmetry_multiplicity
 _atom_site_fract_x
 _atom_site_fract_y
 _atom_site_fract_z
 _atom_site_occupancy
  Cu  Cu0  1  0.91607000  0.24063000  0.42137000  1.0
  Cu  Cu1  1  0.58394000  0.74063000  0.57863000  1.0
  Cu  Cu2  1  0.08395000  0.75938000  0.57863000  1.0
  Cu  Cu3  1  0.41606000  0.25936000  0.42138000  1.0
  H  H4  1  0.88389000  0.51936000  0.31534000  1.0
  H  H5  1  0.61611000  0.01937000  0.68465000  1.0
  H  H6  1  0.11611000  0.48065000  0.68465000  1.0
  H  H7  1  0.38391000  0.98062000  0.31534000  1.0
  H  H8  1  0.72490000  0.66121000  0.23595000  1.0
  H  H9  1  0.77508000  0.16121000  0.76404000  1.0
  H  H10  1  0.27506000  0.33881000  0.76405000  1.0
  H  H11  1  0.22493000  0.83876000  0.23594000  1.0
  H  H12  1  0.78030000  0.43215000  0.98077000  1.0
  H  H13  1  0.71969000  0.93217000  0.01922000  1.0
  H  H14  1  0.21967000  0.56788000  0.01922000  1.0
  H  H15  1  0.28034000  0.06781000  0.98077000  1.0
  H  H16  1  0.85877000  0.18085000  0.99845000  1.0
  H  H17  1  0.64125000  0.68087000  0.00153000  1.0
  H  H18  1  0.14123000  0.81918000  0.00153000  1.0
  H  H19  1  0.35877000  0.31912000  0.99846000  1.0
  H  H20  1  0.92870000  0.10497000  0.18668000  1.0
  H  H21  1  0.57132000  0.60498000  0.81330000  1.0
  H  H22  1  0.07130000  0.89505000  0.81330000  1.0
  H  H23  1  0.42869000  0.39502000  0.18670000  1.0
  C  C24  1  0.03285000  0.97529000  0.43331000  1.0
  C  C25  1  0.46715000  0.47530000  0.56670000  1.0
  C  C26  1  0.96715000  0.02470000  0.56671000  1.0
  C  C27  1  0.53285000  0.52471000  0.43329000  1.0
  C  C28  1  0.90693000  0.51312000  0.52404000  1.0
  C  C29  1  0.59308000  0.01310000  0.47597000  1.0
  C  C30  1  0.09309000  0.48690000  0.47596000  1.0
  C  C31  1  0.40691000  0.98687000  0.52405000  1.0
  C  C32  1  0.87701000  0.44572000  0.24439000  1.0
  C  C33  1  0.62298000  0.94573000  0.75561000  1.0
  C  C34  1  0.12297000  0.55429000  0.75561000  1.0
  C  C35  1  0.37703000  0.05425000  0.24439000  1.0
  C  C36  1  0.82315000  0.49411000  0.14925000  1.0
  C  C37  1  0.67684000  0.99412000  0.85075000  1.0
  C  C38  1  0.17682000  0.50591000  0.85076000  1.0
  C  C39  1  0.32318000  0.00586000  0.14925000  1.0
  C  C40  1  0.82011000  0.39842000  0.05718000  1.0
  C  C41  1  0.67988000  0.89843000  0.94282000  1.0
  C  C42  1  0.17986000  0.60160000  0.94282000  1.0
  C  C43  1  0.32013000  0.10154000  0.05718000  1.0
  C  C44  1  0.86306000  0.25778000  0.06809000  1.0
  C  C45  1  0.63695000  0.75779000  0.93189000  1.0
  C  C46  1  0.13693000  0.74225000  0.93189000  1.0
  C  C47  1  0.36306000  0.24219000  0.06810000  1.0
  C  C48  1  0.90319000  0.21495000  0.17063000  1.0
  C  C49  1  0.59682000  0.71496000  0.82936000  1.0
  C  C50  1  0.09680000  0.78507000  0.82936000  1.0
  C  C51  1  0.40319000  0.28502000  0.17064000  1.0
  N  N52  1  0.90975000  0.30884000  0.25736000  1.0
  N  N53  1  0.59025000  0.80884000  0.74264000  1.0
  N  N54  1  0.09024000  0.69118000  0.74263000  1.0
  N  N55  1  0.40975000  0.19114000  0.25737000  1.0
  O  O56  1  0.01938000  0.05901000  0.35131000  1.0
  O  O57  1  0.48061000  0.55902000  0.64870000  1.0
  O  O58  1  0.98061000  0.94099000  0.64871000  1.0
  O  O59  1  0.51938000  0.44098000  0.35130000  1.0
  O  O60  1  0.10015000  0.85401000  0.41299000  1.0
  O  O61  1  0.39984000  0.35402000  0.58703000  1.0
  O  O62  1  0.89984000  0.14598000  0.58705000  1.0
  O  O63  1  0.60016000  0.64598000  0.41297000  1.0
  O  O64  1  0.81577000  0.41256000  0.50973000  1.0
  O  O65  1  0.68424000  0.91254000  0.49028000  1.0
  O  O66  1  0.18426000  0.58746000  0.49027000  1.0
  O  O67  1  0.31575000  0.08745000  0.50974000  1.0
  O  O68  1  0.85690000  0.63071000  0.57226000  1.0
  O  O69  1  0.64311000  0.13069000  0.42775000  1.0
  O  O70  1  0.14313000  0.36931000  0.42774000  1.0
  O  O71  1  0.35688000  0.86929000  0.57226000  1.0
  O  O72  1  0.77061000  0.63019000  0.14933000  1.0
  O  O73  1  0.72938000  0.13021000  0.85067000  1.0
  O  O74  1  0.22935000  0.36982000  0.85068000  1.0
  O  O75  1  0.27065000  0.86978000  0.14932000  1.0
