# generated using pymatgen
data_Cu2H27C27S3I2N3
_symmetry_space_group_name_H-M   'P 1'
_cell_length_a   9.09144000
_cell_length_b   14.42080000
_cell_length_c   16.57440000
_cell_angle_alpha   112.79200000
_cell_angle_beta   90.28640000
_cell_angle_gamma   98.82230000
_symmetry_Int_Tables_number   1
_chemical_formula_structural   Cu2H27C27S3I2N3
_chemical_formula_sum   'Cu4 H54 C54 S6 I4 N6'
_cell_volume   1974.67053757
_cell_formula_units_Z   2
loop_
 _symmetry_equiv_pos_site_id
 _symmetry_equiv_pos_as_xyz
  1  'x, y, z'
loop_
 _atom_site_type_symbol
 _atom_site_label
 _atom_site_symmetry_multiplicity
 _atom_site_fract_x
 _atom_site_fract_y
 _atom_site_fract_z
 _atom_site_occupancy
  Cu  Cu0  1  0.52225000  0.56102000  0.32706000  1.0
  Cu  Cu1  1  0.47775000  0.43897000  0.67294000  1.0
  Cu  Cu2  1  0.36714000  0.49330000  0.42783000  1.0
  Cu  Cu3  1  0.63286000  0.50669000  0.57217000  1.0
  H  H4  1  0.17182000  0.36489000  0.57958000  1.0
  H  H5  1  0.82819000  0.63510000  0.42041000  1.0
  H  H6  1  0.95571000  0.53479000  0.57350000  1.0
  H  H7  1  0.04429000  0.46521000  0.42651000  1.0
  H  H8  1  0.24866000  0.10995000  0.69702000  1.0
  H  H9  1  0.75134000  0.89005000  0.30299000  1.0
  H  H10  1  0.79091000  0.16929000  0.61412000  1.0
  H  H11  1  0.20910000  0.83071000  0.38589000  1.0
  H  H12  1  0.73914000  0.04748000  0.52851000  1.0
  H  H13  1  0.26086000  0.95252000  0.47150000  1.0
  H  H14  1  0.44748000  0.25328000  0.70729000  1.0
  H  H15  1  0.55251000  0.74673000  0.29271000  1.0
  H  H16  1  0.85405000  0.88324000  0.65641000  1.0
  H  H17  1  0.14594000  0.11676000  0.34358000  1.0
  H  H18  1  0.16481000  0.66879000  0.58064000  1.0
  H  H19  1  0.83519000  0.33121000  0.41936000  1.0
  H  H20  1  0.32453000  0.80955000  0.69066000  1.0
  H  H21  1  0.67548000  0.19046000  0.30934000  1.0
  H  H22  1  0.36708000  0.78874000  0.58179000  1.0
  H  H23  1  0.63293000  0.21126000  0.41822000  1.0
  H  H24  1  0.32587000  0.44104000  0.00617000  1.0
  H  H25  1  0.67413000  0.55896000  0.99383000  1.0
  H  H26  1  0.65365000  0.73552000  0.63608000  1.0
  H  H27  1  0.34635000  0.26447000  0.36392000  1.0
  H  H28  1  0.68469000  0.20931000  0.92131000  1.0
  H  H29  1  0.31530000  0.79070000  0.07869000  1.0
  H  H30  1  0.53018000  0.12694000  0.93591000  1.0
  H  H31  1  0.46982000  0.87306000  0.06409000  1.0
  H  H32  1  0.34968000  0.54849000  0.16608000  1.0
  H  H33  1  0.65032000  0.45151000  0.83392000  1.0
  H  H34  1  0.96555000  0.22268000  0.55646000  1.0
  H  H35  1  0.03445000  0.77731000  0.44354000  1.0
  H  H36  1  0.54987000  0.93090000  0.48259000  1.0
  H  H37  1  0.45013000  0.06910000  0.51741000  1.0
  H  H38  1  0.48672000  0.82413000  0.50724000  1.0
  H  H39  1  0.51329000  0.17587000  0.49276000  1.0
  H  H40  1  0.67918000  0.87246000  0.51735000  1.0
  H  H41  1  0.32083000  0.12754000  0.48266000  1.0
  H  H42  1  0.88787000  0.21279000  0.77676000  1.0
  H  H43  1  0.11213000  0.78721000  0.22324000  1.0
  H  H44  1  0.75339000  0.27753000  0.84419000  1.0
  H  H45  1  0.24662000  0.72248000  0.15581000  1.0
  H  H46  1  0.76285000  0.26919000  0.73570000  1.0
  H  H47  1  0.23715000  0.73081000  0.26430000  1.0
  H  H48  1  0.62382000  0.26080000  0.06014000  1.0
  H  H49  1  0.37616000  0.73920000  0.93986000  1.0
  H  H50  1  0.26322000  0.92317000  0.79534000  1.0
  H  H51  1  0.73678000  0.07683000  0.20466000  1.0
  H  H52  1  0.31522000  0.04831000  0.87375000  1.0
  H  H53  1  0.68478000  0.95170000  0.12625000  1.0
  H  H54  1  0.41917000  0.95250000  0.87101000  1.0
  H  H55  1  0.58083000  0.04751000  0.12898000  1.0
  H  H56  1  0.63763000  0.37742000  0.21537000  1.0
  H  H57  1  0.36236000  0.62258000  0.78463000  1.0
  C  C58  1  0.02854000  0.78921000  0.61969000  1.0
  C  C59  1  0.97146000  0.21079000  0.38031000  1.0
  C  C60  1  0.08706000  0.15370000  0.62646000  1.0
  C  C61  1  0.91295000  0.84630000  0.37354000  1.0
  C  C62  1  0.56099000  0.96594000  0.62251000  1.0
  C  C63  1  0.43902000  0.03406000  0.37749000  1.0
  C  C64  1  0.66360000  0.12747000  0.74450000  1.0
  C  C65  1  0.33640000  0.87253000  0.25551000  1.0
  C  C66  1  0.18495000  0.30603000  0.60383000  1.0
  C  C67  1  0.81505000  0.69397000  0.39617000  1.0
  C  C68  1  0.93706000  0.61283000  0.58996000  1.0
  C  C69  1  0.06294000  0.38716000  0.41004000  1.0
  C  C70  1  0.22707000  0.16379000  0.66883000  1.0
  C  C71  1  0.77293000  0.83621000  0.33117000  1.0
  C  C72  1  0.77246000  0.08705000  0.59857000  1.0
  C  C73  1  0.22754000  0.91296000  0.40143000  1.0
  C  C74  1  0.33780000  0.24450000  0.67570000  1.0
  C  C75  1  0.66220000  0.75550000  0.32430000  1.0
  C  C76  1  0.88135000  0.80687000  0.63586000  1.0
  C  C77  1  0.11866000  0.19314000  0.36414000  1.0
  C  C78  1  0.66120000  0.05954000  0.65604000  1.0
  C  C79  1  0.33880000  0.94046000  0.34396000  1.0
  C  C80  1  0.05485000  0.68903000  0.59574000  1.0
  C  C81  1  0.94514000  0.31096000  0.40426000  1.0
  C  C82  1  0.46006000  0.94098000  0.67854000  1.0
  C  C83  1  0.53994000  0.05902000  0.32146000  1.0
  C  C84  1  0.46323000  0.00756000  0.76775000  1.0
  C  C85  1  0.53677000  0.99244000  0.23225000  1.0
  C  C86  1  0.34234000  0.84635000  0.64387000  1.0
  C  C87  1  0.65766000  0.15365000  0.35613000  1.0
  C  C88  1  0.39560000  0.42349000  0.05029000  1.0
  C  C89  1  0.60440000  0.57651000  0.94971000  1.0
  C  C90  1  0.76961000  0.72514000  0.62577000  1.0
  C  C91  1  0.23039000  0.27486000  0.37422000  1.0
  C  C92  1  0.57117000  0.16910000  0.89565000  1.0
  C  C93  1  0.42883000  0.83090000  0.10435000  1.0
  C  C94  1  0.40942000  0.48416000  0.13936000  1.0
  C  C95  1  0.59058000  0.51584000  0.86064000  1.0
  C  C96  1  0.06868000  0.22637000  0.59197000  1.0
  C  C97  1  0.93132000  0.77363000  0.40802000  1.0
  C  C98  1  0.56816000  0.89466000  0.52833000  1.0
  C  C99  1  0.43184000  0.10534000  0.47167000  1.0
  C  C100  1  0.77189000  0.22656000  0.77763000  1.0
  C  C101  1  0.22811000  0.77344000  0.22237000  1.0
  C  C102  1  0.47206000  0.33984000  0.01800000  1.0
  C  C103  1  0.52794000  0.66017000  0.98200000  1.0
  C  C104  1  0.56100000  0.32351000  0.07914000  1.0
  C  C105  1  0.43899000  0.67649000  0.92086000  1.0
  C  C106  1  0.56631000  0.09953000  0.80019000  1.0
  C  C107  1  0.43369000  0.90047000  0.19982000  1.0
  C  C108  1  0.35968000  0.98125000  0.82974000  1.0
  C  C109  1  0.64032000  0.01875000  0.17026000  1.0
  C  C110  1  0.56941000  0.38897000  0.16680000  1.0
  C  C111  1  0.43059000  0.61103000  0.83320000  1.0
  S  S112  1  0.94961000  0.05225000  0.62060000  1.0
  S  S113  1  0.05039000  0.94774000  0.37940000  1.0
  S  S114  1  0.16957000  0.89023000  0.62812000  1.0
  S  S115  1  0.83043000  0.10977000  0.37188000  1.0
  S  S116  1  0.45162000  0.26352000  0.90589000  1.0
  S  S117  1  0.54838000  0.73648000  0.09411000  1.0
  I  I118  1  0.27134000  0.62851000  0.38180000  1.0
  I  I119  1  0.72866000  0.37149000  0.61819000  1.0
  I  I120  1  0.62552000  0.43672000  0.39403000  1.0
  I  I121  1  0.37449000  0.56328000  0.60596000  1.0
  N  N122  1  0.31856000  0.31666000  0.64516000  1.0
  N  N123  1  0.68144000  0.68334000  0.35484000  1.0
  N  N124  1  0.79525000  0.62879000  0.60320000  1.0
  N  N125  1  0.20475000  0.37121000  0.39680000  1.0
  N  N126  1  0.49497000  0.46830000  0.19833000  1.0
  N  N127  1  0.50503000  0.53170000  0.80167000  1.0
