# generated using pymatgen
data_CdH26C25S2(NO)4
_symmetry_space_group_name_H-M   'P 1'
_cell_length_a   12.32770000
_cell_length_b   12.32770000
_cell_length_c   25.81230000
_cell_angle_alpha   89.99990000
_cell_angle_beta   90.00020000
_cell_angle_gamma   89.99970000
_symmetry_Int_Tables_number   1
_chemical_formula_structural   CdH26C25S2(NO)4
_chemical_formula_sum   'Cd4 H104 C100 S8 N16 O16'
_cell_volume   3922.75168990
_cell_formula_units_Z   4
loop_
 _symmetry_equiv_pos_site_id
 _symmetry_equiv_pos_as_xyz
  1  'x, y, z'
loop_
 _atom_site_type_symbol
 _atom_site_label
 _atom_site_symmetry_multiplicity
 _atom_site_fract_x
 _atom_site_fract_y
 _atom_site_fract_z
 _atom_site_occupancy
  Cd  Cd0  1  0.75000000  0.75000000  0.92433000  1.0
  Cd  Cd1  1  0.25000000  0.25000000  0.42433000  1.0
  Cd  Cd2  1  0.25000000  0.25000000  0.07567000  1.0
  Cd  Cd3  1  0.75000000  0.75000000  0.57567000  1.0
  H  H4  1  0.57884000  0.92620000  0.87323000  1.0
  H  H5  1  0.92116000  0.57380000  0.87323000  1.0
  H  H6  1  0.42621000  0.42116000  0.37323000  1.0
  H  H7  1  0.07380000  0.07884000  0.37323000  1.0
  H  H8  1  0.42116000  0.07380000  0.12677000  1.0
  H  H9  1  0.07884000  0.42620000  0.12677000  1.0
  H  H10  1  0.57380000  0.57884000  0.62677000  1.0
  H  H11  1  0.92620000  0.92116000  0.62677000  1.0
  H  H12  1  0.42528000  0.94733000  0.80918000  1.0
  H  H13  1  0.07473000  0.55267000  0.80918000  1.0
  H  H14  1  0.44733000  0.57472000  0.30918000  1.0
  H  H15  1  0.05268000  0.92527000  0.30918000  1.0
  H  H16  1  0.57472000  0.05268000  0.19082000  1.0
  H  H17  1  0.92527000  0.44733000  0.19081000  1.0
  H  H18  1  0.55268000  0.42528000  0.69082000  1.0
  H  H19  1  0.94732000  0.07473000  0.69082000  1.0
  H  H20  1  0.50673000  0.62656000  0.75251000  1.0
  H  H21  1  0.99327000  0.87345000  0.75251000  1.0
  H  H22  1  0.12656000  0.49327000  0.25251000  1.0
  H  H23  1  0.37344000  0.00673000  0.25251000  1.0
  H  H24  1  0.49327000  0.37344000  0.24749000  1.0
  H  H25  1  0.00673000  0.12656000  0.24749000  1.0
  H  H26  1  0.87344000  0.50673000  0.74749000  1.0
  H  H27  1  0.62656000  0.99326000  0.74749000  1.0
  H  H28  1  0.64848000  0.61802000  0.82086000  1.0
  H  H29  1  0.85152000  0.88198000  0.82086000  1.0
  H  H30  1  0.11802000  0.35152000  0.32086000  1.0
  H  H31  1  0.38198000  0.14848000  0.32086000  1.0
  H  H32  1  0.35152000  0.38198000  0.17914000  1.0
  H  H33  1  0.14848000  0.11802000  0.17914000  1.0
  H  H34  1  0.88198000  0.64848000  0.67914000  1.0
  H  H35  1  0.61802000  0.85151000  0.67914000  1.0
  H  H36  1  0.32659000  0.64142000  0.72857000  1.0
  H  H37  1  0.17340000  0.85859000  0.72857000  1.0
  H  H38  1  0.14142000  0.67341000  0.22857000  1.0
  H  H39  1  0.35858000  0.82659000  0.22857000  1.0
  H  H40  1  0.67341000  0.35858000  0.27142000  1.0
  H  H41  1  0.82660000  0.14142000  0.27143000  1.0
  H  H42  1  0.85858000  0.32659000  0.77143000  1.0
  H  H43  1  0.64141000  0.17341000  0.77143000  1.0
  H  H44  1  0.41785000  0.70025000  0.68177000  1.0
  H  H45  1  0.08214000  0.79975000  0.68177000  1.0
  H  H46  1  0.20025000  0.58214000  0.18177000  1.0
  H  H47  1  0.29975000  0.91786000  0.18177000  1.0
  H  H48  1  0.58215000  0.29975000  0.31823000  1.0
  H  H49  1  0.91786000  0.20025000  0.31823000  1.0
  H  H50  1  0.79975000  0.41786000  0.81823000  1.0
  H  H51  1  0.70025000  0.08215000  0.81823000  1.0
  H  H52  1  0.17295000  0.59229000  0.66327000  1.0
  H  H53  1  0.32704000  0.90771000  0.66327000  1.0
  H  H54  1  0.09229000  0.82705000  0.16327000  1.0
  H  H55  1  0.40771000  0.67295000  0.16327000  1.0
  H  H56  1  0.82705000  0.40771000  0.33673000  1.0
  H  H57  1  0.67295000  0.09229000  0.33672000  1.0
  H  H58  1  0.90771000  0.17295000  0.83673000  1.0
  H  H59  1  0.59229000  0.32705000  0.83673000  1.0
  H  H60  1  0.15348000  0.68429000  0.61092000  1.0
  H  H61  1  0.34652000  0.81571000  0.61092000  1.0
  H  H62  1  0.18429000  0.84652000  0.11092000  1.0
  H  H63  1  0.31571000  0.65348000  0.11092000  1.0
  H  H64  1  0.84652000  0.31571000  0.38908000  1.0
  H  H65  1  0.65348000  0.18429000  0.38907000  1.0
  H  H66  1  0.81571000  0.15348000  0.88908000  1.0
  H  H67  1  0.68429000  0.34652000  0.88908000  1.0
  H  H68  1  0.10646000  0.41642000  0.49470000  1.0
  H  H69  1  0.39354000  0.08358000  0.49471000  1.0
  H  H70  1  0.91642000  0.89353000  0.99471000  1.0
  H  H71  1  0.58358000  0.60646000  0.99470000  1.0
  H  H72  1  0.89353000  0.58358000  0.50529000  1.0
  H  H73  1  0.60646000  0.91642000  0.50530000  1.0
  H  H74  1  0.08358000  0.10647000  0.00529000  1.0
  H  H75  1  0.41642000  0.39354000  0.00530000  1.0
  H  H76  1  0.11217000  0.54919000  0.56769000  1.0
  H  H77  1  0.38783000  0.95081000  0.56769000  1.0
  H  H78  1  0.04918000  0.88783000  0.06769000  1.0
  H  H79  1  0.45081000  0.61217000  0.06769000  1.0
  H  H80  1  0.88783000  0.45082000  0.43231000  1.0
  H  H81  1  0.61217000  0.04919000  0.43231000  1.0
  H  H82  1  0.95082000  0.11217000  0.93231000  1.0
  H  H83  1  0.54919000  0.38783000  0.93231000  1.0
  H  H84  1  0.46136000  0.50408000  0.57027000  1.0
  H  H85  1  0.03863000  0.99592000  0.57027000  1.0
  H  H86  1  0.00408000  0.53864000  0.07027000  1.0
  H  H87  1  0.49592000  0.96136000  0.07027000  1.0
  H  H88  1  0.53863000  0.49592000  0.42973000  1.0
  H  H89  1  0.96136000  0.00408000  0.42973000  1.0
  H  H90  1  0.99592000  0.46137000  0.92973000  1.0
  H  H91  1  0.50408000  0.03864000  0.92973000  1.0
  H  H92  1  0.43832000  0.37172000  0.49777000  1.0
  H  H93  1  0.06168000  0.12828000  0.49777000  1.0
  H  H94  1  0.87172000  0.56167000  0.99777000  1.0
  H  H95  1  0.62828000  0.93832000  0.99777000  1.0
  H  H96  1  0.56167000  0.62828000  0.50223000  1.0
  H  H97  1  0.93832000  0.87172000  0.50223000  1.0
  H  H98  1  0.12828000  0.43833000  0.00223000  1.0
  H  H99  1  0.37172000  0.06168000  0.00223000  1.0
  H  H100  1  0.77228000  0.49618000  0.94861000  1.0
  H  H101  1  0.72772000  0.00382000  0.94861000  1.0
  H  H102  1  0.99618000  0.22772000  0.44861000  1.0
  H  H103  1  0.50382000  0.27228000  0.44861000  1.0
  H  H104  1  0.22772000  0.50382000  0.05139000  1.0
  H  H105  1  0.27228000  0.99618000  0.05139000  1.0
  H  H106  1  0.00382000  0.77228000  0.55139000  1.0
  H  H107  1  0.49618000  0.72772000  0.55139000  1.0
  C  C108  1  0.55666000  0.86102000  0.84653000  1.0
  C  C109  1  0.94334000  0.63898000  0.84653000  1.0
  C  C110  1  0.36102000  0.44334000  0.34653000  1.0
  C  C111  1  0.13898000  0.05666000  0.34653000  1.0
  C  C112  1  0.44334000  0.13898000  0.15347000  1.0
  C  C113  1  0.05666000  0.36102000  0.15347000  1.0
  C  C114  1  0.63898000  0.55666000  0.65347000  1.0
  C  C115  1  0.86101000  0.94334000  0.65347000  1.0
  C  C116  1  0.47374000  0.87345000  0.81070000  1.0
  C  C117  1  0.02626000  0.62655000  0.81070000  1.0
  C  C118  1  0.37345000  0.52626000  0.31070000  1.0
  C  C119  1  0.12655000  0.97374000  0.31070000  1.0
  C  C120  1  0.52626000  0.12656000  0.18930000  1.0
  C  C121  1  0.97374000  0.37345000  0.18930000  1.0
  C  C122  1  0.62656000  0.47374000  0.68930000  1.0
  C  C123  1  0.87345000  0.02626000  0.68930000  1.0
  C  C124  1  0.45262000  0.78791000  0.77617000  1.0
  C  C125  1  0.04738000  0.71209000  0.77617000  1.0
  C  C126  1  0.28792000  0.54738000  0.27616000  1.0
  C  C127  1  0.21209000  0.95262000  0.27617000  1.0
  C  C128  1  0.54738000  0.21209000  0.22383000  1.0
  C  C129  1  0.95262000  0.28791000  0.22383000  1.0
  C  C130  1  0.71209000  0.45262000  0.72383000  1.0
  C  C131  1  0.78791000  0.04738000  0.72383000  1.0
  C  C132  1  0.51718000  0.69448000  0.77887000  1.0
  C  C133  1  0.98281000  0.80552000  0.77887000  1.0
  C  C134  1  0.19448000  0.48282000  0.27887000  1.0
  C  C135  1  0.30552000  0.01719000  0.27887000  1.0
  C  C136  1  0.48281000  0.30552000  0.22113000  1.0
  C  C137  1  0.01719000  0.19448000  0.22113000  1.0
  C  C138  1  0.80552000  0.51719000  0.72113000  1.0
  C  C139  1  0.69448000  0.98281000  0.72113000  1.0
  C  C140  1  0.59746000  0.69004000  0.81682000  1.0
  C  C141  1  0.90254000  0.80996000  0.81681000  1.0
  C  C142  1  0.19004000  0.40254000  0.31682000  1.0
  C  C143  1  0.30996000  0.09746000  0.31682000  1.0
  C  C144  1  0.40254000  0.30996000  0.18318000  1.0
  C  C145  1  0.09746000  0.19004000  0.18319000  1.0
  C  C146  1  0.80996000  0.59746000  0.68318000  1.0
  C  C147  1  0.69004000  0.90254000  0.68319000  1.0
  C  C148  1  0.34681000  0.71525000  0.70661000  1.0
  C  C149  1  0.15319000  0.78475000  0.70661000  1.0
  C  C150  1  0.21525000  0.65319000  0.20661000  1.0
  C  C151  1  0.28475000  0.84681000  0.20661000  1.0
  C  C152  1  0.65319000  0.28475000  0.29339000  1.0
  C  C153  1  0.84681000  0.21525000  0.29339000  1.0
  C  C154  1  0.78475000  0.34681000  0.79339000  1.0
  C  C155  1  0.71525000  0.15319000  0.79339000  1.0
  C  C156  1  0.25000000  0.75000000  0.67324000  1.0
  C  C157  1  0.25000000  0.75000000  0.17323000  1.0
  C  C158  1  0.75000000  0.25000000  0.32676000  1.0
  C  C159  1  0.75000000  0.25000000  0.82676000  1.0
  C  C160  1  0.21288000  0.65476000  0.63944000  1.0
  C  C161  1  0.28712000  0.84524000  0.63944000  1.0
  C  C162  1  0.15476000  0.78712000  0.13944000  1.0
  C  C163  1  0.34524000  0.71288000  0.13944000  1.0
  C  C164  1  0.78712000  0.34524000  0.36056000  1.0
  C  C165  1  0.71288000  0.15475000  0.36056000  1.0
  C  C166  1  0.84524000  0.21288000  0.86056000  1.0
  C  C167  1  0.65476000  0.28712000  0.86056000  1.0
  C  C168  1  0.18342000  0.43806000  0.51319000  1.0
  C  C169  1  0.31658000  0.06194000  0.51319000  1.0
  C  C170  1  0.93806000  0.81658000  0.01319000  1.0
  C  C171  1  0.56194000  0.68342000  0.01319000  1.0
  C  C172  1  0.81657000  0.56194000  0.48681000  1.0
  C  C173  1  0.68342000  0.93806000  0.48682000  1.0
  C  C174  1  0.06194000  0.18342000  0.98681000  1.0
  C  C175  1  0.43806000  0.31658000  0.98681000  1.0
  C  C176  1  0.18723000  0.51171000  0.55411000  1.0
  C  C177  1  0.31277000  0.98829000  0.55411000  1.0
  C  C178  1  0.01171000  0.81278000  0.05411000  1.0
  C  C179  1  0.48829000  0.68722000  0.05411000  1.0
  C  C180  1  0.81278000  0.48829000  0.44588000  1.0
  C  C181  1  0.68722000  0.01171000  0.44589000  1.0
  C  C182  1  0.98829000  0.18722000  0.94588000  1.0
  C  C183  1  0.51171000  0.31278000  0.94589000  1.0
  C  C184  1  0.28896000  0.53693000  0.57528000  1.0
  C  C185  1  0.21104000  0.96307000  0.57527000  1.0
  C  C186  1  0.03694000  0.71104000  0.07527000  1.0
  C  C187  1  0.46307000  0.78896000  0.07528000  1.0
  C  C188  1  0.71104000  0.46306000  0.42473000  1.0
  C  C189  1  0.78896000  0.03693000  0.42472000  1.0
  C  C190  1  0.96307000  0.28896000  0.92472000  1.0
  C  C191  1  0.53693000  0.21104000  0.92472000  1.0
  C  C192  1  0.38134000  0.48619000  0.55464000  1.0
  C  C193  1  0.11866000  0.01381000  0.55464000  1.0
  C  C194  1  0.98619000  0.61865000  0.05465000  1.0
  C  C195  1  0.51381000  0.88134000  0.05464000  1.0
  C  C196  1  0.61865000  0.51381000  0.44536000  1.0
  C  C197  1  0.88134000  0.98619000  0.44536000  1.0
  C  C198  1  0.01381000  0.38135000  0.94536000  1.0
  C  C199  1  0.48619000  0.11866000  0.94536000  1.0
  C  C200  1  0.36825000  0.41336000  0.51427000  1.0
  C  C201  1  0.13175000  0.08664000  0.51427000  1.0
  C  C202  1  0.91336000  0.63174000  0.01428000  1.0
  C  C203  1  0.58664000  0.86825000  0.01427000  1.0
  C  C204  1  0.63174000  0.58664000  0.48572000  1.0
  C  C205  1  0.86825000  0.91336000  0.48573000  1.0
  C  C206  1  0.08664000  0.36826000  0.98572000  1.0
  C  C207  1  0.41336000  0.13175000  0.98573000  1.0
  S  S208  1  0.70565000  0.54454000  0.91434000  1.0
  S  S209  1  0.79435000  0.95545000  0.91434000  1.0
  S  S210  1  0.04455000  0.29435000  0.41434000  1.0
  S  S211  1  0.45546000  0.20565000  0.41434000  1.0
  S  S212  1  0.29435000  0.45546000  0.08566000  1.0
  S  S213  1  0.20565000  0.04455000  0.08566000  1.0
  S  S214  1  0.95545000  0.70565000  0.58566000  1.0
  S  S215  1  0.54454000  0.79435000  0.58566000  1.0
  N  N216  1  0.61714000  0.77062000  0.85036000  1.0
  N  N217  1  0.88286000  0.72938000  0.85036000  1.0
  N  N218  1  0.27062000  0.38286000  0.35036000  1.0
  N  N219  1  0.22938000  0.11714000  0.35036000  1.0
  N  N220  1  0.38286000  0.22938000  0.14964000  1.0
  N  N221  1  0.11714000  0.27061000  0.14964000  1.0
  N  N222  1  0.72938000  0.61714000  0.64964000  1.0
  N  N223  1  0.77061000  0.88286000  0.64964000  1.0
  N  N224  1  0.27137000  0.38898000  0.49326000  1.0
  N  N225  1  0.22863000  0.11102000  0.49326000  1.0
  N  N226  1  0.88897000  0.72862000  0.99326000  1.0
  N  N227  1  0.61102000  0.77137000  0.99326000  1.0
  N  N228  1  0.72862000  0.61102000  0.50674000  1.0
  N  N229  1  0.77137000  0.88898000  0.50674000  1.0
  N  N230  1  0.11103000  0.27138000  0.00674000  1.0
  N  N231  1  0.38898000  0.22863000  0.00674000  1.0
  O  O232  1  0.37015000  0.80246000  0.74220000  1.0
  O  O233  1  0.12985000  0.69755000  0.74220000  1.0
  O  O234  1  0.30246000  0.62985000  0.24220000  1.0
  O  O235  1  0.19754000  0.87015000  0.24219000  1.0
  O  O236  1  0.62985000  0.19754000  0.25780000  1.0
  O  O237  1  0.87015000  0.30246000  0.25780000  1.0
  O  O238  1  0.69754000  0.37015000  0.75780000  1.0
  O  O239  1  0.80245000  0.12985000  0.75780000  1.0
  O  O240  1  0.30637000  0.60772000  0.61456000  1.0
  O  O241  1  0.19363000  0.89227000  0.61456000  1.0
  O  O242  1  0.10772000  0.69363000  0.11456000  1.0
  O  O243  1  0.39227000  0.80637000  0.11456000  1.0
  O  O244  1  0.69363000  0.39228000  0.38544000  1.0
  O  O245  1  0.80637000  0.10772000  0.38544000  1.0
  O  O246  1  0.89228000  0.30637000  0.88544000  1.0
  O  O247  1  0.60773000  0.19363000  0.88544000  1.0
