# generated using pymatgen
data_Bi2H2C10O9
_symmetry_space_group_name_H-M   'P 1'
_cell_length_a   7.96821000
_cell_length_b   8.44177000
_cell_length_c   9.90957000
_cell_angle_alpha   109.15000000
_cell_angle_beta   90.73520000
_cell_angle_gamma   116.20400000
_symmetry_Int_Tables_number   1
_chemical_formula_structural   Bi2H2C10O9
_chemical_formula_sum   'Bi4 H4 C20 O18'
_cell_volume   555.11081248
_cell_formula_units_Z   2
loop_
 _symmetry_equiv_pos_site_id
 _symmetry_equiv_pos_as_xyz
  1  'x, y, z'
loop_
 _atom_site_type_symbol
 _atom_site_label
 _atom_site_symmetry_multiplicity
 _atom_site_fract_x
 _atom_site_fract_y
 _atom_site_fract_z
 _atom_site_occupancy
  Bi  Bi0  1  0.13368000  0.14431000  0.90486000  1.0
  Bi  Bi1  1  0.86632000  0.85569000  0.09514000  1.0
  Bi  Bi2  1  0.74636000  0.24869000  0.02757000  1.0
  Bi  Bi3  1  0.25364000  0.75132000  0.97243000  1.0
  H  H4  1  0.75436000  0.71176000  0.43371000  1.0
  H  H5  1  0.24564000  0.28824000  0.56629000  1.0
  H  H6  1  0.13502000  0.70395000  0.48378000  1.0
  H  H7  1  0.86498000  0.29605000  0.51622000  1.0
  C  C8  1  0.42363000  0.82238000  0.58897000  1.0
  C  C9  1  0.57638000  0.17762000  0.41103000  1.0
  C  C10  1  0.60061000  0.82649000  0.57497000  1.0
  C  C11  1  0.39940000  0.17351000  0.42503000  1.0
  C  C12  1  0.77533000  0.96094000  0.68962000  1.0
  C  C13  1  0.22467000  0.03905000  0.31038000  1.0
  C  C14  1  0.61814000  0.71033000  0.44477000  1.0
  C  C15  1  0.38186000  0.28968000  0.55523000  1.0
  C  C16  1  0.27144000  0.70597000  0.47190000  1.0
  C  C17  1  0.72855000  0.29403000  0.52810000  1.0
  C  C18  1  0.38763000  0.93382000  0.72612000  1.0
  C  C19  1  0.61237000  0.06617000  0.27388000  1.0
  C  C20  1  0.29048000  0.59337000  0.33949000  1.0
  C  C21  1  0.70952000  0.40663000  0.66051000  1.0
  C  C22  1  0.11899000  0.48949000  0.22084000  1.0
  C  C23  1  0.88101000  0.51051000  0.77916000  1.0
  C  C24  1  0.46735000  0.59427000  0.32579000  1.0
  C  C25  1  0.53265000  0.40573000  0.67421000  1.0
  C  C26  1  0.50977000  0.47320000  0.19586000  1.0
  C  C27  1  0.49023000  0.52680000  0.80414000  1.0
  O  O28  1  0.89772000  0.90448000  0.69976000  1.0
  O  O29  1  0.10228000  0.09552000  0.30024000  1.0
  O  O30  1  0.79986000  0.12684000  0.76705000  1.0
  O  O31  1  0.20014000  0.87316000  0.23295000  1.0
  O  O32  1  0.29789000  0.02106000  0.71819000  1.0
  O  O33  1  0.70212000  0.97895000  0.28181000  1.0
  O  O34  1  0.44951000  0.93102000  0.84779000  1.0
  O  O35  1  0.55049000  0.06897000  0.15221000  1.0
  O  O36  1  0.13458000  0.47543000  0.08901000  1.0
  O  O37  1  0.86542000  0.52457000  0.91099000  1.0
  O  O38  1  0.95571000  0.42081000  0.25627000  1.0
  O  O39  1  0.04429000  0.57919000  0.74374000  1.0
  O  O40  1  0.10888000  0.91633000  0.97265000  1.0
  O  O41  1  0.89113000  0.08368000  0.02735000  1.0
  O  O42  1  0.68243000  0.53673000  0.17765000  1.0
  O  O43  1  0.31757000  0.46327000  0.82235000  1.0
  O  O44  1  0.37907000  0.30909000  0.11625000  1.0
  O  O45  1  0.62093000  0.69091000  0.88375000  1.0
