# generated using pymatgen
data_CdH12C19NO4
_symmetry_space_group_name_H-M   'P 1'
_cell_length_a   8.95241000
_cell_length_b   9.56428000
_cell_length_c   20.61160000
_cell_angle_alpha   90.00000000
_cell_angle_beta   90.00000000
_cell_angle_gamma   103.69200000
_symmetry_Int_Tables_number   1
_chemical_formula_structural   CdH12C19NO4
_chemical_formula_sum   'Cd4 H48 C76 N4 O16'
_cell_volume   1714.68161641
_cell_formula_units_Z   4
loop_
 _symmetry_equiv_pos_site_id
 _symmetry_equiv_pos_as_xyz
  1  'x, y, z'
loop_
 _atom_site_type_symbol
 _atom_site_label
 _atom_site_symmetry_multiplicity
 _atom_site_fract_x
 _atom_site_fract_y
 _atom_site_fract_z
 _atom_site_occupancy
  Cd  Cd0  1  0.88486000  0.08946000  0.50209000  1.0
  Cd  Cd1  1  0.11514000  0.41053000  0.00209000  1.0
  Cd  Cd2  1  0.11514000  0.91054000  0.49791000  1.0
  Cd  Cd3  1  0.88486000  0.58946000  0.99791000  1.0
  H  H4  1  0.54985000  0.10839000  0.55181000  1.0
  H  H5  1  0.45015000  0.39161000  0.05181000  1.0
  H  H6  1  0.45015000  0.89161000  0.44819000  1.0
  H  H7  1  0.54985000  0.60839000  0.94818000  1.0
  H  H8  1  0.38263000  0.27741000  0.55121000  1.0
  H  H9  1  0.61737000  0.22259000  0.05121000  1.0
  H  H10  1  0.61737000  0.72259000  0.44879000  1.0
  H  H11  1  0.38263000  0.77741000  0.94879000  1.0
  H  H12  1  0.74968000  0.58261000  0.45256000  1.0
  H  H13  1  0.25032000  0.91739000  0.95256000  1.0
  H  H14  1  0.25032000  0.41739000  0.54744000  1.0
  H  H15  1  0.74968000  0.08261000  0.04744000  1.0
  H  H16  1  0.90004000  0.39772000  0.45678000  1.0
  H  H17  1  0.09996000  0.10228000  0.95678000  1.0
  H  H18  1  0.09996000  0.60228000  0.54323000  1.0
  H  H19  1  0.90004000  0.89772000  0.04323000  1.0
  H  H20  1  0.45245000  0.17680000  0.36371000  1.0
  H  H21  1  0.54755000  0.32320000  0.86372000  1.0
  H  H22  1  0.54755000  0.82320000  0.63628000  1.0
  H  H23  1  0.45245000  0.67680000  0.13628000  1.0
  H  H24  1  0.54284000  0.56872000  0.25169000  1.0
  H  H25  1  0.45716000  0.93129000  0.75169000  1.0
  H  H26  1  0.45716000  0.43129000  0.74832000  1.0
  H  H27  1  0.54284000  0.06871000  0.24832000  1.0
  H  H28  1  0.30006000  0.61861000  0.29114000  1.0
  H  H29  1  0.69994000  0.88139000  0.79114000  1.0
  H  H30  1  0.69994000  0.38139000  0.70886000  1.0
  H  H31  1  0.30006000  0.11861000  0.20886000  1.0
  H  H32  1  0.13187000  0.44601000  0.36761000  1.0
  H  H33  1  0.86812000  0.05399000  0.86761000  1.0
  H  H34  1  0.86812000  0.55400000  0.63239000  1.0
  H  H35  1  0.13188000  0.94600000  0.13239000  1.0
  H  H36  1  0.63015000  0.42428000  0.18256000  1.0
  H  H37  1  0.36985000  0.07572000  0.68256000  1.0
  H  H38  1  0.36985000  0.57572000  0.81744000  1.0
  H  H39  1  0.63015000  0.92428000  0.31744000  1.0
  H  H40  1  0.71606000  0.23083000  0.36371000  1.0
  H  H41  1  0.28394000  0.26917000  0.86371000  1.0
  H  H42  1  0.28394000  0.76917000  0.63629000  1.0
  H  H43  1  0.71606000  0.73083000  0.13629000  1.0
  H  H44  1  0.94252000  0.16778000  0.31577000  1.0
  H  H45  1  0.05748000  0.33223000  0.81577000  1.0
  H  H46  1  0.05748000  0.83223000  0.68423000  1.0
  H  H47  1  0.94252000  0.66778000  0.18423000  1.0
  H  H48  1  0.01326000  0.22969000  0.19948000  1.0
  H  H49  1  0.98674000  0.27031000  0.69948000  1.0
  H  H50  1  0.98674000  0.77031000  0.80052000  1.0
  H  H51  1  0.01326000  0.72969000  0.30052000  1.0
  C  C52  1  0.58950000  0.21484000  0.53020000  1.0
  C  C53  1  0.41051000  0.28516000  0.03020000  1.0
  C  C54  1  0.41051000  0.78516000  0.46980000  1.0
  C  C55  1  0.58949000  0.71484000  0.96980000  1.0
  C  C56  1  0.49621000  0.31174000  0.52977000  1.0
  C  C57  1  0.50379000  0.18826000  0.02977000  1.0
  C  C58  1  0.50379000  0.68826000  0.47023000  1.0
  C  C59  1  0.49622000  0.81174000  0.97023000  1.0
  C  C60  1  0.54892000  0.44765000  0.50121000  1.0
  C  C61  1  0.45109000  0.05234000  0.00120000  1.0
  C  C62  1  0.45108000  0.55234000  0.49879000  1.0
  C  C63  1  0.54892000  0.94766000  0.99879000  1.0
  C  C64  1  0.69806000  0.47955000  0.47503000  1.0
  C  C65  1  0.30194000  0.02045000  0.97503000  1.0
  C  C66  1  0.30194000  0.52045000  0.52497000  1.0
  C  C67  1  0.69806000  0.97955000  0.02497000  1.0
  C  C68  1  0.78466000  0.37718000  0.47740000  1.0
  C  C69  1  0.21534000  0.12282000  0.97740000  1.0
  C  C70  1  0.21534000  0.62282000  0.52260000  1.0
  C  C71  1  0.78466000  0.87718000  0.02260000  1.0
  C  C72  1  0.18816000  0.19951000  0.41703000  1.0
  C  C73  1  0.81185000  0.30049000  0.91703000  1.0
  C  C74  1  0.81185000  0.80049000  0.58297000  1.0
  C  C75  1  0.18815000  0.69951000  0.08297000  1.0
  C  C76  1  0.28540000  0.30333000  0.37078000  1.0
  C  C77  1  0.71460000  0.19667000  0.87078000  1.0
  C  C78  1  0.71460000  0.69668000  0.62922000  1.0
  C  C79  1  0.28540000  0.80332000  0.12922000  1.0
  C  C80  1  0.42233000  0.27522000  0.34776000  1.0
  C  C81  1  0.57768000  0.22478000  0.84776000  1.0
  C  C82  1  0.57768000  0.72478000  0.65224000  1.0
  C  C83  1  0.42232000  0.77521000  0.15224000  1.0
  C  C84  1  0.51583000  0.36851000  0.30396000  1.0
  C  C85  1  0.48417000  0.13149000  0.80396000  1.0
  C  C86  1  0.48417000  0.63149000  0.69604000  1.0
  C  C87  1  0.51583000  0.86851000  0.19604000  1.0
  C  C88  1  0.46966000  0.49282000  0.28440000  1.0
  C  C89  1  0.53034000  0.00718000  0.78440000  1.0
  C  C90  1  0.53034000  0.50718000  0.71560000  1.0
  C  C91  1  0.46966000  0.99282000  0.21560000  1.0
  C  C92  1  0.33317000  0.52144000  0.30713000  1.0
  C  C93  1  0.66683000  0.97856000  0.80713000  1.0
  C  C94  1  0.66683000  0.47857000  0.69287000  1.0
  C  C95  1  0.33317000  0.02143000  0.19287000  1.0
  C  C96  1  0.23993000  0.42659000  0.35006000  1.0
  C  C97  1  0.76007000  0.07341000  0.85006000  1.0
  C  C98  1  0.76007000  0.57341000  0.64994000  1.0
  C  C99  1  0.23993000  0.92659000  0.14994000  1.0
  C  C100  1  0.86772000  0.37181000  0.11576000  1.0
  C  C101  1  0.13229000  0.12819000  0.61576000  1.0
  C  C102  1  0.13228000  0.62819000  0.88424000  1.0
  C  C103  1  0.86771000  0.87181000  0.38424000  1.0
  C  C104  1  0.82520000  0.33099000  0.18472000  1.0
  C  C105  1  0.17480000  0.16901000  0.68472000  1.0
  C  C106  1  0.17480000  0.66901000  0.81528000  1.0
  C  C107  1  0.82519000  0.83099000  0.31528000  1.0
  C  C108  1  0.69813000  0.36900000  0.21259000  1.0
  C  C109  1  0.30187000  0.13100000  0.71259000  1.0
  C  C110  1  0.30187000  0.63100000  0.78741000  1.0
  C  C111  1  0.69813000  0.86900000  0.28741000  1.0
  C  C112  1  0.65595000  0.33388000  0.27707000  1.0
  C  C113  1  0.34405000  0.16613000  0.77707000  1.0
  C  C114  1  0.34405000  0.66613000  0.72293000  1.0
  C  C115  1  0.65595000  0.83387000  0.22293000  1.0
  C  C116  1  0.74629000  0.26052000  0.31352000  1.0
  C  C117  1  0.25371000  0.23948000  0.81352000  1.0
  C  C118  1  0.25371000  0.73948000  0.68648000  1.0
  C  C119  1  0.74629000  0.76052000  0.18648000  1.0
  C  C120  1  0.87438000  0.22370000  0.28619000  1.0
  C  C121  1  0.12562000  0.27630000  0.78619000  1.0
  C  C122  1  0.12562000  0.77630000  0.71381000  1.0
  C  C123  1  0.87438000  0.72370000  0.21381000  1.0
  C  C124  1  0.91394000  0.25783000  0.22174000  1.0
  C  C125  1  0.08606000  0.24217000  0.72174000  1.0
  C  C126  1  0.08606000  0.74217000  0.77826000  1.0
  C  C127  1  0.91394000  0.75783000  0.27826000  1.0
  N  N128  1  0.73132000  0.24619000  0.50414000  1.0
  N  N129  1  0.26868000  0.25381000  0.00414000  1.0
  N  N130  1  0.26868000  0.75381000  0.49586000  1.0
  N  N131  1  0.73132000  0.74619000  0.99586000  1.0
  O  O132  1  0.06355000  0.22840000  0.43633000  1.0
  O  O133  1  0.93645000  0.27159000  0.93633000  1.0
  O  O134  1  0.93645000  0.77160000  0.56367000  1.0
  O  O135  1  0.06355000  0.72840000  0.06367000  1.0
  O  O136  1  0.76173000  0.90966000  0.56655000  1.0
  O  O137  1  0.23826000  0.59034000  0.06655000  1.0
  O  O138  1  0.23827000  0.09034000  0.43345000  1.0
  O  O139  1  0.76174000  0.40966000  0.93345000  1.0
  O  O140  1  0.79732000  0.45757000  0.08825000  1.0
  O  O141  1  0.20268000  0.04243000  0.58825000  1.0
  O  O142  1  0.20267000  0.54242000  0.91175000  1.0
  O  O143  1  0.79732000  0.95757000  0.41175000  1.0
  O  O144  1  0.97060000  0.31804000  0.08984000  1.0
  O  O145  1  0.02940000  0.18196000  0.58984000  1.0
  O  O146  1  0.02940000  0.68196000  0.91016000  1.0
  O  O147  1  0.97060000  0.81804000  0.41016000  1.0
