# generated using pymatgen
data_CoH(CO)5
_symmetry_space_group_name_H-M   'P 1'
_cell_length_a   6.75631000
_cell_length_b   15.23270000
_cell_length_c   15.23500000
_cell_angle_alpha   117.84500000
_cell_angle_beta   98.51910000
_cell_angle_gamma   98.49300000
_symmetry_Int_Tables_number   1
_chemical_formula_structural   CoH(CO)5
_chemical_formula_sum   'Co6 H6 C30 O30'
_cell_volume   1328.25734398
_cell_formula_units_Z   6
loop_
 _symmetry_equiv_pos_site_id
 _symmetry_equiv_pos_as_xyz
  1  'x, y, z'
loop_
 _atom_site_type_symbol
 _atom_site_label
 _atom_site_symmetry_multiplicity
 _atom_site_fract_x
 _atom_site_fract_y
 _atom_site_fract_z
 _atom_site_occupancy
  Co  Co0  1  0.47704000  0.27287000  0.59885000  1.0
  Co  Co1  1  0.20408000  0.32600000  0.72708000  1.0
  Co  Co2  1  0.87821000  0.40119000  0.67404000  1.0
  Co  Co3  1  0.52294000  0.72713000  0.40115000  1.0
  Co  Co4  1  0.79590000  0.67402000  0.27292000  1.0
  Co  Co5  1  0.12178000  0.59882000  0.32595000  1.0
  H  H6  1  0.81896000  0.44257000  0.46793000  1.0
  H  H7  1  0.37645000  0.02529000  0.55734000  1.0
  H  H8  1  0.35104000  0.53213000  0.97468000  1.0
  H  H9  1  0.18104000  0.55746000  0.53209000  1.0
  H  H10  1  0.62355000  0.97472000  0.44268000  1.0
  H  H11  1  0.64895000  0.46790000  0.02532000  1.0
  C  C12  1  0.25110000  0.43832000  0.60967000  1.0
  C  C13  1  0.81277000  0.17141000  0.56171000  1.0
  C  C14  1  0.64129000  0.39029000  0.82859000  1.0
  C  C15  1  0.74888000  0.56169000  0.39033000  1.0
  C  C16  1  0.18722000  0.82860000  0.43830000  1.0
  C  C17  1  0.35870000  0.60973000  0.17141000  1.0
  C  C18  1  0.38027000  0.46711000  0.55263000  1.0
  C  C19  1  0.91314000  0.08554000  0.53296000  1.0
  C  C20  1  0.82754000  0.44741000  0.91446000  1.0
  C  C21  1  0.61974000  0.53292000  0.44738000  1.0
  C  C22  1  0.08686000  0.91447000  0.46705000  1.0
  C  C23  1  0.17245000  0.55262000  0.08554000  1.0
  C  C24  1  0.56424000  0.43332000  0.53417000  1.0
  C  C25  1  0.13095000  0.10083000  0.56671000  1.0
  C  C26  1  0.03003000  0.46587000  0.89918000  1.0
  C  C27  1  0.43574000  0.56670000  0.46585000  1.0
  C  C28  1  0.86904000  0.89918000  0.43330000  1.0
  C  C29  1  0.96995000  0.53415000  0.10081000  1.0
  C  C30  1  0.67869000  0.46798000  0.48199000  1.0
  C  C31  1  0.21076000  0.01399000  0.53200000  1.0
  C  C32  1  0.19672000  0.51807000  0.98602000  1.0
  C  C33  1  0.32130000  0.53204000  0.51802000  1.0
  C  C34  1  0.78924000  0.98602000  0.46801000  1.0
  C  C35  1  0.80325000  0.48196000  0.01398000  1.0
  C  C36  1  0.26444000  0.09165000  0.35583000  1.0
  C  C37  1  0.17242000  0.26407000  0.90823000  1.0
  C  C38  1  0.90880000  0.64430000  0.73587000  1.0
  C  C39  1  0.73571000  0.90814000  0.64411000  1.0
  C  C40  1  0.82758000  0.73598000  0.09179000  1.0
  C  C41  1  0.09116000  0.35570000  0.26414000  1.0
  O  O42  1  0.31506000  0.38325000  0.64596000  1.0
  O  O43  1  0.93173000  0.26275000  0.61670000  1.0
  O  O44  1  0.66898000  0.35400000  0.73727000  1.0
  O  O45  1  0.68489000  0.61674000  0.35402000  1.0
  O  O46  1  0.06826000  0.73726000  0.38332000  1.0
  O  O47  1  0.33100000  0.64603000  0.26272000  1.0
  O  O48  1  0.08643000  0.46786000  0.62408000  1.0
  O  O49  1  0.61857000  0.15624000  0.53210000  1.0
  O  O50  1  0.46223000  0.37592000  0.84373000  1.0
  O  O51  1  0.91355000  0.53216000  0.37593000  1.0
  O  O52  1  0.38142000  0.84377000  0.46791000  1.0
  O  O53  1  0.53775000  0.62410000  0.15626000  1.0
  O  O54  1  0.63436000  0.37011000  0.56289000  1.0
  O  O55  1  0.26423000  0.19276000  0.62995000  1.0
  O  O56  1  0.07131000  0.43714000  0.80726000  1.0
  O  O57  1  0.36562000  0.62991000  0.43711000  1.0
  O  O58  1  0.73576000  0.80725000  0.37005000  1.0
  O  O59  1  0.92867000  0.56288000  0.19274000  1.0
  O  O60  1  0.26894000  0.00787000  0.29783000  1.0
  O  O61  1  0.26038000  0.28984000  0.99206000  1.0
  O  O62  1  0.97135000  0.70243000  0.71024000  1.0
  O  O63  1  0.73128000  0.99190000  0.70216000  1.0
  O  O64  1  0.73962000  0.71025000  0.00796000  1.0
  O  O65  1  0.02860000  0.29758000  0.28976000  1.0
  O  O66  1  0.25719000  0.17597000  0.41241000  1.0
  O  O67  1  0.08120000  0.23634000  0.82385000  1.0
  O  O68  1  0.84491000  0.58760000  0.76346000  1.0
  O  O69  1  0.74291000  0.82381000  0.58747000  1.0
  O  O70  1  0.91880000  0.76369000  0.17616000  1.0
  O  O71  1  0.15507000  0.41241000  0.23654000  1.0
