# generated using pymatgen
data_ZnH26C34(NO)4
_symmetry_space_group_name_H-M   'P 1'
_cell_length_a   9.09057000
_cell_length_b   12.42730000
_cell_length_c   14.78220000
_cell_angle_alpha   71.97200000
_cell_angle_beta   90.00130000
_cell_angle_gamma   90.00030000
_symmetry_Int_Tables_number   1
_chemical_formula_structural   ZnH26C34(NO)4
_chemical_formula_sum   'Zn2 H52 C68 N8 O8'
_cell_volume   1587.97726399
_cell_formula_units_Z   2
loop_
 _symmetry_equiv_pos_site_id
 _symmetry_equiv_pos_as_xyz
  1  'x, y, z'
loop_
 _atom_site_type_symbol
 _atom_site_label
 _atom_site_symmetry_multiplicity
 _atom_site_fract_x
 _atom_site_fract_y
 _atom_site_fract_z
 _atom_site_occupancy
  Zn  Zn0  1  0.00000000  0.99999000  0.00001000  1.0
  Zn  Zn1  1  0.49999000  0.00000000  0.50001000  1.0
  H  H2  1  0.88904000  0.31116000  0.10152000  1.0
  H  H3  1  0.38903000  0.68885000  0.39847000  1.0
  H  H4  1  0.11102000  0.68886000  0.89848000  1.0
  H  H5  1  0.61099000  0.31115000  0.60153000  1.0
  H  H6  1  0.94266000  0.41617000  0.99278000  1.0
  H  H7  1  0.44267000  0.58385000  0.50721000  1.0
  H  H8  1  0.05738000  0.58385000  0.00723000  1.0
  H  H9  1  0.55734000  0.41616000  0.49278000  1.0
  H  H10  1  0.07645000  0.32722000  0.06829000  1.0
  H  H11  1  0.57645000  0.67279000  0.43171000  1.0
  H  H12  1  0.92360000  0.67278000  0.93171000  1.0
  H  H13  1  0.42356000  0.32722000  0.56828000  1.0
  H  H14  1  0.96424000  0.36730000  0.85480000  1.0
  H  H15  1  0.46426000  0.63270000  0.64520000  1.0
  H  H16  1  0.03575000  0.63270000  0.14521000  1.0
  H  H17  1  0.53576000  0.36730000  0.35478000  1.0
  H  H18  1  0.07373000  0.11438000  0.70965000  1.0
  H  H19  1  0.57374000  0.88561000  0.79036000  1.0
  H  H20  1  0.92621000  0.88562000  0.29035000  1.0
  H  H21  1  0.42625000  0.11439000  0.20965000  1.0
  H  H22  1  0.95397000  0.36882000  0.44807000  1.0
  H  H23  1  0.45397000  0.63116000  0.05193000  1.0
  H  H24  1  0.04603000  0.63120000  0.55194000  1.0
  H  H25  1  0.54606000  0.36883000  0.94806000  1.0
  H  H26  1  0.83485000  0.47978000  0.54154000  1.0
  H  H27  1  0.33484000  0.52019000  0.95845000  1.0
  H  H28  1  0.16515000  0.52021000  0.45847000  1.0
  H  H29  1  0.66519000  0.47978000  0.04155000  1.0
  H  H30  1  0.83852000  0.41085000  0.71835000  1.0
  H  H31  1  0.33850000  0.58916000  0.78163000  1.0
  H  H32  1  0.16148000  0.58917000  0.28165000  1.0
  H  H33  1  0.66150000  0.41082000  0.21836000  1.0
  H  H34  1  0.83961000  0.22493000  0.39744000  1.0
  H  H35  1  0.33963000  0.77505000  0.10255000  1.0
  H  H36  1  0.16037000  0.77507000  0.60254000  1.0
  H  H37  1  0.66037000  0.22493000  0.89745000  1.0
  H  H38  1  0.83455000  0.16245000  0.25333000  1.0
  H  H39  1  0.33457000  0.83756000  0.24666000  1.0
  H  H40  1  0.16545000  0.83755000  0.74667000  1.0
  H  H41  1  0.66544000  0.16245000  0.75333000  1.0
  H  H42  1  0.03713000  0.05262000  0.21547000  1.0
  H  H43  1  0.53712000  0.94738000  0.28452000  1.0
  H  H44  1  0.96287000  0.94736000  0.78454000  1.0
  H  H45  1  0.46286000  0.05263000  0.71547000  1.0
  H  H46  1  0.25648000  0.99627000  0.32459000  1.0
  H  H47  1  0.75648000  0.00375000  0.17541000  1.0
  H  H48  1  0.74353000  0.00371000  0.67542000  1.0
  H  H49  1  0.24352000  0.99628000  0.82458000  1.0
  H  H50  1  0.28807000  0.12208000  0.61269000  1.0
  H  H51  1  0.78808000  0.87791000  0.88731000  1.0
  H  H52  1  0.71189000  0.87793000  0.38731000  1.0
  H  H53  1  0.21192000  0.12209000  0.11269000  1.0
  C  C54  1  0.96356000  0.33042000  0.04035000  1.0
  C  C55  1  0.46357000  0.66960000  0.45964000  1.0
  C  C56  1  0.03647000  0.66959000  0.95964000  1.0
  C  C57  1  0.53645000  0.33041000  0.54036000  1.0
  C  C58  1  0.94867000  0.24119000  0.99083000  1.0
  C  C59  1  0.44869000  0.75882000  0.50915000  1.0
  C  C60  1  0.05134000  0.75881000  0.00918000  1.0
  C  C61  1  0.55132000  0.24119000  0.49084000  1.0
  C  C62  1  0.95547000  0.27665000  0.89021000  1.0
  C  C63  1  0.45549000  0.72336000  0.60977000  1.0
  C  C64  1  0.04451000  0.72336000  0.10978000  1.0
  C  C65  1  0.54450000  0.27664000  0.39022000  1.0
  C  C66  1  0.95786000  0.20584000  0.83187000  1.0
  C  C67  1  0.45785000  0.79415000  0.66813000  1.0
  C  C68  1  0.04212000  0.79417000  0.16814000  1.0
  C  C69  1  0.54211000  0.20584000  0.33187000  1.0
  C  C70  1  0.96026000  0.25857000  0.72573000  1.0
  C  C71  1  0.46027000  0.74142000  0.77427000  1.0
  C  C72  1  0.03972000  0.74142000  0.27428000  1.0
  C  C73  1  0.53971000  0.25857000  0.22573000  1.0
  C  C74  1  0.02479000  0.19578000  0.67239000  1.0
  C  C75  1  0.52479000  0.80422000  0.82762000  1.0
  C  C76  1  0.97517000  0.80422000  0.32762000  1.0
  C  C77  1  0.47522000  0.19577000  0.17238000  1.0
  C  C78  1  0.02323000  0.23513000  0.57328000  1.0
  C  C79  1  0.52325000  0.76486000  0.92672000  1.0
  C  C80  1  0.97674000  0.76487000  0.42672000  1.0
  C  C81  1  0.47678000  0.23513000  0.07328000  1.0
  C  C82  1  0.95419000  0.33763000  0.52551000  1.0
  C  C83  1  0.45419000  0.66236000  0.97448000  1.0
  C  C84  1  0.04579000  0.66237000  0.47449000  1.0
  C  C85  1  0.54582000  0.33763000  0.02551000  1.0
  C  C86  1  0.88902000  0.40013000  0.57866000  1.0
  C  C87  1  0.38902000  0.59985000  0.92134000  1.0
  C  C88  1  0.11097000  0.59988000  0.42135000  1.0
  C  C89  1  0.61099000  0.40013000  0.07866000  1.0
  C  C90  1  0.89265000  0.36211000  0.67796000  1.0
  C  C91  1  0.39262000  0.63790000  0.82203000  1.0
  C  C92  1  0.10736000  0.63790000  0.32205000  1.0
  C  C93  1  0.60736000  0.36209000  0.17796000  1.0
  C  C94  1  0.05744000  0.15177000  0.43760000  1.0
  C  C95  1  0.55743000  0.84822000  0.06240000  1.0
  C  C96  1  0.94256000  0.84824000  0.56240000  1.0
  C  C97  1  0.44257000  0.15177000  0.93760000  1.0
  C  C98  1  0.93264000  0.17978000  0.38008000  1.0
  C  C99  1  0.43266000  0.82019000  0.11992000  1.0
  C  C100  1  0.06736000  0.82021000  0.61992000  1.0
  C  C101  1  0.56735000  0.17978000  0.88008000  1.0
  C  C102  1  0.93037000  0.14346000  0.29983000  1.0
  C  C103  1  0.43039000  0.85653000  0.20016000  1.0
  C  C104  1  0.06965000  0.85653000  0.70018000  1.0
  C  C105  1  0.56963000  0.14347000  0.79983000  1.0
  C  C106  1  0.04649000  0.08036000  0.27836000  1.0
  C  C107  1  0.54649000  0.91964000  0.22163000  1.0
  C  C108  1  0.95353000  0.91962000  0.72165000  1.0
  C  C109  1  0.45352000  0.08037000  0.77835000  1.0
  C  C110  1  0.16872000  0.04931000  0.33762000  1.0
  C  C111  1  0.66872000  0.95070000  0.16237000  1.0
  C  C112  1  0.83130000  0.95067000  0.66239000  1.0
  C  C113  1  0.33128000  0.04932000  0.83762000  1.0
  C  C114  1  0.17385000  0.08626000  0.41782000  1.0
  C  C115  1  0.67385000  0.91373000  0.08218000  1.0
  C  C116  1  0.82614000  0.91374000  0.58219000  1.0
  C  C117  1  0.32615000  0.08626000  0.91783000  1.0
  C  C118  1  0.23006000  0.11817000  0.54962000  1.0
  C  C119  1  0.73006000  0.88182000  0.95038000  1.0
  C  C120  1  0.76992000  0.88184000  0.45038000  1.0
  C  C121  1  0.26994000  0.11819000  0.04962000  1.0
  N  N122  1  0.27922000  0.06780000  0.48921000  1.0
  N  N123  1  0.77922000  0.93219000  0.01079000  1.0
  N  N124  1  0.72076000  0.93220000  0.51080000  1.0
  N  N125  1  0.22076000  0.06783000  0.98920000  1.0
  N  N126  1  0.09718000  0.17109000  0.52266000  1.0
  N  N127  1  0.59719000  0.82889000  0.97734000  1.0
  N  N128  1  0.90281000  0.82891000  0.47733000  1.0
  N  N129  1  0.40283000  0.17109000  0.02266000  1.0
  O  O130  1  0.93493000  0.13940000  0.04475000  1.0
  O  O131  1  0.43494000  0.86061000  0.45524000  1.0
  O  O132  1  0.06507000  0.86061000  0.95525000  1.0
  O  O133  1  0.56506000  0.13939000  0.54476000  1.0
  O  O134  1  0.95913000  0.09769000  0.86026000  1.0
  O  O135  1  0.45912000  0.90230000  0.63975000  1.0
  O  O136  1  0.04085000  0.90231000  0.13974000  1.0
  O  O137  1  0.54084000  0.09770000  0.36026000  1.0
