# generated using pymatgen
data_AlH8C16BrO6
_symmetry_space_group_name_H-M   'P 1'
_cell_length_a   6.64301000
_cell_length_b   20.27070000
_cell_length_c   23.04200000
_cell_angle_alpha   86.70190000
_cell_angle_beta   89.99820000
_cell_angle_gamma   89.99880000
_symmetry_Int_Tables_number   1
_chemical_formula_structural   AlH8C16BrO6
_chemical_formula_sum   'Al4 H32 C64 Br4 O24'
_cell_volume   3097.66120721
_cell_formula_units_Z   4
loop_
 _symmetry_equiv_pos_site_id
 _symmetry_equiv_pos_as_xyz
  1  'x, y, z'
loop_
 _atom_site_type_symbol
 _atom_site_label
 _atom_site_symmetry_multiplicity
 _atom_site_fract_x
 _atom_site_fract_y
 _atom_site_fract_z
 _atom_site_occupancy
  Al  Al0  1  0.78490000  0.75258000  0.24846000  1.0
  Al  Al1  1  0.21509000  0.24741000  0.75154000  1.0
  Al  Al2  1  0.28490000  0.74741000  0.25154000  1.0
  Al  Al3  1  0.71510000  0.25259000  0.74846000  1.0
  H  H4  1  0.77958000  0.59853000  0.99747000  1.0
  H  H5  1  0.22043000  0.40148000  0.00252000  1.0
  H  H6  1  0.27959000  0.90148000  0.50254000  1.0
  H  H7  1  0.72044000  0.09853000  0.49746000  1.0
  H  H8  1  0.29011000  0.64693000  0.41115000  1.0
  H  H9  1  0.70989000  0.35307000  0.58885000  1.0
  H  H10  1  0.79013000  0.85307000  0.08885000  1.0
  H  H11  1  0.20988000  0.14693000  0.91115000  1.0
  H  H12  1  0.57289000  0.47000000  0.40745000  1.0
  H  H13  1  0.42711000  0.53000000  0.59256000  1.0
  H  H14  1  0.07288000  0.03000000  0.09256000  1.0
  H  H15  1  0.92711000  0.96999000  0.90743000  1.0
  H  H16  1  0.55933000  0.39543000  0.49539000  1.0
  H  H17  1  0.44069000  0.60457000  0.50462000  1.0
  H  H18  1  0.05931000  0.10457000  0.00462000  1.0
  H  H19  1  0.94069000  0.89542000  0.99538000  1.0
  H  H20  1  0.51698000  0.43919000  0.94773000  1.0
  H  H21  1  0.61478000  0.43548000  0.87538000  1.0
  H  H22  1  0.41714000  0.49268000  0.89022000  1.0
  H  H23  1  0.38517000  0.56447000  0.12470000  1.0
  H  H24  1  0.48285000  0.56090000  0.05233000  1.0
  H  H25  1  0.58289000  0.50734000  0.10975000  1.0
  H  H26  1  0.01678000  0.06072000  0.55222000  1.0
  H  H27  1  0.11470000  0.06459000  0.62454000  1.0
  H  H28  1  0.91719000  0.00729000  0.60982000  1.0
  H  H29  1  0.88508000  0.93556000  0.37523000  1.0
  H  H30  1  0.98269000  0.93903000  0.44761000  1.0
  H  H31  1  0.08290000  0.99264000  0.39023000  1.0
  H  H32  1  0.54743000  0.66641000  0.27093000  1.0
  H  H33  1  0.45256000  0.33359000  0.72908000  1.0
  H  H34  1  0.04743000  0.83358000  0.22907000  1.0
  H  H35  1  0.95256000  0.16641000  0.77092000  1.0
  C  C36  1  0.52908000  0.83660000  0.17291000  1.0
  C  C37  1  0.47092000  0.16339000  0.82708000  1.0
  C  C38  1  0.02907000  0.66340000  0.32709000  1.0
  C  C39  1  0.97093000  0.33661000  0.67292000  1.0
  C  C40  1  0.53299000  0.82343000  0.32966000  1.0
  C  C41  1  0.46698000  0.17656000  0.67035000  1.0
  C  C42  1  0.03301000  0.67656000  0.17035000  1.0
  C  C43  1  0.96699000  0.32343000  0.82966000  1.0
  C  C44  1  0.84256000  0.50785000  0.95836000  1.0
  C  C45  1  0.15747000  0.49217000  0.04163000  1.0
  C  C46  1  0.34259000  0.99216000  0.54165000  1.0
  C  C47  1  0.65746000  0.00784000  0.45835000  1.0
  C  C48  1  0.96971000  0.45123000  0.95928000  1.0
  C  C49  1  0.03032000  0.54879000  0.04071000  1.0
  C  C50  1  0.46975000  0.04878000  0.54071000  1.0
  C  C51  1  0.53032000  0.95122000  0.45929000  1.0
  C  C52  1  0.12247000  0.44458000  0.00168000  1.0
  C  C53  1  0.87755000  0.55543000  0.99831000  1.0
  C  C54  1  0.62248000  0.05543000  0.49830000  1.0
  C  C55  1  0.37756000  0.94458000  0.50169000  1.0
  C  C56  1  0.96107000  0.40461000  0.91611000  1.0
  C  C57  1  0.03893000  0.59540000  0.08388000  1.0
  C  C58  1  0.46111000  0.09540000  0.58388000  1.0
  C  C59  1  0.53890000  0.90460000  0.41612000  1.0
  C  C60  1  0.03367000  0.63449000  0.12212000  1.0
  C  C61  1  0.96633000  0.36551000  0.87788000  1.0
  C  C62  1  0.53364000  0.86550000  0.37788000  1.0
  C  C63  1  0.46636000  0.13449000  0.62212000  1.0
  C  C64  1  0.16849000  0.61111000  0.41748000  1.0
  C  C65  1  0.83151000  0.38890000  0.58254000  1.0
  C  C66  1  0.66850000  0.88889000  0.08253000  1.0
  C  C67  1  0.33151000  0.11110000  0.91747000  1.0
  C  C68  1  0.01718000  0.61066000  0.37529000  1.0
  C  C69  1  0.98283000  0.38934000  0.62472000  1.0
  C  C70  1  0.51717000  0.88934000  0.12472000  1.0
  C  C71  1  0.48284000  0.11066000  0.87528000  1.0
  C  C72  1  0.86103000  0.56389000  0.38185000  1.0
  C  C73  1  0.13899000  0.43611000  0.61816000  1.0
  C  C74  1  0.36103000  0.93611000  0.11815000  1.0
  C  C75  1  0.63899000  0.06389000  0.88185000  1.0
  C  C76  1  0.84934000  0.51916000  0.43115000  1.0
  C  C77  1  0.15066000  0.48085000  0.56886000  1.0
  C  C78  1  0.34934000  0.98084000  0.06886000  1.0
  C  C79  1  0.65067000  0.01915000  0.93114000  1.0
  C  C80  1  0.00335000  0.52192000  0.47468000  1.0
  C  C81  1  0.99667000  0.47808000  0.52533000  1.0
  C  C82  1  0.50335000  0.97808000  0.02533000  1.0
  C  C83  1  0.49667000  0.02192000  0.97467000  1.0
  C  C84  1  0.16459000  0.56816000  0.46722000  1.0
  C  C85  1  0.83541000  0.43185000  0.53279000  1.0
  C  C86  1  0.66460000  0.93184000  0.03278000  1.0
  C  C87  1  0.33540000  0.06815000  0.96721000  1.0
  C  C88  1  0.69061000  0.47174000  0.44017000  1.0
  C  C89  1  0.30938000  0.52827000  0.55984000  1.0
  C  C90  1  0.19061000  0.02826000  0.05983000  1.0
  C  C91  1  0.80939000  0.97173000  0.94016000  1.0
  C  C92  1  0.68341000  0.43037000  0.48895000  1.0
  C  C93  1  0.31658000  0.56964000  0.51106000  1.0
  C  C94  1  0.18341000  0.06964000  0.01105000  1.0
  C  C95  1  0.81659000  0.93036000  0.98894000  1.0
  C  C96  1  0.55363000  0.46822000  0.90732000  1.0
  C  C97  1  0.44636000  0.53182000  0.09270000  1.0
  C  C98  1  0.05359000  0.03177000  0.59265000  1.0
  C  C99  1  0.94629000  0.96817000  0.40726000  1.0
  Br  Br100  1  0.66696000  0.55444000  0.32155000  1.0
  Br  Br101  1  0.33305000  0.44556000  0.67846000  1.0
  Br  Br102  1  0.16694000  0.94555000  0.17845000  1.0
  Br  Br103  1  0.83306000  0.05444000  0.82154000  1.0
  O  O104  1  0.36148000  0.80387000  0.31287000  1.0
  O  O105  1  0.63851000  0.19612000  0.68714000  1.0
  O  O106  1  0.86150000  0.69612000  0.18713000  1.0
  O  O107  1  0.13850000  0.30386000  0.81288000  1.0
  O  O108  1  0.70406000  0.81854000  0.18982000  1.0
  O  O109  1  0.29594000  0.18144000  0.81017000  1.0
  O  O110  1  0.20407000  0.68145000  0.31017000  1.0
  O  O111  1  0.79591000  0.31854000  0.68982000  1.0
  O  O112  1  0.70429000  0.81103000  0.30784000  1.0
  O  O113  1  0.29568000  0.18898000  0.69215000  1.0
  O  O114  1  0.20432000  0.68897000  0.19216000  1.0
  O  O115  1  0.79568000  0.31103000  0.80784000  1.0
  O  O116  1  0.86450000  0.68765000  0.30804000  1.0
  O  O117  1  0.13549000  0.31237000  0.69197000  1.0
  O  O118  1  0.36450000  0.81235000  0.19196000  1.0
  O  O119  1  0.63551000  0.18765000  0.80805000  1.0
  O  O120  1  0.53767000  0.70999000  0.25108000  1.0
  O  O121  1  0.46233000  0.29001000  0.74893000  1.0
  O  O122  1  0.03766000  0.79001000  0.24892000  1.0
  O  O123  1  0.96233000  0.20999000  0.75108000  1.0
  O  O124  1  0.69095000  0.52094000  0.91936000  1.0
  O  O125  1  0.30910000  0.47907000  0.08062000  1.0
  O  O126  1  0.19104000  0.97907000  0.58066000  1.0
  O  O127  1  0.80911000  0.02092000  0.41937000  1.0
