# generated using pymatgen
data_Co2H27C34N3O10
_symmetry_space_group_name_H-M   'P 1'
_cell_length_a   9.86374000
_cell_length_b   17.56780000
_cell_length_c   19.73950000
_cell_angle_alpha   90.00010000
_cell_angle_beta   90.00020000
_cell_angle_gamma   78.78000000
_symmetry_Int_Tables_number   1
_chemical_formula_structural   Co2H27C34N3O10
_chemical_formula_sum   'Co8 H108 C136 N12 O40'
_cell_volume   3355.16785176
_cell_formula_units_Z   4
loop_
 _symmetry_equiv_pos_site_id
 _symmetry_equiv_pos_as_xyz
  1  'x, y, z'
loop_
 _atom_site_type_symbol
 _atom_site_label
 _atom_site_symmetry_multiplicity
 _atom_site_fract_x
 _atom_site_fract_y
 _atom_site_fract_z
 _atom_site_occupancy
  Co  Co0  1  0.56085000  0.96012000  0.45927000  1.0
  Co  Co1  1  0.93915000  0.03983000  0.95937000  1.0
  Co  Co2  1  0.43914000  0.03984000  0.54063000  1.0
  Co  Co3  1  0.06086000  0.96012000  0.04073000  1.0
  Co  Co4  1  0.35689000  0.44223000  0.55565000  1.0
  Co  Co5  1  0.14309000  0.55774000  0.05559000  1.0
  Co  Co6  1  0.64310000  0.55774000  0.44442000  1.0
  Co  Co7  1  0.85688000  0.44223000  0.94436000  1.0
  H  H8  1  0.16406000  0.54624000  0.46953000  1.0
  H  H9  1  0.33594000  0.45375000  0.96949000  1.0
  H  H10  1  0.83595000  0.45374000  0.53051000  1.0
  H  H11  1  0.66404000  0.54624000  0.03047000  1.0
  H  H12  1  0.32278000  0.55831000  0.47160000  1.0
  H  H13  1  0.17724000  0.44164000  0.97156000  1.0
  H  H14  1  0.67725000  0.44163000  0.52844000  1.0
  H  H15  1  0.82276000  0.55832000  0.02840000  1.0
  H  H16  1  0.15575000  0.37571000  0.52321000  1.0
  H  H17  1  0.34423000  0.62429000  0.02319000  1.0
  H  H18  1  0.84423000  0.62429000  0.47681000  1.0
  H  H19  1  0.65574000  0.37571000  0.97679000  1.0
  H  H20  1  0.25107000  0.36720000  0.45806000  1.0
  H  H21  1  0.24895000  0.63281000  0.95802000  1.0
  H  H22  1  0.74897000  0.63280000  0.54198000  1.0
  H  H23  1  0.75106000  0.36720000  0.04194000  1.0
  H  H24  1  0.52332000  0.72664000  0.52620000  1.0
  H  H25  1  0.97675000  0.27331000  0.02617000  1.0
  H  H26  1  0.47675000  0.27330000  0.47382000  1.0
  H  H27  1  0.02331000  0.72664000  0.97380000  1.0
  H  H28  1  0.30303000  0.63345000  0.68337000  1.0
  H  H29  1  0.19697000  0.36659000  0.18334000  1.0
  H  H30  1  0.69697000  0.36659000  0.31666000  1.0
  H  H31  1  0.80303000  0.63345000  0.81663000  1.0
  H  H32  1  0.30347000  0.88066000  0.67424000  1.0
  H  H33  1  0.19657000  0.11936000  0.17430000  1.0
  H  H34  1  0.69657000  0.11936000  0.32570000  1.0
  H  H35  1  0.80347000  0.88067000  0.82576000  1.0
  H  H36  1  0.09625000  0.68302000  0.73370000  1.0
  H  H37  1  0.40368000  0.31705000  0.23369000  1.0
  H  H38  1  0.90369000  0.31705000  0.26631000  1.0
  H  H39  1  0.59625000  0.68302000  0.76629000  1.0
  H  H40  1  0.06998000  0.73577000  0.80980000  1.0
  H  H41  1  0.43005000  0.26432000  0.30978000  1.0
  H  H42  1  0.93005000  0.26432000  0.19022000  1.0
  H  H43  1  0.56999000  0.73577000  0.69020000  1.0
  H  H44  1  0.13832000  0.55740000  0.78746000  1.0
  H  H45  1  0.36163000  0.44267000  0.28747000  1.0
  H  H46  1  0.86164000  0.44267000  0.21254000  1.0
  H  H47  1  0.63833000  0.55741000  0.71255000  1.0
  H  H48  1  0.30795000  0.45487000  0.84482000  1.0
  H  H49  1  0.19198000  0.54518000  0.34484000  1.0
  H  H50  1  0.69200000  0.54519000  0.15516000  1.0
  H  H51  1  0.80795000  0.45487000  0.65519000  1.0
  H  H52  1  0.56626000  0.62001000  0.88806000  1.0
  H  H53  1  0.93370000  0.38002000  0.38804000  1.0
  H  H54  1  0.43371000  0.38003000  0.11196000  1.0
  H  H55  1  0.06626000  0.62000000  0.61194000  1.0
  H  H56  1  0.38734000  0.72515000  0.83623000  1.0
  H  H57  1  0.11264000  0.27490000  0.33620000  1.0
  H  H58  1  0.61265000  0.27491000  0.16380000  1.0
  H  H59  1  0.88734000  0.72515000  0.66377000  1.0
  H  H60  1  0.22805000  0.88681000  0.76957000  1.0
  H  H61  1  0.27192000  0.11326000  0.26963000  1.0
  H  H62  1  0.77191000  0.11326000  0.23037000  1.0
  H  H63  1  0.72805000  0.88681000  0.73043000  1.0
  H  H64  1  0.10404000  0.85020000  0.81579000  1.0
  H  H65  1  0.39598000  0.14989000  0.31582000  1.0
  H  H66  1  0.89596000  0.14990000  0.18417000  1.0
  H  H67  1  0.60405000  0.85020000  0.68421000  1.0
  H  H68  1  0.06173000  0.79266000  0.64755000  1.0
  H  H69  1  0.43833000  0.20738000  0.14758000  1.0
  H  H70  1  0.93832000  0.20738000  0.35242000  1.0
  H  H71  1  0.56172000  0.79266000  0.85244000  1.0
  H  H72  1  0.88168000  0.85621000  0.56734000  1.0
  H  H73  1  0.61840000  0.14378000  0.06739000  1.0
  H  H74  1  0.11840000  0.14377000  0.43260000  1.0
  H  H75  1  0.38167000  0.85621000  0.93265000  1.0
  H  H76  1  0.80182000  0.05871000  0.69395000  1.0
  H  H77  1  0.69806000  0.94129000  0.19403000  1.0
  H  H78  1  0.19805000  0.94128000  0.30596000  1.0
  H  H79  1  0.30182000  0.05871000  0.80605000  1.0
  H  H80  1  0.98618000  0.99630000  0.77392000  1.0
  H  H81  1  0.51369000  0.00374000  0.27399000  1.0
  H  H82  1  0.01368000  0.00374000  0.22601000  1.0
  H  H83  1  0.48619000  0.99630000  0.72607000  1.0
  H  H84  1  0.76617000  0.97283000  0.33808000  1.0
  H  H85  1  0.73387000  0.02712000  0.83813000  1.0
  H  H86  1  0.23385000  0.02712000  0.66187000  1.0
  H  H87  1  0.26619000  0.97282000  0.16192000  1.0
  H  H88  1  0.90318000  0.88921000  0.25028000  1.0
  H  H89  1  0.59685000  0.11076000  0.75034000  1.0
  H  H90  1  0.09684000  0.11076000  0.74966000  1.0
  H  H91  1  0.40320000  0.88920000  0.24973000  1.0
  H  H92  1  0.80716000  0.69062000  0.35642000  1.0
  H  H93  1  0.69291000  0.30933000  0.85650000  1.0
  H  H94  1  0.19290000  0.30933000  0.64350000  1.0
  H  H95  1  0.30713000  0.69062000  0.14359000  1.0
  H  H96  1  0.68025000  0.78244000  0.44051000  1.0
  H  H97  1  0.81981000  0.21749000  0.94058000  1.0
  H  H98  1  0.31980000  0.21749000  0.55942000  1.0
  H  H99  1  0.18023000  0.78244000  0.05950000  1.0
  H  H100  1  0.87256000  0.81364000  0.15690000  1.0
  H  H101  1  0.62744000  0.18633000  0.65696000  1.0
  H  H102  1  0.12743000  0.18633000  0.84303000  1.0
  H  H103  1  0.37258000  0.81364000  0.34310000  1.0
  H  H104  1  0.97329000  0.72145000  0.06786000  1.0
  H  H105  1  0.52666000  0.27852000  0.56793000  1.0
  H  H106  1  0.02664000  0.27853000  0.93207000  1.0
  H  H107  1  0.47330000  0.72144000  0.43214000  1.0
  H  H108  1  0.11048000  0.54707000  0.20693000  1.0
  H  H109  1  0.38952000  0.45289000  0.70702000  1.0
  H  H110  1  0.88951000  0.45290000  0.79298000  1.0
  H  H111  1  0.61051000  0.54706000  0.29307000  1.0
  H  H112  1  0.00718000  0.63082000  0.30307000  1.0
  H  H113  1  0.49284000  0.36913000  0.80315000  1.0
  H  H114  1  0.99283000  0.36915000  0.69686000  1.0
  H  H115  1  0.50719000  0.63082000  0.19694000  1.0
  C  C116  1  0.45229000  0.87830000  0.56358000  1.0
  C  C117  1  0.04777000  0.12165000  0.06364000  1.0
  C  C118  1  0.54777000  0.12165000  0.43636000  1.0
  C  C119  1  0.95231000  0.87830000  0.93643000  1.0
  C  C120  1  0.41624000  0.80969000  0.59800000  1.0
  C  C121  1  0.08382000  0.19029000  0.09803000  1.0
  C  C122  1  0.58381000  0.19029000  0.40197000  1.0
  C  C123  1  0.91625000  0.80969000  0.90201000  1.0
  C  C124  1  0.45801000  0.73543000  0.57083000  1.0
  C  C125  1  0.04205000  0.26452000  0.07082000  1.0
  C  C126  1  0.54205000  0.26453000  0.42918000  1.0
  C  C127  1  0.95801000  0.73543000  0.92917000  1.0
  C  C128  1  0.41439000  0.67295000  0.60205000  1.0
  C  C129  1  0.08563000  0.32703000  0.10201000  1.0
  C  C130  1  0.58563000  0.32703000  0.39798000  1.0
  C  C131  1  0.91438000  0.67295000  0.89795000  1.0
  C  C132  1  0.33415000  0.68401000  0.66108000  1.0
  C  C133  1  0.16587000  0.31602000  0.16106000  1.0
  C  C134  1  0.66586000  0.31602000  0.33894000  1.0
  C  C135  1  0.83414000  0.68402000  0.83892000  1.0
  C  C136  1  0.29344000  0.75898000  0.68953000  1.0
  C  C137  1  0.20657000  0.24106000  0.18954000  1.0
  C  C138  1  0.70657000  0.24106000  0.31046000  1.0
  C  C139  1  0.79345000  0.75899000  0.81047000  1.0
  C  C140  1  0.33521000  0.82152000  0.65625000  1.0
  C  C141  1  0.16483000  0.17850000  0.15628000  1.0
  C  C142  1  0.66482000  0.17850000  0.34372000  1.0
  C  C143  1  0.83522000  0.82152000  0.84375000  1.0
  C  C144  1  0.44409000  0.59496000  0.56842000  1.0
  C  C145  1  0.05590000  0.40502000  0.06838000  1.0
  C  C146  1  0.55591000  0.40501000  0.43162000  1.0
  C  C147  1  0.94408000  0.59497000  0.93158000  1.0
  C  C148  1  0.14984000  0.70998000  0.77349000  1.0
  C  C149  1  0.35014000  0.29010000  0.27349000  1.0
  C  C150  1  0.85015000  0.29010000  0.22651000  1.0
  C  C151  1  0.64985000  0.70998000  0.72651000  1.0
  C  C152  1  0.25301000  0.64774000  0.80828000  1.0
  C  C153  1  0.24695000  0.35233000  0.30827000  1.0
  C  C154  1  0.74696000  0.35234000  0.19172000  1.0
  C  C155  1  0.75302000  0.64774000  0.69172000  1.0
  C  C156  1  0.23099000  0.57149000  0.81046000  1.0
  C  C157  1  0.26897000  0.42858000  0.31047000  1.0
  C  C158  1  0.76898000  0.42858000  0.18953000  1.0
  C  C159  1  0.73100000  0.57149000  0.68955000  1.0
  C  C160  1  0.32700000  0.51378000  0.84181000  1.0
  C  C161  1  0.17295000  0.48627000  0.34183000  1.0
  C  C162  1  0.67296000  0.48628000  0.15817000  1.0
  C  C163  1  0.82701000  0.51378000  0.65819000  1.0
  C  C164  1  0.44894000  0.53084000  0.86888000  1.0
  C  C165  1  0.05099000  0.46920000  0.36887000  1.0
  C  C166  1  0.55100000  0.46921000  0.13113000  1.0
  C  C167  1  0.94895000  0.53084000  0.63112000  1.0
  C  C168  1  0.47131000  0.60714000  0.86659000  1.0
  C  C169  1  0.02864000  0.39290000  0.36658000  1.0
  C  C170  1  0.52865000  0.39291000  0.13342000  1.0
  C  C171  1  0.97131000  0.60714000  0.63341000  1.0
  C  C172  1  0.37212000  0.66538000  0.83784000  1.0
  C  C173  1  0.12786000  0.33467000  0.33783000  1.0
  C  C174  1  0.62786000  0.33467000  0.16217000  1.0
  C  C175  1  0.87212000  0.66538000  0.66216000  1.0
  C  C176  1  0.55440000  0.46951000  0.90167000  1.0
  C  C177  1  0.94556000  0.53051000  0.40169000  1.0
  C  C178  1  0.44556000  0.53052000  0.09831000  1.0
  C  C179  1  0.05441000  0.46951000  0.59833000  1.0
  C  C180  1  0.14792000  0.85143000  0.76481000  1.0
  C  C181  1  0.35206000  0.14863000  0.26485000  1.0
  C  C182  1  0.85205000  0.14863000  0.23515000  1.0
  C  C183  1  0.64792000  0.85144000  0.73519000  1.0
  C  C184  1  0.03666000  0.89008000  0.71616000  1.0
  C  C185  1  0.46334000  0.10997000  0.21622000  1.0
  C  C186  1  0.96333000  0.10996000  0.28378000  1.0
  C  C187  1  0.53666000  0.89008000  0.78383000  1.0
  C  C188  1  0.00580000  0.85115000  0.65804000  1.0
  C  C189  1  0.49421000  0.14888000  0.15808000  1.0
  C  C190  1  0.99420000  0.14887000  0.34191000  1.0
  C  C191  1  0.50580000  0.85115000  0.84195000  1.0
  C  C192  1  0.90556000  0.88640000  0.61269000  1.0
  C  C193  1  0.59446000  0.11360000  0.11274000  1.0
  C  C194  1  0.09446000  0.11360000  0.38726000  1.0
  C  C195  1  0.40555000  0.88639000  0.88730000  1.0
  C  C196  1  0.83065000  0.96118000  0.62555000  1.0
  C  C197  1  0.66935000  0.03881000  0.12563000  1.0
  C  C198  1  0.16934000  0.03881000  0.37437000  1.0
  C  C199  1  0.33065000  0.96118000  0.87444000  1.0
  C  C200  1  0.86032000  0.00063000  0.68373000  1.0
  C  C201  1  0.63959000  0.99937000  0.18379000  1.0
  C  C202  1  0.13958000  0.99937000  0.31621000  1.0
  C  C203  1  0.36032000  0.00063000  0.81627000  1.0
  C  C204  1  0.96356000  0.96571000  0.72835000  1.0
  C  C205  1  0.53638000  0.03432000  0.22842000  1.0
  C  C206  1  0.03637000  0.03432000  0.27158000  1.0
  C  C207  1  0.46356000  0.96571000  0.77165000  1.0
  C  C208  1  0.71448000  0.99134000  0.57876000  1.0
  C  C209  1  0.78556000  0.00862000  0.07885000  1.0
  C  C210  1  0.28555000  0.00862000  0.42114000  1.0
  C  C211  1  0.21448000  0.99134000  0.92123000  1.0
  C  C212  1  0.77738000  0.90987000  0.33980000  1.0
  C  C213  1  0.72267000  0.09008000  0.83986000  1.0
  C  C214  1  0.22266000  0.09008000  0.66015000  1.0
  C  C215  1  0.27741000  0.90986000  0.16021000  1.0
  C  C216  1  0.85298000  0.86275000  0.29074000  1.0
  C  C217  1  0.64706000  0.13720000  0.79081000  1.0
  C  C218  1  0.14704000  0.13721000  0.70920000  1.0
  C  C219  1  0.35300000  0.86275000  0.20927000  1.0
  C  C220  1  0.86311000  0.78187000  0.29378000  1.0
  C  C221  1  0.63692000  0.21809000  0.79385000  1.0
  C  C222  1  0.13691000  0.21809000  0.70615000  1.0
  C  C223  1  0.36312000  0.78187000  0.20622000  1.0
  C  C224  1  0.80239000  0.75269000  0.34996000  1.0
  C  C225  1  0.69766000  0.24727000  0.85003000  1.0
  C  C226  1  0.19765000  0.24727000  0.64997000  1.0
  C  C227  1  0.30239000  0.75269000  0.15004000  1.0
  C  C228  1  0.72920000  0.80398000  0.39696000  1.0
  C  C229  1  0.77085000  0.19596000  0.89703000  1.0
  C  C230  1  0.27084000  0.19597000  0.60297000  1.0
  C  C231  1  0.22919000  0.80398000  0.10304000  1.0
  C  C232  1  0.92960000  0.73025000  0.23905000  1.0
  C  C233  1  0.57044000  0.26971000  0.73912000  1.0
  C  C234  1  0.07044000  0.26972000  0.76088000  1.0
  C  C235  1  0.42960000  0.73024000  0.26095000  1.0
  C  C236  1  0.92309000  0.75503000  0.17127000  1.0
  C  C237  1  0.57691000  0.24495000  0.67133000  1.0
  C  C238  1  0.07690000  0.24495000  0.82867000  1.0
  C  C239  1  0.42310000  0.75502000  0.32874000  1.0
  C  C240  1  0.98066000  0.70368000  0.12073000  1.0
  C  C241  1  0.51929000  0.29630000  0.62080000  1.0
  C  C242  1  0.01928000  0.29630000  0.87920000  1.0
  C  C243  1  0.48068000  0.70367000  0.37927000  1.0
  C  C244  1  0.05568000  0.60638000  0.19831000  1.0
  C  C245  1  0.44431000  0.39359000  0.69840000  1.0
  C  C246  1  0.94430000  0.39359000  0.80160000  1.0
  C  C247  1  0.55570000  0.60637000  0.30169000  1.0
  C  C248  1  0.99766000  0.65355000  0.25159000  1.0
  C  C249  1  0.50235000  0.34641000  0.75167000  1.0
  C  C250  1  0.00235000  0.34642000  0.74834000  1.0
  C  C251  1  0.49767000  0.65354000  0.24842000  1.0
  N  N252  1  0.71247000  0.88164000  0.39132000  1.0
  N  N253  1  0.78758000  0.11831000  0.89139000  1.0
  N  N254  1  0.28756000  0.11831000  0.60862000  1.0
  N  N255  1  0.21247000  0.88164000  0.10868000  1.0
  N  N256  1  0.04747000  0.63044000  0.13317000  1.0
  N  N257  1  0.45250000  0.36954000  0.63325000  1.0
  N  N258  1  0.95250000  0.36954000  0.86675000  1.0
  N  N259  1  0.54748000  0.63043000  0.36683000  1.0
  N  N260  1  0.21079000  0.77239000  0.74646000  1.0
  N  N261  1  0.28923000  0.22767000  0.24646000  1.0
  N  N262  1  0.78922000  0.22768000  0.25353000  1.0
  N  N263  1  0.71079000  0.77239000  0.75354000  1.0
  O  O264  1  0.52222000  0.86749000  0.50879000  1.0
  O  O265  1  0.97780000  0.13249000  0.00887000  1.0
  O  O266  1  0.47780000  0.13248000  0.49113000  1.0
  O  O267  1  0.02222000  0.86750000  0.99122000  1.0
  O  O268  1  0.41033000  0.94504000  0.59028000  1.0
  O  O269  1  0.08975000  0.05490000  0.09033000  1.0
  O  O270  1  0.58973000  0.05490000  0.40967000  1.0
  O  O271  1  0.91036000  0.94504000  0.90972000  1.0
  O  O272  1  0.47790000  0.59426000  0.50527000  1.0
  O  O273  1  0.02207000  0.40569000  0.00523000  1.0
  O  O274  1  0.52208000  0.40568000  0.49477000  1.0
  O  O275  1  0.97789000  0.59426000  0.99473000  1.0
  O  O276  1  0.42474000  0.53604000  0.60135000  1.0
  O  O277  1  0.07521000  0.46395000  0.10129000  1.0
  O  O278  1  0.57521000  0.46395000  0.39871000  1.0
  O  O279  1  0.92473000  0.53605000  0.89865000  1.0
  O  O280  1  0.68029000  0.47016000  0.88737000  1.0
  O  O281  1  0.81966000  0.52984000  0.38743000  1.0
  O  O282  1  0.31967000  0.52984000  0.11257000  1.0
  O  O283  1  0.18030000  0.47016000  0.61263000  1.0
  O  O284  1  0.51303000  0.42104000  0.94135000  1.0
  O  O285  1  0.98693000  0.57899000  0.44137000  1.0
  O  O286  1  0.48693000  0.57900000  0.05863000  1.0
  O  O287  1  0.01303000  0.42104000  0.55865000  1.0
  O  O288  1  0.60892000  0.03941000  0.60070000  1.0
  O  O289  1  0.89115000  0.96056000  0.10080000  1.0
  O  O290  1  0.39113000  0.96056000  0.39921000  1.0
  O  O291  1  0.10893000  0.03941000  0.89930000  1.0
  O  O292  1  0.72402000  0.96223000  0.51933000  1.0
  O  O293  1  0.77603000  0.03771000  0.01942000  1.0
  O  O294  1  0.27602000  0.03772000  0.48058000  1.0
  O  O295  1  0.22401000  0.96223000  0.98066000  1.0
  O  O296  1  0.26177000  0.52098000  0.47840000  1.0
  O  O297  1  0.23821000  0.47899000  0.97836000  1.0
  O  O298  1  0.73822000  0.47898000  0.52164000  1.0
  O  O299  1  0.76176000  0.52098000  0.02160000  1.0
  O  O300  1  0.25440000  0.35771000  0.50680000  1.0
  O  O301  1  0.24558000  0.64228000  0.00677000  1.0
  O  O302  1  0.74558000  0.64228000  0.49324000  1.0
  O  O303  1  0.75439000  0.35771000  0.99320000  1.0
