# generated using pymatgen
data_ZnH11C14NO7F
_symmetry_space_group_name_H-M   'P 1'
_cell_length_a   7.89580000
_cell_length_b   8.95118000
_cell_length_c   15.14590000
_cell_angle_alpha   92.46150000
_cell_angle_beta   95.25010000
_cell_angle_gamma   96.80260000
_symmetry_Int_Tables_number   1
_chemical_formula_structural   ZnH11C14NO7F
_chemical_formula_sum   'Zn2 H22 C28 N2 O14 F2'
_cell_volume   1056.90037427
_cell_formula_units_Z   2
loop_
 _symmetry_equiv_pos_site_id
 _symmetry_equiv_pos_as_xyz
  1  'x, y, z'
loop_
 _atom_site_type_symbol
 _atom_site_label
 _atom_site_symmetry_multiplicity
 _atom_site_fract_x
 _atom_site_fract_y
 _atom_site_fract_z
 _atom_site_occupancy
  Zn  Zn0  1  0.68958000  0.49721000  0.51181000  1.0
  Zn  Zn1  1  0.33124000  0.48481000  0.49814000  1.0
  H  H2  1  0.65782000  0.66746000  0.24987000  1.0
  H  H3  1  0.81172000  0.04922000  0.18892000  1.0
  H  H4  1  0.22097000  0.14298000  0.38316000  1.0
  H  H5  1  0.09565000  0.10266000  0.47428000  1.0
  H  H6  1  0.07842000  0.97015000  0.38109000  1.0
  H  H7  1  0.79477000  0.85154000  0.63874000  1.0
  H  H8  1  0.73675000  0.02611000  0.68445000  1.0
  H  H9  1  0.94136000  0.02040000  0.64184000  1.0
  H  H10  1  0.12167000  0.54826000  0.31042000  1.0
  H  H11  1  0.19898000  0.72601000  0.37043000  1.0
  H  H12  1  0.99667000  0.70399000  0.30069000  1.0
  H  H13  1  0.31851000  0.32426000  0.75938000  1.0
  H  H14  1  0.82271000  0.31270000  0.65364000  1.0
  H  H15  1  0.97516000  0.46862000  0.70072000  1.0
  H  H16  1  0.03312000  0.28028000  0.70023000  1.0
  H  H17  1  0.29814000  0.26540000  0.20282000  1.0
  H  H18  1  0.67324000  0.73000000  0.80640000  1.0
  H  H19  1  0.09064000  0.97224000  0.92827000  1.0
  H  H20  1  0.31501000  0.98031000  0.91368000  1.0
  H  H21  1  0.15849000  0.94891000  0.81911000  1.0
  H  H22  1  0.66235000  0.01994000  0.09137000  1.0
  H  H23  1  0.88801000  0.02211000  0.08201000  1.0
  C  C24  1  0.48244000  0.20349000  0.51313000  1.0
  C  C25  1  0.39211000  0.40874000  0.80595000  1.0
  C  C26  1  0.47951000  0.46466000  0.23492000  1.0
  C  C27  1  0.49445000  0.52895000  0.77425000  1.0
  C  C28  1  0.37773000  0.35792000  0.17677000  1.0
  C  C29  1  0.59244000  0.63807000  0.83228000  1.0
  C  C30  1  0.38168000  0.36851000  0.08467000  1.0
  C  C31  1  0.58577000  0.62924000  0.92431000  1.0
  C  C32  1  0.48284000  0.49269000  0.05095000  1.0
  C  C33  1  0.48404000  0.50540000  0.95801000  1.0
  C  C34  1  0.58076000  0.60344000  0.11160000  1.0
  C  C35  1  0.56315000  0.77893000  0.49952000  1.0
  C  C36  1  0.38750000  0.39385000  0.89737000  1.0
  C  C37  1  0.28640000  0.25952000  0.02175000  1.0
  C  C38  1  0.68058000  0.73862000  0.98715000  1.0
  C  C39  1  0.19000000  0.00717000  0.88474000  1.0
  C  C40  1  0.78383000  0.99040000  0.12328000  1.0
  C  C41  1  0.16577000  0.05380000  0.42330000  1.0
  C  C42  1  0.80555000  0.97418000  0.63328000  1.0
  C  C43  1  0.08562000  0.64870000  0.34425000  1.0
  C  C44  1  0.95829000  0.35824000  0.66478000  1.0
  C  C45  1  0.28801000  0.26687000  0.93138000  1.0
  C  C46  1  0.67946000  0.73115000  0.07757000  1.0
  C  C47  1  0.45235000  0.03453000  0.49615000  1.0
  C  C48  1  0.58062000  0.94573000  0.51535000  1.0
  C  C49  1  0.49825000  0.53310000  0.67559000  1.0
  C  C50  1  0.48693000  0.45346000  0.33354000  1.0
  C  C51  1  0.58038000  0.58588000  0.20295000  1.0
  N  N52  1  0.06131000  0.51672000  0.47413000  1.0
  N  N53  1  0.95756000  0.46783000  0.52767000  1.0
  O  O54  1  0.62998000  0.27021000  0.50295000  1.0
  O  O55  1  0.76864000  0.83193000  0.13994000  1.0
  O  O56  1  0.29474000  0.96873000  0.46310000  1.0
  O  O57  1  0.74186000  0.01324000  0.54648000  1.0
  O  O58  1  0.98414000  0.60488000  0.41660000  1.0
  O  O59  1  0.03214000  0.36978000  0.58064000  1.0
  O  O60  1  0.41663000  0.70447000  0.47574000  1.0
  O  O61  1  0.35506000  0.26707000  0.53470000  1.0
  O  O62  1  0.70330000  0.72109000  0.51199000  1.0
  O  O63  1  0.64109000  0.51998000  0.64532000  1.0
  O  O64  1  0.34733000  0.41285000  0.36785000  1.0
  O  O65  1  0.35628000  0.54414000  0.63102000  1.0
  O  O66  1  0.63330000  0.48912000  0.37540000  1.0
  O  O67  1  0.19866000  0.16577000  0.86907000  1.0
  F  F68  1  0.18749000  0.14324000  0.05562000  1.0
  F  F69  1  0.77975000  0.85456000  0.95304000  1.0
