# generated using pymatgen
data_CdH13C11N3O7
_symmetry_space_group_name_H-M   'P 1'
_cell_length_a   7.70394000
_cell_length_b   7.88356000
_cell_length_c   24.87120000
_cell_angle_alpha   90.00040000
_cell_angle_beta   89.99920000
_cell_angle_gamma   89.99960000
_symmetry_Int_Tables_number   1
_chemical_formula_structural   CdH13C11N3O7
_chemical_formula_sum   'Cd4 H52 C44 N12 O28'
_cell_volume   1510.53923029
_cell_formula_units_Z   4
loop_
 _symmetry_equiv_pos_site_id
 _symmetry_equiv_pos_as_xyz
  1  'x, y, z'
loop_
 _atom_site_type_symbol
 _atom_site_label
 _atom_site_symmetry_multiplicity
 _atom_site_fract_x
 _atom_site_fract_y
 _atom_site_fract_z
 _atom_site_occupancy
  Cd  Cd0  1  0.82552000  0.00985000  0.28967000  1.0
  Cd  Cd1  1  0.67448000  0.99014000  0.78967000  1.0
  Cd  Cd2  1  0.17446000  0.50986000  0.21033000  1.0
  Cd  Cd3  1  0.32554000  0.49013000  0.71033000  1.0
  H  H4  1  0.71805000  0.38766000  0.44557000  1.0
  H  H5  1  0.78193000  0.61236000  0.94557000  1.0
  H  H6  1  0.28192000  0.88764000  0.05443000  1.0
  H  H7  1  0.21807000  0.11235000  0.55443000  1.0
  H  H8  1  0.51969000  0.43545000  0.41331000  1.0
  H  H9  1  0.98030000  0.56455000  0.91331000  1.0
  H  H10  1  0.48029000  0.93544000  0.08669000  1.0
  H  H11  1  0.01970000  0.06455000  0.58670000  1.0
  H  H12  1  0.55360000  0.50055000  0.48161000  1.0
  H  H13  1  0.94638000  0.49945000  0.98161000  1.0
  H  H14  1  0.44638000  0.00053000  0.01838000  1.0
  H  H15  1  0.05362000  0.99945000  0.51839000  1.0
  H  H16  1  0.83723000  0.56971000  0.53315000  1.0
  H  H17  1  0.66275000  0.43030000  0.03316000  1.0
  H  H18  1  0.16278000  0.06971000  0.96683000  1.0
  H  H19  1  0.33723000  0.93028000  0.46684000  1.0
  H  H20  1  0.80868000  0.63211000  0.63090000  1.0
  H  H21  1  0.69130000  0.36789000  0.13091000  1.0
  H  H22  1  0.19134000  0.13214000  0.86908000  1.0
  H  H23  1  0.30866000  0.86787000  0.36909000  1.0
  H  H24  1  0.61082000  0.05454000  0.49543000  1.0
  H  H25  1  0.88917000  0.94546000  0.99543000  1.0
  H  H26  1  0.38917000  0.55453000  0.00458000  1.0
  H  H27  1  0.11083000  0.44546000  0.50458000  1.0
  H  H28  1  0.57777000  0.11583000  0.59366000  1.0
  H  H29  1  0.92221000  0.88417000  0.09366000  1.0
  H  H30  1  0.42223000  0.61585000  0.90635000  1.0
  H  H31  1  0.07776000  0.38417000  0.40635000  1.0
  H  H32  1  0.74655000  0.33373000  0.33321000  1.0
  H  H33  1  0.75346000  0.66627000  0.83321000  1.0
  H  H34  1  0.25344000  0.83374000  0.16679000  1.0
  H  H35  1  0.24657000  0.16626000  0.66679000  1.0
  H  H36  1  0.94946000  0.31614000  0.33142000  1.0
  H  H37  1  0.55055000  0.68387000  0.83142000  1.0
  H  H38  1  0.05052000  0.81616000  0.16858000  1.0
  H  H39  1  0.44949000  0.18384000  0.66858000  1.0
  H  H40  1  0.17706000  0.09363000  0.27404000  1.0
  H  H41  1  0.32296000  0.90638000  0.77404000  1.0
  H  H42  1  0.82293000  0.59363000  0.22596000  1.0
  H  H43  1  0.67708000  0.40636000  0.72596000  1.0
  H  H44  1  0.16749000  0.90134000  0.29447000  1.0
  H  H45  1  0.33253000  0.09867000  0.79447000  1.0
  H  H46  1  0.83250000  0.40135000  0.20552000  1.0
  H  H47  1  0.66751000  0.59865000  0.70552000  1.0
  H  H48  1  0.47804000  0.14545000  0.29363000  1.0
  H  H49  1  0.02196000  0.85455000  0.79363000  1.0
  H  H50  1  0.52194000  0.64545000  0.20638000  1.0
  H  H51  1  0.97806000  0.35455000  0.70637000  1.0
  H  H52  1  0.47614000  0.99295000  0.25511000  1.0
  H  H53  1  0.02387000  0.00705000  0.75512000  1.0
  H  H54  1  0.52385000  0.49294000  0.24488000  1.0
  H  H55  1  0.97616000  0.50705000  0.74489000  1.0
  C  C56  1  0.68188000  0.62920000  0.31562000  1.0
  C  C57  1  0.81812000  0.37080000  0.81562000  1.0
  C  C58  1  0.31811000  0.12920000  0.18438000  1.0
  C  C59  1  0.18191000  0.87079000  0.68438000  1.0
  C  C60  1  0.71840000  0.70252000  0.36939000  1.0
  C  C61  1  0.78159000  0.29749000  0.86940000  1.0
  C  C62  1  0.28157000  0.20250000  0.13060000  1.0
  C  C63  1  0.21844000  0.79748000  0.63061000  1.0
  C  C64  1  0.68732000  0.64564000  0.42153000  1.0
  C  C65  1  0.81266000  0.35437000  0.92153000  1.0
  C  C66  1  0.31265000  0.14562000  0.07847000  1.0
  C  C67  1  0.18735000  0.85437000  0.57847000  1.0
  C  C68  1  0.61503000  0.48397000  0.44217000  1.0
  C  C69  1  0.88496000  0.51605000  0.94217000  1.0
  C  C70  1  0.38495000  0.98395000  0.05783000  1.0
  C  C71  1  0.11505000  0.01604000  0.55784000  1.0
  C  C72  1  0.72203000  0.80742000  0.50907000  1.0
  C  C73  1  0.77794000  0.19258000  0.00908000  1.0
  C  C74  1  0.27796000  0.30742000  0.99093000  1.0
  C  C75  1  0.22204000  0.69257000  0.49093000  1.0
  C  C76  1  0.77799000  0.68765000  0.54661000  1.0
  C  C77  1  0.72201000  0.31236000  0.04661000  1.0
  C  C78  1  0.22203000  0.18765000  0.95338000  1.0
  C  C79  1  0.27798000  0.81234000  0.45339000  1.0
  C  C80  1  0.76218000  0.72330000  0.60130000  1.0
  C  C81  1  0.73780000  0.27671000  0.10130000  1.0
  C  C82  1  0.23784000  0.22331000  0.89869000  1.0
  C  C83  1  0.26216000  0.77669000  0.39870000  1.0
  C  C84  1  0.65067000  0.96233000  0.52563000  1.0
  C  C85  1  0.84930000  0.03767000  0.02563000  1.0
  C  C86  1  0.34932000  0.46233000  0.97437000  1.0
  C  C87  1  0.15067000  0.53767000  0.47437000  1.0
  C  C88  1  0.63408000  0.99630000  0.58019000  1.0
  C  C89  1  0.86591000  0.00371000  0.08019000  1.0
  C  C90  1  0.36593000  0.49630000  0.91981000  1.0
  C  C91  1  0.13408000  0.50370000  0.41981000  1.0
  C  C92  1  0.68919000  0.87695000  0.61845000  1.0
  C  C93  1  0.81079000  0.12306000  0.11845000  1.0
  C  C94  1  0.31084000  0.37697000  0.88154000  1.0
  C  C95  1  0.18917000  0.62304000  0.38155000  1.0
  C  C96  1  0.67238000  0.91641000  0.67728000  1.0
  C  C97  1  0.82760000  0.08358000  0.17728000  1.0
  C  C98  1  0.32766000  0.41647000  0.82272000  1.0
  C  C99  1  0.17235000  0.58356000  0.32272000  1.0
  N  N100  1  0.78782000  0.86165000  0.37260000  1.0
  N  N101  1  0.71216000  0.13836000  0.87260000  1.0
  N  N102  1  0.21215000  0.36164000  0.12740000  1.0
  N  N103  1  0.28785000  0.63834000  0.62740000  1.0
  N  N104  1  0.80050000  0.91076000  0.42225000  1.0
  N  N105  1  0.69948000  0.08925000  0.92226000  1.0
  N  N106  1  0.19948000  0.41074000  0.07774000  1.0
  N  N107  1  0.30051000  0.58924000  0.57775000  1.0
  N  N108  1  0.73963000  0.77926000  0.45282000  1.0
  N  N109  1  0.76035000  0.22075000  0.95282000  1.0
  N  N110  1  0.26035000  0.27924000  0.04718000  1.0
  N  N111  1  0.23964000  0.72074000  0.54718000  1.0
  O  O112  1  0.84235000  0.25550000  0.34312000  1.0
  O  O113  1  0.65767000  0.74451000  0.84312000  1.0
  O  O114  1  0.15764000  0.75551000  0.15688000  1.0
  O  O115  1  0.34238000  0.24448000  0.65688000  1.0
  O  O116  1  0.11845000  0.01732000  0.30025000  1.0
  O  O117  1  0.38156000  0.98268000  0.80025000  1.0
  O  O118  1  0.88154000  0.51733000  0.19975000  1.0
  O  O119  1  0.61848000  0.48266000  0.69975000  1.0
  O  O120  1  0.51962000  0.02869000  0.29128000  1.0
  O  O121  1  0.98038000  0.97130000  0.79128000  1.0
  O  O122  1  0.48037000  0.52870000  0.20872000  1.0
  O  O123  1  0.01964000  0.47130000  0.70872000  1.0
  O  O124  1  0.73183000  0.71679000  0.27530000  1.0
  O  O125  1  0.76818000  0.28320000  0.77530000  1.0
  O  O126  1  0.26816000  0.21680000  0.22470000  1.0
  O  O127  1  0.23187000  0.78320000  0.72470000  1.0
  O  O128  1  0.60415000  0.48711000  0.31212000  1.0
  O  O129  1  0.89586000  0.51288000  0.81212000  1.0
  O  O130  1  0.39584000  0.98712000  0.18787000  1.0
  O  O131  1  0.10418000  0.01288000  0.68788000  1.0
  O  O132  1  0.61809000  0.06185000  0.69163000  1.0
  O  O133  1  0.88191000  0.93815000  0.19163000  1.0
  O  O134  1  0.38194000  0.56191000  0.80838000  1.0
  O  O135  1  0.11806000  0.43812000  0.30838000  1.0
  O  O136  1  0.71584000  0.80362000  0.71168000  1.0
  O  O137  1  0.78415000  0.19637000  0.21168000  1.0
  O  O138  1  0.28422000  0.30367000  0.78832000  1.0
  O  O139  1  0.21581000  0.69635000  0.28832000  1.0
