# generated using pymatgen
data_LaH15C22S2(NO4)2
_symmetry_space_group_name_H-M   'P 1'
_cell_length_a   8.90428000
_cell_length_b   11.98730000
_cell_length_c   12.81200000
_cell_angle_alpha   104.97200000
_cell_angle_beta   108.35600000
_cell_angle_gamma   101.32000000
_symmetry_Int_Tables_number   1
_chemical_formula_structural   LaH15C22S2(NO4)2
_chemical_formula_sum   'La2 H30 C44 S4 N4 O16'
_cell_volume   1195.01643352
_cell_formula_units_Z   2
loop_
 _symmetry_equiv_pos_site_id
 _symmetry_equiv_pos_as_xyz
  1  'x, y, z'
loop_
 _atom_site_type_symbol
 _atom_site_label
 _atom_site_symmetry_multiplicity
 _atom_site_fract_x
 _atom_site_fract_y
 _atom_site_fract_z
 _atom_site_occupancy
  La  La0  1  0.54372000  0.42358000  0.35668000  1.0
  La  La1  1  0.45628000  0.57642000  0.64332000  1.0
  H  H2  1  0.88557000  0.30529000  0.77622000  1.0
  H  H3  1  0.11444000  0.69471000  0.22378000  1.0
  H  H4  1  0.81291000  0.12274000  0.84215000  1.0
  H  H5  1  0.18709000  0.87725000  0.15786000  1.0
  H  H6  1  0.32980000  0.85948000  0.65056000  1.0
  H  H7  1  0.67019000  0.14052000  0.34944000  1.0
  H  H8  1  0.25000000  0.98162000  0.52225000  1.0
  H  H9  1  0.75001000  0.01838000  0.47775000  1.0
  H  H10  1  0.30351000  0.16756000  0.48045000  1.0
  H  H11  1  0.69649000  0.83244000  0.51955000  1.0
  H  H12  1  0.93049000  0.63171000  0.49767000  1.0
  H  H13  1  0.06952000  0.36829000  0.50232000  1.0
  H  H14  1  0.10508000  0.83000000  0.51656000  1.0
  H  H15  1  0.89493000  0.16999000  0.48343000  1.0
  H  H16  1  0.00809000  0.92188000  0.36031000  1.0
  H  H17  1  0.99192000  0.07812000  0.63969000  1.0
  H  H18  1  0.78620000  0.90737000  0.17369000  1.0
  H  H19  1  0.21380000  0.09263000  0.82630000  1.0
  H  H20  1  0.50737000  0.80253000  0.02033000  1.0
  H  H21  1  0.49263000  0.19747000  0.97966000  1.0
  H  H22  1  0.24495000  0.62558000  0.93010000  1.0
  H  H23  1  0.75505000  0.37443000  0.06989000  1.0
  H  H24  1  0.09119000  0.42791000  0.92868000  1.0
  H  H25  1  0.90881000  0.57210000  0.07131000  1.0
  H  H26  1  0.22496000  0.34530000  0.08377000  1.0
  H  H27  1  0.77504000  0.65471000  0.91622000  1.0
  H  H28  1  0.83186000  0.38462000  0.26652000  1.0
  H  H29  1  0.16814000  0.61538000  0.73348000  1.0
  H  H30  1  0.67780000  0.25708000  0.21007000  1.0
  H  H31  1  0.32219000  0.74292000  0.78993000  1.0
  C  C32  1  0.70183000  0.34539000  0.64959000  1.0
  C  C33  1  0.29818000  0.65461000  0.35041000  1.0
  C  C34  1  0.75702000  0.27523000  0.71430000  1.0
  C  C35  1  0.24298000  0.72477000  0.28570000  1.0
  C  C36  1  0.64707000  0.16394000  0.69996000  1.0
  C  C37  1  0.35293000  0.83606000  0.30004000  1.0
  C  C38  1  0.69075000  0.09277000  0.77134000  1.0
  C  C39  1  0.30925000  0.90723000  0.22866000  1.0
  C  C40  1  0.57585000  0.98690000  0.75371000  1.0
  C  C41  1  0.42415000  0.01309000  0.24630000  1.0
  C  C42  1  0.41628000  0.94435000  0.66243000  1.0
  C  C43  1  0.58372000  0.05565000  0.33757000  1.0
  C  C44  1  0.37205000  0.01132000  0.59248000  1.0
  C  C45  1  0.62795000  0.98868000  0.40752000  1.0
  C  C46  1  0.48272000  0.12354000  0.61073000  1.0
  C  C47  1  0.51728000  0.87646000  0.38927000  1.0
  C  C48  1  0.42984000  0.19681000  0.54577000  1.0
  C  C49  1  0.57016000  0.80319000  0.45423000  1.0
  C  C50  1  0.53312000  0.30999000  0.56781000  1.0
  C  C51  1  0.46688000  0.69001000  0.43219000  1.0
  C  C52  1  0.88965000  0.67354000  0.43201000  1.0
  C  C53  1  0.11035000  0.32645000  0.56798000  1.0
  C  C54  1  0.98818000  0.78543000  0.44166000  1.0
  C  C55  1  0.01182000  0.21457000  0.55834000  1.0
  C  C56  1  0.93453000  0.83517000  0.35605000  1.0
  C  C57  1  0.06547000  0.16483000  0.64394000  1.0
  C  C58  1  0.78050000  0.77347000  0.26114000  1.0
  C  C59  1  0.21950000  0.22653000  0.73886000  1.0
  C  C60  1  0.71329000  0.82179000  0.17188000  1.0
  C  C61  1  0.28671000  0.17821000  0.82811000  1.0
  C  C62  1  0.55844000  0.76338000  0.08642000  1.0
  C  C63  1  0.44156000  0.23662000  0.91357000  1.0
  C  C64  1  0.46175000  0.65044000  0.08202000  1.0
  C  C65  1  0.53825000  0.34956000  0.91798000  1.0
  C  C66  1  0.30073000  0.58750000  0.99570000  1.0
  C  C67  1  0.69927000  0.41251000  0.00430000  1.0
  C  C68  1  0.21512000  0.47765000  0.99491000  1.0
  C  C69  1  0.78488000  0.52236000  0.00509000  1.0
  C  C70  1  0.28969000  0.43129000  0.08128000  1.0
  C  C71  1  0.71031000  0.56872000  0.91871000  1.0
  C  C72  1  0.52651000  0.59742000  0.16680000  1.0
  C  C73  1  0.47349000  0.40258000  0.83320000  1.0
  C  C74  1  0.68780000  0.66122000  0.25938000  1.0
  C  C75  1  0.31220000  0.33879000  0.74062000  1.0
  S  S76  1  0.83032000  0.48343000  0.65775000  1.0
  S  S77  1  0.16968000  0.51656000  0.34225000  1.0
  S  S78  1  0.61628000  0.89899000  0.84611000  1.0
  S  S79  1  0.38373000  0.10102000  0.15391000  1.0
  N  N80  1  0.74380000  0.61309000  0.34389000  1.0
  N  N81  1  0.25620000  0.38691000  0.65610000  1.0
  N  N82  1  0.44001000  0.48979000  0.16574000  1.0
  N  N83  1  0.55998000  0.51022000  0.83426000  1.0
  O  O84  1  0.00006000  0.50343000  0.73695000  1.0
  O  O85  1  0.99994000  0.49655000  0.26305000  1.0
  O  O86  1  0.76001000  0.57948000  0.69964000  1.0
  O  O87  1  0.24000000  0.42051000  0.30037000  1.0
  O  O88  1  0.81404000  0.46432000  0.53476000  1.0
  O  O89  1  0.18597000  0.53569000  0.46524000  1.0
  O  O90  1  0.47009000  0.87642000  0.87778000  1.0
  O  O91  1  0.52989000  0.12358000  0.12222000  1.0
  O  O92  1  0.61480000  0.78198000  0.76525000  1.0
  O  O93  1  0.38521000  0.21802000  0.23477000  1.0
  O  O94  1  0.77448000  0.96212000  0.94214000  1.0
  O  O95  1  0.22550000  0.03788000  0.05788000  1.0
  O  O96  1  0.47816000  0.38668000  0.51699000  1.0
  O  O97  1  0.52184000  0.61331000  0.48301000  1.0
  O  O98  1  0.73390000  0.33780000  0.27422000  1.0
  O  O99  1  0.26610000  0.66220000  0.72578000  1.0
