# generated using pymatgen
data_MgH8C12(NO2)2
_symmetry_space_group_name_H-M   'P 1'
_cell_length_a   9.95095000
_cell_length_b   10.50700000
_cell_length_c   13.19200000
_cell_angle_alpha   89.99970000
_cell_angle_beta   90.00000000
_cell_angle_gamma   102.78000000
_symmetry_Int_Tables_number   1
_chemical_formula_structural   MgH8C12(NO2)2
_chemical_formula_sum   'Mg4 H32 C48 N8 O16'
_cell_volume   1345.11517036
_cell_formula_units_Z   4
loop_
 _symmetry_equiv_pos_site_id
 _symmetry_equiv_pos_as_xyz
  1  'x, y, z'
loop_
 _atom_site_type_symbol
 _atom_site_label
 _atom_site_symmetry_multiplicity
 _atom_site_fract_x
 _atom_site_fract_y
 _atom_site_fract_z
 _atom_site_occupancy
  Mg  Mg0  1  0.62716000  0.74970000  0.76312000  1.0
  Mg  Mg1  1  0.37283000  0.25030000  0.26312000  1.0
  Mg  Mg2  1  0.12028000  0.75091000  0.76185000  1.0
  Mg  Mg3  1  0.87972000  0.24909000  0.26185000  1.0
  H  H4  1  0.11268000  0.99487000  0.52777000  1.0
  H  H5  1  0.88731000  0.00512000  0.02777000  1.0
  H  H6  1  0.09200000  0.12931000  0.37213000  1.0
  H  H7  1  0.90799000  0.87068000  0.87213000  1.0
  H  H8  1  0.69198000  0.99906000  0.59802000  1.0
  H  H9  1  0.30801000  0.00093000  0.09801000  1.0
  H  H10  1  0.68683000  0.13224000  0.43884000  1.0
  H  H11  1  0.31316000  0.86776000  0.93884000  1.0
  H  H12  1  0.05677000  0.50122000  0.92324000  1.0
  H  H13  1  0.94323000  0.49878000  0.42325000  1.0
  H  H14  1  0.06401000  0.36306000  0.07941000  1.0
  H  H15  1  0.93600000  0.63693000  0.57941000  1.0
  H  H16  1  0.63705000  0.50287000  0.99924000  1.0
  H  H17  1  0.36295000  0.49713000  0.49922000  1.0
  H  H18  1  0.66252000  0.37181000  0.15459000  1.0
  H  H19  1  0.33749000  0.62820000  0.65457000  1.0
  H  H20  1  0.37026000  0.34895000  0.86841000  1.0
  H  H21  1  0.62974000  0.65105000  0.36841000  1.0
  H  H22  1  0.37845000  0.21850000  0.02676000  1.0
  H  H23  1  0.62155000  0.78149000  0.52676000  1.0
  H  H24  1  0.32260000  0.66930000  0.05979000  1.0
  H  H25  1  0.67742000  0.33071000  0.55979000  1.0
  H  H26  1  0.34716000  0.52931000  0.20974000  1.0
  H  H27  1  0.65284000  0.47069000  0.70974000  1.0
  H  H28  1  0.39271000  0.82096000  0.46766000  1.0
  H  H29  1  0.60729000  0.17906000  0.96764000  1.0
  H  H30  1  0.37641000  0.96272000  0.31749000  1.0
  H  H31  1  0.62359000  0.03728000  0.81748000  1.0
  H  H32  1  0.38622000  0.15411000  0.65767000  1.0
  H  H33  1  0.61379000  0.84592000  0.15767000  1.0
  H  H34  1  0.37611000  0.28272000  0.49874000  1.0
  H  H35  1  0.62389000  0.71730000  0.99875000  1.0
  C  C36  1  0.91153000  0.90420000  0.66625000  1.0
  C  C37  1  0.08849000  0.09578000  0.16625000  1.0
  C  C38  1  0.90400000  0.98853000  0.57439000  1.0
  C  C39  1  0.09599000  0.01146000  0.07439000  1.0
  C  C40  1  0.01768000  0.02541000  0.51037000  1.0
  C  C41  1  0.98232000  0.97458000  0.01037000  1.0
  C  C42  1  0.00641000  0.09990000  0.42494000  1.0
  C  C43  1  0.99358000  0.90009000  0.92494000  1.0
  C  C44  1  0.78279000  0.02848000  0.55005000  1.0
  C  C45  1  0.21721000  0.97151000  0.05005000  1.0
  C  C46  1  0.77989000  0.10166000  0.46256000  1.0
  C  C47  1  0.22009000  0.89833000  0.96256000  1.0
  C  C48  1  0.83525000  0.59606000  0.85789000  1.0
  C  C49  1  0.16476000  0.40393000  0.35789000  1.0
  C  C50  1  0.84571000  0.51200000  0.94975000  1.0
  C  C51  1  0.15429000  0.48801000  0.44974000  1.0
  C  C52  1  0.96709000  0.47149000  0.97220000  1.0
  C  C53  1  0.03291000  0.52850000  0.47220000  1.0
  C  C54  1  0.97139000  0.39647000  0.05875000  1.0
  C  C55  1  0.02861000  0.60353000  0.55875000  1.0
  C  C56  1  0.73356000  0.47433000  0.01536000  1.0
  C  C57  1  0.26645000  0.52567000  0.51535000  1.0
  C  C58  1  0.74692000  0.40027000  0.10060000  1.0
  C  C59  1  0.25309000  0.59973000  0.60059000  1.0
  C  C60  1  0.33821000  0.60140000  0.85817000  1.0
  C  C61  1  0.66177000  0.39859000  0.35816000  1.0
  C  C62  1  0.34700000  0.52051000  0.95152000  1.0
  C  C63  1  0.65301000  0.47949000  0.45152000  1.0
  C  C64  1  0.36302000  0.39206000  0.94278000  1.0
  C  C65  1  0.63698000  0.60794000  0.44278000  1.0
  C  C66  1  0.36869000  0.31967000  0.03035000  1.0
  C  C67  1  0.63131000  0.68033000  0.53035000  1.0
  C  C68  1  0.33831000  0.57077000  0.04901000  1.0
  C  C69  1  0.66171000  0.42923000  0.54901000  1.0
  C  C70  1  0.35029000  0.49315000  0.13250000  1.0
  C  C71  1  0.64972000  0.50686000  0.63250000  1.0
  C  C72  1  0.40837000  0.89855000  0.66950000  1.0
  C  C73  1  0.59162000  0.10147000  0.16949000  1.0
  C  C74  1  0.39390000  0.97720000  0.57555000  1.0
  C  C75  1  0.60611000  0.02283000  0.07554000  1.0
  C  C76  1  0.38990000  0.92318000  0.47821000  1.0
  C  C77  1  0.61011000  0.07683000  0.97820000  1.0
  C  C78  1  0.38114000  0.00153000  0.39445000  1.0
  C  C79  1  0.61886000  0.99848000  0.89444000  1.0
  C  C80  1  0.38698000  0.10841000  0.58354000  1.0
  C  C81  1  0.61302000  0.89161000  0.08354000  1.0
  C  C82  1  0.38092000  0.18020000  0.49564000  1.0
  C  C83  1  0.61908000  0.81981000  0.99564000  1.0
  N  N84  1  0.88944000  0.13739000  0.40085000  1.0
  N  N85  1  0.11055000  0.86260000  0.90085000  1.0
  N  N86  1  0.86402000  0.36152000  0.12263000  1.0
  N  N87  1  0.13600000  0.63848000  0.62262000  1.0
  N  N88  1  0.36443000  0.36902000  0.12421000  1.0
  N  N89  1  0.63557000  0.63099000  0.62421000  1.0
  N  N90  1  0.37866000  0.12884000  0.40196000  1.0
  N  N91  1  0.62133000  0.87117000  0.90196000  1.0
  O  O92  1  0.80538000  0.87528000  0.72213000  1.0
  O  O93  1  0.19461000  0.12471000  0.22213000  1.0
  O  O94  1  0.02427000  0.87006000  0.67967000  1.0
  O  O95  1  0.97572000  0.12993000  0.17968000  1.0
  O  O96  1  0.72127000  0.63058000  0.84796000  1.0
  O  O97  1  0.27872000  0.36942000  0.34795000  1.0
  O  O98  1  0.93715000  0.62394000  0.79867000  1.0
  O  O99  1  0.06283000  0.37605000  0.29867000  1.0
  O  O100  1  0.44269000  0.62537000  0.80101000  1.0
  O  O101  1  0.55731000  0.37463000  0.30102000  1.0
  O  O102  1  0.22537000  0.63513000  0.84534000  1.0
  O  O103  1  0.77464000  0.36487000  0.34534000  1.0
  O  O104  1  0.52259000  0.86430000  0.67711000  1.0
  O  O105  1  0.47742000  0.13571000  0.17710000  1.0
  O  O106  1  0.31066000  0.87712000  0.73205000  1.0
  O  O107  1  0.68935000  0.12288000  0.23205000  1.0
