# generated using pymatgen
data_ZnH15C15(NO)7
_symmetry_space_group_name_H-M   'P 1'
_cell_length_a   10.02310000
_cell_length_b   10.29160000
_cell_length_c   11.01590000
_cell_angle_alpha   69.79710000
_cell_angle_beta   78.18190000
_cell_angle_gamma   65.84700000
_symmetry_Int_Tables_number   1
_chemical_formula_structural   ZnH15C15(NO)7
_chemical_formula_sum   'Zn2 H30 C30 N14 O14'
_cell_volume   970.38160477
_cell_formula_units_Z   2
loop_
 _symmetry_equiv_pos_site_id
 _symmetry_equiv_pos_as_xyz
  1  'x, y, z'
loop_
 _atom_site_type_symbol
 _atom_site_label
 _atom_site_symmetry_multiplicity
 _atom_site_fract_x
 _atom_site_fract_y
 _atom_site_fract_z
 _atom_site_occupancy
  Zn  Zn0  1  0.41800000  0.95714000  0.28047000  1.0
  Zn  Zn1  1  0.58199000  0.04286000  0.71953000  1.0
  H  H2  1  0.57421000  0.80756000  0.50556000  1.0
  H  H3  1  0.42579000  0.19244000  0.49444000  1.0
  H  H4  1  0.55687000  0.71494000  0.42509000  1.0
  H  H5  1  0.44313000  0.28506000  0.57491000  1.0
  H  H6  1  0.24964000  0.14425000  0.76843000  1.0
  H  H7  1  0.75036000  0.85574000  0.23157000  1.0
  H  H8  1  0.08078000  0.29344000  0.78163000  1.0
  H  H9  1  0.91922000  0.70656000  0.21836000  1.0
  H  H10  1  0.95519000  0.10865000  0.88062000  1.0
  H  H11  1  0.04480000  0.89135000  0.11938000  1.0
  H  H12  1  0.11742000  0.96442000  0.84793000  1.0
  H  H13  1  0.88258000  0.03558000  0.15207000  1.0
  H  H14  1  0.90262000  0.10806000  0.68769000  1.0
  H  H15  1  0.09738000  0.89194000  0.31231000  1.0
  H  H16  1  0.98450000  0.24339000  0.62665000  1.0
  H  H17  1  0.01549000  0.75662000  0.37335000  1.0
  H  H18  1  0.05519000  0.21174000  0.22730000  1.0
  H  H19  1  0.94481000  0.78827000  0.77270000  1.0
  H  H20  1  0.38147000  0.98609000  0.98396000  1.0
  H  H21  1  0.61853000  0.01390000  0.01604000  1.0
  H  H22  1  0.27480000  0.73876000  0.51873000  1.0
  H  H23  1  0.72521000  0.26123000  0.48128000  1.0
  H  H24  1  0.19300000  0.19217000  0.44690000  1.0
  H  H25  1  0.80699000  0.80784000  0.55309000  1.0
  H  H26  1  0.45070000  0.41761000  0.33642000  1.0
  H  H27  1  0.54930000  0.58238000  0.66359000  1.0
  H  H28  1  0.68186000  0.65214000  0.02735000  1.0
  H  H29  1  0.31812000  0.34787000  0.97265000  1.0
  H  H30  1  0.68332000  0.23499000  0.02164000  1.0
  H  H31  1  0.31668000  0.76501000  0.97835000  1.0
  C  C32  1  0.14181000  0.17367000  0.82163000  1.0
  C  C33  1  0.85819000  0.82633000  0.17836000  1.0
  C  C34  1  0.05453000  0.08466000  0.81485000  1.0
  C  C35  1  0.94547000  0.91534000  0.18515000  1.0
  C  C36  1  0.00521000  0.12570000  0.67940000  1.0
  C  C37  1  0.99478000  0.87430000  0.32060000  1.0
  C  C38  1  0.11457000  0.17558000  0.14360000  1.0
  C  C39  1  0.88543000  0.82443000  0.85639000  1.0
  C  C40  1  0.28238000  0.05921000  0.02283000  1.0
  C  C41  1  0.71762000  0.94079000  0.97718000  1.0
  C  C42  1  0.22905000  0.85064000  0.52839000  1.0
  C  C43  1  0.77095000  0.14936000  0.47161000  1.0
  C  C44  1  0.18998000  0.08126000  0.48842000  1.0
  C  C45  1  0.81001000  0.91875000  0.51157000  1.0
  C  C46  1  0.56435000  0.30919000  0.18804000  1.0
  C  C47  1  0.43565000  0.69081000  0.81196000  1.0
  C  C48  1  0.52160000  0.42190000  0.24713000  1.0
  C  C49  1  0.47840000  0.57809000  0.75288000  1.0
  C  C50  1  0.56216000  0.54591000  0.19010000  1.0
  C  C51  1  0.43783000  0.45408000  0.80991000  1.0
  C  C52  1  0.65136000  0.55538000  0.07451000  1.0
  C  C53  1  0.34863000  0.44462000  0.92550000  1.0
  C  C54  1  0.69552000  0.44070000  0.01780000  1.0
  C  C55  1  0.30447000  0.55931000  0.98220000  1.0
  C  C56  1  0.65206000  0.31896000  0.07136000  1.0
  C  C57  1  0.34794000  0.68105000  0.92864000  1.0
  C  C58  1  0.50681000  0.18542000  0.24605000  1.0
  C  C59  1  0.49320000  0.81457000  0.75396000  1.0
  C  C60  1  0.50306000  0.66850000  0.25381000  1.0
  C  C61  1  0.49693000  0.33149000  0.74621000  1.0
  N  N62  1  0.16419000  0.15002000  0.95562000  1.0
  N  N63  1  0.83582000  0.84998000  0.04438000  1.0
  N  N64  1  0.05511000  0.22457000  0.03163000  1.0
  N  N65  1  0.94489000  0.77543000  0.96836000  1.0
  N  N66  1  0.25461000  0.07290000  0.14308000  1.0
  N  N67  1  0.74538000  0.92710000  0.85691000  1.0
  N  N68  1  0.11013000  0.03782000  0.59704000  1.0
  N  N69  1  0.88987000  0.96218000  0.40296000  1.0
  N  N70  1  0.13345000  0.89071000  0.62392000  1.0
  N  N71  1  0.86656000  0.10929000  0.37608000  1.0
  N  N72  1  0.26687000  0.96483000  0.44222000  1.0
  N  N73  1  0.73313000  0.03517000  0.55778000  1.0
  N  N74  1  0.78245000  0.45382000  0.89253000  1.0
  N  N75  1  0.21755000  0.54619000  0.10747000  1.0
  O  O76  1  0.42609000  0.18062000  0.35040000  1.0
  O  O77  1  0.57393000  0.81936000  0.64961000  1.0
  O  O78  1  0.53817000  0.09019000  0.18398000  1.0
  O  O79  1  0.46183000  0.90981000  0.81601000  1.0
  O  O80  1  0.50914000  0.79566000  0.18436000  1.0
  O  O81  1  0.49086000  0.20434000  0.81565000  1.0
  O  O82  1  0.45273000  0.63946000  0.37054000  1.0
  O  O83  1  0.54727000  0.36053000  0.62947000  1.0
  O  O84  1  0.83472000  0.55261000  0.85246000  1.0
  O  O85  1  0.16528000  0.44740000  0.14754000  1.0
  O  O86  1  0.79645000  0.36653000  0.83185000  1.0
  O  O87  1  0.20354000  0.63347000  0.16816000  1.0
  O  O88  1  0.58927000  0.79689000  0.41644000  1.0
  O  O89  1  0.41073000  0.20311000  0.58356000  1.0
