# generated using pymatgen
data_Zn2H14C33Br6N6O11
_symmetry_space_group_name_H-M   'P 1'
_cell_length_a   11.20520000
_cell_length_b   16.00000000
_cell_length_c   17.20180000
_cell_angle_alpha   96.01340000
_cell_angle_beta   90.40690000
_cell_angle_gamma   93.55250000
_symmetry_Int_Tables_number   1
_chemical_formula_structural   Zn2H14C33Br6N6O11
_chemical_formula_sum   'Zn2 H14 C33 Br6 N6 O11'
_cell_volume   3060.84330871
_cell_formula_units_Z   1
loop_
 _symmetry_equiv_pos_site_id
 _symmetry_equiv_pos_as_xyz
  1  'x, y, z'
loop_
 _atom_site_type_symbol
 _atom_site_label
 _atom_site_symmetry_multiplicity
 _atom_site_fract_x
 _atom_site_fract_y
 _atom_site_fract_z
 _atom_site_occupancy
  Zn  Zn0  1  0.51805000  0.58737000  0.49408000  1.0
  Zn  Zn1  1  0.50366000  0.40888000  0.49309000  1.0
  H  H2  1  0.88463000  0.38974000  0.44641000  1.0
  H  H3  1  0.60210000  0.57477000  0.10122000  1.0
  H  H4  1  0.65154000  0.58840000  0.89857000  1.0
  H  H5  1  0.87551000  0.62555000  0.58698000  1.0
  H  H6  1  0.63153000  0.31720000  0.38542000  1.0
  H  H7  1  0.30288000  0.38089000  0.31678000  1.0
  H  H8  1  0.32552000  0.37555000  0.10148000  1.0
  H  H9  1  0.37369000  0.71213000  0.56607000  1.0
  H  H10  1  0.34163000  0.15145000  0.61803000  1.0
  H  H11  1  0.36521000  0.30318000  0.58994000  1.0
  H  H12  1  0.60782000  0.09689000  0.44195000  1.0
  H  H13  1  0.64033000  0.89056000  0.41878000  1.0
  H  H14  1  0.11330000  0.55717000  0.47184000  1.0
  H  H15  1  0.62562000  0.57603000  0.24663000  1.0
  C  C16  1  0.49260000  0.52041000  0.64521000  1.0
  C  C17  1  0.48904000  0.47715000  0.25508000  1.0
  C  C18  1  0.40377000  0.41983000  0.21430000  1.0
  C  C19  1  0.27909000  0.49623000  0.48375000  1.0
  C  C20  1  0.39173000  0.41939000  0.13316000  1.0
  C  C21  1  0.55856000  0.22442000  0.46330000  1.0
  C  C22  1  0.55071000  0.13978000  0.47519000  1.0
  C  C23  1  0.47024000  0.11212000  0.53017000  1.0
  C  C24  1  0.40308000  0.17088000  0.57359000  1.0
  C  C25  1  0.41577000  0.25479000  0.55805000  1.0
  C  C26  1  0.41476000  0.84040000  0.54001000  1.0
  C  C27  1  0.37954000  0.49831000  0.76976000  1.0
  C  C28  1  0.43210000  0.75441000  0.53545000  1.0
  C  C29  1  0.49210000  0.89128000  0.49750000  1.0
  C  C30  1  0.59547000  0.76712000  0.45492000  1.0
  C  C31  1  0.50836000  0.48056000  0.34165000  1.0
  C  C32  1  0.58188000  0.85258000  0.45332000  1.0
  C  C33  1  0.74060000  0.49802000  0.50935000  1.0
  C  C34  1  0.93571000  0.43920000  0.48376000  1.0
  C  C35  1  0.87325000  0.49915000  0.52379000  1.0
  C  C36  1  0.06482000  0.43246000  0.48584000  1.0
  C  C37  1  0.14735000  0.49610000  0.47956000  1.0
  C  C38  1  0.37408000  0.49705000  0.85123000  1.0
  C  C39  1  0.48388000  0.52725000  0.73325000  1.0
  C  C40  1  0.92407000  0.56671000  0.58314000  1.0
  C  C41  1  0.64373000  0.25377000  0.40325000  1.0
  C  C42  1  0.31917000  0.36263000  0.25388000  1.0
  C  C43  1  0.47601000  0.52755000  0.89728000  1.0
  C  C44  1  0.57649000  0.56246000  0.86125000  1.0
  C  C45  1  0.58106000  0.56057000  0.78062000  1.0
  C  C46  1  0.54718000  0.53226000  0.13370000  1.0
  C  C47  1  0.56001000  0.53265000  0.21391000  1.0
  C  C48  1  0.46129000  0.47581000  0.09296000  1.0
  Br  Br49  1  0.22956000  0.46142000  0.89722000  1.0
  Br  Br50  1  0.24417000  0.46341000  0.70467000  1.0
  Br  Br51  1  0.28541000  0.88045000  0.59917000  1.0
  Br  Br52  1  0.72289000  0.71909000  0.39895000  1.0
  Br  Br53  1  0.09927000  0.31861000  0.49540000  1.0
  Br  Br54  1  0.72428000  0.60278000  0.73594000  1.0
  N  N55  1  0.49165000  0.53035000  0.97902000  1.0
  N  N56  1  0.43979000  0.47087000  0.01122000  1.0
  N  N57  1  0.49104000  0.28099000  0.50363000  1.0
  N  N58  1  0.46012000  0.02645000  0.54641000  1.0
  N  N59  1  0.48907000  0.97758000  0.48834000  1.0
  N  N60  1  0.52104000  0.71850000  0.49434000  1.0
  O  O61  1  0.48082000  0.58677000  0.61235000  1.0
  O  O62  1  0.72045000  0.20895000  0.37536000  1.0
  O  O63  1  0.26703000  0.29992000  0.21916000  1.0
  O  O64  1  0.51419000  0.44813000  0.61282000  1.0
  O  O65  1  0.33521000  0.56643000  0.47421000  1.0
  O  O66  1  0.32676000  0.42872000  0.49668000  1.0
  O  O67  1  0.53983000  0.55231000  0.37730000  1.0
  O  O68  1  0.49253000  0.41193000  0.37284000  1.0
  O  O69  1  0.69380000  0.56869000  0.51956000  1.0
  O  O70  1  0.68610000  0.42689000  0.48905000  1.0
  O  O71  1  0.00789000  0.55879000  0.62728000  1.0
