# generated using pymatgen
data_NdH28C32N6ClO10
_symmetry_space_group_name_H-M   'P 1'
_cell_length_a   15.89500000
_cell_length_b   17.30760000
_cell_length_c   17.30720000
_cell_angle_alpha   89.99620000
_cell_angle_beta   89.99950000
_cell_angle_gamma   89.99990000
_symmetry_Int_Tables_number   1
_chemical_formula_structural   NdH28C32N6ClO10
_chemical_formula_sum   'Nd4 H112 C128 N24 Cl4 O40'
_cell_volume   4761.28516491
_cell_formula_units_Z   4
loop_
 _symmetry_equiv_pos_site_id
 _symmetry_equiv_pos_as_xyz
  1  'x, y, z'
loop_
 _atom_site_type_symbol
 _atom_site_label
 _atom_site_symmetry_multiplicity
 _atom_site_fract_x
 _atom_site_fract_y
 _atom_site_fract_z
 _atom_site_occupancy
  Nd  Nd0  1  0.24997000  0.19706000  0.80295000  1.0
  Nd  Nd1  1  0.99996000  0.69707000  0.69710000  1.0
  Nd  Nd2  1  0.74998000  0.80294000  0.19704000  1.0
  Nd  Nd3  1  0.49999000  0.30293000  0.30290000  1.0
  H  H4  1  0.29593000  0.30537000  0.46788000  1.0
  H  H5  1  0.04594000  0.03209000  0.80536000  1.0
  H  H6  1  0.79594000  0.69460000  0.53210000  1.0
  H  H7  1  0.54595000  0.96789000  0.19463000  1.0
  H  H8  1  0.95406000  0.80541000  0.03205000  1.0
  H  H9  1  0.70400000  0.46790000  0.30539000  1.0
  H  H10  1  0.45407000  0.19461000  0.96793000  1.0
  H  H11  1  0.20402000  0.53214000  0.69462000  1.0
  H  H12  1  0.37887000  0.40399000  0.51583000  1.0
  H  H13  1  0.12885000  0.98415000  0.90399000  1.0
  H  H14  1  0.87886000  0.59600000  0.48415000  1.0
  H  H15  1  0.62890000  0.01584000  0.09600000  1.0
  H  H16  1  0.87114000  0.90403000  0.98410000  1.0
  H  H17  1  0.62108000  0.51585000  0.40407000  1.0
  H  H18  1  0.37114000  0.09599000  0.01586000  1.0
  H  H19  1  0.12108000  0.48418000  0.59594000  1.0
  H  H20  1  0.35142000  0.43832000  0.61057000  1.0
  H  H21  1  0.10143000  0.88941000  0.93833000  1.0
  H  H22  1  0.85143000  0.56167000  0.38940000  1.0
  H  H23  1  0.60145000  0.11058000  0.06167000  1.0
  H  H24  1  0.89856000  0.93838000  0.88935000  1.0
  H  H25  1  0.64853000  0.61059000  0.43838000  1.0
  H  H26  1  0.39855000  0.06162000  0.11060000  1.0
  H  H27  1  0.14855000  0.38944000  0.56163000  1.0
  H  H28  1  0.49774000  0.40772000  0.60564000  1.0
  H  H29  1  0.24773000  0.89437000  0.90772000  1.0
  H  H30  1  0.99774000  0.59232000  0.39432000  1.0
  H  H31  1  0.74776000  0.10567000  0.09230000  1.0
  H  H32  1  0.75228000  0.90764000  0.89431000  1.0
  H  H33  1  0.50223000  0.60567000  0.40770000  1.0
  H  H34  1  0.25228000  0.09235000  0.10563000  1.0
  H  H35  1  0.00225000  0.39435000  0.59227000  1.0
  H  H36  1  0.44797000  0.33840000  0.66821000  1.0
  H  H37  1  0.19800000  0.83180000  0.83841000  1.0
  H  H38  1  0.94795000  0.66165000  0.33179000  1.0
  H  H39  1  0.69798000  0.16820000  0.16163000  1.0
  H  H40  1  0.80212000  0.83840000  0.83171000  1.0
  H  H41  1  0.55207000  0.66823000  0.33840000  1.0
  H  H42  1  0.30211000  0.16160000  0.16824000  1.0
  H  H43  1  0.05206000  0.33178000  0.66155000  1.0
  H  H44  1  0.51946000  0.22728000  0.65018000  1.0
  H  H45  1  0.26942000  0.84987000  0.72730000  1.0
  H  H46  1  0.01942000  0.77274000  0.34985000  1.0
  H  H47  1  0.76940000  0.15013000  0.27272000  1.0
  H  H48  1  0.73054000  0.72725000  0.84980000  1.0
  H  H49  1  0.48057000  0.65016000  0.22728000  1.0
  H  H50  1  0.23055000  0.27274000  0.15018000  1.0
  H  H51  1  0.98053000  0.34982000  0.77269000  1.0
  H  H52  1  0.60692000  0.11713000  0.35712000  1.0
  H  H53  1  0.35691000  0.14289000  0.61716000  1.0
  H  H54  1  0.10688000  0.88288000  0.64290000  1.0
  H  H55  1  0.85685000  0.85712000  0.38289000  1.0
  H  H56  1  0.64309000  0.61715000  0.14285000  1.0
  H  H57  1  0.39315000  0.35712000  0.11716000  1.0
  H  H58  1  0.14304000  0.38283000  0.85713000  1.0
  H  H59  1  0.89311000  0.64286000  0.88284000  1.0
  H  H60  1  0.66914000  0.00756000  0.43069000  1.0
  H  H61  1  0.41915000  0.06935000  0.50761000  1.0
  H  H62  1  0.16912000  0.99244000  0.56933000  1.0
  H  H63  1  0.91909000  0.93066000  0.49244000  1.0
  H  H64  1  0.58089000  0.50755000  0.06931000  1.0
  H  H65  1  0.33091000  0.43067000  0.00757000  1.0
  H  H66  1  0.08085000  0.49244000  0.93068000  1.0
  H  H67  1  0.83089000  0.56930000  0.99243000  1.0
  H  H68  1  0.65582000  0.00245000  0.57422000  1.0
  H  H69  1  0.40583000  0.92585000  0.50248000  1.0
  H  H70  1  0.15581000  0.99754000  0.42580000  1.0
  H  H71  1  0.90578000  0.07417000  0.49755000  1.0
  H  H72  1  0.59420000  0.50248000  0.92577000  1.0
  H  H73  1  0.34419000  0.57421000  0.00250000  1.0
  H  H74  1  0.09416000  0.49753000  0.07421000  1.0
  H  H75  1  0.84418000  0.42576000  0.99750000  1.0
  H  H76  1  0.58790000  0.11086000  0.64478000  1.0
  H  H77  1  0.33789000  0.85527000  0.61088000  1.0
  H  H78  1  0.08786000  0.88914000  0.35524000  1.0
  H  H79  1  0.83785000  0.14474000  0.38914000  1.0
  H  H80  1  0.66218000  0.61087000  0.85522000  1.0
  H  H81  1  0.41214000  0.64476000  0.11090000  1.0
  H  H82  1  0.16214000  0.38913000  0.14477000  1.0
  H  H83  1  0.91211000  0.35522000  0.88908000  1.0
  H  H84  1  0.09919000  0.11951000  0.66038000  1.0
  H  H85  1  0.84915000  0.83961000  0.61959000  1.0
  H  H86  1  0.59920000  0.88049000  0.33964000  1.0
  H  H87  1  0.34919000  0.16037000  0.38043000  1.0
  H  H88  1  0.15080000  0.61959000  0.83958000  1.0
  H  H89  1  0.90084000  0.66038000  0.11959000  1.0
  H  H90  1  0.65084000  0.38040000  0.16040000  1.0
  H  H91  1  0.40085000  0.33963000  0.88039000  1.0
  H  H92  1  0.18638000  0.23667000  0.40910000  1.0
  H  H93  1  0.93639000  0.09087000  0.73665000  1.0
  H  H94  1  0.68641000  0.76330000  0.59090000  1.0
  H  H95  1  0.43640000  0.90912000  0.26334000  1.0
  H  H96  1  0.06364000  0.73668000  0.09085000  1.0
  H  H97  1  0.81356000  0.40911000  0.23668000  1.0
  H  H98  1  0.56363000  0.26333000  0.90913000  1.0
  H  H99  1  0.31358000  0.59091000  0.76334000  1.0
  H  H100  1  0.06936000  0.14109000  0.41311000  1.0
  H  H101  1  0.81936000  0.08687000  0.64108000  1.0
  H  H102  1  0.56939000  0.85888000  0.58691000  1.0
  H  H103  1  0.31938000  0.91311000  0.35892000  1.0
  H  H104  1  0.18065000  0.64108000  0.08683000  1.0
  H  H105  1  0.93058000  0.41310000  0.14110000  1.0
  H  H106  1  0.68064000  0.35891000  0.91313000  1.0
  H  H107  1  0.43061000  0.58690000  0.85890000  1.0
  H  H108  1  0.02586000  0.08336000  0.53925000  1.0
  H  H109  1  0.77584000  0.96073000  0.58339000  1.0
  H  H110  1  0.52588000  0.91663000  0.46079000  1.0
  H  H111  1  0.27588000  0.03925000  0.41662000  1.0
  H  H112  1  0.22410000  0.58335000  0.96070000  1.0
  H  H113  1  0.97408000  0.53922000  0.08332000  1.0
  H  H114  1  0.72412000  0.41665000  0.03926000  1.0
  H  H115  1  0.47412000  0.46077000  0.91665000  1.0
  C  C116  1  0.27351000  0.29229000  0.52711000  1.0
  C  C117  1  0.02350000  0.97286000  0.79230000  1.0
  C  C118  1  0.77352000  0.70768000  0.47288000  1.0
  C  C119  1  0.52353000  0.02712000  0.20770000  1.0
  C  C120  1  0.97653000  0.79237000  0.97285000  1.0
  C  C121  1  0.72646000  0.52711000  0.29236000  1.0
  C  C122  1  0.47654000  0.20764000  0.02714000  1.0
  C  C123  1  0.22646000  0.47292000  0.70765000  1.0
  C  C124  1  0.36955000  0.38701000  0.57709000  1.0
  C  C125  1  0.11955000  0.92289000  0.88703000  1.0
  C  C126  1  0.86955000  0.61297000  0.42288000  1.0
  C  C127  1  0.61957000  0.07711000  0.11296000  1.0
  C  C128  1  0.88048000  0.88707000  0.92283000  1.0
  C  C129  1  0.63042000  0.57711000  0.38708000  1.0
  C  C130  1  0.38047000  0.11294000  0.07712000  1.0
  C  C131  1  0.13042000  0.42292000  0.61293000  1.0
  C  C132  1  0.45433000  0.35813000  0.60776000  1.0
  C  C133  1  0.20434000  0.89225000  0.85816000  1.0
  C  C134  1  0.95431000  0.64188000  0.39223000  1.0
  C  C135  1  0.70435000  0.10777000  0.14185000  1.0
  C  C136  1  0.79573000  0.85809000  0.89218000  1.0
  C  C137  1  0.54567000  0.60778000  0.35814000  1.0
  C  C138  1  0.29572000  0.14190000  0.10777000  1.0
  C  C139  1  0.04566000  0.39224000  0.64184000  1.0
  C  C140  1  0.51939000  0.23634000  0.58694000  1.0
  C  C141  1  0.26936000  0.91310000  0.73636000  1.0
  C  C142  1  0.01934000  0.76368000  0.41308000  1.0
  C  C143  1  0.76934000  0.08690000  0.26366000  1.0
  C  C144  1  0.73069000  0.73632000  0.91305000  1.0
  C  C145  1  0.48067000  0.58692000  0.23635000  1.0
  C  C146  1  0.23067000  0.26368000  0.08693000  1.0
  C  C147  1  0.98062000  0.41307000  0.76362000  1.0
  C  C148  1  0.55675000  0.17460000  0.54218000  1.0
  C  C149  1  0.30671000  0.95785000  0.67461000  1.0
  C  C150  1  0.05668000  0.82543000  0.45784000  1.0
  C  C151  1  0.80669000  0.04215000  0.32541000  1.0
  C  C152  1  0.69333000  0.67460000  0.95783000  1.0
  C  C153  1  0.44332000  0.54215000  0.17461000  1.0
  C  C154  1  0.19329000  0.32540000  0.04216000  1.0
  C  C155  1  0.94327000  0.45783000  0.82536000  1.0
  C  C156  1  0.56021000  0.17671000  0.45833000  1.0
  C  C157  1  0.31017000  0.04169000  0.67674000  1.0
  C  C158  1  0.06016000  0.82331000  0.54169000  1.0
  C  C159  1  0.81015000  0.95832000  0.32329000  1.0
  C  C160  1  0.68980000  0.67673000  0.04164000  1.0
  C  C161  1  0.43983000  0.45832000  0.17672000  1.0
  C  C162  1  0.18976000  0.32327000  0.95834000  1.0
  C  C163  1  0.93978000  0.54166000  0.82326000  1.0
  C  C164  1  0.60289000  0.11455000  0.41985000  1.0
  C  C165  1  0.35287000  0.08018000  0.61459000  1.0
  C  C166  1  0.10285000  0.88546000  0.58018000  1.0
  C  C167  1  0.85282000  0.91983000  0.38546000  1.0
  C  C168  1  0.64713000  0.61457000  0.08013000  1.0
  C  C169  1  0.39715000  0.41983000  0.11458000  1.0
  C  C170  1  0.14709000  0.38541000  0.91985000  1.0
  C  C171  1  0.89712000  0.58015000  0.88541000  1.0
  C  C172  1  0.63718000  0.05409000  0.46130000  1.0
  C  C173  1  0.38718000  0.03875000  0.55414000  1.0
  C  C174  1  0.13716000  0.94591000  0.53872000  1.0
  C  C175  1  0.88712000  0.96127000  0.44591000  1.0
  C  C176  1  0.61285000  0.55411000  0.03870000  1.0
  C  C177  1  0.36286000  0.46127000  0.05413000  1.0
  C  C178  1  0.11281000  0.44588000  0.96128000  1.0
  C  C179  1  0.86284000  0.53871000  0.94587000  1.0
  C  C180  1  0.63086000  0.05157000  0.54239000  1.0
  C  C181  1  0.38084000  0.95766000  0.55160000  1.0
  C  C182  1  0.13083000  0.94843000  0.45763000  1.0
  C  C183  1  0.88080000  0.04235000  0.44843000  1.0
  C  C184  1  0.61918000  0.55158000  0.95761000  1.0
  C  C185  1  0.36918000  0.54236000  0.05161000  1.0
  C  C186  1  0.11915000  0.44842000  0.04237000  1.0
  C  C187  1  0.86916000  0.45761000  0.94839000  1.0
  C  C188  1  0.59184000  0.11187000  0.58179000  1.0
  C  C189  1  0.34181000  0.91825000  0.61189000  1.0
  C  C190  1  0.09179000  0.88814000  0.41824000  1.0
  C  C191  1  0.84177000  0.08175000  0.38813000  1.0
  C  C192  1  0.65823000  0.61188000  0.91822000  1.0
  C  C193  1  0.40822000  0.58176000  0.11190000  1.0
  C  C194  1  0.15819000  0.38812000  0.08176000  1.0
  C  C195  1  0.90818000  0.41822000  0.88808000  1.0
  C  C196  1  0.11638000  0.14581000  0.60536000  1.0
  C  C197  1  0.86635000  0.89462000  0.64587000  1.0
  C  C198  1  0.61639000  0.85417000  0.39466000  1.0
  C  C199  1  0.36639000  0.10536000  0.35414000  1.0
  C  C200  1  0.13364000  0.64588000  0.89459000  1.0
  C  C201  1  0.88364000  0.60536000  0.14587000  1.0
  C  C202  1  0.63367000  0.35412000  0.10538000  1.0
  C  C203  1  0.38365000  0.39465000  0.85413000  1.0
  C  C204  1  0.18425000  0.20019000  0.60556000  1.0
  C  C205  1  0.93421000  0.89442000  0.70025000  1.0
  C  C206  1  0.68426000  0.79981000  0.39445000  1.0
  C  C207  1  0.43425000  0.10556000  0.29977000  1.0
  C  C208  1  0.06581000  0.70029000  0.89440000  1.0
  C  C209  1  0.81581000  0.60557000  0.20027000  1.0
  C  C210  1  0.56583000  0.29972000  0.10558000  1.0
  C  C211  1  0.31580000  0.39445000  0.79974000  1.0
  C  C212  1  0.20865000  0.23374000  0.53205000  1.0
  C  C213  1  0.95864000  0.96793000  0.73377000  1.0
  C  C214  1  0.70867000  0.76624000  0.46796000  1.0
  C  C215  1  0.45867000  0.03205000  0.26624000  1.0
  C  C216  1  0.04141000  0.73384000  0.96791000  1.0
  C  C217  1  0.79136000  0.53206000  0.23382000  1.0
  C  C218  1  0.54141000  0.26617000  0.03207000  1.0
  C  C219  1  0.29135000  0.46796000  0.76619000  1.0
  C  C220  1  0.16737000  0.21083000  0.46403000  1.0
  C  C221  1  0.91736000  0.03595000  0.71084000  1.0
  C  C222  1  0.66738000  0.78914000  0.53598000  1.0
  C  C223  1  0.41738000  0.96404000  0.28915000  1.0
  C  C224  1  0.08268000  0.71089000  0.03593000  1.0
  C  C225  1  0.83261000  0.46404000  0.21088000  1.0
  C  C226  1  0.58268000  0.28912000  0.96406000  1.0
  C  C227  1  0.33262000  0.53597000  0.78913000  1.0
  C  C228  1  0.10158000  0.15767000  0.46619000  1.0
  C  C229  1  0.85158000  0.03379000  0.65768000  1.0
  C  C230  1  0.60160000  0.84231000  0.53383000  1.0
  C  C231  1  0.35160000  0.96620000  0.34232000  1.0
  C  C232  1  0.14844000  0.65770000  0.03376000  1.0
  C  C233  1  0.89838000  0.46618000  0.15769000  1.0
  C  C234  1  0.64844000  0.34230000  0.96621000  1.0
  C  C235  1  0.39840000  0.53382000  0.84231000  1.0
  C  C236  1  0.07646000  0.12578000  0.53750000  1.0
  C  C237  1  0.82644000  0.96248000  0.62582000  1.0
  C  C238  1  0.57648000  0.87420000  0.46253000  1.0
  C  C239  1  0.32647000  0.03750000  0.37419000  1.0
  C  C240  1  0.17355000  0.62581000  0.96245000  1.0
  C  C241  1  0.92351000  0.53748000  0.12579000  1.0
  C  C242  1  0.67356000  0.37419000  0.03752000  1.0
  C  C243  1  0.42353000  0.46251000  0.87420000  1.0
  N  N244  1  0.05937000  0.20467000  0.79279000  1.0
  N  N245  1  0.80940000  0.70720000  0.70475000  1.0
  N  N246  1  0.55940000  0.79532000  0.20725000  1.0
  N  N247  1  0.30942000  0.29284000  0.29525000  1.0
  N  N248  1  0.19055000  0.70485000  0.70711000  1.0
  N  N249  1  0.94057000  0.79297000  0.20474000  1.0
  N  N250  1  0.69058000  0.29517000  0.29289000  1.0
  N  N251  1  0.44058000  0.20700000  0.79527000  1.0
  N  N252  1  0.48776000  0.29830000  0.55901000  1.0
  N  N253  1  0.23774000  0.94103000  0.79832000  1.0
  N  N254  1  0.98771000  0.70171000  0.44101000  1.0
  N  N255  1  0.73775000  0.05898000  0.20169000  1.0
  N  N256  1  0.76239000  0.79824000  0.94094000  1.0
  N  N257  1  0.51229000  0.55902000  0.29831000  1.0
  N  N258  1  0.26236000  0.20176000  0.05902000  1.0
  N  N259  1  0.01225000  0.44098000  0.70167000  1.0
  N  N260  1  0.30448000  0.33010000  0.58388000  1.0
  N  N261  1  0.05448000  0.91609000  0.83011000  1.0
  N  N262  1  0.80447000  0.66987000  0.41610000  1.0
  N  N263  1  0.55450000  0.08389000  0.16988000  1.0
  N  N264  1  0.94560000  0.83020000  0.91605000  1.0
  N  N265  1  0.69552000  0.58389000  0.33019000  1.0
  N  N266  1  0.44560000  0.16981000  0.08392000  1.0
  N  N267  1  0.19551000  0.41614000  0.66984000  1.0
  Cl  Cl268  1  0.24996000  0.08001000  0.91994000  1.0
  Cl  Cl269  1  0.99989000  0.58006000  0.58005000  1.0
  Cl  Cl270  1  0.74997000  0.92000000  0.08007000  1.0
  Cl  Cl271  1  0.49996000  0.41999000  0.41990000  1.0
  O  O272  1  0.10443000  0.26556000  0.78827000  1.0
  O  O273  1  0.85449000  0.71172000  0.76562000  1.0
  O  O274  1  0.60447000  0.73443000  0.21176000  1.0
  O  O275  1  0.35450000  0.28829000  0.23438000  1.0
  O  O276  1  0.14544000  0.76572000  0.71164000  1.0
  O  O277  1  0.89547000  0.78854000  0.26563000  1.0
  O  O278  1  0.64548000  0.23430000  0.28840000  1.0
  O  O279  1  0.39549000  0.21148000  0.73439000  1.0
  O  O280  1  0.22304000  0.21793000  0.66785000  1.0
  O  O281  1  0.97300000  0.83214000  0.71802000  1.0
  O  O282  1  0.72305000  0.78207000  0.33215000  1.0
  O  O283  1  0.47304000  0.16785000  0.28200000  1.0
  O  O284  1  0.02700000  0.71804000  0.83212000  1.0
  O  O285  1  0.77707000  0.66789000  0.21802000  1.0
  O  O286  1  0.52704000  0.28196000  0.16787000  1.0
  O  O287  1  0.27704000  0.33213000  0.78200000  1.0
  O  O288  1  0.09971000  0.14038000  0.80067000  1.0
  O  O289  1  0.84971000  0.69934000  0.64044000  1.0
  O  O290  1  0.59973000  0.85961000  0.19938000  1.0
  O  O291  1  0.34974000  0.30078000  0.35955000  1.0
  O  O292  1  0.15024000  0.64055000  0.69914000  1.0
  O  O293  1  0.90024000  0.80090000  0.14044000  1.0
  O  O294  1  0.65027000  0.35947000  0.30082000  1.0
  O  O295  1  0.40026000  0.19904000  0.85957000  1.0
  O  O296  1  0.98140000  0.20675000  0.78926000  1.0
  O  O297  1  0.73143000  0.71070000  0.70687000  1.0
  O  O298  1  0.48144000  0.79323000  0.21077000  1.0
  O  O299  1  0.23146000  0.28931000  0.29315000  1.0
  O  O300  1  0.26851000  0.70696000  0.71072000  1.0
  O  O301  1  0.01852000  0.78930000  0.20685000  1.0
  O  O302  1  0.76854000  0.29306000  0.28929000  1.0
  O  O303  1  0.51854000  0.21064000  0.79317000  1.0
  O  O304  1  0.52550000  0.23196000  0.42065000  1.0
  O  O305  1  0.27543000  0.07934000  0.73200000  1.0
  O  O306  1  0.02544000  0.76806000  0.57938000  1.0
  O  O307  1  0.77542000  0.92066000  0.26802000  1.0
  O  O308  1  0.72446000  0.73201000  0.07932000  1.0
  O  O309  1  0.47453000  0.42065000  0.23199000  1.0
  O  O310  1  0.22443000  0.26798000  0.92067000  1.0
  O  O311  1  0.97448000  0.57933000  0.76800000  1.0
