# generated using pymatgen
data_H14PbC14(NO)6
_symmetry_space_group_name_H-M   'P 1'
_cell_length_a   10.10650000
_cell_length_b   16.38935899
_cell_length_c   20.52180000
_cell_angle_alpha   69.16012778
_cell_angle_beta   89.99290000
_cell_angle_gamma   72.04252090
_symmetry_Int_Tables_number   1
_chemical_formula_structural   H14PbC14(NO)6
_chemical_formula_sum   'H84 Pb6 C84 N36 O36'
_cell_volume   2999.03731443
_cell_formula_units_Z   6
loop_
 _symmetry_equiv_pos_site_id
 _symmetry_equiv_pos_as_xyz
  1  'x, y, z'
loop_
 _atom_site_type_symbol
 _atom_site_label
 _atom_site_symmetry_multiplicity
 _atom_site_fract_x
 _atom_site_fract_y
 _atom_site_fract_z
 _atom_site_occupancy
  H  H0  1  0.48458000  0.08383000  0.86372000  1.0
  H  H1  1  0.56809000  0.91637000  0.63614000  1.0
  H  H2  1  0.51542000  0.91617000  0.13628000  1.0
  H  H3  1  0.43191000  0.08363000  0.36386000  1.0
  H  H4  1  0.30041000  0.22864000  0.86003000  1.0
  H  H5  1  0.52864000  0.77150000  0.63990000  1.0
  H  H6  1  0.69958000  0.77137000  0.13996000  1.0
  H  H7  1  0.47136000  0.22850000  0.36010000  1.0
  H  H8  1  0.59025000  0.36589000  0.83865000  1.0
  H  H9  1  0.95567000  0.63413000  0.66144000  1.0
  H  H10  1  0.40974000  0.63411000  0.16135000  1.0
  H  H11  1  0.04433000  0.36587000  0.33857000  1.0
  H  H12  1  0.78276000  0.23064000  0.83708000  1.0
  H  H13  1  0.01305000  0.76936000  0.66299000  1.0
  H  H14  1  0.21724000  0.76936000  0.16292000  1.0
  H  H15  1  0.98695000  0.23064000  0.33701000  1.0
  H  H16  1  0.94676000  0.09276000  0.85734000  1.0
  H  H17  1  0.03914000  0.90725000  0.64258000  1.0
  H  H18  1  0.05324000  0.90724000  0.14266000  1.0
  H  H19  1  0.96086000  0.09275000  0.35742000  1.0
  H  H20  1  0.88095000  0.12136000  0.76948000  1.0
  H  H21  1  0.00219000  0.87855000  0.73049000  1.0
  H  H22  1  0.11906000  0.87863000  0.23052000  1.0
  H  H23  1  0.99781000  0.12145000  0.26951000  1.0
  H  H24  1  0.96567000  0.00268000  0.82455000  1.0
  H  H25  1  0.96828000  0.99727000  0.67544000  1.0
  H  H26  1  0.03433000  0.99732000  0.17545000  1.0
  H  H27  1  0.03172000  0.00273000  0.32456000  1.0
  H  H28  1  0.54580000  0.91665000  0.83375000  1.0
  H  H29  1  0.46236000  0.08345000  0.66630000  1.0
  H  H30  1  0.45419000  0.08335000  0.16625000  1.0
  H  H31  1  0.53764000  0.91655000  0.33370000  1.0
  H  H32  1  0.60379000  0.85790000  0.92405000  1.0
  H  H33  1  0.46174000  0.14220000  0.57601000  1.0
  H  H34  1  0.39621000  0.14210000  0.07594000  1.0
  H  H35  1  0.53826000  0.85780000  0.42399000  1.0
  H  H36  1  0.59348000  0.79346000  0.87157000  1.0
  H  H37  1  0.38698000  0.20666000  0.62848000  1.0
  H  H38  1  0.40652000  0.20654000  0.12843000  1.0
  H  H39  1  0.61302000  0.79334000  0.37152000  1.0
  H  H40  1  0.71071000  0.69814000  0.84658000  1.0
  H  H41  1  0.40900000  0.30191000  0.65363000  1.0
  H  H42  1  0.28929000  0.30186000  0.15341000  1.0
  H  H43  1  0.59099000  0.69809000  0.34637000  1.0
  H  H44  1  0.88084000  0.56046000  0.83685000  1.0
  H  H45  1  0.44171000  0.43961000  0.66324000  1.0
  H  H46  1  0.11916000  0.43954000  0.16315000  1.0
  H  H47  1  0.55829000  0.56039000  0.33676000  1.0
  H  H48  1  0.21080000  0.65953000  0.84150000  1.0
  H  H49  1  0.87065000  0.34042000  0.65836000  1.0
  H  H50  1  0.78920000  0.34047000  0.15850000  1.0
  H  H51  1  0.12935000  0.65958000  0.34164000  1.0
  H  H52  1  0.05248000  0.80172000  0.85477000  1.0
  H  H53  1  0.85432000  0.19816000  0.64519000  1.0
  H  H54  1  0.94752000  0.19828000  0.14523000  1.0
  H  H55  1  0.14568000  0.80184000  0.35481000  1.0
  H  H56  1  0.24867000  0.87618000  0.95653000  1.0
  H  H57  1  0.12476000  0.12389000  0.54346000  1.0
  H  H58  1  0.75134000  0.12381000  0.04347000  1.0
  H  H59  1  0.87524000  0.87611000  0.45654000  1.0
  H  H60  1  0.41353000  0.73230000  0.94626000  1.0
  H  H61  1  0.14574000  0.26783000  0.55370000  1.0
  H  H62  1  0.58647000  0.26770000  0.05374000  1.0
  H  H63  1  0.85426000  0.73217000  0.44630000  1.0
  H  H64  1  0.14938000  0.58315000  0.03174000  1.0
  H  H65  1  0.73234000  0.41685000  0.46833000  1.0
  H  H66  1  0.85062000  0.41685000  0.96826000  1.0
  H  H67  1  0.26766000  0.58315000  0.53167000  1.0
  H  H68  1  0.97155000  0.71984000  0.04175000  1.0
  H  H69  1  0.69136000  0.28011000  0.45829000  1.0
  H  H70  1  0.02846000  0.28015000  0.95825000  1.0
  H  H71  1  0.30864000  0.71989000  0.54171000  1.0
  H  H72  1  0.88470000  0.83165000  0.09007000  1.0
  H  H73  1  0.71638000  0.16831000  0.40990000  1.0
  H  H74  1  0.11530000  0.16835000  0.90993000  1.0
  H  H75  1  0.28362000  0.83169000  0.59011000  1.0
  H  H76  1  0.80219000  0.87034000  0.00362000  1.0
  H  H77  1  0.67253000  0.12961000  0.49635000  1.0
  H  H78  1  0.19782000  0.12965000  0.99638000  1.0
  H  H79  1  0.32748000  0.87038000  0.50365000  1.0
  H  H80  1  0.80302000  0.95349000  0.04098000  1.0
  H  H81  1  0.75661000  0.04646000  0.45902000  1.0
  H  H82  1  0.19699000  0.04650000  0.95902000  1.0
  H  H83  1  0.24339000  0.95354000  0.54099000  1.0
  Pb  Pb84  1  0.21542000  0.45966000  0.80164000  1.0
  Pb  Pb85  1  0.67513000  0.54038000  0.69834000  1.0
  Pb  Pb86  1  0.78459000  0.54034000  0.19836000  1.0
  Pb  Pb87  1  0.32487000  0.45962000  0.30166000  1.0
  Pb  Pb88  1  0.50000000  0.50000000  0.00000000  1.0
  Pb  Pb89  1  0.99999000  0.50000000  0.50000000  1.0
  C  C90  1  0.51137000  0.14520000  0.85816000  1.0
  C  C91  1  0.65621000  0.85498000  0.64167000  1.0
  C  C92  1  0.48863000  0.85480000  0.14184000  1.0
  C  C93  1  0.34379000  0.14502000  0.35833000  1.0
  C  C94  1  0.40950000  0.22524000  0.85669000  1.0
  C  C95  1  0.63433000  0.77492000  0.64321000  1.0
  C  C96  1  0.59049000  0.77476000  0.14331000  1.0
  C  C97  1  0.36568000  0.22507000  0.35679000  1.0
  C  C98  1  0.57004000  0.30236000  0.84354000  1.0
  C  C99  1  0.87200000  0.69771000  0.65650000  1.0
  C  C100  1  0.42996000  0.69764000  0.15646000  1.0
  C  C101  1  0.12800000  0.30229000  0.34350000  1.0
  C  C102  1  0.67852000  0.22529000  0.84336000  1.0
  C  C103  1  0.90345000  0.77480000  0.65661000  1.0
  C  C104  1  0.32148000  0.77471000  0.15664000  1.0
  C  C105  1  0.09655000  0.22520000  0.34339000  1.0
  C  C106  1  0.65003000  0.14433000  0.85001000  1.0
  C  C107  1  0.79403000  0.85575000  0.64995000  1.0
  C  C108  1  0.34997000  0.85567000  0.15000000  1.0
  C  C109  1  0.20598000  0.14424000  0.35005000  1.0
  C  C110  1  0.75857000  0.06232000  0.84548000  1.0
  C  C111  1  0.82065000  0.93770000  0.65458000  1.0
  C  C112  1  0.24143000  0.93768000  0.15453000  1.0
  C  C113  1  0.17935000  0.06230000  0.34542000  1.0
  C  C114  1  0.89669000  0.06955000  0.82307000  1.0
  C  C115  1  0.96603000  0.93042000  0.67693000  1.0
  C  C116  1  0.10331000  0.93045000  0.17693000  1.0
  C  C117  1  0.03397000  0.06959000  0.32307000  1.0
  C  C118  1  0.61967000  0.85304000  0.87233000  1.0
  C  C119  1  0.47270000  0.14705000  0.62774000  1.0
  C  C120  1  0.38033000  0.14696000  0.12767000  1.0
  C  C121  1  0.52730000  0.85295000  0.37226000  1.0
  C  C122  1  0.76820000  0.84689000  0.85889000  1.0
  C  C123  1  0.61509000  0.15315000  0.64118000  1.0
  C  C124  1  0.23180000  0.15311000  0.14111000  1.0
  C  C125  1  0.38491000  0.84685000  0.35882000  1.0
  C  C126  1  0.86626000  0.76325000  0.85194000  1.0
  C  C127  1  0.62963000  0.23678000  0.64810000  1.0
  C  C128  1  0.13373000  0.23676000  0.14806000  1.0
  C  C129  1  0.37037000  0.76322000  0.35190000  1.0
  C  C130  1  0.82009000  0.69332000  0.84665000  1.0
  C  C131  1  0.51357000  0.30675000  0.65338000  1.0
  C  C132  1  0.17992000  0.30668000  0.15334000  1.0
  C  C133  1  0.48643000  0.69325000  0.34662000  1.0
  C  C134  1  0.91602000  0.61533000  0.84069000  1.0
  C  C135  1  0.53167000  0.38468000  0.65937000  1.0
  C  C136  1  0.08398000  0.38467000  0.15931000  1.0
  C  C137  1  0.46833000  0.61532000  0.34064000  1.0
  C  C138  1  0.09880000  0.67063000  0.84298000  1.0
  C  C139  1  0.76975000  0.32929000  0.65698000  1.0
  C  C140  1  0.90119000  0.32937000  0.15702000  1.0
  C  C141  1  0.23025000  0.67071000  0.34302000  1.0
  C  C142  1  0.01048000  0.75016000  0.84991000  1.0
  C  C143  1  0.76083000  0.24982000  0.65000000  1.0
  C  C144  1  0.98951000  0.24984000  0.15009000  1.0
  C  C145  1  0.23918000  0.75017000  0.35000000  1.0
  C  C146  1  0.22330000  0.81247000  0.97297000  1.0
  C  C147  1  0.03574000  0.18762000  0.52699000  1.0
  C  C148  1  0.77669000  0.18753000  0.02703000  1.0
  C  C149  1  0.96427000  0.81238000  0.47301000  1.0
  C  C150  1  0.31474000  0.73286000  0.96797000  1.0
  C  C151  1  0.04752000  0.26725000  0.53201000  1.0
  C  C152  1  0.68526000  0.26714000  0.03203000  1.0
  C  C153  1  0.95249000  0.73275000  0.46799000  1.0
  C  C154  1  0.16715000  0.64965000  0.01488000  1.0
  C  C155  1  0.81667000  0.35039000  0.48512000  1.0
  C  C156  1  0.83285000  0.35035000  0.98512000  1.0
  C  C157  1  0.18333000  0.64961000  0.51488000  1.0
  C  C158  1  0.06784000  0.72665000  0.02056000  1.0
  C  C159  1  0.79447000  0.27340000  0.47939000  1.0
  C  C160  1  0.93216000  0.27335000  0.97944000  1.0
  C  C161  1  0.20554000  0.72660000  0.52062000  1.0
  C  C162  1  0.09663000  0.80999000  0.00069000  1.0
  C  C163  1  0.90658000  0.19004000  0.49929000  1.0
  C  C164  1  0.90338000  0.19000000  0.99931000  1.0
  C  C165  1  0.09342000  0.80996000  0.50071000  1.0
  C  C166  1  0.99954000  0.89189000  0.01019000  1.0
  C  C167  1  0.89140000  0.10812000  0.48980000  1.0
  C  C168  1  0.00047000  0.10811000  0.98981000  1.0
  C  C169  1  0.10860000  0.89188000  0.51020000  1.0
  C  C170  1  0.86383000  0.88741000  0.03787000  1.0
  C  C171  1  0.75126000  0.11257000  0.46211000  1.0
  C  C172  1  0.13617000  0.11259000  0.96214000  1.0
  C  C173  1  0.24874000  0.88743000  0.53790000  1.0
  N  N174  1  0.43702000  0.30344000  0.84894000  1.0
  N  N175  1  0.74005000  0.69663000  0.65120000  1.0
  N  N176  1  0.56298000  0.69656000  0.15106000  1.0
  N  N177  1  0.25995000  0.30337000  0.34880000  1.0
  N  N178  1  0.72064000  0.98919000  0.85958000  1.0
  N  N179  1  0.70968000  0.01088000  0.64042000  1.0
  N  N180  1  0.27936000  0.01081000  0.14042000  1.0
  N  N181  1  0.29032000  0.98912000  0.35958000  1.0
  N  N182  1  0.81823000  0.91363000  0.85271000  1.0
  N  N183  1  0.73181000  0.08640000  0.64731000  1.0
  N  N184  1  0.18177000  0.08637000  0.14729000  1.0
  N  N185  1  0.26819000  0.91360000  0.35269000  1.0
  N  N186  1  0.05316000  0.60325000  0.83882000  1.0
  N  N187  1  0.65685000  0.39657000  0.66137000  1.0
  N  N188  1  0.94684000  0.39675000  0.16118000  1.0
  N  N189  1  0.34315000  0.60343000  0.33863000  1.0
  N  N190  1  0.28845000  0.65226000  0.98940000  1.0
  N  N191  1  0.94050000  0.34778000  0.51071000  1.0
  N  N192  1  0.71155000  0.34774000  0.01059000  1.0
  N  N193  1  0.05950000  0.65222000  0.48929000  1.0
  N  N194  1  0.04468000  0.96226000  0.99498000  1.0
  N  N195  1  0.00691000  0.03772000  0.50505000  1.0
  N  N196  1  0.95532000  0.03774000  0.00502000  1.0
  N  N197  1  0.99310000  0.96227000  0.49495000  1.0
  N  N198  1  0.27863000  0.41750000  0.96019000  1.0
  N  N199  1  0.69605000  0.58245000  0.53993000  1.0
  N  N200  1  0.72137000  0.58250000  0.03981000  1.0
  N  N201  1  0.30395000  0.41754000  0.46007000  1.0
  N  N202  1  0.55497000  0.59473000  0.83851000  1.0
  N  N203  1  0.14957000  0.40535000  0.66145000  1.0
  N  N204  1  0.44504000  0.40527000  0.16149000  1.0
  N  N205  1  0.85042000  0.59466000  0.33855000  1.0
  N  N206  1  0.34089000  0.61328000  0.70072000  1.0
  N  N207  1  0.95431000  0.38686000  0.79933000  1.0
  N  N208  1  0.65911000  0.38672000  0.29928000  1.0
  N  N209  1  0.04569000  0.61314000  0.20067000  1.0
  O  O210  1  0.19221000  0.38661000  0.94111000  1.0
  O  O211  1  0.57885000  0.61339000  0.55912000  1.0
  O  O212  1  0.80779000  0.61339000  0.05889000  1.0
  O  O213  1  0.42115000  0.38661000  0.44088000  1.0
  O  O214  1  0.34653000  0.45934000  0.91391000  1.0
  O  O215  1  0.80595000  0.54086000  0.58610000  1.0
  O  O216  1  0.65347000  0.54066000  0.08609000  1.0
  O  O217  1  0.19405000  0.45914000  0.41390000  1.0
  O  O218  1  0.30117000  0.40892000  0.02298000  1.0
  O  O219  1  0.70969000  0.59076000  0.47718000  1.0
  O  O220  1  0.69883000  0.59109000  0.97702000  1.0
  O  O221  1  0.29031000  0.40924000  0.52282000  1.0
  O  O222  1  0.58539000  0.64212000  0.78029000  1.0
  O  O223  1  0.22717000  0.35799000  0.71971000  1.0
  O  O224  1  0.41461000  0.35788000  0.21971000  1.0
  O  O225  1  0.77282000  0.64201000  0.28029000  1.0
  O  O226  1  0.62037000  0.50869000  0.86746000  1.0
  O  O227  1  0.12884000  0.49139000  0.63250000  1.0
  O  O228  1  0.37964000  0.49131000  0.13254000  1.0
  O  O229  1  0.87116000  0.50861000  0.36750000  1.0
  O  O230  1  0.45911000  0.63454000  0.86787000  1.0
  O  O231  1  0.09381000  0.36547000  0.63201000  1.0
  O  O232  1  0.54089000  0.36546000  0.13213000  1.0
  O  O233  1  0.90618000  0.63454000  0.36799000  1.0
  O  O234  1  0.41407000  0.52853000  0.73877000  1.0
  O  O235  1  0.94254000  0.47164000  0.76123000  1.0
  O  O236  1  0.58593000  0.47147000  0.26123000  1.0
  O  O237  1  0.05746000  0.52836000  0.23877000  1.0
  O  O238  1  0.40198000  0.66381000  0.66016000  1.0
  O  O239  1  0.06589000  0.33650000  0.83998000  1.0
  O  O240  1  0.59802000  0.33619000  0.33985000  1.0
  O  O241  1  0.93411000  0.66350000  0.16002000  1.0
  O  O242  1  0.21244000  0.64209000  0.70519000  1.0
  O  O243  1  0.85498000  0.35782000  0.79481000  1.0
  O  O244  1  0.78756000  0.35791000  0.29482000  1.0
  O  O245  1  0.14502000  0.64218000  0.20519000  1.0
