# generated using pymatgen
data_ZnH16C18S3(NO)4
_symmetry_space_group_name_H-M   'P 1'
_cell_length_a   8.65439000
_cell_length_b   11.27080000
_cell_length_c   11.62740000
_cell_angle_alpha   72.12970000
_cell_angle_beta   87.30600000
_cell_angle_gamma   76.75830000
_symmetry_Int_Tables_number   1
_chemical_formula_structural   ZnH16C18S3(NO)4
_chemical_formula_sum   'Zn2 H32 C36 S6 N8 O8'
_cell_volume   1050.40793040
_cell_formula_units_Z   2
loop_
 _symmetry_equiv_pos_site_id
 _symmetry_equiv_pos_as_xyz
  1  'x, y, z'
loop_
 _atom_site_type_symbol
 _atom_site_label
 _atom_site_symmetry_multiplicity
 _atom_site_fract_x
 _atom_site_fract_y
 _atom_site_fract_z
 _atom_site_occupancy
  Zn  Zn0  1  0.63783000  0.91046000  0.89866000  1.0
  Zn  Zn1  1  0.36216000  0.08955000  0.10134000  1.0
  H  H2  1  0.97009000  0.54816000  0.83969000  1.0
  H  H3  1  0.02991000  0.45184000  0.16030000  1.0
  H  H4  1  0.04732000  0.67728000  0.74870000  1.0
  H  H5  1  0.95267000  0.32273000  0.25129000  1.0
  H  H6  1  0.89514000  0.15531000  0.06911000  1.0
  H  H7  1  0.10486000  0.84468000  0.93089000  1.0
  H  H8  1  0.98659000  0.99230000  0.11695000  1.0
  H  H9  1  0.01341000  0.00770000  0.88305000  1.0
  H  H10  1  0.73536000  0.79083000  0.16466000  1.0
  H  H11  1  0.26463000  0.20917000  0.83535000  1.0
  H  H12  1  0.69018000  0.61662000  0.34043000  1.0
  H  H13  1  0.30982000  0.38338000  0.65957000  1.0
  H  H14  1  0.39000000  0.52013000  0.11173000  1.0
  H  H15  1  0.61000000  0.47988000  0.88826000  1.0
  H  H16  1  0.44805000  0.70383000  0.94112000  1.0
  H  H17  1  0.55195000  0.29617000  0.05888000  1.0
  H  H18  1  0.45640000  0.48373000  0.42201000  1.0
  H  H19  1  0.54360000  0.51627000  0.57799000  1.0
  H  H20  1  0.41794000  0.39865000  0.32499000  1.0
  H  H21  1  0.58206000  0.60135000  0.67501000  1.0
  H  H22  1  0.75610000  0.39469000  0.39996000  1.0
  H  H23  1  0.24390000  0.60532000  0.60004000  1.0
  H  H24  1  0.69868000  0.29755000  0.32282000  1.0
  H  H25  1  0.30132000  0.70245000  0.67719000  1.0
  H  H26  1  0.48241000  0.16310000  0.44765000  1.0
  H  H27  1  0.51759000  0.83691000  0.55235000  1.0
  H  H28  1  0.48042000  0.99620000  0.64942000  1.0
  H  H29  1  0.51959000  0.00380000  0.35058000  1.0
  H  H30  1  0.79466000  0.13485000  0.80110000  1.0
  H  H31  1  0.20534000  0.86515000  0.19890000  1.0
  H  H32  1  0.81148000  0.30599000  0.60824000  1.0
  H  H33  1  0.18852000  0.69401000  0.39176000  1.0
  C  C34  1  0.80024000  0.72940000  0.79572000  1.0
  C  C35  1  0.19975000  0.27059000  0.20428000  1.0
  C  C36  1  0.94200000  0.63623000  0.76247000  1.0
  C  C37  1  0.05799000  0.36377000  0.23753000  1.0
  C  C38  1  0.89184000  0.71726000  0.51472000  1.0
  C  C39  1  0.10816000  0.28274000  0.48528000  1.0
  C  C40  1  0.87253000  0.91910000  0.36099000  1.0
  C  C41  1  0.12747000  0.08090000  0.63901000  1.0
  C  C42  1  0.87879000  0.06139000  0.12641000  1.0
  C  C43  1  0.12121000  0.93861000  0.87359000  1.0
  C  C44  1  0.73261000  0.03149000  0.08245000  1.0
  C  C45  1  0.26740000  0.96851000  0.91754000  1.0
  C  C46  1  0.65818000  0.73019000  0.15551000  1.0
  C  C47  1  0.34182000  0.26981000  0.84449000  1.0
  C  C48  1  0.63158000  0.63136000  0.25453000  1.0
  C  C49  1  0.36842000  0.36864000  0.74548000  1.0
  C  C50  1  0.53267000  0.55344000  0.24203000  1.0
  C  C51  1  0.46733000  0.44656000  0.75797000  1.0
  C  C52  1  0.46555000  0.57943000  0.12710000  1.0
  C  C53  1  0.53445000  0.42056000  0.87290000  1.0
  C  C54  1  0.49702000  0.68089000  0.03212000  1.0
  C  C55  1  0.50298000  0.31911000  0.96788000  1.0
  C  C56  1  0.50520000  0.44512000  0.34825000  1.0
  C  C57  1  0.49479000  0.55488000  0.65175000  1.0
  C  C58  1  0.66231000  0.34603000  0.39204000  1.0
  C  C59  1  0.33769000  0.65397000  0.60796000  1.0
  C  C60  1  0.65027000  0.24728000  0.51061000  1.0
  C  C61  1  0.34973000  0.75273000  0.48939000  1.0
  C  C62  1  0.55458000  0.15912000  0.52386000  1.0
  C  C63  1  0.44542000  0.84088000  0.47614000  1.0
  C  C64  1  0.55283000  0.06652000  0.63489000  1.0
  C  C65  1  0.44718000  0.93348000  0.36511000  1.0
  C  C66  1  0.72876000  0.14365000  0.72026000  1.0
  C  C67  1  0.27124000  0.85635000  0.27974000  1.0
  C  C68  1  0.73638000  0.23928000  0.61258000  1.0
  C  C69  1  0.26362000  0.76072000  0.38743000  1.0
  S  S70  1  0.91376000  0.57959000  0.63759000  1.0
  S  S71  1  0.08624000  0.42041000  0.36241000  1.0
  S  S72  1  0.88172000  0.87305000  0.51867000  1.0
  S  S73  1  0.11828000  0.12695000  0.48133000  1.0
  S  S74  1  0.86959000  0.07563000  0.27672000  1.0
  S  S75  1  0.13042000  0.92437000  0.72328000  1.0
  N  N76  1  0.87434000  0.82441000  0.31668000  1.0
  N  N77  1  0.12566000  0.17559000  0.68332000  1.0
  N  N78  1  0.88532000  0.70981000  0.40440000  1.0
  N  N79  1  0.11467000  0.29019000  0.59560000  1.0
  N  N80  1  0.59103000  0.75605000  0.04585000  1.0
  N  N81  1  0.40897000  0.24395000  0.95415000  1.0
  N  N82  1  0.63998000  0.05744000  0.73173000  1.0
  N  N83  1  0.36003000  0.94256000  0.26827000  1.0
  O  O84  1  0.84120000  0.78860000  0.86351000  1.0
  O  O85  1  0.15880000  0.21140000  0.13649000  1.0
  O  O86  1  0.66197000  0.74132000  0.75938000  1.0
  O  O87  1  0.33802000  0.25867000  0.24063000  1.0
  O  O88  1  0.75501000  0.99557000  0.98799000  1.0
  O  O89  1  0.24499000  0.00442000  0.01201000  1.0
  O  O90  1  0.60598000  0.04569000  0.13943000  1.0
  O  O91  1  0.39401000  0.95431000  0.86057000  1.0
