# generated using pymatgen
data_NaH7C7SO3
_symmetry_space_group_name_H-M   'P 1'
_cell_length_a   6.11037000
_cell_length_b   8.52207000
_cell_length_c   14.94980000
_cell_angle_alpha   100.42900000
_cell_angle_beta   89.99970000
_cell_angle_gamma   89.99970000
_symmetry_Int_Tables_number   1
_chemical_formula_structural   NaH7C7SO3
_chemical_formula_sum   'Na4 H28 C28 S4 O12'
_cell_volume   765.62042428
_cell_formula_units_Z   4
loop_
 _symmetry_equiv_pos_site_id
 _symmetry_equiv_pos_as_xyz
  1  'x, y, z'
loop_
 _atom_site_type_symbol
 _atom_site_label
 _atom_site_symmetry_multiplicity
 _atom_site_fract_x
 _atom_site_fract_y
 _atom_site_fract_z
 _atom_site_occupancy
  Na  Na0  1  0.12774000  0.81579000  0.53069000  1.0
  Na  Na1  1  0.62774000  0.68421000  0.46931000  1.0
  Na  Na2  1  0.87226000  0.18421000  0.46931000  1.0
  Na  Na3  1  0.37226000  0.31579000  0.53069000  1.0
  H  H4  1  0.06850000  0.53972000  0.23093000  1.0
  H  H5  1  0.56849000  0.96028000  0.76907000  1.0
  H  H6  1  0.93151000  0.46027000  0.76907000  1.0
  H  H7  1  0.43150000  0.03972000  0.23093000  1.0
  H  H8  1  0.29864000  0.64575000  0.28365000  1.0
  H  H9  1  0.79863000  0.85425000  0.71635000  1.0
  H  H10  1  0.70137000  0.35425000  0.71635000  1.0
  H  H11  1  0.20136000  0.14574000  0.28365000  1.0
  H  H12  1  0.13880000  0.34830000  0.10557000  1.0
  H  H13  1  0.63880000  0.15171000  0.89443000  1.0
  H  H14  1  0.86121000  0.65172000  0.89443000  1.0
  H  H15  1  0.36120000  0.84829000  0.10557000  1.0
  H  H16  1  0.37962000  0.15163000  0.01094000  1.0
  H  H17  1  0.87963000  0.34839000  0.98906000  1.0
  H  H18  1  0.62038000  0.84838000  0.98906000  1.0
  H  H19  1  0.12037000  0.65161000  0.01094000  1.0
  H  H20  1  0.75012000  0.09185000  0.06887000  1.0
  H  H21  1  0.25013000  0.40814000  0.93112000  1.0
  H  H22  1  0.24988000  0.90815000  0.93113000  1.0
  H  H23  1  0.74987000  0.59186000  0.06887000  1.0
  H  H24  1  0.86967000  0.23161000  0.22235000  1.0
  H  H25  1  0.36968000  0.26837000  0.77765000  1.0
  H  H26  1  0.13033000  0.76838000  0.77765000  1.0
  H  H27  1  0.63032000  0.73163000  0.22235000  1.0
  H  H28  1  0.63140000  0.42808000  0.31502000  1.0
  H  H29  1  0.13140000  0.07190000  0.68498000  1.0
  H  H30  1  0.36861000  0.57190000  0.68498000  1.0
  H  H31  1  0.86860000  0.92810000  0.31502000  1.0
  C  C32  1  0.21956000  0.52812000  0.26875000  1.0
  C  C33  1  0.71956000  0.97188000  0.73126000  1.0
  C  C34  1  0.78045000  0.47188000  0.73125000  1.0
  C  C35  1  0.28044000  0.02812000  0.26874000  1.0
  C  C36  1  0.36732000  0.40325000  0.21662000  1.0
  C  C37  1  0.86732000  0.09675000  0.78338000  1.0
  C  C38  1  0.63268000  0.59675000  0.78338000  1.0
  C  C39  1  0.13268000  0.90325000  0.21662000  1.0
  C  C40  1  0.29984000  0.32258000  0.13081000  1.0
  C  C41  1  0.79983000  0.17743000  0.86919000  1.0
  C  C42  1  0.70017000  0.67743000  0.86919000  1.0
  C  C43  1  0.20017000  0.82257000  0.13081000  1.0
  C  C44  1  0.43595000  0.21150000  0.07761000  1.0
  C  C45  1  0.93594000  0.28851000  0.92239000  1.0
  C  C46  1  0.56405000  0.78851000  0.92239000  1.0
  C  C47  1  0.06405000  0.71150000  0.07761000  1.0
  C  C48  1  0.64246000  0.17850000  0.10982000  1.0
  C  C49  1  0.14246000  0.32150000  0.89018000  1.0
  C  C50  1  0.35754000  0.82150000  0.89018000  1.0
  C  C51  1  0.85754000  0.67850000  0.10982000  1.0
  C  C52  1  0.71080000  0.25742000  0.19543000  1.0
  C  C53  1  0.21080000  0.24256000  0.80457000  1.0
  C  C54  1  0.28920000  0.74257000  0.80457000  1.0
  C  C55  1  0.78920000  0.75743000  0.19543000  1.0
  C  C56  1  0.57511000  0.36940000  0.24820000  1.0
  C  C57  1  0.07510000  0.13059000  0.75180000  1.0
  C  C58  1  0.42490000  0.63060000  0.75180000  1.0
  C  C59  1  0.92489000  0.86941000  0.24820000  1.0
  S  S60  1  0.12773000  0.50125000  0.37918000  1.0
  S  S61  1  0.62773000  0.99875000  0.62083000  1.0
  S  S62  1  0.87227000  0.49875000  0.62083000  1.0
  S  S63  1  0.37226000  0.00125000  0.37917000  1.0
  O  O64  1  0.97005000  0.63243000  0.40679000  1.0
  O  O65  1  0.47006000  0.86756000  0.59322000  1.0
  O  O66  1  0.02995000  0.36757000  0.59322000  1.0
  O  O67  1  0.52994000  0.13243000  0.40678000  1.0
  O  O68  1  0.02855000  0.34226000  0.37069000  1.0
  O  O69  1  0.52855000  0.15774000  0.62931000  1.0
  O  O70  1  0.97146000  0.65774000  0.62931000  1.0
  O  O71  1  0.47145000  0.84226000  0.37069000  1.0
  O  O72  1  0.32089000  0.51987000  0.43996000  1.0
  O  O73  1  0.82089000  0.98014000  0.56004000  1.0
  O  O74  1  0.67911000  0.48013000  0.56004000  1.0
  O  O75  1  0.17910000  0.01986000  0.43996000  1.0
