# generated using pymatgen
data_LiH2CN7O
_symmetry_space_group_name_H-M   'P 1'
_cell_length_a   4.67603000
_cell_length_b   8.97839000
_cell_length_c   12.73000000
_cell_angle_alpha   95.52050000
_cell_angle_beta   90.00000000
_cell_angle_gamma   89.99960000
_symmetry_Int_Tables_number   1
_chemical_formula_structural   LiH2CN7O
_chemical_formula_sum   'Li4 H8 C4 N28 O4'
_cell_volume   531.96755622
_cell_formula_units_Z   4
loop_
 _symmetry_equiv_pos_site_id
 _symmetry_equiv_pos_as_xyz
  1  'x, y, z'
loop_
 _atom_site_type_symbol
 _atom_site_label
 _atom_site_symmetry_multiplicity
 _atom_site_fract_x
 _atom_site_fract_y
 _atom_site_fract_z
 _atom_site_occupancy
  Li  Li0  1  0.49175000  0.00197000  0.15300000  1.0
  Li  Li1  1  0.99175000  0.99803000  0.34700000  1.0
  Li  Li2  1  0.50825000  0.99803000  0.84700000  1.0
  Li  Li3  1  0.00825000  0.00197000  0.65300000  1.0
  H  H4  1  0.35622000  0.17877000  0.31299000  1.0
  H  H5  1  0.85623000  0.82123000  0.18701000  1.0
  H  H6  1  0.64378000  0.82123000  0.68701000  1.0
  H  H7  1  0.14378000  0.17877000  0.81299000  1.0
  H  H8  1  0.11970000  0.18023000  0.21705000  1.0
  H  H9  1  0.61970000  0.81977000  0.28295000  1.0
  H  H10  1  0.88030000  0.81977000  0.78295000  1.0
  H  H11  1  0.38030000  0.18023000  0.71705000  1.0
  C  C12  1  0.05370000  0.28539000  0.02202000  1.0
  C  C13  1  0.55370000  0.71461000  0.47797000  1.0
  C  C14  1  0.94630000  0.71461000  0.97798000  1.0
  C  C15  1  0.44630000  0.28539000  0.52203000  1.0
  N  N16  1  0.92747000  0.22877000  0.10446000  1.0
  N  N17  1  0.42746000  0.77123000  0.39554000  1.0
  N  N18  1  0.07253000  0.77123000  0.89554000  1.0
  N  N19  1  0.57254000  0.22877000  0.60446000  1.0
  N  N20  1  0.94965000  0.22392000  0.92943000  1.0
  N  N21  1  0.44965000  0.77608000  0.57057000  1.0
  N  N22  1  0.05035000  0.77608000  0.07057000  1.0
  N  N23  1  0.55035000  0.22392000  0.42943000  1.0
  N  N24  1  0.75152000  0.12578000  0.95624000  1.0
  N  N25  1  0.25152000  0.87422000  0.54376000  1.0
  N  N26  1  0.24848000  0.87422000  0.04376000  1.0
  N  N27  1  0.74848000  0.12578000  0.45624000  1.0
  N  N28  1  0.43673000  0.52374000  0.18399000  1.0
  N  N29  1  0.93674000  0.47626000  0.31601000  1.0
  N  N30  1  0.56327000  0.47626000  0.81601000  1.0
  N  N31  1  0.06326000  0.52374000  0.68399000  1.0
  N  N32  1  0.34234000  0.45453000  0.11231000  1.0
  N  N33  1  0.84234000  0.54547000  0.38769000  1.0
  N  N34  1  0.65765000  0.54547000  0.88769000  1.0
  N  N35  1  0.15766000  0.45453000  0.61231000  1.0
  N  N36  1  0.73825000  0.12863000  0.06011000  1.0
  N  N37  1  0.23824000  0.87137000  0.43989000  1.0
  N  N38  1  0.26175000  0.87137000  0.93989000  1.0
  N  N39  1  0.76176000  0.12863000  0.56011000  1.0
  N  N40  1  0.26703000  0.39266000  0.02548000  1.0
  N  N41  1  0.76702000  0.60734000  0.47452000  1.0
  N  N42  1  0.73297000  0.60734000  0.97452000  1.0
  N  N43  1  0.23298000  0.39266000  0.52548000  1.0
  O  O44  1  0.24173000  0.11552000  0.25867000  1.0
  O  O45  1  0.74173000  0.88449000  0.24134000  1.0
  O  O46  1  0.75827000  0.88449000  0.74133000  1.0
  O  O47  1  0.25827000  0.11551000  0.75866000  1.0
