# generated using pymatgen
data_CrCuH40C20(NO)4
_symmetry_space_group_name_H-M   'P 1'
_cell_length_a   9.45411000
_cell_length_b   11.69070000
_cell_length_c   14.17972861
_cell_angle_alpha   112.32216816
_cell_angle_beta   100.83804267
_cell_angle_gamma   102.37300000
_symmetry_Int_Tables_number   1
_chemical_formula_structural   CrCuH40C20(NO)4
_chemical_formula_sum   'Cr2 Cu2 H80 C40 N8 O8'
_cell_volume   1351.68682200
_cell_formula_units_Z   2
loop_
 _symmetry_equiv_pos_site_id
 _symmetry_equiv_pos_as_xyz
  1  'x, y, z'
loop_
 _atom_site_type_symbol
 _atom_site_label
 _atom_site_symmetry_multiplicity
 _atom_site_fract_x
 _atom_site_fract_y
 _atom_site_fract_z
 _atom_site_occupancy
  Cr  Cr0  1  0.99433000  0.09788000  0.27686000  1.0
  Cr  Cr1  1  0.00564000  0.90207000  0.72312000  1.0
  Cu  Cu2  1  0.00000000  0.00000000  0.00000000  1.0
  Cu  Cu3  1  0.00000000  1.00000000  0.49999000  1.0
  H  H4  1  0.19390000  0.98796000  0.11816000  1.0
  H  H5  1  0.80610000  0.01204000  0.88184000  1.0
  H  H6  1  0.92863000  0.78525000  0.84476000  1.0
  H  H7  1  0.07138000  0.21476000  0.15525000  1.0
  H  H8  1  0.79714000  0.01085000  0.36541000  1.0
  H  H9  1  0.20285000  0.98914000  0.63459000  1.0
  H  H10  1  0.91543000  0.78294000  0.46599000  1.0
  H  H11  1  0.08457000  0.21706000  0.53401000  1.0
  H  H12  1  0.80664000  0.66806000  0.03953000  1.0
  H  H13  1  0.19336000  0.33194000  0.96047000  1.0
  H  H14  1  0.63421000  0.70300000  0.01600000  1.0
  H  H15  1  0.36579000  0.29699000  0.98400000  1.0
  H  H16  1  0.80922000  0.83310000  0.08735000  1.0
  H  H17  1  0.19076000  0.16689000  0.91265000  1.0
  H  H18  1  0.73813000  0.63046000  0.85544000  1.0
  H  H19  1  0.26188000  0.36955000  0.14456000  1.0
  H  H20  1  0.67078000  0.78741000  0.79336000  1.0
  H  H21  1  0.32922000  0.21259000  0.20664000  1.0
  H  H22  1  0.53939000  0.72061000  0.84668000  1.0
  H  H23  1  0.46063000  0.27941000  0.15333000  1.0
  H  H24  1  0.55387000  0.94167000  0.90942000  1.0
  H  H25  1  0.44613000  0.05833000  0.09058000  1.0
  H  H26  1  0.65752000  0.93148000  0.02291000  1.0
  H  H27  1  0.34250000  0.06853000  0.97710000  1.0
  H  H28  1  0.20467000  0.83219000  0.90085000  1.0
  H  H29  1  0.79533000  0.16782000  0.09915000  1.0
  H  H30  1  0.31743000  0.81797000  0.11297000  1.0
  H  H31  1  0.68258000  0.18204000  0.88703000  1.0
  H  H32  1  0.43509000  0.86201000  0.04130000  1.0
  H  H33  1  0.56491000  0.13800000  0.95870000  1.0
  H  H34  1  0.31845000  0.64279000  0.88779000  1.0
  H  H35  1  0.68155000  0.35722000  0.11221000  1.0
  H  H36  1  0.39233000  0.62884000  0.00560000  1.0
  H  H37  1  0.60769000  0.37117000  0.99441000  1.0
  H  H38  1  0.13519000  0.57898000  0.02828000  1.0
  H  H39  1  0.86482000  0.42102000  0.97172000  1.0
  H  H40  1  0.13189000  0.46763000  0.90147000  1.0
  H  H41  1  0.86812000  0.53238000  0.09854000  1.0
  H  H42  1  0.02541000  0.59811000  0.81753000  1.0
  H  H43  1  0.97460000  0.40190000  0.18247000  1.0
  H  H44  1  0.90937000  0.54933000  0.88873000  1.0
  H  H45  1  0.09063000  0.45067000  0.11127000  1.0
  H  H46  1  0.03592000  0.76843000  0.04677000  1.0
  H  H47  1  0.96408000  0.23157000  0.95323000  1.0
  H  H48  1  0.98710000  0.73579000  0.20228000  1.0
  H  H49  1  0.01290000  0.26422000  0.79772000  1.0
  H  H50  1  0.11500000  0.88680000  0.30026000  1.0
  H  H51  1  0.88502000  0.11321000  0.69975000  1.0
  H  H52  1  0.17779000  0.74696000  0.25312000  1.0
  H  H53  1  0.82222000  0.25304000  0.74688000  1.0
  H  H54  1  0.99910000  0.63781000  0.32798000  1.0
  H  H55  1  0.00090000  0.36219000  0.67202000  1.0
  H  H56  1  0.15568000  0.75971000  0.51737000  1.0
  H  H57  1  0.84432000  0.24029000  0.48263000  1.0
  H  H58  1  0.25895000  0.72350000  0.42443000  1.0
  H  H59  1  0.74106000  0.27651000  0.57557000  1.0
  H  H60  1  0.69109000  0.04146000  0.55492000  1.0
  H  H61  1  0.30891000  0.95855000  0.44509000  1.0
  H  H62  1  0.60320000  0.06437000  0.44406000  1.0
  H  H63  1  0.39680000  0.93564000  0.55595000  1.0
  H  H64  1  0.67375000  0.82266000  0.44500000  1.0
  H  H65  1  0.32625000  0.17734000  0.55501000  1.0
  H  H66  1  0.56272000  0.84960000  0.23863000  1.0
  H  H67  1  0.43729000  0.15041000  0.76138000  1.0
  H  H68  1  0.47017000  0.87067000  0.33861000  1.0
  H  H69  1  0.52982000  0.12933000  0.66139000  1.0
  H  H70  1  0.41995000  0.63866000  0.30365000  1.0
  H  H71  1  0.58005000  0.36134000  0.69635000  1.0
  H  H72  1  0.34612000  0.64968000  0.18459000  1.0
  H  H73  1  0.65389000  0.35033000  0.81542000  1.0
  H  H74  1  0.48707000  0.48529000  0.15539000  1.0
  H  H75  1  0.51292000  0.51471000  0.84460000  1.0
  H  H76  1  0.57104000  0.61258000  0.12613000  1.0
  H  H77  1  0.42897000  0.38743000  0.87388000  1.0
  H  H78  1  0.76881000  0.56480000  0.23393000  1.0
  H  H79  1  0.23119000  0.43521000  0.76607000  1.0
  H  H80  1  0.67978000  0.59208000  0.33578000  1.0
  H  H81  1  0.32022000  0.40792000  0.66422000  1.0
  H  H82  1  0.80929000  0.79656000  0.26205000  1.0
  H  H83  1  0.19071000  0.20344000  0.73795000  1.0
  C  C84  1  0.75438000  0.73518000  0.02086000  1.0
  C  C85  1  0.24562000  0.26482000  0.97914000  1.0
  C  C86  1  0.23252000  0.26703000  0.08551000  1.0
  C  C87  1  0.76749000  0.73297000  0.91449000  1.0
  C  C88  1  0.34622000  0.21208000  0.13167000  1.0
  C  C89  1  0.65380000  0.78794000  0.86834000  1.0
  C  C90  1  0.34273000  0.07653000  0.05707000  1.0
  C  C91  1  0.65727000  0.92347000  0.94293000  1.0
  C  C92  1  0.19748000  0.84137000  0.98013000  1.0
  C  C93  1  0.80252000  0.15863000  0.01987000  1.0
  C  C94  1  0.32284000  0.80068000  0.03180000  1.0
  C  C95  1  0.67717000  0.19932000  0.96820000  1.0
  C  C96  1  0.30344000  0.65711000  0.96632000  1.0
  C  C97  1  0.69657000  0.34289000  0.03368000  1.0
  C  C98  1  0.14634000  0.57066000  0.95006000  1.0
  C  C99  1  0.85368000  0.42935000  0.04995000  1.0
  C  C100  1  0.02154000  0.61108000  0.89811000  1.0
  C  C101  1  0.97846000  0.38892000  0.10189000  1.0
  C  C102  1  0.04136000  0.75436000  0.96630000  1.0
  C  C103  1  0.95864000  0.24564000  0.03370000  1.0
  C  C104  1  0.08386000  0.78121000  0.27498000  1.0
  C  C105  1  0.91616000  0.21881000  0.72503000  1.0
  C  C106  1  0.04712000  0.74499000  0.36221000  1.0
  C  C107  1  0.95288000  0.25502000  0.63779000  1.0
  C  C108  1  0.18864000  0.78419000  0.45514000  1.0
  C  C109  1  0.81136000  0.21581000  0.54486000  1.0
  C  C110  1  0.71348000  0.07338000  0.49392000  1.0
  C  C111  1  0.28651000  0.92662000  0.50608000  1.0
  C  C112  1  0.69219000  0.84684000  0.37919000  1.0
  C  C113  1  0.30781000  0.15317000  0.62082000  1.0
  C  C114  1  0.53954000  0.81569000  0.29859000  1.0
  C  C115  1  0.46047000  0.18432000  0.70142000  1.0
  C  C116  1  0.45261000  0.66965000  0.24419000  1.0
  C  C117  1  0.54739000  0.33035000  0.75581000  1.0
  C  C118  1  0.54865000  0.58999000  0.19170000  1.0
  C  C119  1  0.45135000  0.41002000  0.80830000  1.0
  C  C120  1  0.69978000  0.62109000  0.27267000  1.0
  C  C121  1  0.30023000  0.37893000  0.72734000  1.0
  C  C122  1  0.78664000  0.76683000  0.32422000  1.0
  C  C123  1  0.21336000  0.23317000  0.67578000  1.0
  N  N124  1  0.20667000  0.97731000  0.04428000  1.0
  N  N125  1  0.79334000  0.02270000  0.95572000  1.0
  N  N126  1  0.07617000  0.19844000  0.07744000  1.0
  N  N127  1  0.92383000  0.80156000  0.92256000  1.0
  N  N128  1  0.78436000  0.98592000  0.42840000  1.0
  N  N129  1  0.21565000  0.01409000  0.57161000  1.0
  N  N130  1  0.93424000  0.80348000  0.40351000  1.0
  N  N131  1  0.06576000  0.19652000  0.59649000  1.0
  O  O132  1  0.04172000  0.99362000  0.18001000  1.0
  O  O133  1  0.95826000  0.00635000  0.81996000  1.0
  O  O134  1  0.80936000  0.03887000  0.25795000  1.0
  O  O135  1  0.19061000  0.96107000  0.74202000  1.0
  O  O136  1  0.03418000  0.24014000  0.27188000  1.0
  O  O137  1  0.96576000  0.75982000  0.72811000  1.0
  O  O138  1  0.09019000  0.11276000  0.39420000  1.0
  O  O139  1  0.90974000  0.88720000  0.60578000  1.0
