# generated using pymatgen
data_AgHC2(N2O)2
_symmetry_space_group_name_H-M   'P 1'
_cell_length_a   3.64719000
_cell_length_b   11.28070000
_cell_length_c   11.45970000
_cell_angle_alpha   89.99970000
_cell_angle_beta   91.63800000
_cell_angle_gamma   89.99940000
_symmetry_Int_Tables_number   1
_chemical_formula_structural   AgHC2(N2O)2
_chemical_formula_sum   'Ag4 H4 C8 N16 O8'
_cell_volume   471.29212995
_cell_formula_units_Z   4
loop_
 _symmetry_equiv_pos_site_id
 _symmetry_equiv_pos_as_xyz
  1  'x, y, z'
loop_
 _atom_site_type_symbol
 _atom_site_label
 _atom_site_symmetry_multiplicity
 _atom_site_fract_x
 _atom_site_fract_y
 _atom_site_fract_z
 _atom_site_occupancy
  Ag  Ag0  1  0.65346000  0.87983000  0.62336000  1.0
  Ag  Ag1  1  0.34655000  0.37984000  0.87664000  1.0
  Ag  Ag2  1  0.34655000  0.12017000  0.37664000  1.0
  Ag  Ag3  1  0.65346000  0.62016000  0.12337000  1.0
  H  H4  1  0.40662000  0.91301000  0.16654000  1.0
  H  H5  1  0.59338000  0.41301000  0.33346000  1.0
  H  H6  1  0.59336000  0.08699000  0.83346000  1.0
  H  H7  1  0.40663000  0.58700000  0.66654000  1.0
  C  C8  1  0.53073000  0.87606000  0.24545000  1.0
  C  C9  1  0.46927000  0.37606000  0.25455000  1.0
  C  C10  1  0.46927000  0.12394000  0.75455000  1.0
  C  C11  1  0.53072000  0.62394000  0.74545000  1.0
  C  C12  1  0.79708000  0.76372000  0.36626000  1.0
  C  C13  1  0.20292000  0.26373000  0.13374000  1.0
  C  C14  1  0.20291000  0.23627000  0.63374000  1.0
  C  C15  1  0.79708000  0.73627000  0.86626000  1.0
  N  N16  1  0.55518000  0.93527000  0.34777000  1.0
  N  N17  1  0.44483000  0.43528000  0.15224000  1.0
  N  N18  1  0.44483000  0.06473000  0.65223000  1.0
  N  N19  1  0.55517000  0.56473000  0.84777000  1.0
  N  N20  1  0.67728000  0.76686000  0.25355000  1.0
  N  N21  1  0.32272000  0.26686000  0.24645000  1.0
  N  N22  1  0.32271000  0.23314000  0.74645000  1.0
  N  N23  1  0.67728000  0.73314000  0.75355000  1.0
  N  N24  1  0.72757000  0.86283000  0.42624000  1.0
  N  N25  1  0.27244000  0.36284000  0.07376000  1.0
  N  N26  1  0.27243000  0.13717000  0.57376000  1.0
  N  N27  1  0.72757000  0.63717000  0.92624000  1.0
  N  N28  1  0.99378000  0.66557000  0.41614000  1.0
  N  N29  1  0.00622000  0.16558000  0.08386000  1.0
  N  N30  1  0.00623000  0.33442000  0.58385000  1.0
  N  N31  1  0.99377000  0.83442000  0.91614000  1.0
  O  O32  1  0.03718000  0.57640000  0.35399000  1.0
  O  O33  1  0.96282000  0.07641000  0.14600000  1.0
  O  O34  1  0.96280000  0.42360000  0.64600000  1.0
  O  O35  1  0.03719000  0.92359000  0.85400000  1.0
  O  O36  1  0.11655000  0.67616000  0.51814000  1.0
  O  O37  1  0.88345000  0.17618000  0.98186000  1.0
  O  O38  1  0.88348000  0.32383000  0.48185000  1.0
  O  O39  1  0.11653000  0.82383000  0.01814000  1.0
