# generated using pymatgen
data_Zn2H14C24N4Cl4O9
_symmetry_space_group_name_H-M   'P 1'
_cell_length_a   11.23480000
_cell_length_b   11.23480000
_cell_length_c   14.59400000
_cell_angle_alpha   109.13200000
_cell_angle_beta   109.13200000
_cell_angle_gamma   97.00650000
_symmetry_Int_Tables_number   1
_chemical_formula_structural   Zn2H14C24N4Cl4O9
_chemical_formula_sum   'Zn4 H28 C48 N8 Cl8 O18'
_cell_volume   1588.96702871
_cell_formula_units_Z   2
loop_
 _symmetry_equiv_pos_site_id
 _symmetry_equiv_pos_as_xyz
  1  'x, y, z'
loop_
 _atom_site_type_symbol
 _atom_site_label
 _atom_site_symmetry_multiplicity
 _atom_site_fract_x
 _atom_site_fract_y
 _atom_site_fract_z
 _atom_site_occupancy
  Zn  Zn0  1  0.28205000  0.52653000  0.28850000  1.0
  Zn  Zn1  1  0.47347000  0.71795000  0.21150000  1.0
  Zn  Zn2  1  0.71795000  0.47347000  0.71150000  1.0
  Zn  Zn3  1  0.52653000  0.28205000  0.78850000  1.0
  H  H4  1  0.31004000  0.76645000  0.31705000  1.0
  H  H5  1  0.23355000  0.68996000  0.18295000  1.0
  H  H6  1  0.68996000  0.23355000  0.68295000  1.0
  H  H7  1  0.76645000  0.31004000  0.81705000  1.0
  H  H8  1  0.08079000  0.30517000  0.92987000  1.0
  H  H9  1  0.69483000  0.91921000  0.57013000  1.0
  H  H10  1  0.91921000  0.69483000  0.07013000  1.0
  H  H11  1  0.30517000  0.08079000  0.42987000  1.0
  H  H12  1  0.22659000  0.19106000  0.68185000  1.0
  H  H13  1  0.80894000  0.77342000  0.81815000  1.0
  H  H14  1  0.77341000  0.80894000  0.31815000  1.0
  H  H15  1  0.19106000  0.22659000  0.18185000  1.0
  H  H16  1  0.49227000  0.37658000  0.99144000  1.0
  H  H17  1  0.62342000  0.50774000  0.50857000  1.0
  H  H18  1  0.50773000  0.62342000  0.00856000  1.0
  H  H19  1  0.37658000  0.49227000  0.49144000  1.0
  H  H20  1  0.39304000  0.69472000  0.64498000  1.0
  H  H21  1  0.30528000  0.60695000  0.85502000  1.0
  H  H22  1  0.60695000  0.30528000  0.35502000  1.0
  H  H23  1  0.69472000  0.39305000  0.14498000  1.0
  H  H24  1  0.55526000  0.08068000  0.89534000  1.0
  H  H25  1  0.91932000  0.44474000  0.60465000  1.0
  H  H26  1  0.44474000  0.91932000  0.10466000  1.0
  H  H27  1  0.08068000  0.55526000  0.39534000  1.0
  H  H28  1  0.42231000  0.04607000  0.58494000  1.0
  H  H29  1  0.95393000  0.57769000  0.91506000  1.0
  H  H30  1  0.57769000  0.95393000  0.41506000  1.0
  H  H31  1  0.04607000  0.42231000  0.08494000  1.0
  C  C32  1  0.32987000  0.42693000  0.09176000  1.0
  C  C33  1  0.57307000  0.67014000  0.40824000  1.0
  C  C34  1  0.67014000  0.57307000  0.90823000  1.0
  C  C35  1  0.42693000  0.32987000  0.59176000  1.0
  C  C36  1  0.29111000  0.34813000  0.97588000  1.0
  C  C37  1  0.65187000  0.70889000  0.52412000  1.0
  C  C38  1  0.70889000  0.65187000  0.02412000  1.0
  C  C39  1  0.34813000  0.29111000  0.47588000  1.0
  C  C40  1  0.16126000  0.29721000  0.90384000  1.0
  C  C41  1  0.70280000  0.83874000  0.59616000  1.0
  C  C42  1  0.83874000  0.70279000  0.09616000  1.0
  C  C43  1  0.29721000  0.16126000  0.40384000  1.0
  C  C44  1  0.13764000  0.24125000  0.79664000  1.0
  C  C45  1  0.75876000  0.86236000  0.70336000  1.0
  C  C46  1  0.86236000  0.75875000  0.20336000  1.0
  C  C47  1  0.24125000  0.13764000  0.29664000  1.0
  C  C48  1  0.24184000  0.23269000  0.76485000  1.0
  C  C49  1  0.76731000  0.75816000  0.73515000  1.0
  C  C50  1  0.75816000  0.76731000  0.23515000  1.0
  C  C51  1  0.23269000  0.24184000  0.26485000  1.0
  C  C52  1  0.39019000  0.33690000  0.93807000  1.0
  C  C53  1  0.66310000  0.60981000  0.56193000  1.0
  C  C54  1  0.60981000  0.66310000  0.06193000  1.0
  C  C55  1  0.33690000  0.39019000  0.43807000  1.0
  C  C56  1  0.33935000  0.78515000  0.48241000  1.0
  C  C57  1  0.21485000  0.66065000  0.01759000  1.0
  C  C58  1  0.66065000  0.21484000  0.51759000  1.0
  C  C59  1  0.78515000  0.33935000  0.98241000  1.0
  C  C60  1  0.39771000  0.86071000  0.60024000  1.0
  C  C61  1  0.13929000  0.60229000  0.89976000  1.0
  C  C62  1  0.60229000  0.13929000  0.39976000  1.0
  C  C63  1  0.86071000  0.39771000  0.10024000  1.0
  C  C64  1  0.41926000  0.80059000  0.67215000  1.0
  C  C65  1  0.19942000  0.58073000  0.82785000  1.0
  C  C66  1  0.58073000  0.19942000  0.32785000  1.0
  C  C67  1  0.80058000  0.41927000  0.17215000  1.0
  C  C68  1  0.47655000  0.88047000  0.77938000  1.0
  C  C69  1  0.11953000  0.52345000  0.72062000  1.0
  C  C70  1  0.52345000  0.11953000  0.22062000  1.0
  C  C71  1  0.88047000  0.47655000  0.27938000  1.0
  C  C72  1  0.51024000  0.01594000  0.81212000  1.0
  C  C73  1  0.98407000  0.48975000  0.68788000  1.0
  C  C74  1  0.48976000  0.98406000  0.18788000  1.0
  C  C75  1  0.01594000  0.51024000  0.31212000  1.0
  C  C76  1  0.43594000  0.99647000  0.63875000  1.0
  C  C77  1  0.00354000  0.56407000  0.86125000  1.0
  C  C78  1  0.56406000  0.00353000  0.36125000  1.0
  C  C79  1  0.99647000  0.43593000  0.13875000  1.0
  N  N80  1  0.36579000  0.27887000  0.83536000  1.0
  N  N81  1  0.72113000  0.63420000  0.66464000  1.0
  N  N82  1  0.63420000  0.72113000  0.16464000  1.0
  N  N83  1  0.27887000  0.36580000  0.33536000  1.0
  N  N84  1  0.49013000  0.07216000  0.74206000  1.0
  N  N85  1  0.92784000  0.50987000  0.75794000  1.0
  N  N86  1  0.50987000  0.92784000  0.25794000  1.0
  N  N87  1  0.07216000  0.49013000  0.24206000  1.0
  Cl  Cl88  1  0.98136000  0.18662000  0.70113000  1.0
  Cl  Cl89  1  0.81338000  0.01864000  0.79887000  1.0
  Cl  Cl90  1  0.01864000  0.81338000  0.29887000  1.0
  Cl  Cl91  1  0.18662000  0.98136000  0.20112000  1.0
  Cl  Cl92  1  0.50909000  0.81447000  0.87380000  1.0
  Cl  Cl93  1  0.18553000  0.49090000  0.62620000  1.0
  Cl  Cl94  1  0.49091000  0.18553000  0.12620000  1.0
  Cl  Cl95  1  0.81447000  0.50910000  0.37380000  1.0
  O  O96  1  0.24980000  0.40545000  0.13284000  1.0
  O  O97  1  0.59455000  0.75020000  0.36716000  1.0
  O  O98  1  0.75020000  0.59455000  0.86715000  1.0
  O  O99  1  0.40545000  0.24980000  0.63284000  1.0
  O  O100  1  0.43844000  0.51100000  0.13721000  1.0
  O  O101  1  0.48900000  0.56156000  0.36279000  1.0
  O  O102  1  0.56156000  0.48900000  0.86279000  1.0
  O  O103  1  0.51100000  0.43844000  0.63721000  1.0
  O  O104  1  0.30776000  0.66139000  0.44854000  1.0
  O  O105  1  0.33861000  0.69224000  0.05146000  1.0
  O  O106  1  0.69224000  0.33861000  0.55146000  1.0
  O  O107  1  0.66139000  0.30776000  0.94854000  1.0
  O  O108  1  0.32897000  0.85274000  0.42650000  1.0
  O  O109  1  0.14726000  0.67102000  0.07350000  1.0
  O  O110  1  0.67102000  0.14726000  0.57350000  1.0
  O  O111  1  0.85274000  0.32898000  0.92650000  1.0
  O  O112  1  0.30672000  0.69328000  0.25000000  1.0
  O  O113  1  0.69328000  0.30672000  0.75000000  1.0
