# generated using pymatgen
data_Zn4H8C40N8O29F4
_symmetry_space_group_name_H-M   'P 1'
_cell_length_a   23.86272549
_cell_length_b   23.86250000
_cell_length_c   23.86080000
_cell_angle_alpha   72.43700000
_cell_angle_beta   66.63748623
_cell_angle_gamma   107.56305194
_symmetry_Int_Tables_number   1
_chemical_formula_structural   Zn4H8C40N8O29F4
_chemical_formula_sum   'Zn8 H16 C80 N16 O58 F8'
_cell_volume   10422.34851594
_cell_formula_units_Z   2
loop_
 _symmetry_equiv_pos_site_id
 _symmetry_equiv_pos_as_xyz
  1  'x, y, z'
loop_
 _atom_site_type_symbol
 _atom_site_label
 _atom_site_symmetry_multiplicity
 _atom_site_fract_x
 _atom_site_fract_y
 _atom_site_fract_z
 _atom_site_occupancy
  Zn  Zn0  1  0.48608000  0.44297000  0.45682000  1.0
  Zn  Zn1  1  0.45683000  0.55702000  0.48608000  1.0
  Zn  Zn2  1  0.45690000  0.44300000  0.60020000  1.0
  Zn  Zn3  1  0.60021000  0.55701000  0.45687000  1.0
  Zn  Zn4  1  0.01390000  0.55708000  0.04312000  1.0
  Zn  Zn5  1  0.04318000  0.55709000  0.89979000  1.0
  Zn  Zn6  1  0.04312000  0.44291000  0.01390000  1.0
  Zn  Zn7  1  0.89981000  0.44289000  0.04319000  1.0
  H  H8  1  0.11282000  0.76487000  0.96400000  1.0
  H  H9  1  0.15207000  0.76488000  0.77109000  1.0
  H  H10  1  0.34731000  0.23523000  0.72900000  1.0
  H  H11  1  0.38801000  0.23527000  0.53577000  1.0
  H  H12  1  0.77115000  0.23514000  0.15204000  1.0
  H  H13  1  0.96402000  0.23511000  0.11282000  1.0
  H  H14  1  0.53578000  0.76474000  0.38800000  1.0
  H  H15  1  0.72899000  0.76476000  0.34732000  1.0
  H  H16  1  0.11205000  0.57628000  0.15270000  1.0
  H  H17  1  0.15271000  0.42375000  0.11204000  1.0
  H  H18  1  0.34795000  0.57683000  0.38719000  1.0
  H  H19  1  0.38716000  0.42317000  0.34797000  1.0
  H  H20  1  0.96423000  0.57622000  0.77103000  1.0
  H  H21  1  0.77099000  0.42369000  0.96424000  1.0
  H  H22  1  0.72891000  0.57685000  0.53596000  1.0
  H  H23  1  0.53601000  0.42320000  0.72887000  1.0
  C  C24  1  0.40928000  0.49999000  0.40930000  1.0
  C  C25  1  0.36248000  0.50002000  0.63752000  1.0
  C  C26  1  0.40937000  0.31870000  0.59066000  1.0
  C  C27  1  0.59073000  0.50001000  0.59069000  1.0
  C  C28  1  0.63751000  0.49998000  0.36243000  1.0
  C  C29  1  0.59066000  0.68130000  0.40937000  1.0
  C  C30  1  0.09072000  0.68141000  0.90928000  1.0
  C  C31  1  0.13754000  0.50002000  0.86244000  1.0
  C  C32  1  0.09064000  0.50001000  0.09066000  1.0
  C  C33  1  0.90932000  0.31858000  0.09070000  1.0
  C  C34  1  0.86244000  0.49996000  0.13754000  1.0
  C  C35  1  0.90933000  0.49996000  0.90937000  1.0
  C  C36  1  0.69481000  0.49996000  0.30513000  1.0
  C  C37  1  0.80512000  0.49995000  0.19485000  1.0
  C  C38  1  0.76566000  0.54226000  0.27665000  1.0
  C  C39  1  0.73427000  0.45762000  0.22336000  1.0
  C  C40  1  0.81892000  0.54226000  0.22339000  1.0
  C  C41  1  0.68100000  0.45765000  0.27659000  1.0
  C  C42  1  0.30517000  0.50003000  0.69483000  1.0
  C  C43  1  0.19486000  0.50003000  0.80513000  1.0
  C  C44  1  0.27663000  0.45769000  0.76569000  1.0
  C  C45  1  0.22343000  0.54240000  0.73427000  1.0
  C  C46  1  0.22334000  0.45767000  0.81895000  1.0
  C  C47  1  0.27668000  0.54238000  0.68100000  1.0
  C  C48  1  0.12820000  0.75637000  0.87179000  1.0
  C  C49  1  0.13448000  0.79160000  0.90831000  1.0
  C  C50  1  0.16772000  0.86102000  0.87327000  1.0
  C  C51  1  0.19955000  0.89907000  0.80045000  1.0
  C  C52  1  0.19333000  0.86104000  0.76566000  1.0
  C  C53  1  0.15715000  0.79161000  0.80005000  1.0
  C  C54  1  0.23478000  0.96953000  0.76522000  1.0
  C  C55  1  0.26531000  0.03059000  0.73470000  1.0
  C  C56  1  0.30056000  0.10106000  0.69947000  1.0
  C  C57  1  0.31026000  0.13907000  0.73355000  1.0
  C  C58  1  0.34325000  0.20851000  0.69983000  1.0
  C  C59  1  0.37191000  0.24373000  0.62814000  1.0
  C  C60  1  0.36535000  0.20852000  0.59167000  1.0
  C  C61  1  0.32889000  0.13909000  0.62738000  1.0
  C  C62  1  0.87184000  0.24362000  0.12818000  1.0
  C  C63  1  0.80009000  0.20839000  0.15713000  1.0
  C  C64  1  0.76570000  0.13897000  0.19332000  1.0
  C  C65  1  0.80047000  0.10093000  0.19954000  1.0
  C  C66  1  0.87329000  0.13896000  0.16772000  1.0
  C  C67  1  0.90834000  0.20838000  0.13447000  1.0
  C  C68  1  0.76523000  0.03047000  0.23478000  1.0
  C  C69  1  0.73470000  0.96940000  0.26532000  1.0
  C  C70  1  0.69947000  0.89894000  0.30056000  1.0
  C  C71  1  0.62739000  0.86092000  0.32888000  1.0
  C  C72  1  0.59167000  0.79148000  0.36534000  1.0
  C  C73  1  0.62814000  0.75626000  0.37190000  1.0
  C  C74  1  0.69982000  0.79149000  0.34325000  1.0
  C  C75  1  0.73353000  0.86092000  0.31027000  1.0
  C  C76  1  0.12813000  0.50001000  0.12814000  1.0
  C  C77  1  0.13469000  0.54304000  0.15680000  1.0
  C  C78  1  0.17114000  0.54377000  0.18978000  1.0
  C  C79  1  0.19946000  0.50001000  0.19948000  1.0
  C  C80  1  0.18976000  0.45625000  0.17116000  1.0
  C  C81  1  0.15678000  0.45698000  0.13471000  1.0
  C  C82  1  0.23469000  0.50001000  0.23472000  1.0
  C  C83  1  0.26521000  0.49999000  0.26526000  1.0
  C  C84  1  0.30044000  0.49999000  0.30049000  1.0
  C  C85  1  0.30668000  0.54100000  0.33230000  1.0
  C  C86  1  0.34285000  0.54279000  0.36555000  1.0
  C  C87  1  0.37179000  0.49999000  0.37183000  1.0
  C  C88  1  0.36550000  0.45719000  0.34290000  1.0
  C  C89  1  0.33225000  0.45899000  0.30672000  1.0
  C  C90  1  0.87186000  0.49996000  0.87188000  1.0
  C  C91  1  0.90834000  0.54299000  0.80018000  1.0
  C  C92  1  0.87262000  0.54373000  0.76646000  1.0
  C  C93  1  0.80054000  0.49998000  0.80052000  1.0
  C  C94  1  0.76647000  0.45621000  0.87261000  1.0
  C  C95  1  0.80017000  0.45693000  0.90834000  1.0
  C  C96  1  0.76532000  0.50000000  0.76528000  1.0
  C  C97  1  0.73478000  0.49999000  0.73476000  1.0
  C  C98  1  0.69955000  0.50000000  0.69952000  1.0
  C  C99  1  0.73433000  0.54100000  0.62670000  1.0
  C  C100  1  0.69995000  0.54281000  0.59165000  1.0
  C  C101  1  0.62821000  0.50002000  0.62817000  1.0
  C  C102  1  0.59169000  0.45722000  0.69992000  1.0
  C  C103  1  0.62673000  0.45900000  0.73431000  1.0
  N  N104  1  0.22688000  0.89539000  0.68917000  1.0
  N  N105  1  0.16849000  0.89534000  0.91545000  1.0
  N  N106  1  0.31944000  0.10466000  0.58709000  1.0
  N  N107  1  0.28526000  0.10462000  0.80827000  1.0
  N  N108  1  0.91542000  0.10460000  0.16852000  1.0
  N  N109  1  0.68921000  0.10463000  0.22685000  1.0
  N  N110  1  0.80825000  0.89536000  0.28528000  1.0
  N  N111  1  0.58711000  0.89535000  0.31943000  1.0
  N  N112  1  0.21474000  0.40652000  0.18061000  1.0
  N  N113  1  0.18059000  0.59350000  0.21477000  1.0
  N  N114  1  0.33144000  0.41602000  0.27319000  1.0
  N  N115  1  0.27313000  0.58394000  0.33151000  1.0
  N  N116  1  0.69175000  0.40648000  0.91289000  1.0
  N  N117  1  0.91291000  0.59347000  0.69174000  1.0
  N  N118  1  0.58457000  0.41605000  0.81080000  1.0
  N  N119  1  0.81082000  0.58394000  0.58455000  1.0
  O  O120  1  0.50001000  0.50000000  0.49999000  1.0
  O  O121  1  0.43376000  0.45928000  0.41340000  1.0
  O  O122  1  0.38436000  0.54035000  0.57541000  1.0
  O  O123  1  0.41427000  0.34728000  0.62709000  1.0
  O  O124  1  0.41339000  0.54072000  0.43377000  1.0
  O  O125  1  0.43304000  0.34727000  0.52563000  1.0
  O  O126  1  0.38424000  0.45968000  0.65599000  1.0
  O  O127  1  0.52553000  0.45929000  0.62731000  1.0
  O  O128  1  0.65597000  0.54034000  0.38418000  1.0
  O  O129  1  0.62735000  0.54072000  0.52548000  1.0
  O  O130  1  0.57540000  0.45963000  0.38434000  1.0
  O  O131  1  0.52565000  0.65272000  0.43301000  1.0
  O  O132  1  0.62709000  0.65272000  0.41428000  1.0
  O  O133  1  0.00001000  0.50000000  0.99999000  1.0
  O  O134  1  0.06625000  0.65283000  0.97448000  1.0
  O  O135  1  0.11560000  0.54018000  0.84398000  1.0
  O  O136  1  0.08572000  0.45865000  0.06700000  1.0
  O  O137  1  0.08662000  0.65283000  0.87266000  1.0
  O  O138  1  0.06698000  0.54136000  0.08575000  1.0
  O  O139  1  0.11582000  0.45984000  0.92455000  1.0
  O  O140  1  0.97451000  0.34716000  0.06621000  1.0
  O  O141  1  0.84399000  0.45972000  0.11567000  1.0
  O  O142  1  0.87270000  0.34715000  0.08660000  1.0
  O  O143  1  0.92454000  0.54019000  0.11577000  1.0
  O  O144  1  0.97434000  0.54133000  0.87293000  1.0
  O  O145  1  0.87290000  0.45862000  0.97438000  1.0
  O  O146  1  0.28777000  0.94084000  0.65442000  1.0
  O  O147  1  0.19137000  0.87458000  0.66650000  1.0
  O  O148  1  0.15308000  0.94081000  0.90473000  1.0
  O  O149  1  0.18314000  0.87449000  0.95896000  1.0
  O  O150  1  0.26032000  0.05918000  0.61332000  1.0
  O  O151  1  0.37144000  0.12540000  0.52982000  1.0
  O  O152  1  0.29893000  0.05917000  0.82752000  1.0
  O  O153  1  0.25396000  0.12534000  0.84481000  1.0
  O  O154  1  0.90471000  0.05915000  0.15309000  1.0
  O  O155  1  0.95891000  0.12542000  0.18320000  1.0
  O  O156  1  0.65444000  0.05918000  0.28774000  1.0
  O  O157  1  0.66657000  0.12547000  0.19132000  1.0
  O  O158  1  0.82751000  0.94083000  0.29892000  1.0
  O  O159  1  0.84479000  0.87464000  0.25399000  1.0
  O  O160  1  0.61333000  0.94082000  0.26030000  1.0
  O  O161  1  0.52984000  0.87462000  0.37144000  1.0
  O  O162  1  0.20107000  0.37360000  0.23974000  1.0
  O  O163  1  0.24603000  0.40126000  0.12860000  1.0
  O  O164  1  0.23971000  0.62640000  0.20113000  1.0
  O  O165  1  0.12858000  0.59876000  0.24605000  1.0
  O  O166  1  0.34687000  0.44214000  0.21230000  1.0
  O  O167  1  0.31676000  0.35785000  0.30872000  1.0
  O  O168  1  0.21224000  0.55781000  0.34696000  1.0
  O  O169  1  0.30866000  0.64212000  0.31681000  1.0
  O  O170  1  0.67249000  0.37358000  0.88667000  1.0
  O  O171  1  0.65521000  0.40122000  0.97017000  1.0
  O  O172  1  0.88669000  0.62637000  0.67248000  1.0
  O  O173  1  0.97019000  0.59875000  0.65519000  1.0
  O  O174  1  0.59527000  0.44217000  0.84557000  1.0
  O  O175  1  0.54107000  0.35789000  0.83345000  1.0
  O  O176  1  0.84557000  0.55781000  0.59524000  1.0
  O  O177  1  0.83349000  0.64212000  0.54105000  1.0
  F  F178  1  0.78599000  0.58502000  0.29916000  1.0
  F  F179  1  0.71393000  0.41479000  0.20091000  1.0
  F  F180  1  0.88419000  0.58507000  0.20092000  1.0
  F  F181  1  0.61572000  0.41490000  0.29900000  1.0
  F  F182  1  0.29911000  0.41490000  0.78603000  1.0
  F  F183  1  0.20103000  0.58527000  0.71392000  1.0
  F  F184  1  0.20080000  0.41479000  0.88423000  1.0
  F  F185  1  0.29915000  0.58519000  0.61572000  1.0
