# generated using pymatgen
data_ZnH15C23(NO3)2
_symmetry_space_group_name_H-M   'P 1'
_cell_length_a   15.10350000
_cell_length_b   15.85770000
_cell_length_c   24.17040000
_cell_angle_alpha   90.00000000
_cell_angle_beta   90.00010000
_cell_angle_gamma   111.81900000
_symmetry_Int_Tables_number   1
_chemical_formula_structural   ZnH15C23(NO3)2
_chemical_formula_sum   'Zn8 H120 C184 N16 O48'
_cell_volume   5374.26754843
_cell_formula_units_Z   8
loop_
 _symmetry_equiv_pos_site_id
 _symmetry_equiv_pos_as_xyz
  1  'x, y, z'
loop_
 _atom_site_type_symbol
 _atom_site_label
 _atom_site_symmetry_multiplicity
 _atom_site_fract_x
 _atom_site_fract_y
 _atom_site_fract_z
 _atom_site_occupancy
  Zn  Zn0  1  0.69212000  0.64248000  0.27569000  1.0
  Zn  Zn1  1  0.30788000  0.85752000  0.77569000  1.0
  Zn  Zn2  1  0.30788000  0.35752000  0.72431000  1.0
  Zn  Zn3  1  0.69212000  0.14248000  0.22431000  1.0
  Zn  Zn4  1  0.83653000  0.86480000  0.27542000  1.0
  Zn  Zn5  1  0.16347000  0.63520000  0.77542000  1.0
  Zn  Zn6  1  0.16347000  0.13520000  0.72458000  1.0
  Zn  Zn7  1  0.83653000  0.36480000  0.22458000  1.0
  H  H8  1  0.46689000  0.17547000  0.29872000  1.0
  H  H9  1  0.53311000  0.32453000  0.79872000  1.0
  H  H10  1  0.53311000  0.82453000  0.70128000  1.0
  H  H11  1  0.46689000  0.67547000  0.20128000  1.0
  H  H12  1  0.13267000  0.77555000  0.27361000  1.0
  H  H13  1  0.86733000  0.72445000  0.77361000  1.0
  H  H14  1  0.86733000  0.22445000  0.72639000  1.0
  H  H15  1  0.13267000  0.27555000  0.22639000  1.0
  H  H16  1  0.63978000  0.95693000  0.35436000  1.0
  H  H17  1  0.36022000  0.54307000  0.85436000  1.0
  H  H18  1  0.36022000  0.04307000  0.64564000  1.0
  H  H19  1  0.63977000  0.45693000  0.14564000  1.0
  H  H20  1  0.46900000  0.67141000  0.35614000  1.0
  H  H21  1  0.53100000  0.82859000  0.85614000  1.0
  H  H22  1  0.53100000  0.32859000  0.64386000  1.0
  H  H23  1  0.46900000  0.17141000  0.14385000  1.0
  H  H24  1  0.33684000  0.70377000  0.40404000  1.0
  H  H25  1  0.66316000  0.79623000  0.90404000  1.0
  H  H26  1  0.66317000  0.29623000  0.59596000  1.0
  H  H27  1  0.33684000  0.20377000  0.09596000  1.0
  H  H28  1  0.50893000  0.98904000  0.40271000  1.0
  H  H29  1  0.49107000  0.51096000  0.90271000  1.0
  H  H30  1  0.49107000  0.01096000  0.59729000  1.0
  H  H31  1  0.50893000  0.48904000  0.09730000  1.0
  H  H32  1  0.48342000  0.83517000  0.49652000  1.0
  H  H33  1  0.51658000  0.66484000  0.99652000  1.0
  H  H34  1  0.51658000  0.16484000  0.50348000  1.0
  H  H35  1  0.48342000  0.33516000  0.00348000  1.0
  H  H36  1  0.22287000  0.88767000  0.50046000  1.0
  H  H37  1  0.77712000  0.61233000  0.00046000  1.0
  H  H38  1  0.77713000  0.11233000  0.49954000  1.0
  H  H39  1  0.22288000  0.38767000  0.99954000  1.0
  H  H40  1  0.22232000  0.87874000  0.60351000  1.0
  H  H41  1  0.77768000  0.62127000  0.10351000  1.0
  H  H42  1  0.77768000  0.12126000  0.39649000  1.0
  H  H43  1  0.22232000  0.37874000  0.89649000  1.0
  H  H44  1  0.48220000  0.82760000  0.59920000  1.0
  H  H45  1  0.51780000  0.67240000  0.09920000  1.0
  H  H46  1  0.51780000  0.17240000  0.40080000  1.0
  H  H47  1  0.48220000  0.32760000  0.90080000  1.0
  H  H48  1  0.89506000  0.54701000  0.33750000  1.0
  H  H49  1  0.10494000  0.95299000  0.83750000  1.0
  H  H50  1  0.10494000  0.45299000  0.66250000  1.0
  H  H51  1  0.89506000  0.04701000  0.16249000  1.0
  H  H52  1  0.05160000  0.83173000  0.36447000  1.0
  H  H53  1  0.94841000  0.66827000  0.86447000  1.0
  H  H54  1  0.94841000  0.16827000  0.63553000  1.0
  H  H55  1  0.05159000  0.33173000  0.13553000  1.0
  H  H56  1  0.02135000  0.51003000  0.38788000  1.0
  H  H57  1  0.97864000  0.98997000  0.88788000  1.0
  H  H58  1  0.97864000  0.48997000  0.61212000  1.0
  H  H59  1  0.02136000  0.01003000  0.11212000  1.0
  H  H60  1  0.17797000  0.79465000  0.41574000  1.0
  H  H61  1  0.82203000  0.70535000  0.91574000  1.0
  H  H62  1  0.82203000  0.20535000  0.58426000  1.0
  H  H63  1  0.17797000  0.29465000  0.08426000  1.0
  H  H64  1  0.29360000  0.61459000  0.50509000  1.0
  H  H65  1  0.70640000  0.88541000  0.00509000  1.0
  H  H66  1  0.70640000  0.38541000  0.49491000  1.0
  H  H67  1  0.29360000  0.11459000  0.99491000  1.0
  H  H68  1  0.02623000  0.65369000  0.49468000  1.0
  H  H69  1  0.97377000  0.84631000  0.99468000  1.0
  H  H70  1  0.97377000  0.34631000  0.50532000  1.0
  H  H71  1  0.02623000  0.15369000  0.00532000  1.0
  H  H72  1  0.28674000  0.62222000  0.60842000  1.0
  H  H73  1  0.71327000  0.87778000  0.10842000  1.0
  H  H74  1  0.71327000  0.37778000  0.39158000  1.0
  H  H75  1  0.28673000  0.12222000  0.89158000  1.0
  H  H76  1  0.02018000  0.66085000  0.59726000  1.0
  H  H77  1  0.97983000  0.83915000  0.09726000  1.0
  H  H78  1  0.97982000  0.33915000  0.40274000  1.0
  H  H79  1  0.02018000  0.16085000  0.90274000  1.0
  H  H80  1  0.70042000  0.45486000  0.29093000  1.0
  H  H81  1  0.29958000  0.04514000  0.79093000  1.0
  H  H82  1  0.29958000  0.54514000  0.70907000  1.0
  H  H83  1  0.70042000  0.95486000  0.20907000  1.0
  H  H84  1  0.48707000  0.56080000  0.29597000  1.0
  H  H85  1  0.51293000  0.93920000  0.79597000  1.0
  H  H86  1  0.51293000  0.43920000  0.70403000  1.0
  H  H87  1  0.48708000  0.06080000  0.20403000  1.0
  H  H88  1  0.58438000  0.29744000  0.28687000  1.0
  H  H89  1  0.41562000  0.20256000  0.78686000  1.0
  H  H90  1  0.41563000  0.70257000  0.71314000  1.0
  H  H91  1  0.58437000  0.79744000  0.21313000  1.0
  H  H92  1  0.35936000  0.40439000  0.29251000  1.0
  H  H93  1  0.64064000  0.09561000  0.79251000  1.0
  H  H94  1  0.64064000  0.59561000  0.70749000  1.0
  H  H95  1  0.35936000  0.90439000  0.20749000  1.0
  H  H96  1  0.37043000  0.02571000  0.34576000  1.0
  H  H97  1  0.62957000  0.47429000  0.84576000  1.0
  H  H98  1  0.62957000  0.97430000  0.65423000  1.0
  H  H99  1  0.37043000  0.52571000  0.15424000  1.0
  H  H100  1  0.28456000  0.12122000  0.19596000  1.0
  H  H101  1  0.71544000  0.37878000  0.69596000  1.0
  H  H102  1  0.71544000  0.87878000  0.80404000  1.0
  H  H103  1  0.28456000  0.62122000  0.30404000  1.0
  H  H104  1  0.17045000  0.96487000  0.17565000  1.0
  H  H105  1  0.82955000  0.53513000  0.67565000  1.0
  H  H106  1  0.82955000  0.03514000  0.82435000  1.0
  H  H107  1  0.17045000  0.46487000  0.32435000  1.0
  H  H108  1  0.25762000  0.86964000  0.32525000  1.0
  H  H109  1  0.74238000  0.63036000  0.82525000  1.0
  H  H110  1  0.74238000  0.13036000  0.67475000  1.0
  H  H111  1  0.25762000  0.36964000  0.17475000  1.0
  H  H112  1  0.15230000  0.63820000  0.22620000  1.0
  H  H113  1  0.84770000  0.86180000  0.72620000  1.0
  H  H114  1  0.84770000  0.36180000  0.77380000  1.0
  H  H115  1  0.15230000  0.13820000  0.27380000  1.0
  H  H116  1  0.90708000  0.69739000  0.17525000  1.0
  H  H117  1  0.09292000  0.80261000  0.67526000  1.0
  H  H118  1  0.09292000  0.30261000  0.82475000  1.0
  H  H119  1  0.90708000  0.19739000  0.32474000  1.0
  H  H120  1  0.04343000  0.47407000  0.23458000  1.0
  H  H121  1  0.95657000  0.02593000  0.73457000  1.0
  H  H122  1  0.95657000  0.52593000  0.76542000  1.0
  H  H123  1  0.04343000  0.97407000  0.26542000  1.0
  H  H124  1  0.80819000  0.53184000  0.18680000  1.0
  H  H125  1  0.19181000  0.96816000  0.68681000  1.0
  H  H126  1  0.19181000  0.46816000  0.81320000  1.0
  H  H127  1  0.80819000  0.03184000  0.31319000  1.0
  C  C128  1  0.64348000  0.79284000  0.32776000  1.0
  C  C129  1  0.35652000  0.70716000  0.82776000  1.0
  C  C130  1  0.35652000  0.20716000  0.67224000  1.0
  C  C131  1  0.64348000  0.29284000  0.17224000  1.0
  C  C132  1  0.56292000  0.81207000  0.35337000  1.0
  C  C133  1  0.43708000  0.68793000  0.85336000  1.0
  C  C134  1  0.43708000  0.18793000  0.64664000  1.0
  C  C135  1  0.56292000  0.31206000  0.14664000  1.0
  C  C136  1  0.57345000  0.90181000  0.36515000  1.0
  C  C137  1  0.42655000  0.59819000  0.86515000  1.0
  C  C138  1  0.42655000  0.09819000  0.63485000  1.0
  C  C139  1  0.57345000  0.40181000  0.13485000  1.0
  C  C140  1  0.47689000  0.74078000  0.36614000  1.0
  C  C141  1  0.52311000  0.75922000  0.86614000  1.0
  C  C142  1  0.52311000  0.25922000  0.63386000  1.0
  C  C143  1  0.47689000  0.24078000  0.13385000  1.0
  C  C144  1  0.40345000  0.75820000  0.39250000  1.0
  C  C145  1  0.59655000  0.74180000  0.89250000  1.0
  C  C146  1  0.59655000  0.24180000  0.60750000  1.0
  C  C147  1  0.40345000  0.25820000  0.10750000  1.0
  C  C148  1  0.50068000  0.92001000  0.39156000  1.0
  C  C149  1  0.49932000  0.57998000  0.89156000  1.0
  C  C150  1  0.49932000  0.07998000  0.60844000  1.0
  C  C151  1  0.50068000  0.42001000  0.10844000  1.0
  C  C152  1  0.41760000  0.84783000  0.40594000  1.0
  C  C153  1  0.58240000  0.65217000  0.90594000  1.0
  C  C154  1  0.58240000  0.15217000  0.59406000  1.0
  C  C155  1  0.41760000  0.34783000  0.09406000  1.0
  C  C156  1  0.35282000  0.86194000  0.49254000  1.0
  C  C157  1  0.64718000  0.63806000  0.99254000  1.0
  C  C158  1  0.64718000  0.13806000  0.50746000  1.0
  C  C159  1  0.35282000  0.36194000  0.00746000  1.0
  C  C160  1  0.42647000  0.84512000  0.51986000  1.0
  C  C161  1  0.57353000  0.65488000  0.01986000  1.0
  C  C162  1  0.57353000  0.15488000  0.48014000  1.0
  C  C163  1  0.42647000  0.34512000  0.98014000  1.0
  C  C164  1  0.27950000  0.87480000  0.52253000  1.0
  C  C165  1  0.72049000  0.62520000  0.02253000  1.0
  C  C166  1  0.72050000  0.12520000  0.47747000  1.0
  C  C167  1  0.27951000  0.37480000  0.97747000  1.0
  C  C168  1  0.27958000  0.86988000  0.57984000  1.0
  C  C169  1  0.72041000  0.63012000  0.07984000  1.0
  C  C170  1  0.72042000  0.13012000  0.42016000  1.0
  C  C171  1  0.27958000  0.36988000  0.92016000  1.0
  C  C172  1  0.42557000  0.84084000  0.57733000  1.0
  C  C173  1  0.57443000  0.65916000  0.07733000  1.0
  C  C174  1  0.57443000  0.15916000  0.42268000  1.0
  C  C175  1  0.42557000  0.34084000  0.92268000  1.0
  C  C176  1  0.35268000  0.85313000  0.60803000  1.0
  C  C177  1  0.64732000  0.64687000  0.10803000  1.0
  C  C178  1  0.64732000  0.14687000  0.39197000  1.0
  C  C179  1  0.35268000  0.35313000  0.89197000  1.0
  C  C180  1  0.35479000  0.85052000  0.66944000  1.0
  C  C181  1  0.64521000  0.64948000  0.16944000  1.0
  C  C182  1  0.64521000  0.14948000  0.33056000  1.0
  C  C183  1  0.35479000  0.35052000  0.83056000  1.0
  C  C184  1  0.88654000  0.71283000  0.32284000  1.0
  C  C185  1  0.11346000  0.78717000  0.82284000  1.0
  C  C186  1  0.11346000  0.28717000  0.67716000  1.0
  C  C187  1  0.88654000  0.21282000  0.17716000  1.0
  C  C188  1  0.96502000  0.69131000  0.34909000  1.0
  C  C189  1  0.03498000  0.80869000  0.84909000  1.0
  C  C190  1  0.03498000  0.30869000  0.65091000  1.0
  C  C191  1  0.96502000  0.19131000  0.15091000  1.0
  C  C192  1  0.95743000  0.60088000  0.35438000  1.0
  C  C193  1  0.04257000  0.89912000  0.85438000  1.0
  C  C194  1  0.04257000  0.39912000  0.64562000  1.0
  C  C195  1  0.95743000  0.10088000  0.14562000  1.0
  C  C196  1  0.04573000  0.76164000  0.36989000  1.0
  C  C197  1  0.95427000  0.73836000  0.86989000  1.0
  C  C198  1  0.95427000  0.23836000  0.63011000  1.0
  C  C199  1  0.04573000  0.26164000  0.13011000  1.0
  C  C200  1  0.02739000  0.58007000  0.38229000  1.0
  C  C201  1  0.97261000  0.91993000  0.88229000  1.0
  C  C202  1  0.97261000  0.41993000  0.61771000  1.0
  C  C203  1  0.02739000  0.08007000  0.11771000  1.0
  C  C204  1  0.11567000  0.74149000  0.39817000  1.0
  C  C205  1  0.88433000  0.75851000  0.89817000  1.0
  C  C206  1  0.88433000  0.25851000  0.60183000  1.0
  C  C207  1  0.11567000  0.24149000  0.10183000  1.0
  C  C208  1  0.10404000  0.65056000  0.40542000  1.0
  C  C209  1  0.89596000  0.84944000  0.90543000  1.0
  C  C210  1  0.89596000  0.34944000  0.59458000  1.0
  C  C211  1  0.10404000  0.15056000  0.09458000  1.0
  C  C212  1  0.16096000  0.63408000  0.49404000  1.0
  C  C213  1  0.83904000  0.86592000  0.99404000  1.0
  C  C214  1  0.83904000  0.36592000  0.50596000  1.0
  C  C215  1  0.16096000  0.13408000  0.00596000  1.0
  C  C216  1  0.23415000  0.62452000  0.52583000  1.0
  C  C217  1  0.76585000  0.87548000  0.02583000  1.0
  C  C218  1  0.76585000  0.37548000  0.47417000  1.0
  C  C219  1  0.23415000  0.12452000  0.97417000  1.0
  C  C220  1  0.08345000  0.64688000  0.51940000  1.0
  C  C221  1  0.91655000  0.85312000  0.01940000  1.0
  C  C222  1  0.91655000  0.35312000  0.48060000  1.0
  C  C223  1  0.08345000  0.14688000  0.98060000  1.0
  C  C224  1  0.22994000  0.62869000  0.58308000  1.0
  C  C225  1  0.77006000  0.87131000  0.08308000  1.0
  C  C226  1  0.77006000  0.37131000  0.41692000  1.0
  C  C227  1  0.22994000  0.12869000  0.91692000  1.0
  C  C228  1  0.08005000  0.65079000  0.57687000  1.0
  C  C229  1  0.91995000  0.84922000  0.07687000  1.0
  C  C230  1  0.91995000  0.34922000  0.42313000  1.0
  C  C231  1  0.08005000  0.15078000  0.92313000  1.0
  C  C232  1  0.15304000  0.64180000  0.60928000  1.0
  C  C233  1  0.84697000  0.85820000  0.10928000  1.0
  C  C234  1  0.84696000  0.35820000  0.39072000  1.0
  C  C235  1  0.15304000  0.14180000  0.89072000  1.0
  C  C236  1  0.14709000  0.64404000  0.67055000  1.0
  C  C237  1  0.85291000  0.85596000  0.17055000  1.0
  C  C238  1  0.85291000  0.35595000  0.32945000  1.0
  C  C239  1  0.14709000  0.14404000  0.82944000  1.0
  C  C240  1  0.62429000  0.44160000  0.29111000  1.0
  C  C241  1  0.37571000  0.05840000  0.79111000  1.0
  C  C242  1  0.37572000  0.55840000  0.70889000  1.0
  C  C243  1  0.62429000  0.94160000  0.20889000  1.0
  C  C244  1  0.50449000  0.50009000  0.29441000  1.0
  C  C245  1  0.49552000  0.99991000  0.79441000  1.0
  C  C246  1  0.49552000  0.49991000  0.70559000  1.0
  C  C247  1  0.50449000  0.00009000  0.20559000  1.0
  C  C248  1  0.55810000  0.35278000  0.28896000  1.0
  C  C249  1  0.44190000  0.14722000  0.78896000  1.0
  C  C250  1  0.44191000  0.64722000  0.71104000  1.0
  C  C251  1  0.55809000  0.85278000  0.21104000  1.0
  C  C252  1  0.43441000  0.41383000  0.29245000  1.0
  C  C253  1  0.56559000  0.08617000  0.79245000  1.0
  C  C254  1  0.56559000  0.58617000  0.70755000  1.0
  C  C255  1  0.43441000  0.91383000  0.20755000  1.0
  C  C256  1  0.46082000  0.33831000  0.28772000  1.0
  C  C257  1  0.53918000  0.16169000  0.78772000  1.0
  C  C258  1  0.53918000  0.66170000  0.71228000  1.0
  C  C259  1  0.46082000  0.83831000  0.21228000  1.0
  C  C260  1  0.38150000  0.24836000  0.27707000  1.0
  C  C261  1  0.61850000  0.25164000  0.77707000  1.0
  C  C262  1  0.61850000  0.75164000  0.72293000  1.0
  C  C263  1  0.38150000  0.74836000  0.22293000  1.0
  C  C264  1  0.33462000  0.08404000  0.27230000  1.0
  C  C265  1  0.66538000  0.41596000  0.77230000  1.0
  C  C266  1  0.66538000  0.91596000  0.72770000  1.0
  C  C267  1  0.33462000  0.58404000  0.22770000  1.0
  C  C268  1  0.32615000  0.01266000  0.30873000  1.0
  C  C269  1  0.67385000  0.48733000  0.80873000  1.0
  C  C270  1  0.67386000  0.98734000  0.69127000  1.0
  C  C271  1  0.32615000  0.51267000  0.19127000  1.0
  C  C272  1  0.27813000  0.06608000  0.22441000  1.0
  C  C273  1  0.72187000  0.43392000  0.72441000  1.0
  C  C274  1  0.72187000  0.93392000  0.77559000  1.0
  C  C275  1  0.27813000  0.56608000  0.27559000  1.0
  C  C276  1  0.21360000  0.97883000  0.21300000  1.0
  C  C277  1  0.78640000  0.52117000  0.71300000  1.0
  C  C278  1  0.78640000  0.02117000  0.78700000  1.0
  C  C279  1  0.21360000  0.47883000  0.28700000  1.0
  C  C280  1  0.26205000  0.92532000  0.29756000  1.0
  C  C281  1  0.73795000  0.57468000  0.79756000  1.0
  C  C282  1  0.73795000  0.07468000  0.70244000  1.0
  C  C283  1  0.26205000  0.42532000  0.20244000  1.0
  C  C284  1  0.20495000  0.90757000  0.24980000  1.0
  C  C285  1  0.79505000  0.59243000  0.74980000  1.0
  C  C286  1  0.79505000  0.09243000  0.75020000  1.0
  C  C287  1  0.20495000  0.40757000  0.25020000  1.0
  C  C288  1  0.09821000  0.77884000  0.19270000  1.0
  C  C289  1  0.90179000  0.72116000  0.69270000  1.0
  C  C290  1  0.90179000  0.22116000  0.80730000  1.0
  C  C291  1  0.09821000  0.27884000  0.30730000  1.0
  C  C292  1  0.03727000  0.67974000  0.19939000  1.0
  C  C293  1  0.96273000  0.82026000  0.69939000  1.0
  C  C294  1  0.96273000  0.32026000  0.80061000  1.0
  C  C295  1  0.03727000  0.17974000  0.30061000  1.0
  C  C296  1  0.07643000  0.61669000  0.21659000  1.0
  C  C297  1  0.92357000  0.88331000  0.71659000  1.0
  C  C298  1  0.92357000  0.38331000  0.78341000  1.0
  C  C299  1  0.07643000  0.11669000  0.28341000  1.0
  C  C300  1  0.93988000  0.64954000  0.18737000  1.0
  C  C301  1  0.06013000  0.85046000  0.68737000  1.0
  C  C302  1  0.06012000  0.35046000  0.81263000  1.0
  C  C303  1  0.93987000  0.14954000  0.31263000  1.0
  C  C304  1  0.01677000  0.52584000  0.22105000  1.0
  C  C305  1  0.98323000  0.97416000  0.72105000  1.0
  C  C306  1  0.98323000  0.47416000  0.77895000  1.0
  C  C307  1  0.01676000  0.02584000  0.27895000  1.0
  C  C308  1  0.88491000  0.55796000  0.19394000  1.0
  C  C309  1  0.11510000  0.94204000  0.69394000  1.0
  C  C310  1  0.11509000  0.44204000  0.80606000  1.0
  C  C311  1  0.88490000  0.05796000  0.30606000  1.0
  N  N312  1  0.59816000  0.51408000  0.29243000  1.0
  N  N313  1  0.40184000  0.98592000  0.79243000  1.0
  N  N314  1  0.40185000  0.48592000  0.70757000  1.0
  N  N315  1  0.59816000  0.01408000  0.20757000  1.0
  N  N316  1  0.40144000  0.17214000  0.28397000  1.0
  N  N317  1  0.59855000  0.32786000  0.78397000  1.0
  N  N318  1  0.59856000  0.82787000  0.71602000  1.0
  N  N319  1  0.40145000  0.67214000  0.21603000  1.0
  N  N320  1  0.14127000  0.81837000  0.24099000  1.0
  N  N321  1  0.85873000  0.68163000  0.74099000  1.0
  N  N322  1  0.85873000  0.18163000  0.75901000  1.0
  N  N323  1  0.14128000  0.31837000  0.25901000  1.0
  N  N324  1  0.92254000  0.49697000  0.21023000  1.0
  N  N325  1  0.07746000  0.00303000  0.71023000  1.0
  N  N326  1  0.07746000  0.50303000  0.78977000  1.0
  N  N327  1  0.92254000  0.99697000  0.28977000  1.0
  O  O328  1  0.72037000  0.86009000  0.31838000  1.0
  O  O329  1  0.27963000  0.63991000  0.81838000  1.0
  O  O330  1  0.27963000  0.13991000  0.68162000  1.0
  O  O331  1  0.72037000  0.36009000  0.18162000  1.0
  O  O332  1  0.62832000  0.70967000  0.31746000  1.0
  O  O333  1  0.37168000  0.79033000  0.81746000  1.0
  O  O334  1  0.37168000  0.29033000  0.68254000  1.0
  O  O335  1  0.62832000  0.20967000  0.18254000  1.0
  O  O336  1  0.34736000  0.86621000  0.43563000  1.0
  O  O337  1  0.65264000  0.63378000  0.93563000  1.0
  O  O338  1  0.65264000  0.13378000  0.56437000  1.0
  O  O339  1  0.34736000  0.36621000  0.06437000  1.0
  O  O340  1  0.42483000  0.84365000  0.69477000  1.0
  O  O341  1  0.57516000  0.65636000  0.19477000  1.0
  O  O342  1  0.57516000  0.15635000  0.30523000  1.0
  O  O343  1  0.42483000  0.34365000  0.80523000  1.0
  O  O344  1  0.28260000  0.85746000  0.69536000  1.0
  O  O345  1  0.71740000  0.64253000  0.19536000  1.0
  O  O346  1  0.71740000  0.14253000  0.30464000  1.0
  O  O347  1  0.28260000  0.35746000  0.80464000  1.0
  O  O348  1  0.89921000  0.79640000  0.31784000  1.0
  O  O349  1  0.10079000  0.70360000  0.81783000  1.0
  O  O350  1  0.10079000  0.20360000  0.68217000  1.0
  O  O351  1  0.89921000  0.29640000  0.18217000  1.0
  O  O352  1  0.81252000  0.64543000  0.30828000  1.0
  O  O353  1  0.18748000  0.85457000  0.80828000  1.0
  O  O354  1  0.18748000  0.35458000  0.69172000  1.0
  O  O355  1  0.81252000  0.14542000  0.19172000  1.0
  O  O356  1  0.17006000  0.62942000  0.43718000  1.0
  O  O357  1  0.82994000  0.87058000  0.93719000  1.0
  O  O358  1  0.82994000  0.37058000  0.56282000  1.0
  O  O359  1  0.17006000  0.12942000  0.06282000  1.0
  O  O360  1  0.07342000  0.64574000  0.69445000  1.0
  O  O361  1  0.92658000  0.85426000  0.19445000  1.0
  O  O362  1  0.92658000  0.35426000  0.30555000  1.0
  O  O363  1  0.07342000  0.14574000  0.80555000  1.0
  O  O364  1  0.21961000  0.64232000  0.69903000  1.0
  O  O365  1  0.78039000  0.85768000  0.19903000  1.0
  O  O366  1  0.78039000  0.35768000  0.30097000  1.0
  O  O367  1  0.21961000  0.14232000  0.80097000  1.0
  O  O368  1  0.10620000  0.81735000  0.14757000  1.0
  O  O369  1  0.89380000  0.68265000  0.64757000  1.0
  O  O370  1  0.89380000  0.18265000  0.85243000  1.0
  O  O371  1  0.10620000  0.31735000  0.35243000  1.0
  O  O372  1  0.30240000  0.24714000  0.26187000  1.0
  O  O373  1  0.69760000  0.25286000  0.76187000  1.0
  O  O374  1  0.69760000  0.75287000  0.73813000  1.0
  O  O375  1  0.30240000  0.74714000  0.23813000  1.0
