# generated using pymatgen
data_CaH10C5O6
_symmetry_space_group_name_H-M   'P 1'
_cell_length_a   6.84664000
_cell_length_b   11.65370000
_cell_length_c   12.31090000
_cell_angle_alpha   83.65520000
_cell_angle_beta   86.69830000
_cell_angle_gamma   88.84900000
_symmetry_Int_Tables_number   1
_chemical_formula_structural   CaH10C5O6
_chemical_formula_sum   'Ca4 H40 C20 O24'
_cell_volume   974.54031994
_cell_formula_units_Z   4
loop_
 _symmetry_equiv_pos_site_id
 _symmetry_equiv_pos_as_xyz
  1  'x, y, z'
loop_
 _atom_site_type_symbol
 _atom_site_label
 _atom_site_symmetry_multiplicity
 _atom_site_fract_x
 _atom_site_fract_y
 _atom_site_fract_z
 _atom_site_occupancy
  Ca  Ca0  1  0.53067000  0.35445000  0.43895000  1.0
  Ca  Ca1  1  0.46933000  0.64554000  0.56104000  1.0
  Ca  Ca2  1  0.05371000  0.32286000  0.28100000  1.0
  Ca  Ca3  1  0.94628000  0.67713000  0.71901000  1.0
  H  H4  1  0.61022000  0.24434000  0.06274000  1.0
  H  H5  1  0.38977000  0.75566000  0.93725000  1.0
  H  H6  1  0.70070000  0.38723000  0.04740000  1.0
  H  H7  1  0.29929000  0.61277000  0.95259000  1.0
  H  H8  1  0.44251000  0.36227000  0.04556000  1.0
  H  H9  1  0.55747000  0.63774000  0.95444000  1.0
  H  H10  1  0.62691000  0.61339000  0.17420000  1.0
  H  H11  1  0.37308000  0.38660000  0.82580000  1.0
  H  H12  1  0.47330000  0.73906000  0.16281000  1.0
  H  H13  1  0.52669000  0.26093000  0.83719000  1.0
  H  H14  1  0.37040000  0.59671000  0.18284000  1.0
  H  H15  1  0.62960000  0.40328000  0.81718000  1.0
  H  H16  1  0.97229000  0.30201000  0.68156000  1.0
  H  H17  1  0.02768000  0.69800000  0.31844000  1.0
  H  H18  1  0.87797000  0.44075000  0.64221000  1.0
  H  H19  1  0.12202000  0.55926000  0.35778000  1.0
  H  H20  1  0.13854000  0.41868000  0.65431000  1.0
  H  H21  1  0.86145000  0.58132000  0.34570000  1.0
  H  H22  1  0.85941000  0.87094000  0.34415000  1.0
  H  H23  1  0.14060000  0.12907000  0.65584000  1.0
  H  H24  1  0.94728000  0.92937000  0.46116000  1.0
  H  H25  1  0.05272000  0.07065000  0.53883000  1.0
  H  H26  1  0.11519000  0.87068000  0.36703000  1.0
  H  H27  1  0.88482000  0.12932000  0.63297000  1.0
  H  H28  1  0.96012000  0.10013000  0.96844000  1.0
  H  H29  1  0.03989000  0.89988000  0.03156000  1.0
  H  H30  1  0.12356000  0.17565000  0.86834000  1.0
  H  H31  1  0.87645000  0.82437000  0.13166000  1.0
  H  H32  1  0.87967000  0.22595000  0.88570000  1.0
  H  H33  1  0.12033000  0.77406000  0.11431000  1.0
  H  H34  1  0.98194000  0.11842000  0.16234000  1.0
  H  H35  1  0.01807000  0.88158000  0.83765000  1.0
  H  H36  1  0.47071000  0.12805000  0.52349000  1.0
  H  H37  1  0.52925000  0.87196000  0.47652000  1.0
  H  H38  1  0.35884000  0.12187000  0.41715000  1.0
  H  H39  1  0.64114000  0.87813000  0.58286000  1.0
  H  H40  1  0.12223000  0.44537000  0.08311000  1.0
  H  H41  1  0.87777000  0.55463000  0.91690000  1.0
  H  H42  1  0.99746000  0.54758000  0.12154000  1.0
  H  H43  1  0.00254000  0.45243000  0.87847000  1.0
  C  C44  1  0.56170000  0.33139000  0.20490000  1.0
  C  C45  1  0.43830000  0.66860000  0.79509000  1.0
  C  C46  1  0.57891000  0.33293000  0.08230000  1.0
  C  C47  1  0.42107000  0.66707000  0.91769000  1.0
  C  C48  1  0.48542000  0.65227000  0.32650000  1.0
  C  C49  1  0.51457000  0.34773000  0.67348000  1.0
  C  C50  1  0.48861000  0.65139000  0.20411000  1.0
  C  C51  1  0.51139000  0.34861000  0.79589000  1.0
  C  C52  1  0.02198000  0.35964000  0.51168000  1.0
  C  C53  1  0.97803000  0.64035000  0.48833000  1.0
  C  C54  1  0.00339000  0.38304000  0.62969000  1.0
  C  C55  1  0.99661000  0.61696000  0.37031000  1.0
  C  C56  1  0.00203000  0.03413000  0.30754000  1.0
  C  C57  1  0.99800000  0.96589000  0.69245000  1.0
  C  C58  1  0.97641000  0.91963000  0.37426000  1.0
  C  C59  1  0.02361000  0.08036000  0.62574000  1.0
  C  C60  1  0.06437000  0.26423000  0.01065000  1.0
  C  C61  1  0.93566000  0.73579000  0.98935000  1.0
  C  C62  1  0.00322000  0.18558000  0.92958000  1.0
  C  C63  1  0.99678000  0.81443000  0.07042000  1.0
  O  O64  1  0.71608000  0.33561000  0.25776000  1.0
  O  O65  1  0.28393000  0.66436000  0.74223000  1.0
  O  O66  1  0.39414000  0.32538000  0.25560000  1.0
  O  O67  1  0.60586000  0.67461000  0.74440000  1.0
  O  O68  1  0.49900000  0.55453000  0.38610000  1.0
  O  O69  1  0.50099000  0.44547000  0.61391000  1.0
  O  O70  1  0.46880000  0.74659000  0.36897000  1.0
  O  O71  1  0.53119000  0.25341000  0.63103000  1.0
  O  O72  1  0.18950000  0.34716000  0.46345000  1.0
  O  O73  1  0.81051000  0.65284000  0.53656000  1.0
  O  O74  1  0.86856000  0.35245000  0.45893000  1.0
  O  O75  1  0.13144000  0.64753000  0.54108000  1.0
  O  O76  1  0.08166000  0.11733000  0.34321000  1.0
  O  O77  1  0.91837000  0.88267000  0.65678000  1.0
  O  O78  1  0.93955000  0.03940000  0.20805000  1.0
  O  O79  1  0.06046000  0.96060000  0.79195000  1.0
  O  O80  1  0.05264000  0.22881000  0.11341000  1.0
  O  O81  1  0.94738000  0.77120000  0.88659000  1.0
  O  O82  1  0.12547000  0.36406000  0.97509000  1.0
  O  O83  1  0.87454000  0.63596000  0.02491000  1.0
  O  O84  1  0.48548000  0.14023000  0.44360000  1.0
  O  O85  1  0.51450000  0.85974000  0.55640000  1.0
  O  O86  1  0.09125000  0.48675000  0.14929000  1.0
  O  O87  1  0.90875000  0.51326000  0.85072000  1.0
