# generated using pymatgen
data_FeH6PtC12(N4F)2
_symmetry_space_group_name_H-M   'P 1'
_cell_length_a   7.00720000
_cell_length_b   7.16652000
_cell_length_c   15.33230000
_cell_angle_alpha   89.99950000
_cell_angle_beta   90.03920000
_cell_angle_gamma   90.00000000
_symmetry_Int_Tables_number   1
_chemical_formula_structural   FeH6PtC12(N4F)2
_chemical_formula_sum   'Fe2 H12 Pt2 C24 N16 F4'
_cell_volume   769.94559243
_cell_formula_units_Z   2
loop_
 _symmetry_equiv_pos_site_id
 _symmetry_equiv_pos_as_xyz
  1  'x, y, z'
loop_
 _atom_site_type_symbol
 _atom_site_label
 _atom_site_symmetry_multiplicity
 _atom_site_fract_x
 _atom_site_fract_y
 _atom_site_fract_z
 _atom_site_occupancy
  Fe  Fe0  1  0.51087000  0.50000000  0.01214000  1.0
  Fe  Fe1  1  0.51079000  0.00000000  0.48792000  1.0
  H  H2  1  0.11404000  0.50000000  0.89386000  1.0
  H  H3  1  0.88458000  0.00000000  0.39696000  1.0
  H  H4  1  0.88512000  0.50000000  0.10280000  1.0
  H  H5  1  0.11454000  0.00000000  0.60598000  1.0
  H  H6  1  0.56355000  0.50000000  0.65018000  1.0
  H  H7  1  0.42051000  0.99999000  0.16005000  1.0
  H  H8  1  0.42285000  0.50000000  0.34014000  1.0
  H  H9  1  0.56374000  0.00000000  0.85006000  1.0
  H  H10  1  0.67789000  0.50000000  0.80868000  1.0
  H  H11  1  0.31358000  0.00000000  0.31748000  1.0
  H  H12  1  0.31475000  0.50000000  0.18279000  1.0
  H  H13  1  0.67831000  0.00000000  0.69163000  1.0
  Pt  Pt14  1  0.00886000  0.00000000  0.00405000  1.0
  Pt  Pt15  1  0.00881000  0.50000000  0.49589000  1.0
  C  C16  1  0.21492000  0.50000000  0.83979000  1.0
  C  C17  1  0.77964000  0.00000000  0.34484000  1.0
  C  C18  1  0.78059000  0.50000000  0.15501000  1.0
  C  C19  1  0.21534000  0.00001000  0.66014000  1.0
  C  C20  1  0.15926000  0.50000000  0.75237000  1.0
  C  C21  1  0.82949000  0.00000000  0.25719000  1.0
  C  C22  1  0.83112000  0.50000000  0.24262000  1.0
  C  C23  1  0.15963000  0.00000000  0.74751000  1.0
  C  C24  1  0.46416000  0.50000000  0.70497000  1.0
  C  C25  1  0.52387000  0.99999000  0.21330000  1.0
  C  C26  1  0.52579000  0.50000000  0.28678000  1.0
  C  C27  1  0.46445000  0.00000000  0.79517000  1.0
  C  C28  1  0.52731000  0.50000000  0.79132000  1.0
  C  C29  1  0.46352000  0.00000000  0.29959000  1.0
  C  C30  1  0.46482000  0.50000000  0.20054000  1.0
  C  C31  1  0.52768000  0.00001000  0.70885000  1.0
  C  C32  1  0.20397000  0.80548000  0.02203000  1.0
  C  C33  1  0.81279000  0.69418000  0.51119000  1.0
  C  C34  1  0.81276000  0.80581000  0.98874000  1.0
  C  C35  1  0.20396000  0.69452000  0.47797000  1.0
  C  C36  1  0.81275000  0.19419000  0.98875000  1.0
  C  C37  1  0.20396000  0.30547000  0.47797000  1.0
  C  C38  1  0.20397000  0.19453000  0.02203000  1.0
  C  C39  1  0.81279000  0.30582000  0.51120000  1.0
  N  N40  1  0.40160000  0.50000000  0.85715000  1.0
  N  N41  1  0.59200000  0.00000000  0.36605000  1.0
  N  N42  1  0.59281000  0.50000000  0.13398000  1.0
  N  N43  1  0.40203000  0.00001000  0.64293000  1.0
  N  N44  1  0.32076000  0.68899000  0.02787000  1.0
  N  N45  1  0.69566000  0.81094000  0.51268000  1.0
  N  N46  1  0.69565000  0.68903000  0.98730000  1.0
  N  N47  1  0.32070000  0.81100000  0.47218000  1.0
  N  N48  1  0.69565000  0.31097000  0.98730000  1.0
  N  N49  1  0.32068000  0.18900000  0.47218000  1.0
  N  N50  1  0.32076000  0.31101000  0.02787000  1.0
  N  N51  1  0.69565000  0.18907000  0.51268000  1.0
  N  N52  1  0.27694000  0.50000000  0.68595000  1.0
  N  N53  1  0.70988000  0.99999000  0.19136000  1.0
  N  N54  1  0.71196000  0.50000000  0.30855000  1.0
  N  N55  1  0.27722000  0.00000000  0.81404000  1.0
  F  F56  1  0.96989000  0.50000000  0.73316000  1.0
  F  F57  1  0.01840000  0.99999000  0.23725000  1.0
  F  F58  1  0.02020000  0.50000000  0.26241000  1.0
  F  F59  1  0.97020000  0.00000000  0.76662000  1.0
