# generated using pymatgen
data_HgH6C6NCl2O
_symmetry_space_group_name_H-M   'P 1'
_cell_length_a   7.01065000
_cell_length_b   7.38911000
_cell_length_c   9.41107000
_cell_angle_alpha   105.54400000
_cell_angle_beta   95.08500000
_cell_angle_gamma   114.72900000
_symmetry_Int_Tables_number   1
_chemical_formula_structural   HgH6C6NCl2O
_chemical_formula_sum   'Hg2 H12 C12 N2 Cl4 O2'
_cell_volume   415.23775910
_cell_formula_units_Z   2
loop_
 _symmetry_equiv_pos_site_id
 _symmetry_equiv_pos_as_xyz
  1  'x, y, z'
loop_
 _atom_site_type_symbol
 _atom_site_label
 _atom_site_symmetry_multiplicity
 _atom_site_fract_x
 _atom_site_fract_y
 _atom_site_fract_z
 _atom_site_occupancy
  Hg  Hg0  1  0.75596000  0.21096000  0.47177000  1.0
  Hg  Hg1  1  0.24397000  0.78901000  0.52822000  1.0
  H  H2  1  0.74264000  0.61608000  0.67382000  1.0
  H  H3  1  0.25740000  0.38393000  0.32618000  1.0
  H  H4  1  0.75225000  0.78732000  0.94804000  1.0
  H  H5  1  0.24784000  0.21272000  0.05196000  1.0
  H  H6  1  0.74877000  0.59210000  0.12936000  1.0
  H  H7  1  0.25129000  0.40794000  0.87066000  1.0
  H  H8  1  0.72649000  0.23173000  0.03153000  1.0
  H  H9  1  0.27350000  0.76828000  0.96848000  1.0
  H  H10  1  0.88641000  0.04702000  0.74834000  1.0
  H  H11  1  0.11356000  0.95297000  0.25169000  1.0
  H  H12  1  0.64988000  0.93228000  0.81702000  1.0
  H  H13  1  0.35009000  0.06772000  0.18297000  1.0
  C  C14  1  0.73844000  0.53911000  0.75826000  1.0
  C  C15  1  0.26158000  0.46089000  0.24171000  1.0
  C  C16  1  0.74385000  0.63098000  0.90921000  1.0
  C  C17  1  0.25621000  0.36905000  0.09080000  1.0
  C  C18  1  0.74269000  0.52256000  0.00998000  1.0
  C  C19  1  0.25734000  0.47744000  0.99001000  1.0
  C  C20  1  0.73243000  0.32332000  0.95678000  1.0
  C  C21  1  0.26757000  0.67670000  0.04322000  1.0
  C  C22  1  0.72815000  0.23880000  0.80397000  1.0
  C  C23  1  0.27184000  0.76118000  0.19601000  1.0
  C  C24  1  0.71570000  0.02088000  0.74039000  1.0
  C  C25  1  0.28429000  0.97910000  0.25963000  1.0
  N  N26  1  0.73430000  0.34886000  0.71126000  1.0
  N  N27  1  0.26569000  0.65112000  0.28873000  1.0
  Cl  Cl28  1  0.78974000  0.04353000  0.22284000  1.0
  Cl  Cl29  1  0.21023000  0.95645000  0.77716000  1.0
  Cl  Cl30  1  0.83154000  0.60999000  0.41429000  1.0
  Cl  Cl31  1  0.16837000  0.38996000  0.58567000  1.0
  O  O32  1  0.60988000  0.90958000  0.59065000  1.0
  O  O33  1  0.39012000  0.09042000  0.40938000  1.0
