# generated using pymatgen
data_Zn8H57C82N9O44
_symmetry_space_group_name_H-M   'P 1'
_cell_length_a   18.27790000
_cell_length_b   18.32100000
_cell_length_c   18.44480046
_cell_angle_alpha   60.40490290
_cell_angle_beta   60.36747530
_cell_angle_gamma   60.29100000
_symmetry_Int_Tables_number   1
_chemical_formula_structural   Zn8H57C82N9O44
_chemical_formula_sum   'Zn8 H57 C82 N9 O44'
_cell_volume   4402.52650719
_cell_formula_units_Z   1
loop_
 _symmetry_equiv_pos_site_id
 _symmetry_equiv_pos_as_xyz
  1  'x, y, z'
loop_
 _atom_site_type_symbol
 _atom_site_label
 _atom_site_symmetry_multiplicity
 _atom_site_fract_x
 _atom_site_fract_y
 _atom_site_fract_z
 _atom_site_occupancy
  Zn  Zn0  1  0.46167000  0.94652000  0.45389000  1.0
  Zn  Zn1  1  0.45778000  0.12244000  0.45555000  1.0
  Zn  Zn2  1  0.63197000  0.95308000  0.45751000  1.0
  Zn  Zn3  1  0.45844000  0.95035000  0.62961000  1.0
  Zn  Zn4  1  0.05434000  0.53511000  0.03823000  1.0
  Zn  Zn5  1  0.87469000  0.53588000  0.04634000  1.0
  Zn  Zn6  1  0.05002000  0.36267000  0.03931000  1.0
  Zn  Zn7  1  0.04630000  0.53942000  0.86813000  1.0
  H  H8  1  0.15069000  0.08276000  0.38520000  1.0
  H  H9  1  0.15772000  0.11545000  0.49613000  1.0
  H  H10  1  0.19477000  0.99337000  0.62893000  1.0
  H  H11  1  0.21627000  0.80420000  0.53932000  1.0
  H  H12  1  0.12969000  0.76508000  0.70986000  1.0
  H  H13  1  0.37474000  0.72715000  0.78487000  1.0
  H  H14  1  0.33497000  0.54339000  0.08770000  1.0
  H  H15  1  0.40549000  0.36961000  0.95383000  1.0
  H  H16  1  0.70260000  0.57020000  0.32057000  1.0
  H  H17  1  0.54884000  0.74743000  0.33135000  1.0
  H  H18  1  0.59883000  0.66854000  0.41563000  1.0
  H  H19  1  0.67131000  0.58253000  0.92634000  1.0
  H  H20  1  0.61292000  0.67280000  0.96940000  1.0
  H  H21  1  0.59027000  0.66859000  0.81647000  1.0
  H  H22  1  0.29979000  0.30877000  0.58363000  1.0
  H  H23  1  0.19942000  0.40864000  0.67469000  1.0
  H  H24  1  0.18414000  0.12274000  0.96821000  1.0
  H  H25  1  0.38313000  0.04560000  0.86717000  1.0
  H  H26  1  0.29509000  0.01964000  0.87805000  1.0
  H  H27  1  0.80539000  0.09208000  0.36311000  1.0
  H  H28  1  0.63510000  0.46799000  0.17264000  1.0
  H  H29  1  0.53297000  0.37983000  0.27109000  1.0
  H  H30  1  0.57182000  0.33028000  0.19102000  1.0
  H  H31  1  0.34036000  0.08348000  0.25398000  1.0
  H  H32  1  0.24645000  0.18205000  0.15718000  1.0
  H  H33  1  0.20357000  0.46655000  0.20929000  1.0
  H  H34  1  0.11125000  0.43531000  0.29881000  1.0
  H  H35  1  0.30105000  0.36576000  0.30523000  1.0
  H  H36  1  0.20813000  0.33572000  0.39581000  1.0
  H  H37  1  0.77803000  0.06357000  0.21184000  1.0
  H  H38  1  0.84854000  0.06108000  0.10327000  1.0
  H  H39  1  0.73489000  0.13041000  0.12261000  1.0
  H  H40  1  0.75759000  0.99193000  0.10469000  1.0
  H  H41  1  0.68488000  0.99776000  0.21078000  1.0
  H  H42  1  0.81295000  0.89509000  0.27040000  1.0
  H  H43  1  0.88529000  0.89017000  0.16407000  1.0
  H  H44  1  0.71317000  0.41110000  0.90531000  1.0
  H  H45  1  0.81886000  0.39574000  0.90147000  1.0
  H  H46  1  0.79732000  0.30496000  0.91416000  1.0
  H  H47  1  0.78922000  0.29354000  0.05919000  1.0
  H  H48  1  0.68520000  0.30617000  0.06382000  1.0
  H  H49  1  0.63173000  0.46869000  0.03879000  1.0
  H  H50  1  0.73763000  0.45963000  0.02743000  1.0
  H  H51  1  0.23895000  0.89558000  0.22585000  1.0
  H  H52  1  0.12024000  0.93385000  0.26624000  1.0
  H  H53  1  0.17818000  0.00556000  0.17279000  1.0
  H  H54  1  0.12093000  0.04789000  0.30448000  1.0
  H  H55  1  0.23880000  0.00745000  0.26782000  1.0
  H  H56  1  0.23356000  0.85531000  0.38133000  1.0
  H  H57  1  0.11676000  0.89993000  0.41943000  1.0
  H  H58  1  0.22278000  0.84535000  0.01576000  1.0
  H  H59  1  0.12081000  0.82208000  0.07102000  1.0
  H  H60  1  0.18335000  0.80055000  0.13284000  1.0
  H  H61  1  0.20607000  0.65828000  0.12430000  1.0
  H  H62  1  0.30714000  0.68203000  0.06869000  1.0
  H  H63  1  0.27995000  0.74827000  0.92451000  1.0
  H  H64  1  0.18066000  0.72344000  0.97905000  1.0
  C  C65  1  0.37734000  0.13044000  0.63731000  1.0
  C  C66  1  0.64903000  0.85787000  0.35790000  1.0
  C  C67  1  0.36688000  0.12621000  0.35951000  1.0
  C  C68  1  0.63892000  0.86047000  0.63851000  1.0
  C  C69  1  0.63874000  0.13403000  0.36540000  1.0
  C  C70  1  0.36107000  0.85897000  0.63708000  1.0
  C  C71  1  0.17102000  0.04681000  0.50569000  1.0
  C  C72  1  0.19226000  0.97854000  0.57982000  1.0
  C  C73  1  0.20885000  0.89024000  0.59233000  1.0
  C  C74  1  0.20270000  0.87294000  0.52997000  1.0
  C  C75  1  0.18233000  0.94095000  0.45445000  1.0
  C  C76  1  0.16655000  0.02836000  0.44317000  1.0
  C  C77  1  0.18489000  0.75654000  0.72460000  1.0
  C  C78  1  0.20389000  0.68745000  0.79994000  1.0
  C  C79  1  0.27324000  0.67499000  0.82305000  1.0
  C  C80  1  0.32011000  0.73518000  0.76957000  1.0
  C  C81  1  0.30139000  0.80368000  0.69392000  1.0
  C  C82  1  0.23265000  0.81611000  0.67001000  1.0
  C  C83  1  0.29768000  0.60989000  0.96993000  1.0
  C  C84  1  0.33592000  0.53619000  0.03214000  1.0
  C  C85  1  0.37582000  0.45159000  0.02473000  1.0
  C  C86  1  0.37706000  0.43629000  0.95744000  1.0
  C  C87  1  0.34262000  0.51065000  0.89386000  1.0
  C  C88  1  0.30397000  0.59788000  0.89644000  1.0
  C  C89  1  0.68353000  0.74702000  0.29577000  1.0
  C  C90  1  0.70844000  0.80953000  0.29224000  1.0
  C  C91  1  0.78980000  0.82277000  0.22601000  1.0
  C  C92  1  0.84158000  0.76827000  0.17235000  1.0
  C  C93  1  0.81858000  0.70246000  0.17770000  1.0
  C  C94  1  0.73689000  0.69538000  0.24098000  1.0
  C  C95  1  0.67625000  0.64110000  0.28533000  1.0
  C  C96  1  0.61213000  0.70367000  0.34437000  1.0
  C  C97  1  0.66590000  0.75281000  0.78120000  1.0
  C  C98  1  0.69456000  0.81056000  0.69702000  1.0
  C  C99  1  0.77827000  0.81604000  0.67369000  1.0
  C  C100  1  0.82725000  0.76637000  0.73184000  1.0
  C  C101  1  0.79876000  0.70458000  0.81533000  1.0
  C  C102  1  0.71534000  0.70167000  0.83839000  1.0
  C  C103  1  0.64817000  0.65495000  0.90897000  1.0
  C  C104  1  0.59516000  0.70892000  0.84111000  1.0
  C  C105  1  0.30009000  0.15591000  0.78481000  1.0
  C  C106  1  0.32107000  0.18853000  0.69322000  1.0
  C  C107  1  0.28362000  0.28125000  0.65516000  1.0
  C  C108  1  0.22703000  0.33728000  0.70612000  1.0
  C  C109  1  0.20372000  0.30340000  0.79874000  1.0
  C  C110  1  0.24230000  0.21205000  0.83517000  1.0
  C  C111  1  0.24595000  0.13713000  0.92160000  1.0
  C  C112  1  0.31546000  0.07360000  0.86431000  1.0
  C  C113  1  0.66695000  0.27890000  0.26082000  1.0
  C  C114  1  0.69457000  0.19202000  0.31572000  1.0
  C  C115  1  0.78079000  0.15921000  0.31993000  1.0
  C  C116  1  0.83461000  0.21240000  0.27060000  1.0
  C  C117  1  0.80941000  0.29908000  0.21062000  1.0
  C  C118  1  0.72381000  0.32955000  0.20866000  1.0
  C  C119  1  0.65888000  0.40560000  0.16050000  1.0
  C  C120  1  0.59293000  0.34959000  0.22348000  1.0
  C  C121  1  0.26524000  0.27436000  0.29314000  1.0
  C  C122  1  0.31213000  0.18479000  0.30067000  1.0
  C  C123  1  0.30427000  0.15306000  0.24985000  1.0
  C  C124  1  0.25142000  0.20828000  0.19570000  1.0
  C  C125  1  0.20338000  0.29867000  0.18939000  1.0
  C  C126  1  0.21235000  0.32985000  0.23891000  1.0
  C  C127  1  0.18299000  0.41007000  0.26379000  1.0
  C  C128  1  0.24360000  0.34728000  0.32468000  1.0
  C  C129  1  0.85741000  0.63977000  0.87104000  1.0
  C  C130  1  0.14533000  0.35633000  0.13371000  1.0
  C  C131  1  0.87460000  0.64191000  0.12407000  1.0
  C  C132  1  0.14162000  0.36094000  0.85487000  1.0
  C  C133  1  0.86897000  0.35366000  0.14648000  1.0
  C  C134  1  0.14659000  0.63012000  0.85658000  1.0
  C  C135  1  0.81605000  0.89776000  0.20825000  1.0
  C  C136  1  0.75467000  0.98955000  0.16688000  1.0
  C  C137  1  0.78043000  0.06541000  0.15023000  1.0
  C  C138  1  0.69000000  0.42333000  0.06136000  1.0
  C  C139  1  0.73337000  0.34103000  0.03352000  1.0
  C  C140  1  0.76751000  0.36440000  0.93323000  1.0
  C  C141  1  0.17786000  0.91730000  0.38924000  1.0
  C  C142  1  0.17939000  0.98759000  0.29811000  1.0
  C  C143  1  0.17926000  0.95377000  0.23724000  1.0
  C  C144  1  0.24800000  0.70025000  0.98174000  1.0
  C  C145  1  0.23998000  0.70446000  0.06616000  1.0
  C  C146  1  0.18875000  0.79845000  0.07181000  1.0
  N  N147  1  0.41936000  0.37628000  0.08900000  1.0
  N  N148  1  0.34898000  0.49370000  0.81999000  1.0
  N  N149  1  0.92546000  0.78413000  0.10275000  1.0
  N  N150  1  0.63560000  0.64666000  0.22756000  1.0
  N  N151  1  0.81506000  0.87818000  0.58617000  1.0
  N  N152  1  0.90971000  0.78296000  0.70721000  1.0
  N  N153  1  0.50093000  0.76764000  0.87557000  1.0
  N  N154  1  0.28321000  0.14432000  0.97438000  1.0
  N  N155  1  0.91899000  0.17577000  0.28792000  1.0
  O  O156  1  0.50235000  0.99146000  0.50031000  1.0
  O  O157  1  0.40353000  0.04657000  0.67793000  1.0
  O  O158  1  0.56603000  0.87246000  0.38213000  1.0
  O  O159  1  0.37438000  0.16480000  0.39627000  1.0
  O  O160  1  0.67650000  0.89622000  0.55731000  1.0
  O  O161  1  0.55523000  0.17254000  0.37796000  1.0
  O  O162  1  0.37514000  0.88825000  0.67754000  1.0
  O  O163  1  0.68013000  0.05046000  0.38968000  1.0
  O  O164  1  0.39476000  0.86930000  0.55494000  1.0
  O  O165  1  0.40159000  0.04312000  0.36954000  1.0
  O  O166  1  0.55856000  0.86094000  0.67663000  1.0
  O  O167  1  0.39347000  0.16886000  0.55428000  1.0
  O  O168  1  0.68618000  0.87702000  0.38631000  1.0
  O  O169  1  0.00452000  0.49400000  0.99744000  1.0
  O  O170  1  0.94023000  0.61499000  0.82909000  1.0
  O  O171  1  0.11302000  0.43970000  0.12345000  1.0
  O  O172  1  0.83192000  0.60619000  0.12093000  1.0
  O  O173  1  0.11995000  0.31987000  0.93797000  1.0
  O  O174  1  0.82838000  0.43750000  0.12594000  1.0
  O  O175  1  0.11059000  0.62122000  0.81860000  1.0
  O  O176  1  0.95168000  0.31347000  0.11482000  1.0
  O  O177  1  0.13792000  0.59530000  0.93857000  1.0
  O  O178  1  0.95780000  0.62925000  0.08930000  1.0
  O  O179  1  0.11510000  0.44482000  0.81594000  1.0
  O  O180  1  0.81746000  0.61307000  0.95390000  1.0
  O  O181  1  0.13193000  0.31877000  0.10095000  1.0
  O  O182  1  0.45156000  0.30127000  0.08272000  1.0
  O  O183  1  0.42249000  0.39279000  0.14511000  1.0
  O  O184  1  0.38798000  0.53429000  0.74409000  1.0
  O  O185  1  0.31557000  0.43883000  0.84007000  1.0
  O  O186  1  0.99078000  0.75285000  0.12618000  1.0
  O  O187  1  0.92249000  0.82968000  0.02709000  1.0
  O  O188  1  0.61335000  0.71947000  0.17177000  1.0
  O  O189  1  0.62610000  0.57786000  0.24182000  1.0
  O  O190  1  0.86131000  0.84889000  0.52427000  1.0
  O  O191  1  0.79591000  0.95368000  0.58461000  1.0
  O  O192  1  0.91001000  0.80714000  0.75879000  1.0
  O  O193  1  0.96961000  0.77277000  0.63776000  1.0
  O  O194  1  0.49115000  0.83338000  0.88673000  1.0
  O  O195  1  0.44024000  0.74325000  0.89274000  1.0
  O  O196  1  0.35003000  0.16744000  0.93328000  1.0
  O  O197  1  0.24438000  0.12580000  0.05513000  1.0
  O  O198  1  0.93825000  0.22648000  0.29649000  1.0
  O  O199  1  0.96284000  0.09628000  0.29575000  1.0
