# generated using pymatgen
data_ZnH13C24(NO)4
_symmetry_space_group_name_H-M   'P 1'
_cell_length_a   9.40212000
_cell_length_b   10.26360000
_cell_length_c   11.10840000
_cell_angle_alpha   88.87200000
_cell_angle_beta   72.27310000
_cell_angle_gamma   85.00460000
_symmetry_Int_Tables_number   1
_chemical_formula_structural   ZnH13C24(NO)4
_chemical_formula_sum   'Zn2 H26 C48 N8 O8'
_cell_volume   1017.15358412
_cell_formula_units_Z   2
loop_
 _symmetry_equiv_pos_site_id
 _symmetry_equiv_pos_as_xyz
  1  'x, y, z'
loop_
 _atom_site_type_symbol
 _atom_site_label
 _atom_site_symmetry_multiplicity
 _atom_site_fract_x
 _atom_site_fract_y
 _atom_site_fract_z
 _atom_site_occupancy
  Zn  Zn0  1  0.39819000  0.37933000  0.53508000  1.0
  Zn  Zn1  1  0.60181000  0.62067000  0.46492000  1.0
  H  H2  1  0.70538000  0.23563000  0.54377000  1.0
  H  H3  1  0.29462000  0.76437000  0.45623000  1.0
  H  H4  1  0.86855000  0.03755000  0.43320000  1.0
  H  H5  1  0.13145000  0.96245000  0.56680000  1.0
  H  H6  1  0.77721000  0.90272000  0.29083000  1.0
  H  H7  1  0.22279000  0.09729000  0.70916000  1.0
  H  H8  1  0.09428000  0.12699000  0.21291000  1.0
  H  H9  1  0.90573000  0.87301000  0.78708000  1.0
  H  H10  1  0.95519000  0.31984000  0.35213000  1.0
  H  H11  1  0.04481000  0.68016000  0.64787000  1.0
  H  H12  1  0.07539000  0.41428000  0.49922000  1.0
  H  H13  1  0.92461000  0.58572000  0.50078000  1.0
  H  H14  1  0.68835000  0.65207000  0.03577000  1.0
  H  H15  1  0.31165000  0.34793000  0.96423000  1.0
  H  H16  1  0.74402000  0.48654000  0.86657000  1.0
  H  H17  1  0.25597000  0.51345000  0.13344000  1.0
  H  H18  1  0.35768000  0.63949000  0.76441000  1.0
  H  H19  1  0.64232000  0.36050000  0.23559000  1.0
  H  H20  1  0.29434000  0.80425000  0.94084000  1.0
  H  H21  1  0.70567000  0.19575000  0.05916000  1.0
  H  H22  1  0.90318000  0.33083000  0.16032000  1.0
  H  H23  1  0.09682000  0.66917000  0.83968000  1.0
  H  H24  1  0.06332000  0.26464000  0.94229000  1.0
  H  H25  1  0.93666000  0.73536000  0.05771000  1.0
  H  H26  1  0.64278000  0.79071000  0.17155000  1.0
  H  H27  1  0.35722000  0.20930000  0.82845000  1.0
  C  C28  1  0.67202000  0.17485000  0.47874000  1.0
  C  C29  1  0.32798000  0.82515000  0.52127000  1.0
  C  C30  1  0.76112000  0.06423000  0.41713000  1.0
  C  C31  1  0.23888000  0.93577000  0.58287000  1.0
  C  C32  1  0.71134000  0.99040000  0.33752000  1.0
  C  C33  1  0.28867000  0.00960000  0.66247000  1.0
  C  C34  1  0.57098000  0.02768000  0.31968000  1.0
  C  C35  1  0.42902000  0.97232000  0.68032000  1.0
  C  C36  1  0.50622000  0.96526000  0.23836000  1.0
  C  C37  1  0.49378000  0.03474000  0.76164000  1.0
  C  C38  1  0.37090000  0.01140000  0.21634000  1.0
  C  C39  1  0.62910000  0.98860000  0.78366000  1.0
  C  C40  1  0.28224000  0.12140000  0.28663000  1.0
  C  C41  1  0.71776000  0.87860000  0.71337000  1.0
  C  C42  1  0.14076000  0.17195000  0.27919000  1.0
  C  C43  1  0.85924000  0.82805000  0.72081000  1.0
  C  C44  1  0.06406000  0.27665000  0.35542000  1.0
  C  C45  1  0.93595000  0.72335000  0.64457000  1.0
  C  C46  1  0.13053000  0.33171000  0.43748000  1.0
  C  C47  1  0.86948000  0.66829000  0.56252000  1.0
  C  C48  1  0.34131000  0.18389000  0.37216000  1.0
  C  C49  1  0.65870000  0.81611000  0.62784000  1.0
  C  C50  1  0.48673000  0.14011000  0.38590000  1.0
  C  C51  1  0.51328000  0.85989000  0.61410000  1.0
  C  C52  1  0.45967000  0.84344000  0.09501000  1.0
  C  C53  1  0.54034000  0.15656000  0.90500000  1.0
  C  C54  1  0.48771000  0.74154000  0.99919000  1.0
  C  C55  1  0.51229000  0.25846000  0.00081000  1.0
  C  C56  1  0.61434000  0.65089000  0.97734000  1.0
  C  C57  1  0.38565000  0.34911000  0.02267000  1.0
  C  C58  1  0.64707000  0.55766000  0.88197000  1.0
  C  C59  1  0.35293000  0.44234000  0.11803000  1.0
  C  C60  1  0.55571000  0.55408000  0.80354000  1.0
  C  C61  1  0.44429000  0.44592000  0.19647000  1.0
  C  C62  1  0.42819000  0.64323000  0.82575000  1.0
  C  C63  1  0.57181000  0.35677000  0.17425000  1.0
  C  C64  1  0.39315000  0.73489000  0.92329000  1.0
  C  C65  1  0.60685000  0.26511000  0.07671000  1.0
  C  C66  1  0.59529000  0.45476000  0.69905000  1.0
  C  C67  1  0.40471000  0.54524000  0.30095000  1.0
  C  C68  1  0.94692000  0.40420000  0.08972000  1.0
  C  C69  1  0.05307000  0.59580000  0.91028000  1.0
  C  C70  1  0.03517000  0.36762000  0.96840000  1.0
  C  C71  1  0.96482000  0.63238000  0.03160000  1.0
  C  C72  1  0.08924000  0.46312000  0.87790000  1.0
  C  C73  1  0.91076000  0.53688000  0.12210000  1.0
  C  C74  1  0.19210000  0.42388000  0.75041000  1.0
  C  C75  1  0.80790000  0.57612000  0.24959000  1.0
  N  N76  1  0.53885000  0.21043000  0.46299000  1.0
  N  N77  1  0.46115000  0.78957000  0.53701000  1.0
  N  N78  1  0.26516000  0.28721000  0.44423000  1.0
  N  N79  1  0.73484000  0.71278000  0.55577000  1.0
  N  N80  1  0.55971000  0.85879000  0.16109000  1.0
  N  N81  1  0.44029000  0.14121000  0.83891000  1.0
  N  N82  1  0.34443000  0.93569000  0.12619000  1.0
  N  N83  1  0.65557000  0.06431000  0.87381000  1.0
  O  O84  1  0.67964000  0.35558000  0.70130000  1.0
  O  O85  1  0.32037000  0.64442000  0.29870000  1.0
  O  O86  1  0.53448000  0.48162000  0.60740000  1.0
  O  O87  1  0.46552000  0.51838000  0.39260000  1.0
  O  O88  1  0.26880000  0.31267000  0.73803000  1.0
  O  O89  1  0.73120000  0.68733000  0.26198000  1.0
  O  O90  1  0.20662000  0.50196000  0.65781000  1.0
  O  O91  1  0.79338000  0.49805000  0.34219000  1.0
