# generated using pymatgen
data_NaTbH16(C3O2)6
_symmetry_space_group_name_H-M   'P 1'
_cell_length_a   6.80626000
_cell_length_b   7.48810000
_cell_length_c   19.87168804
_cell_angle_alpha   89.99916829
_cell_angle_beta   99.82139903
_cell_angle_gamma   89.99980000
_symmetry_Int_Tables_number   1
_chemical_formula_structural   NaTbH16(C3O2)6
_chemical_formula_sum   'Na2 Tb2 H32 C36 O24'
_cell_volume   997.93653384
_cell_formula_units_Z   2
loop_
 _symmetry_equiv_pos_site_id
 _symmetry_equiv_pos_as_xyz
  1  'x, y, z'
loop_
 _atom_site_type_symbol
 _atom_site_label
 _atom_site_symmetry_multiplicity
 _atom_site_fract_x
 _atom_site_fract_y
 _atom_site_fract_z
 _atom_site_occupancy
  Na  Na0  1  0.83570000  0.74984000  0.67351000  1.0
  Na  Na1  1  0.16431000  0.24985000  0.32649000  1.0
  Tb  Tb2  1  0.70745000  0.24993000  0.41415000  1.0
  Tb  Tb3  1  0.29256000  0.74994000  0.58585000  1.0
  H  H4  1  0.17044000  0.85026000  0.93847000  1.0
  H  H5  1  0.82956000  0.35025000  0.06153000  1.0
  H  H6  1  0.23580000  0.15014000  0.06171000  1.0
  H  H7  1  0.76421000  0.65013000  0.93829000  1.0
  H  H8  1  0.10578000  0.84740000  0.81163000  1.0
  H  H9  1  0.89423000  0.34739000  0.18837000  1.0
  H  H10  1  0.29793000  0.15305000  0.18850000  1.0
  H  H11  1  0.70207000  0.65304000  0.81150000  1.0
  H  H12  1  0.87419000  0.85222000  0.15782000  1.0
  H  H13  1  0.12579000  0.35222000  0.84218000  1.0
  H  H14  1  0.71715000  0.14754000  0.84167000  1.0
  H  H15  1  0.28284000  0.64754000  0.15833000  1.0
  H  H16  1  0.81100000  0.85040000  0.03150000  1.0
  H  H17  1  0.18900000  0.35040000  0.96850000  1.0
  H  H18  1  0.78186000  0.14996000  0.96798000  1.0
  H  H19  1  0.21814000  0.64995000  0.03202000  1.0
  H  H20  1  0.94147000  0.73096000  0.43647000  1.0
  H  H21  1  0.05853000  0.23097000  0.56353000  1.0
  H  H22  1  0.50522000  0.26869000  0.56343000  1.0
  H  H23  1  0.49479000  0.76868000  0.43657000  1.0
  H  H24  1  0.78142000  0.88156000  0.34476000  1.0
  H  H25  1  0.21858000  0.38156000  0.65524000  1.0
  H  H26  1  0.43659000  0.11812000  0.65517000  1.0
  H  H27  1  0.56340000  0.61811000  0.34483000  1.0
  H  H28  1  0.75426000  0.09151000  0.73580000  1.0
  H  H29  1  0.24574000  0.59151000  0.26420000  1.0
  H  H30  1  0.01936000  0.90864000  0.26400000  1.0
  H  H31  1  0.98065000  0.40863000  0.73600000  1.0
  H  H32  1  0.98013000  0.10302000  0.72741000  1.0
  H  H33  1  0.01987000  0.60302000  0.27259000  1.0
  H  H34  1  0.25354000  0.89649000  0.27247000  1.0
  H  H35  1  0.74647000  0.39649000  0.72753000  1.0
  C  C36  1  0.47181000  0.75023000  0.94733000  1.0
  C  C37  1  0.52819000  0.25023000  0.05267000  1.0
  C  C38  1  0.36244000  0.75013000  0.72807000  1.0
  C  C39  1  0.63756000  0.25014000  0.27193000  1.0
  C  C40  1  0.40003000  0.75026000  0.80378000  1.0
  C  C41  1  0.59997000  0.25025000  0.19622000  1.0
  C  C42  1  0.50982000  0.75025000  0.02258000  1.0
  C  C43  1  0.49018000  0.25027000  0.97742000  1.0
  C  C44  1  0.28577000  0.80350000  0.91071000  1.0
  C  C45  1  0.71423000  0.30350000  0.08929000  1.0
  C  C46  1  0.37887000  0.19688000  0.08939000  1.0
  C  C47  1  0.62113000  0.69688000  0.91060000  1.0
  C  C48  1  0.24926000  0.80299000  0.83973000  1.0
  C  C49  1  0.75074000  0.30299000  0.16027000  1.0
  C  C50  1  0.41333000  0.19743000  0.16037000  1.0
  C  C51  1  0.58668000  0.69744000  0.83963000  1.0
  C  C52  1  0.58286000  0.75000000  0.16668000  1.0
  C  C53  1  0.41714000  0.25001000  0.83333000  1.0
  C  C54  1  0.73129000  0.80564000  0.13021000  1.0
  C  C55  1  0.26870000  0.30564000  0.86979000  1.0
  C  C56  1  0.60238000  0.19446000  0.86948000  1.0
  C  C57  1  0.39761000  0.69446000  0.13052000  1.0
  C  C58  1  0.62135000  0.74990000  0.24270000  1.0
  C  C59  1  0.37864000  0.24989000  0.75730000  1.0
  C  C60  1  0.81229000  0.81273000  0.44353000  1.0
  C  C61  1  0.18772000  0.31274000  0.55647000  1.0
  C  C62  1  0.36895000  0.18695000  0.55640000  1.0
  C  C63  1  0.63105000  0.68694000  0.44360000  1.0
  C  C64  1  0.86332000  0.91340000  0.51081000  1.0
  C  C65  1  0.13668000  0.41342000  0.48918000  1.0
  C  C66  1  0.35275000  0.08630000  0.48908000  1.0
  C  C67  1  0.64726000  0.58628000  0.51092000  1.0
  C  C68  1  0.69548000  0.80432000  0.05927000  1.0
  C  C69  1  0.30452000  0.30433000  0.94073000  1.0
  C  C70  1  0.63848000  0.19612000  0.94042000  1.0
  C  C71  1  0.36152000  0.69612000  0.05958000  1.0
  O  O72  1  0.18418000  0.76279000  0.69484000  1.0
  O  O73  1  0.81582000  0.26278000  0.30516000  1.0
  O  O74  1  0.49193000  0.23730000  0.30497000  1.0
  O  O75  1  0.50807000  0.73731000  0.69503000  1.0
  O  O76  1  0.87497000  0.01973000  0.73470000  1.0
  O  O77  1  0.12503000  0.51974000  0.26530000  1.0
  O  O78  1  0.14140000  0.98009000  0.26519000  1.0
  O  O79  1  0.85860000  0.48009000  0.73481000  1.0
  O  O80  1  0.79591000  0.78991000  0.27459000  1.0
  O  O81  1  0.20407000  0.28990000  0.72541000  1.0
  O  O82  1  0.52098000  0.20991000  0.72518000  1.0
  O  O83  1  0.47901000  0.70992000  0.27482000  1.0
  O  O84  1  0.80280000  0.07234000  0.51244000  1.0
  O  O85  1  0.19720000  0.57234000  0.48756000  1.0
  O  O86  1  0.29038000  0.92744000  0.48747000  1.0
  O  O87  1  0.70963000  0.42741000  0.51253000  1.0
  O  O88  1  0.77100000  0.94213000  0.39009000  1.0
  O  O89  1  0.22900000  0.44213000  0.60991000  1.0
  O  O90  1  0.38099000  0.05752000  0.60984000  1.0
  O  O91  1  0.61901000  0.55751000  0.39016000  1.0
  O  O92  1  0.96303000  0.83246000  0.56195000  1.0
  O  O93  1  0.03697000  0.33247000  0.43805000  1.0
  O  O94  1  0.40151000  0.16718000  0.43793000  1.0
  O  O95  1  0.59850000  0.66716000  0.56207000  1.0
