# generated using pymatgen
data_Ni2H68C64N8O11
_symmetry_space_group_name_H-M   'P 1'
_cell_length_a   13.66320000
_cell_length_b   13.97050000
_cell_length_c   18.81611698
_cell_angle_alpha   110.65138569
_cell_angle_beta   100.37727795
_cell_angle_gamma   96.43730000
_symmetry_Int_Tables_number   1
_chemical_formula_structural   Ni2H68C64N8O11
_chemical_formula_sum   'Ni4 H136 C128 N16 O22'
_cell_volume   3245.14280055
_cell_formula_units_Z   2
loop_
 _symmetry_equiv_pos_site_id
 _symmetry_equiv_pos_as_xyz
  1  'x, y, z'
loop_
 _atom_site_type_symbol
 _atom_site_label
 _atom_site_symmetry_multiplicity
 _atom_site_fract_x
 _atom_site_fract_y
 _atom_site_fract_z
 _atom_site_occupancy
  Ni  Ni0  1  0.41221000  0.15738000  0.79532000  1.0
  Ni  Ni1  1  0.58359000  0.84308000  0.21537000  1.0
  Ni  Ni2  1  0.18561000  0.52028000  0.39306000  1.0
  Ni  Ni3  1  0.82824000  0.48237000  0.61027000  1.0
  H  H4  1  0.37204000  0.23981000  0.66117000  1.0
  H  H5  1  0.61948000  0.74063000  0.29786000  1.0
  H  H6  1  0.37171000  0.12607000  0.60884000  1.0
  H  H7  1  0.56913000  0.83537000  0.34216000  1.0
  H  H8  1  0.60271000  0.31214000  0.78789000  1.0
  H  H9  1  0.39249000  0.67874000  0.20064000  1.0
  H  H10  1  0.69703000  0.53599000  0.07628000  1.0
  H  H11  1  0.31396000  0.46480000  0.91086000  1.0
  H  H12  1  0.80838000  0.55629000  0.98944000  1.0
  H  H13  1  0.19762000  0.43580000  0.99214000  1.0
  H  H14  1  0.76186000  0.44881000  0.84757000  1.0
  H  H15  1  0.23655000  0.53798000  0.13466000  1.0
  H  H16  1  0.32042000  0.17284000  0.91277000  1.0
  H  H17  1  0.69192000  0.82387000  0.09718000  1.0
  H  H18  1  0.28855000  0.29653000  0.96103000  1.0
  H  H19  1  0.71152000  0.70624000  0.02741000  1.0
  H  H20  1  0.36171000  0.23900000  0.01666000  1.0
  H  H21  1  0.64286000  0.78939000  0.99481000  1.0
  H  H22  1  0.42551000  0.42367000  0.09336000  1.0
  H  H23  1  0.58732000  0.59050000  0.90473000  1.0
  H  H24  1  0.54875000  0.49750000  0.12050000  1.0
  H  H25  1  0.46700000  0.50965000  0.87404000  1.0
  H  H26  1  0.50585000  0.26644000  0.09843000  1.0
  H  H27  1  0.50099000  0.74076000  0.89548000  1.0
  H  H28  1  0.62445000  0.35043000  0.13616000  1.0
  H  H29  1  0.38366000  0.65388000  0.85924000  1.0
  H  H30  1  0.44269000  0.35834000  0.21200000  1.0
  H  H31  1  0.56367000  0.64738000  0.78148000  1.0
  H  H32  1  0.56110000  0.32934000  0.24334000  1.0
  H  H33  1  0.44343000  0.67292000  0.74993000  1.0
  H  H34  1  0.51553000  0.54198000  0.24894000  1.0
  H  H35  1  0.49338000  0.46372000  0.74993000  1.0
  H  H36  1  0.63975000  0.51967000  0.26009000  1.0
  H  H37  1  0.36867000  0.48412000  0.73649000  1.0
  H  H38  1  0.63244000  0.48000000  0.37626000  1.0
  H  H39  1  0.37647000  0.51567000  0.61709000  1.0
  H  H40  1  0.60480000  0.60377000  0.38742000  1.0
  H  H41  1  0.40777000  0.39456000  0.61114000  1.0
  H  H42  1  0.59196000  0.33310000  0.39934000  1.0
  H  H43  1  0.41761000  0.66429000  0.59502000  1.0
  H  H44  1  0.51567000  0.20944000  0.45058000  1.0
  H  H45  1  0.49655000  0.79132000  0.54791000  1.0
  H  H46  1  0.34650000  0.21591000  0.48052000  1.0
  H  H47  1  0.67001000  0.78974000  0.52432000  1.0
  H  H48  1  0.24579000  0.34557000  0.45589000  1.0
  H  H49  1  0.76879000  0.65869000  0.54752000  1.0
  H  H50  1  0.34724000  0.67885000  0.38932000  1.0
  H  H51  1  0.66708000  0.32404000  0.61179000  1.0
  H  H52  1  0.35964000  0.60969000  0.29364000  1.0
  H  H53  1  0.64687000  0.39060000  0.70540000  1.0
  H  H54  1  0.47043000  0.67874000  0.36765000  1.0
  H  H55  1  0.54062000  0.31801000  0.62653000  1.0
  H  H56  1  0.48836000  0.13955000  0.95881000  1.0
  H  H57  1  0.49797000  0.86105000  0.05209000  1.0
  H  H58  1  0.59820000  0.09553000  0.05837000  1.0
  H  H59  1  0.39523000  0.91020000  0.95176000  1.0
  H  H60  1  0.74725000  0.01614000  0.03065000  1.0
  H  H61  1  0.24981000  0.99569000  0.97738000  1.0
  H  H62  1  0.78802000  0.97380000  0.90030000  1.0
  H  H63  1  0.20332000  0.03816000  0.10610000  1.0
  H  H64  1  0.47969000  0.99173000  0.64208000  1.0
  H  H65  1  0.50674000  0.97932000  0.36091000  1.0
  H  H66  1  0.60841000  0.02366000  0.63794000  1.0
  H  H67  1  0.38683000  0.01048000  0.37424000  1.0
  H  H68  1  0.53437000  0.12295000  0.66632000  1.0
  H  H69  1  0.40145000  0.87802000  0.34240000  1.0
  H  H70  1  0.76660000  0.92608000  0.77355000  1.0
  H  H71  1  0.21325000  0.07709000  0.23095000  1.0
  H  H72  1  0.68053000  0.89918000  0.68436000  1.0
  H  H73  1  0.29739000  0.10656000  0.32147000  1.0
  H  H74  1  0.84094000  0.10085000  0.76463000  1.0
  H  H75  1  0.14293000  0.90059000  0.23848000  1.0
  H  H76  1  0.76921000  0.04964000  0.66730000  1.0
  H  H77  1  0.21346000  0.95177000  0.33628000  1.0
  H  H78  1  0.85482000  0.88301000  0.65886000  1.0
  H  H79  1  0.12414000  0.11409000  0.34940000  1.0
  H  H80  1  0.92124000  0.99069000  0.64795000  1.0
  H  H81  1  0.05486000  0.00087000  0.35094000  1.0
  H  H82  1  0.02773000  0.05514000  0.77590000  1.0
  H  H83  1  0.95030000  0.95348000  0.22568000  1.0
  H  H84  1  0.94299000  0.99095000  0.81174000  1.0
  H  H85  1  0.04307000  0.01053000  0.19161000  1.0
  H  H86  1  0.06694000  0.88120000  0.69678000  1.0
  H  H87  1  0.92482000  0.13386000  0.30570000  1.0
  H  H88  1  0.10119000  0.91590000  0.79867000  1.0
  H  H89  1  0.89418000  0.10109000  0.20397000  1.0
  H  H90  1  0.95733000  0.61140000  0.55915000  1.0
  H  H91  1  0.05616000  0.39660000  0.44636000  1.0
  H  H92  1  0.06286000  0.71610000  0.61078000  1.0
  H  H93  1  0.94737000  0.29533000  0.39666000  1.0
  H  H94  1  0.94520000  0.74146000  0.57173000  1.0
  H  H95  1  0.06366000  0.26550000  0.43340000  1.0
  H  H96  1  0.97842000  0.92136000  0.90045000  1.0
  H  H97  1  0.01325000  0.08510000  0.10171000  1.0
  H  H98  1  0.87295000  0.84894000  0.97168000  1.0
  H  H99  1  0.11761000  0.15296000  0.02757000  1.0
  H  H100  1  0.76717000  0.67213000  0.90736000  1.0
  H  H101  1  0.23174000  0.32535000  0.09082000  1.0
  H  H102  1  0.76926000  0.55785000  0.77124000  1.0
  H  H103  1  0.24068000  0.43943000  0.22929000  1.0
  H  H104  1  0.85584000  0.77609000  0.15233000  1.0
  H  H105  1  0.15043000  0.22137000  0.85190000  1.0
  H  H106  1  0.12632000  0.66080000  0.21492000  1.0
  H  H107  1  0.88023000  0.33154000  0.78083000  1.0
  H  H108  1  0.89112000  0.66093000  0.33813000  1.0
  H  H109  1  0.12278000  0.33443000  0.66493000  1.0
  H  H110  1  0.18303000  0.76635000  0.14358000  1.0
  H  H111  1  0.82019000  0.23812000  0.85313000  1.0
  H  H112  1  0.11938000  0.63363000  0.09943000  1.0
  H  H113  1  0.89029000  0.36816000  0.89926000  1.0
  H  H114  1  0.19721000  0.69708000  0.00990000  1.0
  H  H115  1  0.80198000  0.30376000  0.98514000  1.0
  H  H116  1  0.11231000  0.78385000  0.01405000  1.0
  H  H117  1  0.88480000  0.21513000  0.98209000  1.0
  H  H118  1  0.27351000  0.85611000  0.83729000  1.0
  H  H119  1  0.71024000  0.12926000  0.16739000  1.0
  H  H120  1  0.19187000  0.55746000  0.64393000  1.0
  H  H121  1  0.81841000  0.43390000  0.35350000  1.0
  H  H122  1  0.28674000  0.83586000  0.60545000  1.0
  H  H123  1  0.71561000  0.16975000  0.40586000  1.0
  H  H124  1  0.22907000  0.50947000  0.76403000  1.0
  H  H125  1  0.77384000  0.47486000  0.23919000  1.0
  H  H126  1  0.10697000  0.53421000  0.73160000  1.0
  H  H127  1  0.89715000  0.44911000  0.26575000  1.0
  H  H128  1  0.21056000  0.59262000  0.90315000  1.0
  H  H129  1  0.78562000  0.39600000  0.09669000  1.0
  H  H130  1  0.12890000  0.47132000  0.84921000  1.0
  H  H131  1  0.86629000  0.51789000  0.15266000  1.0
  H  H132  1  0.98406000  0.55403000  0.82806000  1.0
  H  H133  1  0.01315000  0.43676000  0.17055000  1.0
  H  H134  1  0.06201000  0.67850000  0.86491000  1.0
  H  H135  1  0.93738000  0.31090000  0.12924000  1.0
  H  H136  1  0.96462000  0.63871000  0.95901000  1.0
  H  H137  1  0.03449000  0.36072000  0.03928000  1.0
  H  H138  1  0.04280000  0.54758000  0.96415000  1.0
  H  H139  1  0.95557000  0.45229000  0.03765000  1.0
  C  C140  1  0.62408000  0.36033000  0.85015000  1.0
  C  C141  1  0.37414000  0.63274000  0.13808000  1.0
  C  C142  1  0.56215000  0.34799000  0.89909000  1.0
  C  C143  1  0.43900000  0.64995000  0.09229000  1.0
  C  C144  1  0.58851000  0.41085000  0.98004000  1.0
  C  C145  1  0.41688000  0.58984000  0.01091000  1.0
  C  C146  1  0.67660000  0.48724000  0.01414000  1.0
  C  C147  1  0.33090000  0.51128000  0.97334000  1.0
  C  C148  1  0.73802000  0.49865000  0.96479000  1.0
  C  C149  1  0.26677000  0.49497000  0.01962000  1.0
  C  C150  1  0.71195000  0.43667000  0.88406000  1.0
  C  C151  1  0.28832000  0.55420000  0.10065000  1.0
  C  C152  1  0.44112000  0.30225000  0.95023000  1.0
  C  C153  1  0.56289000  0.70262000  0.04764000  1.0
  C  C154  1  0.34775000  0.24928000  0.96075000  1.0
  C  C155  1  0.65765000  0.75906000  0.04147000  1.0
  C  C156  1  0.50469000  0.41774000  0.09199000  1.0
  C  C157  1  0.50676000  0.59098000  0.90387000  1.0
  C  C158  1  0.54313000  0.34792000  0.13357000  1.0
  C  C159  1  0.46511000  0.65853000  0.86140000  1.0
  C  C160  1  0.52443000  0.37815000  0.21595000  1.0
  C  C161  1  0.48235000  0.62646000  0.77845000  1.0
  C  C162  1  0.56453000  0.49343000  0.26731000  1.0
  C  C163  1  0.44392000  0.51021000  0.72926000  1.0
  C  C164  1  0.57636000  0.51992000  0.35474000  1.0
  C  C165  1  0.43355000  0.47912000  0.64149000  1.0
  C  C166  1  0.46071000  0.40825000  0.39882000  1.0
  C  C167  1  0.55028000  0.59147000  0.59879000  1.0
  C  C168  1  0.51676000  0.33536000  0.41058000  1.0
  C  C169  1  0.49397000  0.66368000  0.58601000  1.0
  C  C170  1  0.47273000  0.26566000  0.43887000  1.0
  C  C171  1  0.53944000  0.73511000  0.55975000  1.0
  C  C172  1  0.37575000  0.26845000  0.45465000  1.0
  C  C173  1  0.63784000  0.73416000  0.54663000  1.0
  C  C174  1  0.31919000  0.34032000  0.44157000  1.0
  C  C175  1  0.69434000  0.66240000  0.56008000  1.0
  C  C176  1  0.36251000  0.41055000  0.41299000  1.0
  C  C177  1  0.64989000  0.59090000  0.58709000  1.0
  C  C178  1  0.40063000  0.53911000  0.37594000  1.0
  C  C179  1  0.61049000  0.46136000  0.62283000  1.0
  C  C180  1  0.39506000  0.63214000  0.35595000  1.0
  C  C181  1  0.61543000  0.36792000  0.64242000  1.0
  C  C182  1  0.55620000  0.10941000  0.94753000  1.0
  C  C183  1  0.43191000  0.89514000  0.06281000  1.0
  C  C184  1  0.61743000  0.08265000  0.00239000  1.0
  C  C185  1  0.37458000  0.92405000  0.00739000  1.0
  C  C186  1  0.70137000  0.03628000  0.98614000  1.0
  C  C187  1  0.29197000  0.97360000  0.02231000  1.0
  C  C188  1  0.72527000  0.01315000  0.91367000  1.0
  C  C189  1  0.26516000  0.99690000  0.09377000  1.0
  C  C190  1  0.66331000  0.03981000  0.85872000  1.0
  C  C191  1  0.32333000  0.96811000  0.14924000  1.0
  C  C192  1  0.58080000  0.08966000  0.87532000  1.0
  C  C193  1  0.40521000  0.91628000  0.13456000  1.0
  C  C194  1  0.58197000  0.06038000  0.75257000  1.0
  C  C195  1  0.39905000  0.94458000  0.25546000  1.0
  C  C196  1  0.55081000  0.04937000  0.67011000  1.0
  C  C197  1  0.42439000  0.95335000  0.33799000  1.0
  C  C198  1  0.72796000  0.96313000  0.73680000  1.0
  C  C199  1  0.25254000  0.04145000  0.26851000  1.0
  C  C200  1  0.80638000  0.02767000  0.71454000  1.0
  C  C201  1  0.17544000  0.97363000  0.28924000  1.0
  C  C202  1  0.88944000  0.96634000  0.68993000  1.0
  C  C203  1  0.09041000  0.03159000  0.31346000  1.0
  C  C204  1  0.97476000  0.98176000  0.76048000  1.0
  C  C205  1  0.00926000  0.02292000  0.24227000  1.0
  C  C206  1  0.03598000  0.89464000  0.74862000  1.0
  C  C207  1  0.95738000  0.11689000  0.25441000  1.0
  C  C208  1  0.98053000  0.69279000  0.59994000  1.0
  C  C209  1  0.02975000  0.31540000  0.40576000  1.0
  C  C210  1  0.94840000  0.70516000  0.67329000  1.0
  C  C211  1  0.05953000  0.30075000  0.33126000  1.0
  C  C212  1  0.92784000  0.78046000  0.79442000  1.0
  C  C213  1  0.07300000  0.22393000  0.20825000  1.0
  C  C214  1  0.93114000  0.84378000  0.87168000  1.0
  C  C215  1  0.06411000  0.16073000  0.12997000  1.0
  C  C216  1  0.87216000  0.80251000  0.91117000  1.0
  C  C217  1  0.12255000  0.19943000  0.08888000  1.0
  C  C218  1  0.81249000  0.70152000  0.87470000  1.0
  C  C219  1  0.18729000  0.29778000  0.12484000  1.0
  C  C220  1  0.81199000  0.63735000  0.79865000  1.0
  C  C221  1  0.19395000  0.36174000  0.20220000  1.0
  C  C222  1  0.87125000  0.67732000  0.75845000  1.0
  C  C223  1  0.13531000  0.32435000  0.24405000  1.0
  C  C224  1  0.76115000  0.74533000  0.25736000  1.0
  C  C225  1  0.25265000  0.25824000  0.75105000  1.0
  C  C226  1  0.86402000  0.72277000  0.24720000  1.0
  C  C227  1  0.14634000  0.27399000  0.75674000  1.0
  C  C228  1  0.90104000  0.74325000  0.18843000  1.0
  C  C229  1  0.10627000  0.25259000  0.81405000  1.0
  C  C230  1  0.99526000  0.72117000  0.17552000  1.0
  C  C231  1  0.01041000  0.27296000  0.82373000  1.0
  C  C232  1  0.05263000  0.67904000  0.22220000  1.0
  C  C233  1  0.95444000  0.31350000  0.77522000  1.0
  C  C234  1  0.01454000  0.65668000  0.28014000  1.0
  C  C235  1  0.99501000  0.33634000  0.71848000  1.0
  C  C236  1  0.92069000  0.67897000  0.29338000  1.0
  C  C237  1  0.09041000  0.31548000  0.70823000  1.0
  C  C238  1  0.07486000  0.60237000  0.32301000  1.0
  C  C239  1  0.93680000  0.39363000  0.67675000  1.0
  C  C240  1  0.11776000  0.71168000  0.09832000  1.0
  C  C241  1  0.88635000  0.28908000  0.89946000  1.0
  C  C242  1  0.12072000  0.70811000  0.01767000  1.0
  C  C243  1  0.87878000  0.29161000  0.97905000  1.0
  C  C244  1  0.31850000  0.97416000  0.76344000  1.0
  C  C245  1  0.66676000  0.02488000  0.25724000  1.0
  C  C246  1  0.28451000  0.85841000  0.72553000  1.0
  C  C247  1  0.70780000  0.13809000  0.28360000  1.0
  C  C248  1  0.26468000  0.80947000  0.77566000  1.0
  C  C249  1  0.72596000  0.17979000  0.22891000  1.0
  C  C250  1  0.23236000  0.70177000  0.74787000  1.0
  C  C251  1  0.76659000  0.28593000  0.25311000  1.0
  C  C252  1  0.21949000  0.64131000  0.66854000  1.0
  C  C253  1  0.78615000  0.35120000  0.33211000  1.0
  C  C254  1  0.23971000  0.69115000  0.61815000  1.0
  C  C255  1  0.76710000  0.30821000  0.38644000  1.0
  C  C256  1  0.27260000  0.79926000  0.64595000  1.0
  C  C257  1  0.72872000  0.20210000  0.36286000  1.0
  C  C258  1  0.22240000  0.62712000  0.53302000  1.0
  C  C259  1  0.78967000  0.37604000  0.47098000  1.0
  C  C260  1  0.17258000  0.55800000  0.78171000  1.0
  C  C261  1  0.82881000  0.42635000  0.21784000  1.0
  C  C262  1  0.14383000  0.55267000  0.85441000  1.0
  C  C263  1  0.85313000  0.43542000  0.14499000  1.0
  C  C264  1  0.05286000  0.60310000  0.87167000  1.0
  C  C265  1  0.94510000  0.38826000  0.12569000  1.0
  C  C266  1  0.03989000  0.62052000  0.95390000  1.0
  C  C267  1  0.95888000  0.37746000  0.04480000  1.0
  N  N268  1  0.47049000  0.28133000  0.88270000  1.0
  N  N269  1  0.53017000  0.71919000  0.11302000  1.0
  N  N270  1  0.51070000  0.37984000  0.01018000  1.0
  N  N271  1  0.49655000  0.62541000  0.98452000  1.0
  N  N272  1  0.48267000  0.49056000  0.37551000  1.0
  N  N273  1  0.52767000  0.50863000  0.62126000  1.0
  N  N274  1  0.32722000  0.49202000  0.39714000  1.0
  N  N275  1  0.68525000  0.51004000  0.60377000  1.0
  N  N276  1  0.53332000  0.10342000  0.80843000  1.0
  N  N277  1  0.44972000  0.90132000  0.20163000  1.0
  N  N278  1  0.66170000  0.02217000  0.78096000  1.0
  N  N279  1  0.32147000  0.98505000  0.22630000  1.0
  N  N280  1  0.97503000  0.79609000  0.73893000  1.0
  N  N281  1  0.02660000  0.21095000  0.26492000  1.0
  N  N282  1  0.88762000  0.63221000  0.68398000  1.0
  N  N283  1  0.12361000  0.37037000  0.31988000  1.0
  O  O284  1  0.72498000  0.80279000  0.22367000  1.0
  O  O285  1  0.28535000  0.19712000  0.78411000  1.0
  O  O286  1  0.71703000  0.70490000  0.29718000  1.0
  O  O287  1  0.30000000  0.30411000  0.71728000  1.0
  O  O288  1  0.31867000  0.01893000  0.83407000  1.0
  O  O289  1  0.64932000  0.96639000  0.18483000  1.0
  O  O290  1  0.34999000  0.02186000  0.72081000  1.0
  O  O291  1  0.64716000  0.98740000  0.30732000  1.0
  O  O292  1  0.40673000  0.19681000  0.62207000  1.0
  O  O293  1  0.55329000  0.77273000  0.29463000  1.0
  O  O294  1  0.15988000  0.58300000  0.30688000  1.0
  O  O295  1  0.85314000  0.41587000  0.69435000  1.0
  O  O296  1  0.04189000  0.57320000  0.37265000  1.0
  O  O297  1  0.97086000  0.42380000  0.62803000  1.0
  O  O298  1  0.23932000  0.67049000  0.48596000  1.0
  O  O299  1  0.77441000  0.33512000  0.51981000  1.0
  O  O300  1  0.19023000  0.52848000  0.50798000  1.0
  O  O301  1  0.82354000  0.47393000  0.49384000  1.0
  O  O302  1  0.02484000  0.74244000  0.11612000  1.0
  O  O303  1  0.97771000  0.25308000  0.88262000  1.0
  O  O304  1  0.21613000  0.66602000  0.80379000  1.0
  O  O305  1  0.78509000  0.31793000  0.19568000  1.0
