# generated using pymatgen
data_CuH11C12(NCl)2
_symmetry_space_group_name_H-M   'P 1'
_cell_length_a   8.47582000
_cell_length_b   12.63520000
_cell_length_c   24.23390000
_cell_angle_alpha   90.00080000
_cell_angle_beta   90.00020000
_cell_angle_gamma   89.99860000
_symmetry_Int_Tables_number   1
_chemical_formula_structural   CuH11C12(NCl)2
_chemical_formula_sum   'Cu8 H88 C96 N16 Cl16'
_cell_volume   2595.29755165
_cell_formula_units_Z   8
loop_
 _symmetry_equiv_pos_site_id
 _symmetry_equiv_pos_as_xyz
  1  'x, y, z'
loop_
 _atom_site_type_symbol
 _atom_site_label
 _atom_site_symmetry_multiplicity
 _atom_site_fract_x
 _atom_site_fract_y
 _atom_site_fract_z
 _atom_site_occupancy
  Cu  Cu0  1  0.10506000  0.59931000  0.80217000  1.0
  Cu  Cu1  1  0.39499000  0.40067000  0.30210000  1.0
  Cu  Cu2  1  0.60505000  0.90069000  0.19784000  1.0
  Cu  Cu3  1  0.89493000  0.09931000  0.69784000  1.0
  Cu  Cu4  1  0.13610000  0.58002000  0.62628000  1.0
  Cu  Cu5  1  0.36384000  0.41999000  0.12632000  1.0
  Cu  Cu6  1  0.63607000  0.91997000  0.37371000  1.0
  Cu  Cu7  1  0.86392000  0.08004000  0.87370000  1.0
  H  H8  1  0.08395000  0.41305000  0.72621000  1.0
  H  H9  1  0.41602000  0.58691000  0.22613000  1.0
  H  H10  1  0.58393000  0.08694000  0.27381000  1.0
  H  H11  1  0.91605000  0.91306000  0.77382000  1.0
  H  H12  1  0.18049000  0.30816000  0.76052000  1.0
  H  H13  1  0.31959000  0.69181000  0.26046000  1.0
  H  H14  1  0.68045000  0.19183000  0.23950000  1.0
  H  H15  1  0.81954000  0.80817000  0.73950000  1.0
  H  H16  1  0.87489000  0.39837000  0.76992000  1.0
  H  H17  1  0.62522000  0.60163000  0.26988000  1.0
  H  H18  1  0.37485000  0.10164000  0.23009000  1.0
  H  H19  1  0.12515000  0.89838000  0.73010000  1.0
  H  H20  1  0.88973000  0.33398000  0.83402000  1.0
  H  H21  1  0.61024000  0.66601000  0.33397000  1.0
  H  H22  1  0.38970000  0.16602000  0.16600000  1.0
  H  H23  1  0.11031000  0.83399000  0.66601000  1.0
  H  H24  1  0.60871000  0.73981000  0.89901000  1.0
  H  H25  1  0.89135000  0.26029000  0.39905000  1.0
  H  H26  1  0.10873000  0.76021000  0.10099000  1.0
  H  H27  1  0.39127000  0.23981000  0.60100000  1.0
  H  H28  1  0.68306000  0.44587000  0.69854000  1.0
  H  H29  1  0.81692000  0.55420000  0.19852000  1.0
  H  H30  1  0.18304000  0.05412000  0.30146000  1.0
  H  H31  1  0.31693000  0.94587000  0.80146000  1.0
  H  H32  1  0.64841000  0.55042000  0.12773000  1.0
  H  H33  1  0.85167000  0.44954000  0.62767000  1.0
  H  H34  1  0.14834000  0.94952000  0.87233000  1.0
  H  H35  1  0.35165000  0.05049000  0.37233000  1.0
  H  H36  1  0.10767000  0.54682000  0.90612000  1.0
  H  H37  1  0.39235000  0.45310000  0.40603000  1.0
  H  H38  1  0.60767000  0.95318000  0.09390000  1.0
  H  H39  1  0.89235000  0.04682000  0.59391000  1.0
  H  H40  1  0.44623000  0.33119000  0.71241000  1.0
  H  H41  1  0.05382000  0.66881000  0.21234000  1.0
  H  H42  1  0.94620000  0.16881000  0.28759000  1.0
  H  H43  1  0.55378000  0.83119000  0.78760000  1.0
  H  H44  1  0.87741000  0.75462000  0.85813000  1.0
  H  H45  1  0.62265000  0.24542000  0.35818000  1.0
  H  H46  1  0.37743000  0.74540000  0.14187000  1.0
  H  H47  1  0.12256000  0.25462000  0.64188000  1.0
  H  H48  1  0.24728000  0.25065000  0.83202000  1.0
  H  H49  1  0.25279000  0.74930000  0.33195000  1.0
  H  H50  1  0.74720000  0.24937000  0.16801000  1.0
  H  H51  1  0.75278000  0.75064000  0.66801000  1.0
  H  H52  1  0.41973000  0.70069000  0.77445000  1.0
  H  H53  1  0.08014000  0.29934000  0.27443000  1.0
  H  H54  1  0.91973000  0.79930000  0.22555000  1.0
  H  H55  1  0.58024000  0.20068000  0.72555000  1.0
  H  H56  1  0.47607000  0.55977000  0.90063000  1.0
  H  H57  1  0.02398000  0.44032000  0.40061000  1.0
  H  H58  1  0.97607000  0.94025000  0.09938000  1.0
  H  H59  1  0.52394000  0.05977000  0.59939000  1.0
  H  H60  1  0.62241000  0.40469000  0.86058000  1.0
  H  H61  1  0.87763000  0.59535000  0.36053000  1.0
  H  H62  1  0.12239000  0.09532000  0.13945000  1.0
  H  H63  1  0.37762000  0.90469000  0.63944000  1.0
  H  H64  1  0.90305000  0.47898000  0.97817000  1.0
  H  H65  1  0.59684000  0.52111000  0.47816000  1.0
  H  H66  1  0.40312000  0.02107000  0.02185000  1.0
  H  H67  1  0.09684000  0.97891000  0.52184000  1.0
  H  H68  1  0.67216000  0.63466000  0.72937000  1.0
  H  H69  1  0.82769000  0.36542000  0.22939000  1.0
  H  H70  1  0.17215000  0.86533000  0.27063000  1.0
  H  H71  1  0.32781000  0.13466000  0.77063000  1.0
  H  H72  1  0.68076000  0.35713000  0.95256000  1.0
  H  H73  1  0.81914000  0.64292000  0.45252000  1.0
  H  H74  1  0.18085000  0.14294000  0.04746000  1.0
  H  H75  1  0.31913000  0.85707000  0.54747000  1.0
  H  H76  1  0.33530000  0.30943000  0.04687000  1.0
  H  H77  1  0.16474000  0.69050000  0.54680000  1.0
  H  H78  1  0.83533000  0.19058000  0.95315000  1.0
  H  H79  1  0.66467000  0.80944000  0.45316000  1.0
  H  H80  1  0.46842000  0.23550000  0.00588000  1.0
  H  H81  1  0.03165000  0.76444000  0.50581000  1.0
  H  H82  1  0.96843000  0.26451000  0.99415000  1.0
  H  H83  1  0.53157000  0.73551000  0.49416000  1.0
  H  H84  1  0.39130000  0.20400000  0.91556000  1.0
  H  H85  1  0.10881000  0.79596000  0.41551000  1.0
  H  H86  1  0.89121000  0.29603000  0.08446000  1.0
  H  H87  1  0.60874000  0.70400000  0.58447000  1.0
  H  H88  1  0.24450000  0.49567000  0.99211000  1.0
  H  H89  1  0.25552000  0.50423000  0.49203000  1.0
  H  H90  1  0.74453000  0.00433000  0.00791000  1.0
  H  H91  1  0.75549000  0.99568000  0.50792000  1.0
  H  H92  1  0.88801000  0.57656000  0.06883000  1.0
  H  H93  1  0.61199000  0.42344000  0.56879000  1.0
  H  H94  1  0.38799000  0.92340000  0.93121000  1.0
  H  H95  1  0.11197000  0.07658000  0.43121000  1.0
  C  C96  1  0.16792000  0.40269000  0.86246000  1.0
  C  C97  1  0.33213000  0.59724000  0.36239000  1.0
  C  C98  1  0.66787000  0.09733000  0.13755000  1.0
  C  C99  1  0.83212000  0.90269000  0.63756000  1.0
  C  C100  1  0.54997000  0.38940000  0.02637000  1.0
  C  C101  1  0.95005000  0.61055000  0.52631000  1.0
  C  C102  1  0.04999000  0.11059000  0.97367000  1.0
  C  C103  1  0.45001000  0.88942000  0.47368000  1.0
  C  C104  1  0.16380000  0.39437000  0.76067000  1.0
  C  C105  1  0.33622000  0.60560000  0.26061000  1.0
  C  C106  1  0.66378000  0.10562000  0.23934000  1.0
  C  C107  1  0.83621000  0.89438000  0.73935000  1.0
  C  C108  1  0.91423000  0.40933000  0.81288000  1.0
  C  C109  1  0.58583000  0.59066000  0.31283000  1.0
  C  C110  1  0.41420000  0.09068000  0.18714000  1.0
  C  C111  1  0.08580000  0.90934000  0.68714000  1.0
  C  C112  1  0.82343000  0.49862000  0.83853000  1.0
  C  C113  1  0.67663000  0.50140000  0.33850000  1.0
  C  C114  1  0.32341000  0.00139000  0.16149000  1.0
  C  C115  1  0.17659000  0.99862000  0.66149000  1.0
  C  C116  1  0.66513000  0.66956000  0.88202000  1.0
  C  C117  1  0.83491000  0.33052000  0.38205000  1.0
  C  C118  1  0.16515000  0.83046000  0.11798000  1.0
  C  C119  1  0.33486000  0.16955000  0.61798000  1.0
  C  C120  1  0.57780000  0.47777000  0.71820000  1.0
  C  C121  1  0.92216000  0.52227000  0.21818000  1.0
  C  C122  1  0.07779000  0.02222000  0.28180000  1.0
  C  C123  1  0.42219000  0.97777000  0.78180000  1.0
  C  C124  1  0.66223000  0.50886000  0.08867000  1.0
  C  C125  1  0.83781000  0.49108000  0.58860000  1.0
  C  C126  1  0.16220000  0.99108000  0.91139000  1.0
  C  C127  1  0.33779000  0.00893000  0.41139000  1.0
  C  C128  1  0.16703000  0.47035000  0.90836000  1.0
  C  C129  1  0.33302000  0.52958000  0.40829000  1.0
  C  C130  1  0.66701000  0.02967000  0.09166000  1.0
  C  C131  1  0.83299000  0.97034000  0.59166000  1.0
  C  C132  1  0.44699000  0.41287000  0.72656000  1.0
  C  C133  1  0.05301000  0.58714000  0.22651000  1.0
  C  C134  1  0.94697000  0.08712000  0.27345000  1.0
  C  C135  1  0.55301000  0.91288000  0.77345000  1.0
  C  C136  1  0.81487000  0.67923000  0.85905000  1.0
  C  C137  1  0.68519000  0.32081000  0.35908000  1.0
  C  C138  1  0.31489000  0.82079000  0.14095000  1.0
  C  C139  1  0.18511000  0.17923000  0.64096000  1.0
  C  C140  1  0.24801000  0.30640000  0.86610000  1.0
  C  C141  1  0.25208000  0.69354000  0.36604000  1.0
  C  C142  1  0.74792000  0.19362000  0.13392000  1.0
  C  C143  1  0.75205000  0.80639000  0.63392000  1.0
  C  C144  1  0.43487000  0.61945000  0.76064000  1.0
  C  C145  1  0.06503000  0.38058000  0.26063000  1.0
  C  C146  1  0.93486000  0.88054000  0.23936000  1.0
  C  C147  1  0.56511000  0.11945000  0.73936000  1.0
  C  C148  1  0.59313000  0.57029000  0.88283000  1.0
  C  C149  1  0.90692000  0.42978000  0.38282000  1.0
  C  C150  1  0.09313000  0.92973000  0.11718000  1.0
  C  C151  1  0.40688000  0.07029000  0.61719000  1.0
  C  C152  1  0.67337000  0.48392000  0.86076000  1.0
  C  C153  1  0.82668000  0.51613000  0.36073000  1.0
  C  C154  1  0.17335000  0.01610000  0.13926000  1.0
  C  C155  1  0.32665000  0.98392000  0.63926000  1.0
  C  C156  1  0.80134000  0.46975000  0.00530000  1.0
  C  C157  1  0.69861000  0.53027000  0.50527000  1.0
  C  C158  1  0.30137000  0.03026000  0.99473000  1.0
  C  C159  1  0.19860000  0.96973000  0.49473000  1.0
  C  C160  1  0.57149000  0.58256000  0.73546000  1.0
  C  C161  1  0.92841000  0.41750000  0.23545000  1.0
  C  C162  1  0.07148000  0.91743000  0.26454000  1.0
  C  C163  1  0.42849000  0.08255000  0.76454000  1.0
  C  C164  1  0.31452000  0.45423000  0.75243000  1.0
  C  C165  1  0.18546000  0.54577000  0.25238000  1.0
  C  C166  1  0.81450000  0.04577000  0.24758000  1.0
  C  C167  1  0.68548000  0.95423000  0.74759000  1.0
  C  C168  1  0.67854000  0.40224000  0.99088000  1.0
  C  C169  1  0.82142000  0.59777000  0.49083000  1.0
  C  C170  1  0.17859000  0.09779000  0.00915000  1.0
  C  C171  1  0.32139000  0.90222000  0.50916000  1.0
  C  C172  1  0.32886000  0.34597000  0.96012000  1.0
  C  C173  1  0.17122000  0.65397000  0.46006000  1.0
  C  C174  1  0.82881000  0.15405000  0.03990000  1.0
  C  C175  1  0.67117000  0.84596000  0.53991000  1.0
  C  C176  1  0.41768000  0.31484000  0.01179000  1.0
  C  C177  1  0.08238000  0.68509000  0.51172000  1.0
  C  C178  1  0.91769000  0.18517000  0.98824000  1.0
  C  C179  1  0.58231000  0.81485000  0.48824000  1.0
  C  C180  1  0.32750000  0.27878000  0.91433000  1.0
  C  C181  1  0.17260000  0.72116000  0.41427000  1.0
  C  C182  1  0.82741000  0.22125000  0.08569000  1.0
  C  C183  1  0.67254000  0.77878000  0.58570000  1.0
  C  C184  1  0.24631000  0.44209000  0.95668000  1.0
  C  C185  1  0.25373000  0.55783000  0.45661000  1.0
  C  C186  1  0.74630000  0.05792000  0.04334000  1.0
  C  C187  1  0.75370000  0.94209000  0.54335000  1.0
  C  C188  1  0.79328000  0.52447000  0.05526000  1.0
  C  C189  1  0.70673000  0.47551000  0.55521000  1.0
  C  C190  1  0.29327000  0.97549000  0.94479000  1.0
  C  C191  1  0.20671000  0.02450000  0.44479000  1.0
  N  N192  1  0.08603000  0.43306000  0.81161000  1.0
  N  N193  1  0.41404000  0.56690000  0.31154000  1.0
  N  N194  1  0.58599000  0.06694000  0.18841000  1.0
  N  N195  1  0.91400000  0.93306000  0.68841000  1.0
  N  N196  1  0.89186000  0.59553000  0.83752000  1.0
  N  N197  1  0.60821000  0.40448000  0.33751000  1.0
  N  N198  1  0.39186000  0.90448000  0.16249000  1.0
  N  N199  1  0.10814000  0.09553000  0.66250000  1.0
  N  N200  1  0.31041000  0.55632000  0.76939000  1.0
  N  N201  1  0.18953000  0.44369000  0.26937000  1.0
  N  N202  1  0.81039000  0.94368000  0.23061000  1.0
  N  N203  1  0.68959000  0.05632000  0.73061000  1.0
  N  N204  1  0.54445000  0.44241000  0.07476000  1.0
  N  N205  1  0.95560000  0.55751000  0.57468000  1.0
  N  N206  1  0.04443000  0.05754000  0.92530000  1.0
  N  N207  1  0.45556000  0.94247000  0.42530000  1.0
  Cl  Cl208  1  0.98033000  0.61208000  0.70235000  1.0
  Cl  Cl209  1  0.51934000  0.38772000  0.20242000  1.0
  Cl  Cl210  1  0.48029000  0.88789000  0.29765000  1.0
  Cl  Cl211  1  0.01970000  0.11211000  0.79764000  1.0
  Cl  Cl212  1  0.32565000  0.69954000  0.63953000  1.0
  Cl  Cl213  1  0.17418000  0.30048000  0.13950000  1.0
  Cl  Cl214  1  0.82564000  0.80045000  0.36046000  1.0
  Cl  Cl215  1  0.67433000  0.19953000  0.86042000  1.0
  Cl  Cl216  1  0.27741000  0.44296000  0.59425000  1.0
  Cl  Cl217  1  0.22280000  0.55720000  0.09434000  1.0
  Cl  Cl218  1  0.77735000  0.05705000  0.40572000  1.0
  Cl  Cl219  1  0.72263000  0.94297000  0.90572000  1.0
  Cl  Cl220  1  0.16835000  0.76765000  0.82375000  1.0
  Cl  Cl221  1  0.33173000  0.23233000  0.32368000  1.0
  Cl  Cl222  1  0.66832000  0.73235000  0.17627000  1.0
  Cl  Cl223  1  0.83161000  0.26763000  0.67624000  1.0
