# generated using pymatgen
data_AgH17C24(NO2)2
_symmetry_space_group_name_H-M   'P 1'
_cell_length_a   8.11507000
_cell_length_b   10.29290000
_cell_length_c   12.11560000
_cell_angle_alpha   90.31470000
_cell_angle_beta   93.04560000
_cell_angle_gamma   108.76690000
_symmetry_Int_Tables_number   1
_chemical_formula_structural   AgH17C24(NO2)2
_chemical_formula_sum   'Ag2 H34 C48 N4 O8'
_cell_volume   956.55862324
_cell_formula_units_Z   2
loop_
 _symmetry_equiv_pos_site_id
 _symmetry_equiv_pos_as_xyz
  1  'x, y, z'
loop_
 _atom_site_type_symbol
 _atom_site_label
 _atom_site_symmetry_multiplicity
 _atom_site_fract_x
 _atom_site_fract_y
 _atom_site_fract_z
 _atom_site_occupancy
  Ag  Ag0  1  0.00000000  0.00000000  0.50000000  1.0
  Ag  Ag1  1  0.00000000  0.00000000  0.00000000  1.0
  H  H2  1  0.07748000  0.97814000  0.25635000  1.0
  H  H3  1  0.92251000  0.02186000  0.74365000  1.0
  H  H4  1  0.57611000  0.57027000  0.19383000  1.0
  H  H5  1  0.42389000  0.42973000  0.80617000  1.0
  H  H6  1  0.44300000  0.35339000  0.28940000  1.0
  H  H7  1  0.55700000  0.64660000  0.71059000  1.0
  H  H8  1  0.83528000  0.49156000  0.55667000  1.0
  H  H9  1  0.16472000  0.50844000  0.44333000  1.0
  H  H10  1  0.97210000  0.70368000  0.45696000  1.0
  H  H11  1  0.02789000  0.29633000  0.54304000  1.0
  H  H12  1  0.28881000  0.24403000  0.41459000  1.0
  H  H13  1  0.71119000  0.75598000  0.58541000  1.0
  H  H14  1  0.77677000  0.27616000  0.59172000  1.0
  H  H15  1  0.22323000  0.72384000  0.40828000  1.0
  H  H16  1  0.62025000  0.06974000  0.69240000  1.0
  H  H17  1  0.37975000  0.93026000  0.30760000  1.0
  H  H18  1  0.29696000  0.95483000  0.64732000  1.0
  H  H19  1  0.70304000  0.04517000  0.35268000  1.0
  H  H20  1  0.99298000  0.40354000  0.30427000  1.0
  H  H21  1  0.00703000  0.59646000  0.69573000  1.0
  H  H22  1  0.08221000  0.62716000  0.21199000  1.0
  H  H23  1  0.91779000  0.37284000  0.78801000  1.0
  H  H24  1  0.31947000  0.45421000  0.96374000  1.0
  H  H25  1  0.68053000  0.54579000  0.03626000  1.0
  H  H26  1  0.24623000  0.23827000  0.06404000  1.0
  H  H27  1  0.75377000  0.76173000  0.93596000  1.0
  H  H28  1  0.05420000  0.75707000  0.09214000  1.0
  H  H29  1  0.94580000  0.24293000  0.90786000  1.0
  H  H30  1  0.46290000  0.66179000  0.92951000  1.0
  H  H31  1  0.53710000  0.33821000  0.07049000  1.0
  H  H32  1  0.51873000  0.88132000  0.83121000  1.0
  H  H33  1  0.48127000  0.11868000  0.16879000  1.0
  H  H34  1  0.33008000  0.03024000  0.86743000  1.0
  H  H35  1  0.66993000  0.96976000  0.13257000  1.0
  C  C36  1  0.86969000  0.77780000  0.25383000  1.0
  C  C37  1  0.13031000  0.22220000  0.74617000  1.0
  C  C38  1  0.78709000  0.64911000  0.31625000  1.0
  C  C39  1  0.21291000  0.35089000  0.68375000  1.0
  C  C40  1  0.63485000  0.55022000  0.27218000  1.0
  C  C41  1  0.36515000  0.44978000  0.72782000  1.0
  C  C42  1  0.55876000  0.42942000  0.32751000  1.0
  C  C43  1  0.44124000  0.57058000  0.67249000  1.0
  C  C44  1  0.62975000  0.40445000  0.43062000  1.0
  C  C45  1  0.37025000  0.59556000  0.56938000  1.0
  C  C46  1  0.78045000  0.50540000  0.47540000  1.0
  C  C47  1  0.21955000  0.49460000  0.52460000  1.0
  C  C48  1  0.85825000  0.62514000  0.41917000  1.0
  C  C49  1  0.14175000  0.37486000  0.58083000  1.0
  C  C50  1  0.36819000  0.20729000  0.47367000  1.0
  C  C51  1  0.63181000  0.79271000  0.52633000  1.0
  C  C52  1  0.54654000  0.27905000  0.49225000  1.0
  C  C53  1  0.45346000  0.72095000  0.50775000  1.0
  C  C54  1  0.63754000  0.22760000  0.57342000  1.0
  C  C55  1  0.36246000  0.77240000  0.42658000  1.0
  C  C56  1  0.54984000  0.11100000  0.63034000  1.0
  C  C57  1  0.45016000  0.88900000  0.36966000  1.0
  C  C58  1  0.37271000  0.04634000  0.60558000  1.0
  C  C59  1  0.62729000  0.95366000  0.39442000  1.0
  C  C60  1  0.06969000  0.17714000  0.25430000  1.0
  C  C61  1  0.93031000  0.82286000  0.74570000  1.0
  C  C62  1  0.12069000  0.30865000  0.19345000  1.0
  C  C63  1  0.87932000  0.69135000  0.80655000  1.0
  C  C64  1  0.07048000  0.41818000  0.23179000  1.0
  C  C65  1  0.92953000  0.58182000  0.76821000  1.0
  C  C66  1  0.11778000  0.54242000  0.17791000  1.0
  C  C67  1  0.88223000  0.45758000  0.82209000  1.0
  C  C68  1  0.21098000  0.55967000  0.08128000  1.0
  C  C69  1  0.78902000  0.44033000  0.91872000  1.0
  C  C70  1  0.25587000  0.44771000  0.04138000  1.0
  C  C71  1  0.74413000  0.55228000  0.95862000  1.0
  C  C72  1  0.21328000  0.32473000  0.09735000  1.0
  C  C73  1  0.78672000  0.67526000  0.90265000  1.0
  C  C74  1  0.16039000  0.78033000  0.03668000  1.0
  C  C75  1  0.83961000  0.21967000  0.96332000  1.0
  C  C76  1  0.25433000  0.68965000  0.02134000  1.0
  C  C77  1  0.74567000  0.31034000  0.97866000  1.0
  C  C78  1  0.38474000  0.72763000  0.94492000  1.0
  C  C79  1  0.61526000  0.27237000  0.05508000  1.0
  C  C80  1  0.41563000  0.85031000  0.88919000  1.0
  C  C81  1  0.58437000  0.14969000  0.11081000  1.0
  C  C82  1  0.31460000  0.93374000  0.90918000  1.0
  C  C83  1  0.68540000  0.06626000  0.09082000  1.0
  N  N84  1  0.28319000  0.09433000  0.52797000  1.0
  N  N85  1  0.71681000  0.90568000  0.47203000  1.0
  N  N86  1  0.18859000  0.89802000  0.98205000  1.0
  N  N87  1  0.81141000  0.10198000  0.01795000  1.0
  O  O88  1  0.02029000  0.85574000  0.29629000  1.0
  O  O89  1  0.97971000  0.14426000  0.70371000  1.0
  O  O90  1  0.79518000  0.80134000  0.16659000  1.0
  O  O91  1  0.20482000  0.19866000  0.83341000  1.0
  O  O92  1  0.96991000  0.16113000  0.33146000  1.0
  O  O93  1  0.03009000  0.83888000  0.66854000  1.0
  O  O94  1  0.13882000  0.08543000  0.22081000  1.0
  O  O95  1  0.86118000  0.91457000  0.77920000  1.0
