# generated using pymatgen
data_CdH8C4(BrN4)2
_symmetry_space_group_name_H-M   'P 1'
_cell_length_a   3.94505000
_cell_length_b   8.38534000
_cell_length_c   17.07800000
_cell_angle_alpha   89.99990000
_cell_angle_beta   92.38160000
_cell_angle_gamma   89.99960000
_symmetry_Int_Tables_number   1
_chemical_formula_structural   CdH8C4(BrN4)2
_chemical_formula_sum   'Cd2 H16 C8 Br4 N16'
_cell_volume   564.46225128
_cell_formula_units_Z   2
loop_
 _symmetry_equiv_pos_site_id
 _symmetry_equiv_pos_as_xyz
  1  'x, y, z'
loop_
 _atom_site_type_symbol
 _atom_site_label
 _atom_site_symmetry_multiplicity
 _atom_site_fract_x
 _atom_site_fract_y
 _atom_site_fract_z
 _atom_site_occupancy
  Cd  Cd0  1  0.49999000  0.00000000  0.00000000  1.0
  Cd  Cd1  1  0.00000000  0.50000000  0.50000000  1.0
  H  H2  1  0.76505000  0.79413000  0.65072000  1.0
  H  H3  1  0.73492000  0.29413000  0.84928000  1.0
  H  H4  1  0.23495000  0.20587000  0.34928000  1.0
  H  H5  1  0.26506000  0.70587000  0.15072000  1.0
  H  H6  1  0.03384000  0.76553000  0.73338000  1.0
  H  H7  1  0.46616000  0.26553000  0.76662000  1.0
  H  H8  1  0.96615000  0.23447000  0.26661000  1.0
  H  H9  1  0.53385000  0.73447000  0.23338000  1.0
  H  H10  1  0.73622000  0.04335000  0.58976000  1.0
  H  H11  1  0.76376000  0.54336000  0.91024000  1.0
  H  H12  1  0.26378000  0.95665000  0.41024000  1.0
  H  H13  1  0.23623000  0.45664000  0.08976000  1.0
  H  H14  1  0.94612000  0.20660000  0.63332000  1.0
  H  H15  1  0.55389000  0.70659000  0.86668000  1.0
  H  H16  1  0.05388000  0.79341000  0.36669000  1.0
  H  H17  1  0.44613000  0.29340000  0.13332000  1.0
  C  C18  1  0.32518000  0.98829000  0.80949000  1.0
  C  C19  1  0.17482000  0.48830000  0.69051000  1.0
  C  C20  1  0.67483000  0.01171000  0.19051000  1.0
  C  C21  1  0.82517000  0.51171000  0.30949000  1.0
  C  C22  1  0.00077000  0.99507000  0.69296000  1.0
  C  C23  1  0.49925000  0.49507000  0.80705000  1.0
  C  C24  1  0.99923000  0.00493000  0.30704000  1.0
  C  C25  1  0.50076000  0.50493000  0.19296000  1.0
  Br  Br26  1  0.99230000  0.23254000  0.97355000  1.0
  Br  Br27  1  0.50770000  0.73254000  0.52646000  1.0
  Br  Br28  1  0.00770000  0.76747000  0.02646000  1.0
  Br  Br29  1  0.49229000  0.26747000  0.47354000  1.0
  N  N30  1  0.45771000  0.93435000  0.86726000  1.0
  N  N31  1  0.04229000  0.43434000  0.63274000  1.0
  N  N32  1  0.54228000  0.06565000  0.13274000  1.0
  N  N33  1  0.95771000  0.56566000  0.36726000  1.0
  N  N34  1  0.21098000  0.06281000  0.74815000  1.0
  N  N35  1  0.28905000  0.56278000  0.75185000  1.0
  N  N36  1  0.78903000  0.93719000  0.25185000  1.0
  N  N37  1  0.71097000  0.43720000  0.24815000  1.0
  N  N38  1  0.90157000  0.84290000  0.69714000  1.0
  N  N39  1  0.59841000  0.34290000  0.80286000  1.0
  N  N40  1  0.09843000  0.15710000  0.30286000  1.0
  N  N41  1  0.40158000  0.65710000  0.19714000  1.0
  N  N42  1  0.89086000  0.08714000  0.63360000  1.0
  N  N43  1  0.60913000  0.58714000  0.86639000  1.0
  N  N44  1  0.10914000  0.91287000  0.36640000  1.0
  N  N45  1  0.39088000  0.41286000  0.13360000  1.0
