# generated using pymatgen
data_Mo2H11C9(NO2)3
_symmetry_space_group_name_H-M   'P 1'
_cell_length_a   7.30025000
_cell_length_b   7.48916000
_cell_length_c   11.59440000
_cell_angle_alpha   85.91370000
_cell_angle_beta   85.95750000
_cell_angle_gamma   89.18020000
_symmetry_Int_Tables_number   1
_chemical_formula_structural   Mo2H11C9(NO2)3
_chemical_formula_sum   'Mo4 H22 C18 N6 O12'
_cell_volume   630.68559165
_cell_formula_units_Z   2
loop_
 _symmetry_equiv_pos_site_id
 _symmetry_equiv_pos_as_xyz
  1  'x, y, z'
loop_
 _atom_site_type_symbol
 _atom_site_label
 _atom_site_symmetry_multiplicity
 _atom_site_fract_x
 _atom_site_fract_y
 _atom_site_fract_z
 _atom_site_occupancy
  Mo  Mo0  1  0.36687000  0.67443000  0.55417000  1.0
  Mo  Mo1  1  0.63313000  0.32556000  0.44583000  1.0
  Mo  Mo2  1  0.13660000  0.35910000  0.41116000  1.0
  Mo  Mo3  1  0.86341000  0.64091000  0.58886000  1.0
  H  H4  1  0.32494000  0.39673000  0.84903000  1.0
  H  H5  1  0.67506000  0.60327000  0.15097000  1.0
  H  H6  1  0.03620000  0.03974000  0.66085000  1.0
  H  H7  1  0.96380000  0.96026000  0.33915000  1.0
  H  H8  1  0.99397000  0.85775000  0.81381000  1.0
  H  H9  1  0.00603000  0.14225000  0.18619000  1.0
  H  H10  1  0.79960000  0.13820000  0.78215000  1.0
  H  H11  1  0.20039000  0.86180000  0.21785000  1.0
  H  H12  1  0.67273000  0.96017000  0.85234000  1.0
  H  H13  1  0.32727000  0.03982000  0.14766000  1.0
  H  H14  1  0.61178000  0.24804000  0.95039000  1.0
  H  H15  1  0.38822000  0.75196000  0.04961000  1.0
  H  H16  1  0.86307000  0.37239000  0.05696000  1.0
  H  H17  1  0.13693000  0.62761000  0.94304000  1.0
  H  H18  1  0.91661000  0.38762000  0.90465000  1.0
  H  H19  1  0.08339000  0.61237000  0.09535000  1.0
  H  H20  1  0.18421000  0.27141000  0.01603000  1.0
  H  H21  1  0.81579000  0.72859000  0.98397000  1.0
  H  H22  1  0.33494000  0.87878000  0.84821000  1.0
  H  H23  1  0.66506000  0.12122000  0.15179000  1.0
  H  H24  1  0.40898000  0.04847000  0.93310000  1.0
  H  H25  1  0.59102000  0.95152000  0.06690000  1.0
  C  C26  1  0.26567000  0.33392000  0.77932000  1.0
  C  C27  1  0.73433000  0.66607000  0.22068000  1.0
  C  C28  1  0.11886000  0.14974000  0.68346000  1.0
  C  C29  1  0.88115000  0.85026000  0.31654000  1.0
  C  C30  1  0.12347000  0.06573000  0.90060000  1.0
  C  C31  1  0.87653000  0.93427000  0.09940000  1.0
  C  C32  1  0.95914000  0.94348000  0.88550000  1.0
  C  C33  1  0.04086000  0.05652000  0.11450000  1.0
  C  C34  1  0.78439000  0.05317000  0.86333000  1.0
  C  C35  1  0.21561000  0.94683000  0.13667000  1.0
  C  C36  1  0.73643000  0.16758000  0.96588000  1.0
  C  C37  1  0.26357000  0.83243000  0.03411000  1.0
  C  C38  1  0.89546000  0.29344000  0.98143000  1.0
  C  C39  1  0.10453000  0.70656000  0.01857000  1.0
  C  C40  1  0.06951000  0.18249000  0.00279000  1.0
  C  C41  1  0.93049000  0.81751000  0.99721000  1.0
  C  C42  1  0.29709000  0.95514000  0.92389000  1.0
  C  C43  1  0.70291000  0.04486000  0.07611000  1.0
  N  N44  1  0.27859000  0.39443000  0.66961000  1.0
  N  N45  1  0.72141000  0.60558000  0.33040000  1.0
  N  N46  1  0.18570000  0.27824000  0.60980000  1.0
  N  N47  1  0.81430000  0.72177000  0.39019000  1.0
  N  N48  1  0.16495000  0.18048000  0.79216000  1.0
  N  N49  1  0.83505000  0.81952000  0.20784000  1.0
  O  O50  1  0.38837000  0.43582000  0.43060000  1.0
  O  O51  1  0.61162000  0.56419000  0.56940000  1.0
  O  O52  1  0.11375000  0.62418000  0.51762000  1.0
  O  O53  1  0.88626000  0.37581000  0.48238000  1.0
  O  O54  1  0.41717000  0.83635000  0.44680000  1.0
  O  O55  1  0.58284000  0.16366000  0.55320000  1.0
  O  O56  1  0.33230000  0.78350000  0.67854000  1.0
  O  O57  1  0.66770000  0.21651000  0.32147000  1.0
  O  O58  1  0.10977000  0.46834000  0.27794000  1.0
  O  O59  1  0.89024000  0.53166000  0.72207000  1.0
  O  O60  1  0.15183000  0.13829000  0.38444000  1.0
  O  O61  1  0.84817000  0.86170000  0.61556000  1.0
