# generated using pymatgen
data_ZnH20C24N(O2F)3
_symmetry_space_group_name_H-M   'P 1'
_cell_length_a   13.23120000
_cell_length_b   14.00790000
_cell_length_c   15.30680000
_cell_angle_alpha   90.44820000
_cell_angle_beta   92.16720000
_cell_angle_gamma   97.85680000
_symmetry_Int_Tables_number   1
_chemical_formula_structural   ZnH20C24N(O2F)3
_chemical_formula_sum   'Zn2 H40 C48 N2 O12 F6'
_cell_volume   2808.09928852
_cell_formula_units_Z   2
loop_
 _symmetry_equiv_pos_site_id
 _symmetry_equiv_pos_as_xyz
  1  'x, y, z'
loop_
 _atom_site_type_symbol
 _atom_site_label
 _atom_site_symmetry_multiplicity
 _atom_site_fract_x
 _atom_site_fract_y
 _atom_site_fract_z
 _atom_site_occupancy
  Zn  Zn0  1  0.50253000  0.39975000  0.50154000  1.0
  Zn  Zn1  1  0.51896000  0.60192000  0.49998000  1.0
  H  H2  1  0.37062000  0.72595000  0.43686000  1.0
  H  H3  1  0.54747000  0.25821000  0.62904000  1.0
  H  H4  1  0.35192000  0.90227000  0.43174000  1.0
  H  H5  1  0.54176000  0.07932000  0.64458000  1.0
  H  H6  1  0.03634000  0.67755000  0.58289000  1.0
  H  H7  1  0.98611000  0.32814000  0.39775000  1.0
  H  H8  1  0.36788000  0.37019000  0.93238000  1.0
  H  H9  1  0.42081000  0.63939000  0.06443000  1.0
  H  H10  1  0.38610000  0.36724000  0.77054000  1.0
  H  H11  1  0.44647000  0.64350000  0.22698000  1.0
  H  H12  1  0.62766000  0.95568000  0.59761000  1.0
  H  H13  1  0.43258000  0.05073000  0.37346000  1.0
  H  H14  1  0.26781000  0.53166000  0.65985000  1.0
  H  H15  1  0.15161000  0.57220000  0.69075000  1.0
  H  H16  1  0.36305000  0.69201000  0.68046000  1.0
  H  H17  1  0.24907000  0.74407000  0.69256000  1.0
  H  H18  1  0.21610000  0.65486000  0.83279000  1.0
  H  H19  1  0.33933000  0.72381000  0.83915000  1.0
  H  H20  1  0.32670000  0.59779000  0.82042000  1.0
  H  H21  1  0.76081000  0.29982000  0.55712000  1.0
  H  H22  1  0.89053000  0.28574000  0.53686000  1.0
  H  H23  1  0.70044000  0.19224000  0.43112000  1.0
  H  H24  1  0.82724000  0.18775000  0.40076000  1.0
  H  H25  1  0.86550000  0.10383000  0.54002000  1.0
  H  H26  1  0.75808000  0.03828000  0.48362000  1.0
  H  H27  1  0.74098000  0.11198000  0.57564000  1.0
  H  H28  1  0.73603000  0.67097000  0.70595000  1.0
  H  H29  1  0.68835000  0.54674000  0.71227000  1.0
  H  H30  1  0.80149000  0.66782000  0.86301000  1.0
  H  H31  1  0.75790000  0.54298000  0.86624000  1.0
  H  H32  1  0.87639000  0.51401000  0.74403000  1.0
  H  H33  1  0.94484000  0.56982000  0.83695000  1.0
  H  H34  1  0.92130000  0.63913000  0.74363000  1.0
  H  H35  1  0.67816000  0.31605000  0.30742000  1.0
  H  H36  1  0.68540000  0.44154000  0.29066000  1.0
  H  H37  1  0.72871000  0.29497000  0.15132000  1.0
  H  H38  1  0.74111000  0.42095000  0.13786000  1.0
  H  H39  1  0.88045000  0.44303000  0.25863000  1.0
  H  H40  1  0.91282000  0.36967000  0.17172000  1.0
  H  H41  1  0.86809000  0.31637000  0.27040000  1.0
  C  C42  1  0.49917000  0.49167000  0.67149000  1.0
  C  C43  1  0.51487000  0.51685000  0.33185000  1.0
  C  C44  1  0.49344000  0.49644000  0.76905000  1.0
  C  C45  1  0.50430000  0.50838000  0.23402000  1.0
  C  C46  1  0.54982000  0.57137000  0.81960000  1.0
  C  C47  1  0.52908000  0.42866000  0.18618000  1.0
  C  C48  1  0.53652000  0.57214000  0.91002000  1.0
  C  C49  1  0.51160000  0.42731000  0.09506000  1.0
  C  C50  1  0.47270000  0.50099000  0.95261000  1.0
  C  C51  1  0.47420000  0.50179000  0.04931000  1.0
  C  C52  1  0.56771000  0.90890000  0.56153000  1.0
  C  C53  1  0.45700000  0.09217000  0.43280000  1.0
  C  C54  1  0.57054000  0.81027000  0.55842000  1.0
  C  C55  1  0.46240000  0.19206000  0.43230000  1.0
  C  C56  1  0.42555000  0.78092000  0.46981000  1.0
  C  C57  1  0.52344000  0.20829000  0.57483000  1.0
  C  C58  1  0.41618000  0.87828000  0.46774000  1.0
  C  C59  1  0.52011000  0.10950000  0.58243000  1.0
  C  C60  1  0.48929000  0.94443000  0.51347000  1.0
  C  C61  1  0.48748000  0.04942000  0.50985000  1.0
  C  C62  1  0.70902000  0.51486000  0.51286000  1.0
  C  C63  1  0.31179000  0.47929000  0.48592000  1.0
  C  C64  1  0.19771000  0.47484000  0.48100000  1.0
  C  C65  1  0.82361000  0.52275000  0.51256000  1.0
  C  C66  1  0.99163000  0.61413000  0.55254000  1.0
  C  C67  1  0.03042000  0.38822000  0.43336000  1.0
  C  C68  1  0.88720000  0.60588000  0.54659000  1.0
  C  C69  1  0.13497000  0.39849000  0.43577000  1.0
  C  C70  1  0.87268000  0.44932000  0.47856000  1.0
  C  C71  1  0.14919000  0.54452000  0.52178000  1.0
  C  C72  1  0.98123000  0.45856000  0.47534000  1.0
  C  C73  1  0.04083000  0.54005000  0.51697000  1.0
  C  C74  1  0.41784000  0.42686000  0.90078000  1.0
  C  C75  1  0.44997000  0.58011000  0.09841000  1.0
  C  C76  1  0.42836000  0.42489000  0.81078000  1.0
  C  C77  1  0.46470000  0.58274000  0.18867000  1.0
  C  C78  1  0.22495000  0.59395000  0.65924000  1.0
  C  C79  1  0.28603000  0.67972000  0.70651000  1.0
  C  C80  1  0.29234000  0.66310000  0.80513000  1.0
  C  C81  1  0.81394000  0.28677000  0.50594000  1.0
  C  C82  1  0.77912000  0.19261000  0.45735000  1.0
  C  C83  1  0.78616000  0.10681000  0.51731000  1.0
  C  C84  1  0.70825000  0.61381000  0.75102000  1.0
  C  C85  1  0.78817000  0.60151000  0.82278000  1.0
  C  C86  1  0.88807000  0.57992000  0.78483000  1.0
  C  C87  1  0.67238000  0.37080000  0.25725000  1.0
  C  C88  1  0.74885000  0.36431000  0.18626000  1.0
  C  C89  1  0.85856000  0.37397000  0.22368000  1.0
  N  N90  1  0.50370000  0.74740000  0.51380000  1.0
  N  N91  1  0.49556000  0.24963000  0.49974000  1.0
  O  O92  1  0.49294000  0.40802000  0.63685000  1.0
  O  O93  1  0.51847000  0.60095000  0.36493000  1.0
  O  O94  1  0.50749000  0.57102000  0.63076000  1.0
  O  O95  1  0.51727000  0.43955000  0.37490000  1.0
  O  O96  1  0.65939000  0.43227000  0.52604000  1.0
  O  O97  1  0.36326000  0.56226000  0.48094000  1.0
  O  O98  1  0.67119000  0.59234000  0.49964000  1.0
  O  O99  1  0.34727000  0.40003000  0.49521000  1.0
  O  O100  1  0.20349000  0.61945000  0.56933000  1.0
  O  O101  1  0.81833000  0.36562000  0.44490000  1.0
  O  O102  1  0.61700000  0.64334000  0.78634000  1.0
  O  O103  1  0.56839000  0.35198000  0.22165000  1.0
  F  F104  1  0.18035000  0.33249000  0.39125000  1.0
  F  F105  1  0.84317000  0.68021000  0.57954000  1.0
  F  F106  1  0.59388000  0.64316000  0.95836000  1.0
  F  F107  1  0.53887000  0.35158000  0.04934000  1.0
  F  F108  1  0.64646000  0.77441000  0.60176000  1.0
  F  F109  1  0.43386000  0.23468000  0.35943000  1.0
