# generated using pymatgen
data_ZnH18C20(NO)4
_symmetry_space_group_name_H-M   'P 1'
_cell_length_a   5.34339000
_cell_length_b   8.35391000
_cell_length_c   21.49170000
_cell_angle_alpha   84.25550000
_cell_angle_beta   82.87590000
_cell_angle_gamma   71.37840000
_symmetry_Int_Tables_number   1
_chemical_formula_structural   ZnH18C20(NO)4
_chemical_formula_sum   'Zn2 H36 C40 N8 O8'
_cell_volume   900.23982282
_cell_formula_units_Z   2
loop_
 _symmetry_equiv_pos_site_id
 _symmetry_equiv_pos_as_xyz
  1  'x, y, z'
loop_
 _atom_site_type_symbol
 _atom_site_label
 _atom_site_symmetry_multiplicity
 _atom_site_fract_x
 _atom_site_fract_y
 _atom_site_fract_z
 _atom_site_occupancy
  Zn  Zn0  1  0.41371000  0.75044000  0.25004000  1.0
  Zn  Zn1  1  0.58627000  0.24956000  0.74996000  1.0
  H  H2  1  0.69654000  0.98496000  0.18884000  1.0
  H  H3  1  0.86897000  0.51631000  0.31119000  1.0
  H  H4  1  0.30347000  0.01504000  0.81116000  1.0
  H  H5  1  0.13103000  0.48369000  0.68882000  1.0
  H  H6  1  0.93054000  0.20305000  0.33728000  1.0
  H  H7  1  0.46970000  0.29831000  0.16294000  1.0
  H  H8  1  0.06946000  0.79694000  0.66271000  1.0
  H  H9  1  0.53031000  0.70170000  0.83707000  1.0
  H  H10  1  0.95524000  0.16117000  0.22282000  1.0
  H  H11  1  0.33800000  0.34074000  0.27732000  1.0
  H  H12  1  0.04477000  0.83883000  0.77717000  1.0
  H  H13  1  0.66201000  0.65926000  0.72269000  1.0
  H  H14  1  0.42515000  0.88538000  0.37274000  1.0
  H  H15  1  0.68205000  0.61480000  0.12723000  1.0
  H  H16  1  0.57484000  0.11462000  0.62725000  1.0
  H  H17  1  0.31795000  0.38519000  0.87277000  1.0
  H  H18  1  0.76268000  0.18170000  0.50577000  1.0
  H  H19  1  0.44985000  0.31856000  0.99451000  1.0
  H  H20  1  0.23730000  0.81830000  0.49423000  1.0
  H  H21  1  0.55017000  0.68145000  0.00549000  1.0
  H  H22  1  0.74408000  0.30020000  0.43144000  1.0
  H  H23  1  0.47535000  0.20028000  0.06889000  1.0
  H  H24  1  0.25591000  0.69980000  0.56856000  1.0
  H  H25  1  0.52468000  0.79973000  0.93112000  1.0
  H  H26  1  0.01887000  0.11600000  0.44369000  1.0
  H  H27  1  0.57766000  0.38481000  0.05659000  1.0
  H  H28  1  0.98111000  0.88400000  0.55631000  1.0
  H  H29  1  0.42235000  0.61521000  0.94342000  1.0
  H  H30  1  0.90180000  0.85374000  0.09192000  1.0
  H  H31  1  0.84762000  0.64611000  0.40804000  1.0
  H  H32  1  0.09820000  0.14624000  0.90807000  1.0
  H  H33  1  0.15236000  0.35390000  0.59196000  1.0
  H  H34  1  0.24958000  0.04648000  0.01286000  1.0
  H  H35  1  0.30885000  0.45338000  0.48714000  1.0
  H  H36  1  0.75041000  0.95351000  0.98714000  1.0
  H  H37  1  0.69115000  0.54663000  0.51285000  1.0
  C  C38  1  0.69873000  0.00557000  0.23793000  1.0
  C  C39  1  0.94099000  0.49565000  0.26210000  1.0
  C  C40  1  0.30129000  0.99443000  0.76207000  1.0
  C  C41  1  0.05900000  0.50435000  0.73791000  1.0
  C  C42  1  0.82334000  0.12656000  0.32115000  1.0
  C  C43  1  0.26986000  0.37465000  0.17899000  1.0
  C  C44  1  0.17666000  0.87343000  0.67885000  1.0
  C  C45  1  0.73014000  0.62536000  0.82102000  1.0
  C  C46  1  0.83668000  0.10419000  0.25744000  1.0
  C  C47  1  0.19712000  0.39732000  0.24267000  1.0
  C  C48  1  0.16332000  0.89581000  0.74256000  1.0
  C  C49  1  0.80289000  0.60269000  0.75733000  1.0
  C  C50  1  0.65445000  0.06859000  0.43282000  1.0
  C  C51  1  0.15515000  0.43170000  0.06731000  1.0
  C  C52  1  0.34555000  0.93141000  0.56718000  1.0
  C  C53  1  0.84487000  0.56830000  0.93270000  1.0
  C  C54  1  0.67113000  0.04991000  0.36470000  1.0
  C  C55  1  0.08460000  0.45070000  0.13538000  1.0
  C  C56  1  0.32888000  0.95009000  0.63529000  1.0
  C  C57  1  0.91540000  0.54930000  0.86462000  1.0
  C  C58  1  0.24665000  0.88700000  0.12941000  1.0
  C  C59  1  0.26309000  0.61304000  0.37064000  1.0
  C  C60  1  0.75336000  0.11299000  0.87058000  1.0
  C  C61  1  0.73687000  0.38698000  0.62936000  1.0
  C  C62  1  0.54077000  0.95093000  0.34098000  1.0
  C  C63  1  0.83147000  0.54954000  0.15903000  1.0
  C  C64  1  0.45923000  0.04907000  0.65902000  1.0
  C  C65  1  0.16853000  0.45045000  0.84098000  1.0
  C  C66  1  0.08785000  0.99139000  0.02385000  1.0
  C  C67  1  0.10309000  0.50855000  0.47614000  1.0
  C  C68  1  0.91214000  0.00860000  0.97615000  1.0
  C  C69  1  0.89690000  0.49148000  0.52386000  1.0
  C  C70  1  0.06278000  0.90896000  0.08056000  1.0
  C  C71  1  0.05232000  0.59091000  0.41943000  1.0
  C  C72  1  0.93724000  0.09103000  0.91944000  1.0
  C  C73  1  0.94766000  0.40911000  0.58057000  1.0
  C  C74  1  0.80336000  0.17232000  0.45501000  1.0
  C  C75  1  0.43011000  0.32813000  0.04526000  1.0
  C  C76  1  0.19664000  0.82768000  0.54499000  1.0
  C  C77  1  0.56992000  0.67189000  0.95474000  1.0
  N  N78  1  0.55387000  0.92995000  0.27942000  1.0
  N  N79  1  0.76204000  0.57077000  0.22055000  1.0
  N  N80  1  0.44613000  0.07005000  0.72057000  1.0
  N  N81  1  0.23795000  0.42922000  0.77945000  1.0
  N  N82  1  0.50541000  0.99165000  0.46831000  1.0
  N  N83  1  0.96511000  0.50840000  0.03167000  1.0
  N  N84  1  0.49459000  0.00834000  0.53168000  1.0
  N  N85  1  0.03490000  0.49159000  0.96833000  1.0
  O  O86  1  0.20277000  0.78990000  0.17837000  1.0
  O  O87  1  0.17123000  0.71063000  0.32178000  1.0
  O  O88  1  0.79724000  0.21009000  0.82163000  1.0
  O  O89  1  0.82873000  0.28939000  0.67822000  1.0
  O  O90  1  0.42614000  0.95593000  0.12318000  1.0
  O  O91  1  0.50513000  0.54381000  0.37686000  1.0
  O  O92  1  0.57386000  0.04406000  0.87681000  1.0
  O  O93  1  0.49484000  0.45620000  0.62314000  1.0
