# generated using pymatgen
data_Zn5P4H26C20(NO6)4
_symmetry_space_group_name_H-M   'P 1'
_cell_length_a   5.23967000
_cell_length_b   11.41240000
_cell_length_c   13.94400000
_cell_angle_alpha   91.63220000
_cell_angle_beta   100.74000000
_cell_angle_gamma   95.99920000
_symmetry_Int_Tables_number   1
_chemical_formula_structural   Zn5P4H26C20(NO6)4
_chemical_formula_sum   'Zn5 P4 H26 C20 N4 O24'
_cell_volume   813.73783562
_cell_formula_units_Z   1
loop_
 _symmetry_equiv_pos_site_id
 _symmetry_equiv_pos_as_xyz
  1  'x, y, z'
loop_
 _atom_site_type_symbol
 _atom_site_label
 _atom_site_symmetry_multiplicity
 _atom_site_fract_x
 _atom_site_fract_y
 _atom_site_fract_z
 _atom_site_occupancy
  Zn  Zn0  1  0.55609000  0.34870000  0.30678000  1.0
  Zn  Zn1  1  0.44391000  0.65130000  0.69323000  1.0
  Zn  Zn2  1  0.71488000  0.05308000  0.37809000  1.0
  Zn  Zn3  1  0.28512000  0.94693000  0.62191000  1.0
  Zn  Zn4  1  0.00000000  0.00000000  0.00000000  1.0
  P  P5  1  0.30967000  0.15945000  0.46899000  1.0
  P  P6  1  0.69033000  0.84055000  0.53101000  1.0
  P  P7  1  0.56127000  0.01120000  0.14475000  1.0
  P  P8  1  0.43873000  0.98881000  0.85526000  1.0
  H  H9  1  0.83796000  0.26508000  0.51200000  1.0
  H  H10  1  0.16205000  0.73493000  0.48801000  1.0
  H  H11  1  0.92150000  0.24398000  0.21077000  1.0
  H  H12  1  0.07851000  0.75602000  0.78924000  1.0
  H  H13  1  0.25604000  0.91434000  0.29477000  1.0
  H  H14  1  0.74397000  0.08566000  0.70522000  1.0
  H  H15  1  0.00835000  0.83968000  0.34093000  1.0
  H  H16  1  0.99167000  0.16031000  0.65907000  1.0
  H  H17  1  0.95546000  0.91208000  0.23044000  1.0
  H  H18  1  0.04454000  0.08792000  0.76956000  1.0
  H  H19  1  0.37669000  0.34971000  0.55756000  1.0
  H  H20  1  0.62331000  0.65030000  0.44244000  1.0
  H  H21  1  0.63203000  0.19705000  0.06919000  1.0
  H  H22  1  0.36797000  0.80295000  0.93081000  1.0
  H  H23  1  0.24418000  0.45626000  0.12798000  1.0
  H  H24  1  0.75582000  0.54373000  0.87203000  1.0
  H  H25  1  0.29040000  0.63646000  0.03038000  1.0
  H  H26  1  0.70959000  0.36353000  0.96962000  1.0
  H  H27  1  0.70027000  0.77769000  0.07500000  1.0
  H  H28  1  0.29972000  0.22230000  0.92499000  1.0
  H  H29  1  0.97384000  0.54670000  0.30192000  1.0
  H  H30  1  0.02616000  0.45330000  0.69808000  1.0
  H  H31  1  0.26561000  0.70936000  0.27046000  1.0
  H  H32  1  0.73439000  0.29064000  0.72953000  1.0
  H  H33  1  0.19733000  0.78551000  0.15991000  1.0
  H  H34  1  0.80266000  0.21449000  0.84008000  1.0
  C  C35  1  0.20788000  0.30119000  0.50799000  1.0
  C  C36  1  0.79212000  0.69882000  0.49201000  1.0
  C  C37  1  0.12436000  0.37914000  0.42288000  1.0
  C  C38  1  0.87564000  0.62086000  0.57713000  1.0
  C  C39  1  0.56173000  0.17455000  0.13668000  1.0
  C  C40  1  0.43827000  0.82545000  0.86332000  1.0
  C  C41  1  0.28787000  0.20910000  0.13155000  1.0
  C  C42  1  0.71214000  0.79090000  0.86845000  1.0
  C  C43  1  0.41961000  0.51933000  0.14350000  1.0
  C  C44  1  0.58039000  0.48066000  0.85651000  1.0
  C  C45  1  0.44731000  0.61908000  0.08972000  1.0
  C  C46  1  0.55268000  0.38091000  0.91028000  1.0
  C  C47  1  0.67392000  0.69785000  0.11463000  1.0
  C  C48  1  0.32607000  0.30214000  0.88537000  1.0
  C  C49  1  0.86914000  0.67320000  0.19207000  1.0
  C  C50  1  0.13085000  0.32679000  0.80793000  1.0
  C  C51  1  0.82737000  0.57040000  0.24143000  1.0
  C  C52  1  0.17263000  0.42959000  0.75857000  1.0
  C  C53  1  0.11833000  0.75405000  0.22319000  1.0
  C  C54  1  0.88167000  0.24595000  0.77680000  1.0
  N  N55  1  0.60695000  0.49541000  0.21836000  1.0
  N  N56  1  0.39305000  0.50459000  0.78164000  1.0
  N  N57  1  0.07735000  0.86197000  0.27816000  1.0
  N  N58  1  0.92266000  0.13802000  0.72184000  1.0
  O  O59  1  0.55091000  0.19174000  0.41981000  1.0
  O  O60  1  0.44910000  0.80827000  0.58019000  1.0
  O  O61  1  0.08691000  0.09226000  0.39474000  1.0
  O  O62  1  0.91309000  0.90774000  0.60526000  1.0
  O  O63  1  0.38890000  0.09639000  0.56328000  1.0
  O  O64  1  0.61110000  0.90361000  0.43672000  1.0
  O  O65  1  0.00332000  0.27326000  0.56099000  1.0
  O  O66  1  0.99669000  0.72674000  0.43901000  1.0
  O  O67  1  0.29209000  0.42146000  0.37461000  1.0
  O  O68  1  0.70791000  0.57854000  0.62539000  1.0
  O  O69  1  0.88629000  0.39827000  0.40715000  1.0
  O  O70  1  0.11371000  0.60173000  0.59285000  1.0
  O  O71  1  0.53007000  0.98813000  0.25107000  1.0
  O  O72  1  0.46994000  0.01187000  0.74893000  1.0
  O  O73  1  0.33392000  0.94574000  0.07240000  1.0
  O  O74  1  0.66608000  0.05427000  0.92760000  1.0
  O  O75  1  0.83093000  0.98182000  0.13007000  1.0
  O  O76  1  0.16907000  0.01818000  0.86993000  1.0
  O  O77  1  0.73513000  0.23093000  0.22133000  1.0
  O  O78  1  0.26487000  0.76907000  0.77867000  1.0
  O  O79  1  0.23878000  0.26509000  0.20639000  1.0
  O  O80  1  0.76122000  0.73491000  0.79361000  1.0
  O  O81  1  0.11746000  0.18108000  0.05579000  1.0
  O  O82  1  0.88254000  0.81893000  0.94422000  1.0
