# generated using pymatgen
data_MgH5C12O3F2
_symmetry_space_group_name_H-M   'P 1'
_cell_length_a   6.81329000
_cell_length_b   34.30980000
_cell_length_c   34.31230000
_cell_angle_alpha   119.56700000
_cell_angle_beta   93.79960000
_cell_angle_gamma   93.79070000
_symmetry_Int_Tables_number   1
_chemical_formula_structural   MgH5C12O3F2
_chemical_formula_sum   'Mg6 H30 C72 O18 F12'
_cell_volume   6915.84145029
_cell_formula_units_Z   6
loop_
 _symmetry_equiv_pos_site_id
 _symmetry_equiv_pos_as_xyz
  1  'x, y, z'
loop_
 _atom_site_type_symbol
 _atom_site_label
 _atom_site_symmetry_multiplicity
 _atom_site_fract_x
 _atom_site_fract_y
 _atom_site_fract_z
 _atom_site_occupancy
  Mg  Mg0  1  0.49769000  0.63485000  0.33117000  1.0
  Mg  Mg1  1  0.16652000  0.66885000  0.30366000  1.0
  Mg  Mg2  1  0.86282000  0.69634000  0.36517000  1.0
  Mg  Mg3  1  0.31272000  0.36189000  0.66250000  1.0
  Mg  Mg4  1  0.65025000  0.33758000  0.69945000  1.0
  Mg  Mg5  1  0.95082000  0.30064000  0.63820000  1.0
  H  H6  1  0.97533000  0.44131000  0.88710000  1.0
  H  H7  1  0.08773000  0.11297000  0.55437000  1.0
  H  H8  1  0.53356000  0.44564000  0.55860000  1.0
  H  H9  1  0.35545000  0.50823000  0.92500000  1.0
  H  H10  1  0.43100000  0.07503000  0.58301000  1.0
  H  H11  1  0.84766000  0.41683000  0.49191000  1.0
  H  H12  1  0.00934000  0.42134000  0.82175000  1.0
  H  H13  1  0.18756000  0.17832000  0.59951000  1.0
  H  H14  1  0.58817000  0.40052000  0.57883000  1.0
  H  H15  1  0.70083000  0.44631000  0.79556000  1.0
  H  H16  1  0.90520000  0.20449000  0.65073000  1.0
  H  H17  1  0.25452000  0.34923000  0.55377000  1.0
  H  H18  1  0.60474000  0.48751000  0.87309000  1.0
  H  H19  1  0.73158000  0.12696000  0.61435000  1.0
  H  H20  1  0.11709000  0.38554000  0.51254000  1.0
  H  H21  1  0.86955000  0.57703000  0.11210000  1.0
  H  H22  1  0.75766000  0.88788000  0.46477000  1.0
  H  H23  1  0.29282000  0.53512000  0.42304000  1.0
  H  H24  1  0.46993000  0.51759000  0.07058000  1.0
  H  H25  1  0.39882000  0.92948000  0.44726000  1.0
  H  H26  1  0.95154000  0.55270000  0.48214000  1.0
  H  H27  1  0.81746000  0.59723000  0.17787000  1.0
  H  H28  1  0.63926000  0.82214000  0.41942000  1.0
  H  H29  1  0.22004000  0.58058000  0.40270000  1.0
  H  H30  1  0.11656000  0.56975000  0.19714000  1.0
  H  H31  1  0.91917000  0.80287000  0.37261000  1.0
  H  H32  1  0.54667000  0.62733000  0.43019000  1.0
  H  H33  1  0.22090000  0.53507000  0.12022000  1.0
  H  H34  1  0.10039000  0.87981000  0.41493000  1.0
  H  H35  1  0.68553000  0.58498000  0.46476000  1.0
  C  C36  1  0.73617000  0.49267000  0.00174000  1.0
  C  C37  1  0.73390000  0.99835000  0.49119000  1.0
  C  C38  1  0.24239000  0.50867000  0.50706000  1.0
  C  C39  1  0.83182000  0.53035000  0.04153000  1.0
  C  C40  1  0.79028000  0.95847000  0.48879000  1.0
  C  C41  1  0.30114000  0.51105000  0.46957000  1.0
  C  C42  1  0.01652000  0.54770000  0.03646000  1.0
  C  C43  1  0.98055000  0.96347000  0.51096000  1.0
  C  C44  1  0.46932000  0.48889000  0.45243000  1.0
  C  C45  1  0.09900000  0.52938000  0.99609000  1.0
  C  C46  1  0.10343000  0.00384000  0.53299000  1.0
  C  C47  1  0.57035000  0.46690000  0.47079000  1.0
  C  C48  1  0.00391000  0.49153000  0.95640000  1.0
  C  C49  1  0.04765000  0.04362000  0.53509000  1.0
  C  C50  1  0.51248000  0.46481000  0.50847000  1.0
  C  C51  1  0.81901000  0.47423000  0.96142000  1.0
  C  C52  1  0.85708000  0.03867000  0.51306000  1.0
  C  C53  1  0.34390000  0.48684000  0.52553000  1.0
  C  C54  1  0.07579000  0.47012000  0.91270000  1.0
  C  C55  1  0.16316000  0.08734000  0.55741000  1.0
  C  C56  1  0.60573000  0.44253000  0.52990000  1.0
  C  C57  1  0.24694000  0.48085000  0.90018000  1.0
  C  C58  1  0.34705000  0.09986000  0.58055000  1.0
  C  C59  1  0.76638000  0.41936000  0.51925000  1.0
  C  C60  1  0.29963000  0.45715000  0.85428000  1.0
  C  C61  1  0.44538000  0.14579000  0.60281000  1.0
  C  C62  1  0.84256000  0.39714000  0.54296000  1.0
  C  C63  1  0.16328000  0.42730000  0.81738000  1.0
  C  C64  1  0.34584000  0.18269000  0.60986000  1.0
  C  C65  1  0.73611000  0.39016000  0.57285000  1.0
  C  C66  1  0.21383000  0.40389000  0.77326000  1.0
  C  C67  1  0.44052000  0.22682000  0.63061000  1.0
  C  C68  1  0.81017000  0.36948000  0.59629000  1.0
  C  C69  1  0.41348000  0.41011000  0.76473000  1.0
  C  C70  1  0.64872000  0.23535000  0.64539000  1.0
  C  C71  1  0.00350000  0.35467000  0.59002000  1.0
  C  C72  1  0.54971000  0.44102000  0.80199000  1.0
  C  C73  1  0.74765000  0.19807000  0.63901000  1.0
  C  C74  1  0.10875000  0.36099000  0.55909000  1.0
  C  C75  1  0.49466000  0.46390000  0.84522000  1.0
  C  C76  1  0.64941000  0.15485000  0.61864000  1.0
  C  C77  1  0.03078000  0.38131000  0.53619000  1.0
  C  C78  1  0.05468000  0.37339000  0.73773000  1.0
  C  C79  1  0.31687000  0.26235000  0.63567000  1.0
  C  C80  1  0.68147000  0.36444000  0.62676000  1.0
  C  C81  1  0.76177000  0.55098000  0.08548000  1.0
  C  C82  1  0.67617000  0.91453000  0.46548000  1.0
  C  C83  1  0.21054000  0.53441000  0.44896000  1.0
  C  C84  1  0.58365000  0.54207000  0.09674000  1.0
  C  C85  1  0.48653000  0.90330000  0.44546000  1.0
  C  C86  1  0.04107000  0.55448000  0.45775000  1.0
  C  C87  1  0.52787000  0.56338000  0.14241000  1.0
  C  C88  1  0.38516000  0.85762000  0.42105000  1.0
  C  C89  1  0.96417000  0.57889000  0.43648000  1.0
  C  C90  1  0.66211000  0.59056000  0.18081000  1.0
  C  C91  1  0.48099000  0.81921000  0.40979000  1.0
  C  C92  1  0.07133000  0.59018000  0.40936000  1.0
  C  C93  1  0.60697000  0.61000000  0.22464000  1.0
  C  C94  1  0.38209000  0.77539000  0.38540000  1.0
  C  C95  1  0.99690000  0.61463000  0.38998000  1.0
  C  C96  1  0.40517000  0.60247000  0.23117000  1.0
  C  C97  1  0.17371000  0.76884000  0.37131000  1.0
  C  C98  1  0.80258000  0.62869000  0.39750000  1.0
  C  C99  1  0.26997000  0.57545000  0.19226000  1.0
  C  C100  1  0.07742000  0.80775000  0.38320000  1.0
  C  C101  1  0.69440000  0.61678000  0.42449000  1.0
  C  C102  1  0.32956000  0.55626000  0.14944000  1.0
  C  C103  1  0.17983000  0.85058000  0.40688000  1.0
  C  C104  1  0.77304000  0.59306000  0.44361000  1.0
  C  C105  1  0.76356000  0.63739000  0.26227000  1.0
  C  C106  1  0.50118000  0.73776000  0.37513000  1.0
  C  C107  1  0.12621000  0.62490000  0.36261000  1.0
  O  O108  1  0.93699000  0.64630000  0.25501000  1.0
  O  O109  1  0.68190000  0.74501000  0.39131000  1.0
  O  O110  1  0.29074000  0.60872000  0.35370000  1.0
  O  O111  1  0.72135000  0.65164000  0.30305000  1.0
  O  O112  1  0.41827000  0.69697000  0.34856000  1.0
  O  O113  1  0.06980000  0.65145000  0.34840000  1.0
  O  O114  1  0.33989000  0.61932000  0.27184000  1.0
  O  O115  1  0.06787000  0.72816000  0.34746000  1.0
  O  O116  1  0.72049000  0.65254000  0.38068000  1.0
  O  O117  1  0.88264000  0.36711000  0.74737000  1.0
  O  O118  1  0.13519000  0.25270000  0.61975000  1.0
  O  O119  1  0.51563000  0.38034000  0.63301000  1.0
  O  O120  1  0.09299000  0.35337000  0.69622000  1.0
  O  O121  1  0.39671000  0.30386000  0.65720000  1.0
  O  O122  1  0.73968000  0.34291000  0.64674000  1.0
  O  O123  1  0.47605000  0.38845000  0.72375000  1.0
  O  O124  1  0.75231000  0.27633000  0.66475000  1.0
  O  O125  1  0.08766000  0.33532000  0.61165000  1.0
  F  F126  1  0.55817000  0.47263000  0.00210000  1.0
  F  F127  1  0.55489000  0.99804000  0.47104000  1.0
  F  F128  1  0.08355000  0.52881000  0.52690000  1.0
  F  F129  1  0.11984000  0.58430000  0.07283000  1.0
  F  F130  1  0.04798000  0.92704000  0.51095000  1.0
  F  F131  1  0.53681000  0.48892000  0.41602000  1.0
  F  F132  1  0.27702000  0.54934000  0.99560000  1.0
  F  F133  1  0.28258000  0.00424000  0.55317000  1.0
  F  F134  1  0.72919000  0.44669000  0.45098000  1.0
  F  F135  1  0.71563000  0.43763000  0.92506000  1.0
  F  F136  1  0.78941000  0.07507000  0.51306000  1.0
  F  F137  1  0.27616000  0.48683000  0.56193000  1.0
