# generated using pymatgen
data_CuH17C13N5O2
_symmetry_space_group_name_H-M   'P 1'
_cell_length_a   9.26950000
_cell_length_b   9.52367000
_cell_length_c   17.26130000
_cell_angle_alpha   81.90150000
_cell_angle_beta   89.99880000
_cell_angle_gamma   89.99940000
_symmetry_Int_Tables_number   1
_chemical_formula_structural   CuH17C13N5O2
_chemical_formula_sum   'Cu4 H68 C52 N20 O8'
_cell_volume   1508.62513253
_cell_formula_units_Z   4
loop_
 _symmetry_equiv_pos_site_id
 _symmetry_equiv_pos_as_xyz
  1  'x, y, z'
loop_
 _atom_site_type_symbol
 _atom_site_label
 _atom_site_symmetry_multiplicity
 _atom_site_fract_x
 _atom_site_fract_y
 _atom_site_fract_z
 _atom_site_occupancy
  Cu  Cu0  1  0.36604000  0.12669000  0.18607000  1.0
  Cu  Cu1  1  0.13395000  0.12660000  0.68611000  1.0
  Cu  Cu2  1  0.63395000  0.87338000  0.81388000  1.0
  Cu  Cu3  1  0.86604000  0.87332000  0.31393000  1.0
  H  H4  1  0.17373000  0.78022000  0.06950000  1.0
  H  H5  1  0.32628000  0.78021000  0.56948000  1.0
  H  H6  1  0.82627000  0.21977000  0.93052000  1.0
  H  H7  1  0.67372000  0.21978000  0.43050000  1.0
  H  H8  1  0.30246000  0.59218000  0.01167000  1.0
  H  H9  1  0.19755000  0.59217000  0.51166000  1.0
  H  H10  1  0.69754000  0.40782000  0.98834000  1.0
  H  H11  1  0.80245000  0.40783000  0.48833000  1.0
  H  H12  1  0.57240000  0.60281000  0.99663000  1.0
  H  H13  1  0.92761000  0.60279000  0.49663000  1.0
  H  H14  1  0.42760000  0.39721000  0.00337000  1.0
  H  H15  1  0.07239000  0.39720000  0.50337000  1.0
  H  H16  1  0.70596000  0.80241000  0.04123000  1.0
  H  H17  1  0.79405000  0.80241000  0.54122000  1.0
  H  H18  1  0.29404000  0.19759000  0.95878000  1.0
  H  H19  1  0.20596000  0.19760000  0.45877000  1.0
  H  H20  1  0.72223000  0.00704000  0.09686000  1.0
  H  H21  1  0.77778000  0.00707000  0.59682000  1.0
  H  H22  1  0.27778000  0.99293000  0.90318000  1.0
  H  H23  1  0.22224000  0.99295000  0.40314000  1.0
  H  H24  1  0.64725000  0.31405000  0.11754000  1.0
  H  H25  1  0.85277000  0.31406000  0.61753000  1.0
  H  H26  1  0.35276000  0.68593000  0.88247000  1.0
  H  H27  1  0.14725000  0.68596000  0.38246000  1.0
  H  H28  1  0.76950000  0.18639000  0.16482000  1.0
  H  H29  1  0.73051000  0.18640000  0.66481000  1.0
  H  H30  1  0.23049000  0.81359000  0.83520000  1.0
  H  H31  1  0.26951000  0.81361000  0.33517000  1.0
  H  H32  1  0.63725000  0.17381000  0.28858000  1.0
  H  H33  1  0.86273000  0.17379000  0.78857000  1.0
  H  H34  1  0.36271000  0.82621000  0.71143000  1.0
  H  H35  1  0.13724000  0.82619000  0.21142000  1.0
  H  H36  1  0.67587000  0.35515000  0.25355000  1.0
  H  H37  1  0.82414000  0.35513000  0.75355000  1.0
  H  H38  1  0.32414000  0.64486000  0.74646000  1.0
  H  H39  1  0.17587000  0.64486000  0.24644000  1.0
  H  H40  1  0.43866000  0.18429000  0.35892000  1.0
  H  H41  1  0.06128000  0.18429000  0.85894000  1.0
  H  H42  1  0.56127000  0.81571000  0.64105000  1.0
  H  H43  1  0.93867000  0.81571000  0.14108000  1.0
  H  H44  1  0.28131000  0.27696000  0.32092000  1.0
  H  H45  1  0.21865000  0.27692000  0.82094000  1.0
  H  H46  1  0.71864000  0.72308000  0.67905000  1.0
  H  H47  1  0.78132000  0.72305000  0.17908000  1.0
  H  H48  1  0.39005000  0.40855000  0.41960000  1.0
  H  H49  1  0.10987000  0.40857000  0.91960000  1.0
  H  H50  1  0.60987000  0.59142000  0.58040000  1.0
  H  H51  1  0.89006000  0.59146000  0.08040000  1.0
  H  H52  1  0.56006000  0.41821000  0.37035000  1.0
  H  H53  1  0.93987000  0.41822000  0.87032000  1.0
  H  H54  1  0.43987000  0.58178000  0.62968000  1.0
  H  H55  1  0.06008000  0.58179000  0.12966000  1.0
  H  H56  1  0.57398000  0.56394000  0.24337000  1.0
  H  H57  1  0.92603000  0.56392000  0.74332000  1.0
  H  H58  1  0.42602000  0.43608000  0.75668000  1.0
  H  H59  1  0.07398000  0.43605000  0.25663000  1.0
  H  H60  1  0.41463000  0.65167000  0.20613000  1.0
  H  H61  1  0.08539000  0.65163000  0.70610000  1.0
  H  H62  1  0.58539000  0.34837000  0.79390000  1.0
  H  H63  1  0.91464000  0.34833000  0.29387000  1.0
  H  H64  1  0.29642000  0.42465000  0.19011000  1.0
  H  H65  1  0.20361000  0.42458000  0.69014000  1.0
  H  H66  1  0.70361000  0.57542000  0.80986000  1.0
  H  H67  1  0.79643000  0.57535000  0.30989000  1.0
  H  H68  1  0.46492000  0.43725000  0.14035000  1.0
  H  H69  1  0.03515000  0.43717000  0.64034000  1.0
  H  H70  1  0.53515000  0.56283000  0.85966000  1.0
  H  H71  1  0.96492000  0.56275000  0.35965000  1.0
  C  C72  1  0.36490000  0.89300000  0.09514000  1.0
  C  C73  1  0.13512000  0.89299000  0.59512000  1.0
  C  C74  1  0.63512000  0.10700000  0.90488000  1.0
  C  C75  1  0.86489000  0.10701000  0.40486000  1.0
  C  C76  1  0.29098000  0.78097000  0.06522000  1.0
  C  C77  1  0.20904000  0.78098000  0.56519000  1.0
  C  C78  1  0.70902000  0.21902000  0.93480000  1.0
  C  C79  1  0.79097000  0.21903000  0.43479000  1.0
  C  C80  1  0.36414000  0.67730000  0.03239000  1.0
  C  C81  1  0.13588000  0.67729000  0.53237000  1.0
  C  C82  1  0.63588000  0.32270000  0.96762000  1.0
  C  C83  1  0.86413000  0.32271000  0.46762000  1.0
  C  C84  1  0.51513000  0.68213000  0.02443000  1.0
  C  C85  1  0.98488000  0.68213000  0.52441000  1.0
  C  C86  1  0.48487000  0.31787000  0.97558000  1.0
  C  C87  1  0.01512000  0.31787000  0.47558000  1.0
  C  C88  1  0.58954000  0.79301000  0.05006000  1.0
  C  C89  1  0.91048000  0.79300000  0.55004000  1.0
  C  C90  1  0.41046000  0.20699000  0.94996000  1.0
  C  C91  1  0.08953000  0.20701000  0.44995000  1.0
  C  C92  1  0.51924000  0.89814000  0.08621000  1.0
  C  C93  1  0.98078000  0.89815000  0.58619000  1.0
  C  C94  1  0.48078000  0.10185000  0.91381000  1.0
  C  C95  1  0.01925000  0.10186000  0.41379000  1.0
  C  C96  1  0.60624000  0.00959000  0.10997000  1.0
  C  C97  1  0.89378000  0.00960000  0.60995000  1.0
  C  C98  1  0.39375000  0.99041000  0.89006000  1.0
  C  C99  1  0.10623000  0.99043000  0.39003000  1.0
  C  C100  1  0.65656000  0.22201000  0.16360000  1.0
  C  C101  1  0.84346000  0.22202000  0.66359000  1.0
  C  C102  1  0.34345000  0.77799000  0.83641000  1.0
  C  C103  1  0.15655000  0.77798000  0.33640000  1.0
  C  C104  1  0.61351000  0.26212000  0.24233000  1.0
  C  C105  1  0.88649000  0.26210000  0.74232000  1.0
  C  C106  1  0.38647000  0.73790000  0.75768000  1.0
  C  C107  1  0.11351000  0.73788000  0.25767000  1.0
  C  C108  1  0.39947000  0.28291000  0.32468000  1.0
  C  C109  1  0.10049000  0.28289000  0.82469000  1.0
  C  C110  1  0.60049000  0.71711000  0.67531000  1.0
  C  C111  1  0.89948000  0.71710000  0.17532000  1.0
  C  C112  1  0.44186000  0.41289000  0.36201000  1.0
  C  C113  1  0.05808000  0.41289000  0.86200000  1.0
  C  C114  1  0.55808000  0.58710000  0.63800000  1.0
  C  C115  1  0.94188000  0.58711000  0.13799000  1.0
  C  C116  1  0.45576000  0.55301000  0.23917000  1.0
  C  C117  1  0.04425000  0.55298000  0.73914000  1.0
  C  C118  1  0.54424000  0.44702000  0.76086000  1.0
  C  C119  1  0.95577000  0.44699000  0.26083000  1.0
  C  C120  1  0.41406000  0.42724000  0.19821000  1.0
  C  C121  1  0.08598000  0.42717000  0.69821000  1.0
  C  C122  1  0.58596000  0.57283000  0.80178000  1.0
  C  C123  1  0.91406000  0.57277000  0.30179000  1.0
  N  N124  1  0.55858000  0.11193000  0.14493000  1.0
  N  N125  1  0.94143000  0.11194000  0.64491000  1.0
  N  N126  1  0.44143000  0.88804000  0.85508000  1.0
  N  N127  1  0.05858000  0.88807000  0.35507000  1.0
  N  N128  1  0.45566000  0.28909000  0.24392000  1.0
  N  N129  1  0.04434000  0.28905000  0.74393000  1.0
  N  N130  1  0.54434000  0.71095000  0.75607000  1.0
  N  N131  1  0.95566000  0.71091000  0.25608000  1.0
  N  N132  1  0.17169000  0.18009000  0.21611000  1.0
  N  N133  1  0.32830000  0.17998000  0.71617000  1.0
  N  N134  1  0.82830000  0.82003000  0.78383000  1.0
  N  N135  1  0.67168000  0.81991000  0.28390000  1.0
  N  N136  1  0.06627000  0.11394000  0.20373000  1.0
  N  N137  1  0.43377000  0.11385000  0.70381000  1.0
  N  N138  1  0.93378000  0.88616000  0.79619000  1.0
  N  N139  1  0.56625000  0.88606000  0.29628000  1.0
  N  N140  1  0.96030000  0.05108000  0.19405000  1.0
  N  N141  1  0.53976000  0.05103000  0.69416000  1.0
  N  N142  1  0.03976000  0.94899000  0.80584000  1.0
  N  N143  1  0.46027000  0.94890000  0.30595000  1.0
  O  O144  1  0.28798000  0.98342000  0.12785000  1.0
  O  O145  1  0.21204000  0.98341000  0.62783000  1.0
  O  O146  1  0.71201000  0.01659000  0.87217000  1.0
  O  O147  1  0.78798000  0.01659000  0.37215000  1.0
  O  O148  1  0.39319000  0.54060000  0.31584000  1.0
  O  O149  1  0.10678000  0.54059000  0.81583000  1.0
  O  O150  1  0.60677000  0.45940000  0.68417000  1.0
  O  O151  1  0.89321000  0.45940000  0.18416000  1.0
