# generated using pymatgen
data_CuH3C4IN2
_symmetry_space_group_name_H-M   'P 1'
_cell_length_a   7.31020000
_cell_length_b   8.82328000
_cell_length_c   8.93247000
_cell_angle_alpha   89.99640000
_cell_angle_beta   92.56470000
_cell_angle_gamma   89.99760000
_symmetry_Int_Tables_number   1
_chemical_formula_structural   CuH3C4IN2
_chemical_formula_sum   'Cu4 H12 C16 I4 N8'
_cell_volume   575.56668346
_cell_formula_units_Z   4
loop_
 _symmetry_equiv_pos_site_id
 _symmetry_equiv_pos_as_xyz
  1  'x, y, z'
loop_
 _atom_site_type_symbol
 _atom_site_label
 _atom_site_symmetry_multiplicity
 _atom_site_fract_x
 _atom_site_fract_y
 _atom_site_fract_z
 _atom_site_occupancy
  Cu  Cu0  1  0.91657000  0.57552000  0.09845000  1.0
  Cu  Cu1  1  0.08348000  0.07556000  0.40157000  1.0
  Cu  Cu2  1  0.08346000  0.42449000  0.90156000  1.0
  Cu  Cu3  1  0.91653000  0.92443000  0.59846000  1.0
  H  H4  1  0.04070000  0.79191000  0.87649000  1.0
  H  H5  1  0.95928000  0.29198000  0.62355000  1.0
  H  H6  1  0.95927000  0.20808000  0.12355000  1.0
  H  H7  1  0.04072000  0.70808000  0.37643000  1.0
  H  H8  1  0.60801000  0.07896000  0.76204000  1.0
  H  H9  1  0.39199000  0.57895000  0.73796000  1.0
  H  H10  1  0.39197000  0.92106000  0.23796000  1.0
  H  H11  1  0.60807000  0.42102000  0.26209000  1.0
  H  H12  1  0.61725000  0.81057000  0.16922000  1.0
  H  H13  1  0.38278000  0.31056000  0.33084000  1.0
  H  H14  1  0.38270000  0.18942000  0.83079000  1.0
  H  H15  1  0.61723000  0.68943000  0.66917000  1.0
  C  C16  1  0.90823000  0.83904000  0.90410000  1.0
  C  C17  1  0.09177000  0.33905000  0.59591000  1.0
  C  C18  1  0.09174000  0.16097000  0.09592000  1.0
  C  C19  1  0.90824000  0.66096000  0.40406000  1.0
  C  C20  1  0.66916000  0.00133000  0.84464000  1.0
  C  C21  1  0.33083000  0.50133000  0.65536000  1.0
  C  C22  1  0.33083000  0.99871000  0.15538000  1.0
  C  C23  1  0.66919000  0.49867000  0.34464000  1.0
  C  C24  1  0.58597000  0.96468000  0.97858000  1.0
  C  C25  1  0.41403000  0.46467000  0.52142000  1.0
  C  C26  1  0.41402000  0.03532000  0.02144000  1.0
  C  C27  1  0.58599000  0.53529000  0.47856000  1.0
  C  C28  1  0.67460000  0.85298000  0.06706000  1.0
  C  C29  1  0.32543000  0.35299000  0.43295000  1.0
  C  C30  1  0.32539000  0.14699000  0.93294000  1.0
  C  C31  1  0.67460000  0.64701000  0.56703000  1.0
  I  I32  1  0.27360000  0.59358000  0.09269000  1.0
  I  I33  1  0.72638000  0.09360000  0.40724000  1.0
  I  I34  1  0.72639000  0.40644000  0.90722000  1.0
  I  I35  1  0.27358000  0.90637000  0.59274000  1.0
  N  N36  1  0.83338000  0.78962000  0.02908000  1.0
  N  N37  1  0.16665000  0.28962000  0.47095000  1.0
  N  N38  1  0.16663000  0.21037000  0.97094000  1.0
  N  N39  1  0.83336000  0.71040000  0.52904000  1.0
  N  N40  1  0.82938000  0.93868000  0.80763000  1.0
  N  N41  1  0.17060000  0.43872000  0.69236000  1.0
  N  N42  1  0.17058000  0.06133000  0.19238000  1.0
  N  N43  1  0.82943000  0.56129000  0.30763000  1.0
