# generated using pymatgen
data_ZnH23C15(NO2)2
_symmetry_space_group_name_H-M   'P 1'
_cell_length_a   8.58013000
_cell_length_b   8.86999000
_cell_length_c   10.87640000
_cell_angle_alpha   93.34440000
_cell_angle_beta   92.58280000
_cell_angle_gamma   105.67700000
_symmetry_Int_Tables_number   1
_chemical_formula_structural   ZnH23C15(NO2)2
_chemical_formula_sum   'Zn2 H46 C30 N4 O8'
_cell_volume   794.01133090
_cell_formula_units_Z   2
loop_
 _symmetry_equiv_pos_site_id
 _symmetry_equiv_pos_as_xyz
  1  'x, y, z'
loop_
 _atom_site_type_symbol
 _atom_site_label
 _atom_site_symmetry_multiplicity
 _atom_site_fract_x
 _atom_site_fract_y
 _atom_site_fract_z
 _atom_site_occupancy
  Zn  Zn0  1  0.99169000  0.95095000  0.62522000  1.0
  Zn  Zn1  1  0.00830000  0.04905000  0.37478000  1.0
  H  H2  1  0.12310000  0.70254000  0.76229000  1.0
  H  H3  1  0.87691000  0.29746000  0.23771000  1.0
  H  H4  1  0.22307000  0.87694000  0.85268000  1.0
  H  H5  1  0.77693000  0.12305000  0.14731000  1.0
  H  H6  1  0.13023000  0.73050000  0.02962000  1.0
  H  H7  1  0.86978000  0.26951000  0.97038000  1.0
  H  H8  1  0.98500000  0.58335000  0.93429000  1.0
  H  H9  1  0.01501000  0.41665000  0.06571000  1.0
  H  H10  1  0.77499000  0.03072000  0.80623000  1.0
  H  H11  1  0.22501000  0.96927000  0.19377000  1.0
  H  H12  1  0.70969000  0.97307000  0.95553000  1.0
  H  H13  1  0.29031000  0.02692000  0.04446000  1.0
  H  H14  1  0.63651000  0.84560000  0.82109000  1.0
  H  H15  1  0.36349000  0.15439000  0.17890000  1.0
  H  H16  1  0.76815000  0.85857000  0.10760000  1.0
  H  H17  1  0.23186000  0.14143000  0.89240000  1.0
  H  H18  1  0.91908000  0.78074000  0.16973000  1.0
  H  H19  1  0.08092000  0.21925000  0.83027000  1.0
  H  H20  1  0.65962000  0.59575000  0.18740000  1.0
  H  H21  1  0.34037000  0.40425000  0.81259000  1.0
  H  H22  1  0.76395000  0.51052000  0.07992000  1.0
  H  H23  1  0.23605000  0.48947000  0.92007000  1.0
  H  H24  1  0.50039000  0.67330000  0.01465000  1.0
  H  H25  1  0.49961000  0.32670000  0.98534000  1.0
  H  H26  1  0.60689000  0.59224000  0.90554000  1.0
  H  H27  1  0.39311000  0.40776000  0.09445000  1.0
  H  H28  1  0.44727000  0.38432000  0.61568000  1.0
  H  H29  1  0.55273000  0.61569000  0.38433000  1.0
  H  H30  1  0.59547000  0.19425000  0.43428000  1.0
  H  H31  1  0.40453000  0.80575000  0.56572000  1.0
  H  H32  1  0.50209000  0.34178000  0.39757000  1.0
  H  H33  1  0.49790000  0.65822000  0.60243000  1.0
  H  H34  1  0.71313000  0.54230000  0.53067000  1.0
  H  H35  1  0.28687000  0.45770000  0.46933000  1.0
  H  H36  1  0.80643000  0.44682000  0.42095000  1.0
  H  H37  1  0.19357000  0.55318000  0.57904000  1.0
  H  H38  1  0.94009000  0.48453000  0.63302000  1.0
  H  H39  1  0.05991000  0.51548000  0.36698000  1.0
  H  H40  1  0.80060000  0.31763000  0.79662000  1.0
  H  H41  1  0.19940000  0.68236000  0.20338000  1.0
  H  H42  1  0.70556000  0.46320000  0.75442000  1.0
  H  H43  1  0.29444000  0.53680000  0.24558000  1.0
  H  H44  1  0.49703000  0.20686000  0.77166000  1.0
  H  H45  1  0.50297000  0.79314000  0.22834000  1.0
  H  H46  1  0.59407000  0.11345000  0.66349000  1.0
  H  H47  1  0.40593000  0.88656000  0.33651000  1.0
  C  C48  1  0.10570000  0.78706000  0.83442000  1.0
  C  C49  1  0.89430000  0.21294000  0.16558000  1.0
  C  C50  1  0.03939000  0.71093000  0.95169000  1.0
  C  C51  1  0.96061000  0.28907000  0.04832000  1.0
  C  C52  1  0.88139000  0.86185000  0.87869000  1.0
  C  C53  1  0.11862000  0.13814000  0.12131000  1.0
  C  C54  1  0.74321000  0.93297000  0.86590000  1.0
  C  C55  1  0.25680000  0.06702000  0.13409000  1.0
  C  C56  1  0.82798000  0.76492000  0.09235000  1.0
  C  C57  1  0.17202000  0.23507000  0.90765000  1.0
  C  C58  1  0.70375000  0.60489000  0.09385000  1.0
  C  C59  1  0.29625000  0.39510000  0.90615000  1.0
  C  C60  1  0.56153000  0.57979000  0.99869000  1.0
  C  C61  1  0.43847000  0.42021000  0.00130000  1.0
  C  C62  1  0.30430000  0.15930000  0.55490000  1.0
  C  C63  1  0.69569000  0.84072000  0.44510000  1.0
  C  C64  1  0.47293000  0.27271000  0.58444000  1.0
  C  C65  1  0.52707000  0.72730000  0.41556000  1.0
  C  C66  1  0.57304000  0.30462000  0.47077000  1.0
  C  C67  1  0.42696000  0.69538000  0.52923000  1.0
  C  C68  1  0.73451000  0.42874000  0.50252000  1.0
  C  C69  1  0.26549000  0.57127000  0.49748000  1.0
  C  C70  1  0.83262000  0.38410000  0.60899000  1.0
  C  C71  1  0.16738000  0.61590000  0.39101000  1.0
  C  C72  1  0.73053000  0.35247000  0.72170000  1.0
  C  C73  1  0.26947000  0.64753000  0.27830000  1.0
  C  C74  1  0.56986000  0.22632000  0.69055000  1.0
  C  C75  1  0.43014000  0.77368000  0.30945000  1.0
  C  C76  1  0.90103000  0.24658000  0.57141000  1.0
  C  C77  1  0.09896000  0.75342000  0.42859000  1.0
  N  N78  1  0.98222000  0.86303000  0.79151000  1.0
  N  N79  1  0.01779000  0.13696000  0.20849000  1.0
  N  N80  1  0.91315000  0.78886000  0.97944000  1.0
  N  N81  1  0.08685000  0.21114000  0.02056000  1.0
  O  O82  1  0.23415000  0.08433000  0.64241000  1.0
  O  O83  1  0.76585000  0.91567000  0.35759000  1.0
  O  O84  1  0.24350000  0.15316000  0.44519000  1.0
  O  O85  1  0.75649000  0.84686000  0.55482000  1.0
  O  O86  1  0.93249000  0.23038000  0.45939000  1.0
  O  O87  1  0.06749000  0.76961000  0.54061000  1.0
  O  O88  1  0.92528000  0.15959000  0.65561000  1.0
  O  O89  1  0.07473000  0.84042000  0.34440000  1.0
