# generated using pymatgen
data_Zn2H15C24O11
_symmetry_space_group_name_H-M   'P 1'
_cell_length_a   12.45520000
_cell_length_b   15.12860000
_cell_length_c   26.12030000
_cell_angle_alpha   90.29520000
_cell_angle_beta   78.12700000
_cell_angle_gamma   90.01940000
_symmetry_Int_Tables_number   1
_chemical_formula_structural   Zn2H15C24O11
_chemical_formula_sum   'Zn8 H60 C96 O44'
_cell_volume   4816.47843013
_cell_formula_units_Z   4
loop_
 _symmetry_equiv_pos_site_id
 _symmetry_equiv_pos_as_xyz
  1  'x, y, z'
loop_
 _atom_site_type_symbol
 _atom_site_label
 _atom_site_symmetry_multiplicity
 _atom_site_fract_x
 _atom_site_fract_y
 _atom_site_fract_z
 _atom_site_occupancy
  Zn  Zn0  1  0.14888000  0.99077000  0.86914000  1.0
  Zn  Zn1  1  0.03981000  0.85413000  0.79090000  1.0
  Zn  Zn2  1  0.86448000  0.04189000  0.14703000  1.0
  Zn  Zn3  1  0.36963000  0.48747000  0.64499000  1.0
  Zn  Zn4  1  0.47802000  0.36068000  0.72114000  1.0
  Zn  Zn5  1  0.95592000  0.18871000  0.23848000  1.0
  Zn  Zn6  1  0.65687000  0.53834000  0.36639000  1.0
  Zn  Zn7  1  0.54374000  0.67111000  0.29227000  1.0
  H  H8  1  0.79018000  0.75343000  0.90140000  1.0
  H  H9  1  0.91921000  0.94028000  0.99751000  1.0
  H  H10  1  0.63516000  0.78584000  0.06415000  1.0
  H  H11  1  0.58347000  0.76903000  0.90815000  1.0
  H  H12  1  0.72060000  0.64114000  0.05023000  1.0
  H  H13  1  0.68134000  0.50718000  0.10190000  1.0
  H  H14  1  0.36646000  0.79018000  0.89982000  1.0
  H  H15  1  0.50307000  0.54250000  0.83393000  1.0
  H  H16  1  0.31050000  0.70157000  0.75073000  1.0
  H  H17  1  0.33455000  0.52533000  0.91157000  1.0
  H  H18  1  0.29169000  0.39255000  0.96503000  1.0
  H  H19  1  0.43085000  0.26474000  0.10686000  1.0
  H  H20  1  0.64823000  0.24138000  0.11383000  1.0
  H  H21  1  0.51712000  0.49175000  0.17787000  1.0
  H  H22  1  0.22547000  0.27989000  0.11593000  1.0
  H  H23  1  0.37789000  0.24478000  0.95364000  1.0
  H  H24  1  0.70574000  0.33143000  0.26241000  1.0
  H  H25  1  0.09551000  0.08964000  0.02160000  1.0
  H  H26  1  0.74354000  0.26146000  0.61100000  1.0
  H  H27  1  0.61098000  0.43754000  0.51054000  1.0
  H  H28  1  0.88194000  0.26798000  0.44576000  1.0
  H  H29  1  0.94042000  0.26366000  0.60385000  1.0
  H  H30  1  0.79304000  0.13102000  0.46534000  1.0
  H  H31  1  0.83305000  0.99765000  0.41214000  1.0
  H  H32  1  0.15519000  0.28381000  0.61258000  1.0
  H  H33  1  0.01839000  0.03687000  0.67751000  1.0
  H  H34  1  0.22083000  0.19096000  0.75882000  1.0
  H  H35  1  0.18769000  0.01887000  0.59908000  1.0
  H  H36  1  0.22841000  0.88535000  0.54527000  1.0
  H  H37  1  0.09070000  0.75870000  0.40243000  1.0
  H  H38  1  0.87346000  0.73635000  0.39404000  1.0
  H  H39  1  0.00286000  0.98848000  0.33406000  1.0
  H  H40  1  0.30208000  0.77273000  0.39898000  1.0
  H  H41  1  0.12751000  0.73720000  0.55766000  1.0
  H  H42  1  0.80474000  0.83585000  0.24998000  1.0
  H  H43  1  0.42185000  0.58830000  0.49897000  1.0
  H  H44  1  0.86854000  0.92120000  0.75320000  1.0
  H  H45  1  0.05113000  0.76276000  0.70442000  1.0
  H  H46  1  0.10076000  0.83388000  0.63265000  1.0
  H  H47  1  0.84720000  0.81991000  0.75080000  1.0
  H  H48  1  0.10425000  0.71058000  0.74593000  1.0
  H  H49  1  0.12528000  0.72939000  0.63388000  1.0
  H  H50  1  0.35939000  0.69137000  0.25573000  1.0
  H  H51  1  0.52396000  0.81877000  0.24532000  1.0
  H  H52  1  0.70363000  0.78367000  0.14788000  1.0
  H  H53  1  0.35454000  0.59331000  0.27199000  1.0
  H  H54  1  0.58752000  0.74491000  0.20420000  1.0
  H  H55  1  0.73874000  0.71521000  0.18834000  1.0
  H  H56  1  0.11953000  0.11493000  0.25863000  1.0
  H  H57  1  0.00870000  0.32877000  0.18729000  1.0
  H  H58  1  0.99093000  0.23917000  0.32745000  1.0
  H  H59  1  0.17149000  0.19390000  0.22417000  1.0
  H  H60  1  0.91469000  0.36845000  0.23103000  1.0
  H  H61  1  0.86771000  0.26867000  0.33934000  1.0
  H  H62  1  0.61746000  0.27985000  0.75926000  1.0
  H  H63  1  0.38462000  0.22902000  0.87362000  1.0
  H  H64  1  0.78944000  0.35559000  0.72786000  1.0
  H  H65  1  0.50177000  0.27545000  0.80480000  1.0
  H  H66  1  0.41083000  0.33248000  0.87607000  1.0
  H  H67  1  0.71300000  0.33101000  0.68928000  1.0
  C  C68  1  0.95047000  0.87330000  0.89918000  1.0
  C  C69  1  0.86306000  0.84900000  0.94497000  1.0
  C  C70  1  0.78495000  0.78526000  0.93935000  1.0
  C  C71  1  0.85908000  0.89005000  0.99326000  1.0
  C  C72  1  0.70154000  0.76192000  0.98180000  1.0
  C  C73  1  0.77818000  0.86586000  0.03641000  1.0
  C  C74  1  0.61891000  0.69602000  0.97307000  1.0
  C  C75  1  0.69954000  0.80241000  0.03055000  1.0
  C  C76  1  0.77752000  0.90925000  0.08833000  1.0
  C  C77  1  0.59813000  0.61759000  0.00297000  1.0
  C  C78  1  0.56527000  0.70934000  0.93164000  1.0
  C  C79  1  0.51960000  0.55519000  0.99143000  1.0
  C  C80  1  0.65666000  0.59654000  0.04302000  1.0
  C  C81  1  0.49078000  0.64843000  0.91867000  1.0
  C  C82  1  0.46482000  0.57120000  0.94930000  1.0
  C  C83  1  0.63454000  0.52154000  0.07201000  1.0
  C  C84  1  0.44177000  0.66468000  0.87246000  1.0
  C  C85  1  0.38052000  0.74112000  0.86843000  1.0
  C  C86  1  0.45569000  0.60237000  0.83176000  1.0
  C  C87  1  0.33226000  0.75402000  0.82507000  1.0
  C  C88  1  0.40934000  0.61554000  0.78788000  1.0
  C  C89  1  0.25684000  0.83081000  0.82392000  1.0
  C  C90  1  0.34746000  0.69155000  0.78456000  1.0
  C  C91  1  0.42193000  0.54550000  0.74658000  1.0
  C  C92  1  0.49612000  0.47654000  0.02194000  1.0
  C  C93  1  0.38174000  0.51026000  0.94125000  1.0
  C  C94  1  0.55181000  0.46066000  0.06376000  1.0
  C  C95  1  0.41623000  0.41461000  0.01121000  1.0
  C  C96  1  0.35803000  0.43592000  0.97098000  1.0
  C  C97  1  0.52562000  0.38399000  0.09470000  1.0
  C  C98  1  0.39391000  0.33736000  0.04219000  1.0
  C  C99  1  0.57545000  0.36794000  0.14049000  1.0
  C  C100  1  0.44916000  0.32398000  0.08299000  1.0
  C  C101  1  0.31058000  0.27109000  0.03515000  1.0
  C  C102  1  0.63522000  0.29097000  0.14492000  1.0
  C  C103  1  0.56281000  0.43119000  0.18066000  1.0
  C  C104  1  0.22926000  0.24700000  0.07836000  1.0
  C  C105  1  0.31271000  0.22896000  0.98700000  1.0
  C  C106  1  0.68287000  0.27822000  0.18850000  1.0
  C  C107  1  0.60942000  0.41815000  0.22429000  1.0
  C  C108  1  0.15243000  0.18145000  0.07391000  1.0
  C  C109  1  0.23476000  0.16476000  0.98163000  1.0
  C  C110  1  0.75466000  0.20012000  0.19122000  1.0
  C  C111  1  0.66952000  0.34151000  0.22834000  1.0
  C  C112  1  0.59950000  0.48741000  0.26555000  1.0
  C  C113  1  0.06653000  0.15501000  0.12039000  1.0
  C  C114  1  0.15533000  0.14041000  0.02540000  1.0
  C  C115  1  0.23620000  0.12226000  0.92900000  1.0
  C  C116  1  0.58540000  0.38388000  0.61199000  1.0
  C  C117  1  0.66939000  0.35384000  0.56589000  1.0
  C  C118  1  0.74585000  0.28928000  0.57242000  1.0
  C  C119  1  0.67006000  0.38729000  0.51593000  1.0
  C  C120  1  0.82326000  0.25730000  0.52971000  1.0
  C  C121  1  0.74652000  0.35573000  0.47264000  1.0
  C  C122  1  0.90272000  0.18978000  0.53921000  1.0
  C  C123  1  0.82229000  0.29107000  0.47976000  1.0
  C  C124  1  0.74726000  0.39219000  0.41867000  1.0
  C  C125  1  0.92085000  0.11021000  0.50978000  1.0
  C  C126  1  0.95720000  0.20341000  0.58041000  1.0
  C  C127  1  0.99967000  0.04796000  0.52075000  1.0
  C  C128  1  0.85960000  0.08782000  0.47085000  1.0
  C  C129  1  0.03070000  0.14198000  0.59335000  1.0
  C  C130  1  0.05566000  0.06432000  0.56251000  1.0
  C  C131  1  0.88182000  0.01303000  0.44118000  1.0
  C  C132  1  0.08067000  0.15827000  0.63934000  1.0
  C  C133  1  0.14243000  0.23445000  0.64351000  1.0
  C  C134  1  0.06705000  0.09608000  0.67976000  1.0
  C  C135  1  0.19341000  0.24584000  0.68620000  1.0
  C  C136  1  0.11527000  0.10830000  0.72315000  1.0
  C  C137  1  0.27001000  0.32142000  0.68734000  1.0
  C  C138  1  0.18001000  0.18284000  0.72604000  1.0
  C  C139  1  0.10125000  0.03991000  0.76520000  1.0
  C  C140  1  0.02255000  0.96927000  0.48981000  1.0
  C  C141  1  0.13902000  0.00337000  0.56997000  1.0
  C  C142  1  0.96689000  0.95337000  0.44791000  1.0
  C  C143  1  0.10217000  0.90726000  0.50015000  1.0
  C  C144  1  0.16155000  0.92864000  0.54005000  1.0
  C  C145  1  0.99483000  0.87778000  0.41566000  1.0
  C  C146  1  0.12381000  0.82974000  0.46896000  1.0
  C  C147  1  0.94531000  0.86356000  0.36940000  1.0
  C  C148  1  0.07095000  0.81727000  0.42715000  1.0
  C  C149  1  0.20552000  0.76351000  0.47782000  1.0
  C  C150  1  0.88504000  0.78722000  0.36400000  1.0
  C  C151  1  0.95666000  0.92840000  0.33044000  1.0
  C  C152  1  0.29306000  0.74122000  0.43704000  1.0
  C  C153  1  0.19745000  0.72197000  0.52637000  1.0
  C  C154  1  0.83406000  0.77699000  0.32117000  1.0
  C  C155  1  0.90787000  0.91788000  0.28719000  1.0
  C  C156  1  0.37021000  0.67804000  0.44464000  1.0
  C  C157  1  0.27585000  0.66030000  0.53465000  1.0
  C  C158  1  0.76023000  0.69979000  0.31894000  1.0
  C  C159  1  0.84560000  0.84228000  0.28283000  1.0
  C  C160  1  0.91717000  0.98882000  0.24687000  1.0
  C  C161  1  0.46110000  0.65413000  0.40033000  1.0
  C  C162  1  0.36166000  0.63734000  0.49318000  1.0
  C  C163  1  0.27041000  0.61927000  0.58755000  1.0
  O  O164  1  0.99880000  0.94680000  0.90097000  1.0
  O  O165  1  0.96935000  0.81798000  0.86107000  1.0
  O  O166  1  0.71917000  0.87978000  0.13006000  1.0
  O  O167  1  0.84053000  0.97707000  0.08624000  1.0
  O  O168  1  0.25002000  0.88840000  0.86034000  1.0
  O  O169  1  0.20313000  0.83184000  0.78740000  1.0
  O  O170  1  0.37774000  0.55879000  0.70738000  1.0
  O  O171  1  0.47523000  0.47649000  0.75455000  1.0
  O  O172  1  0.04060000  0.74662000  0.74359000  1.0
  O  O173  1  0.06818000  0.77793000  0.64606000  1.0
  O  O174  1  0.86088000  0.86735000  0.77396000  1.0
  O  O175  1  0.16768000  0.05796000  0.93007000  1.0
  O  O176  1  0.14601000  0.05496000  0.80381000  1.0
  O  O177  1  0.04517000  0.97146000  0.75824000  1.0
  O  O178  1  0.76519000  0.14447000  0.15378000  1.0
  O  O179  1  0.80123000  0.19578000  0.23028000  1.0
  O  O180  1  0.65541000  0.47617000  0.30050000  1.0
  O  O181  1  0.53660000  0.55316000  0.26206000  1.0
  O  O182  1  0.01313000  0.08535000  0.11539000  1.0
  O  O183  1  0.05315000  0.20360000  0.16178000  1.0
  O  O184  1  0.29920000  0.14950000  0.88826000  1.0
  O  O185  1  0.86311000  0.97605000  0.21111000  1.0
  O  O186  1  0.97673000  0.05608000  0.25126000  1.0
  O  O187  1  0.12704000  0.17949000  0.25838000  1.0
  O  O188  1  0.98325000  0.33534000  0.22518000  1.0
  O  O189  1  0.91975000  0.22362000  0.32010000  1.0
  O  O190  1  0.51044000  0.43548000  0.60443000  1.0
  O  O191  1  0.59408000  0.35360000  0.65719000  1.0
  O  O192  1  0.79840000  0.35425000  0.37819000  1.0
  O  O193  1  0.69099000  0.46436000  0.42018000  1.0
  O  O194  1  0.26825000  0.38524000  0.65592000  1.0
  O  O195  1  0.33374000  0.31458000  0.71972000  1.0
  O  O196  1  0.53641000  0.27565000  0.76559000  1.0
  O  O197  1  0.44287000  0.27623000  0.86274000  1.0
  O  O198  1  0.74725000  0.30734000  0.71721000  1.0
  O  O199  1  0.34016000  0.55641000  0.58763000  1.0
  O  O200  1  0.75271000  0.64325000  0.35551000  1.0
  O  O201  1  0.70758000  0.69667000  0.28166000  1.0
  O  O202  1  0.50888000  0.58036000  0.40229000  1.0
  O  O203  1  0.48348000  0.70998000  0.36277000  1.0
  O  O204  1  0.20359000  0.64681000  0.62731000  1.0
  O  O205  1  0.34048000  0.65289000  0.28617000  1.0
  O  O206  1  0.51930000  0.75684000  0.23576000  1.0
  O  O207  1  0.68510000  0.72409000  0.16635000  1.0
