# generated using pymatgen
data_CuH8C4N2(OF)2
_symmetry_space_group_name_H-M   'P 1'
_cell_length_a   6.66999000
_cell_length_b   6.82198000
_cell_length_c   8.28628000
_cell_angle_alpha   89.99940000
_cell_angle_beta   89.99880000
_cell_angle_gamma   112.93800000
_symmetry_Int_Tables_number   1
_chemical_formula_structural   CuH8C4N2(OF)2
_chemical_formula_sum   'Cu2 H16 C8 N4 O4 F4'
_cell_volume   347.23260163
_cell_formula_units_Z   2
loop_
 _symmetry_equiv_pos_site_id
 _symmetry_equiv_pos_as_xyz
  1  'x, y, z'
loop_
 _atom_site_type_symbol
 _atom_site_label
 _atom_site_symmetry_multiplicity
 _atom_site_fract_x
 _atom_site_fract_y
 _atom_site_fract_z
 _atom_site_occupancy
  Cu  Cu0  1  0.50000000  1.00000000  0.50000000  1.0
  Cu  Cu1  1  0.00000000  0.00000000  0.00000000  1.0
  H  H2  1  0.74521000  0.76975000  0.68031000  1.0
  H  H3  1  0.75478000  0.23023000  0.18031000  1.0
  H  H4  1  0.25479000  0.23025000  0.31969000  1.0
  H  H5  1  0.24521000  0.76977000  0.81970000  1.0
  H  H6  1  0.26386000  0.60505000  0.32745000  1.0
  H  H7  1  0.23614000  0.39496000  0.82744000  1.0
  H  H8  1  0.73614000  0.39495000  0.67255000  1.0
  H  H9  1  0.76385000  0.60503000  0.17255000  1.0
  H  H10  1  0.89597000  0.10757000  0.58885000  1.0
  H  H11  1  0.60403000  0.89243000  0.08886000  1.0
  H  H12  1  0.10403000  0.89243000  0.41114000  1.0
  H  H13  1  0.39597000  0.10757000  0.91114000  1.0
  H  H14  1  0.87506000  0.06215000  0.39826000  1.0
  H  H15  1  0.62495000  0.93784000  0.89827000  1.0
  H  H16  1  0.12495000  0.93785000  0.60174000  1.0
  H  H17  1  0.37505000  0.06215000  0.10173000  1.0
  C  C18  1  0.63410000  0.64845000  0.60081000  1.0
  C  C19  1  0.86589000  0.35155000  0.10082000  1.0
  C  C20  1  0.36589000  0.35155000  0.39919000  1.0
  C  C21  1  0.13411000  0.64847000  0.89918000  1.0
  C  C22  1  0.36835000  0.55647000  0.40446000  1.0
  C  C23  1  0.13165000  0.44350000  0.90445000  1.0
  C  C24  1  0.63165000  0.44351000  0.59554000  1.0
  C  C25  1  0.86835000  0.55647000  0.09555000  1.0
  N  N26  1  0.50237000  0.70380000  0.50486000  1.0
  N  N27  1  0.99763000  0.29620000  0.00487000  1.0
  N  N28  1  0.49762000  0.29620000  0.49514000  1.0
  N  N29  1  0.00238000  0.70380000  0.99513000  1.0
  O  O30  1  0.82408000  0.13538000  0.48796000  1.0
  O  O31  1  0.67592000  0.86462000  0.98797000  1.0
  O  O32  1  0.17592000  0.86462000  0.51204000  1.0
  O  O33  1  0.32408000  0.13538000  0.01203000  1.0
  F  F34  1  0.52727000  0.04421000  0.78283000  1.0
  F  F35  1  0.97273000  0.95579000  0.28283000  1.0
  F  F36  1  0.47272000  0.95579000  0.21717000  1.0
  F  F37  1  0.02727000  0.04421000  0.71716000  1.0
