# generated using pymatgen
data_UTlH12C21I3O8
_symmetry_space_group_name_H-M   'P 1'
_cell_length_a   8.02014000
_cell_length_b   10.66680000
_cell_length_c   15.64070000
_cell_angle_alpha   74.11290000
_cell_angle_beta   84.69930000
_cell_angle_gamma   77.96610000
_symmetry_Int_Tables_number   1
_chemical_formula_structural   UTlH12C21I3O8
_chemical_formula_sum   'U2 Tl2 H24 C42 I6 O16'
_cell_volume   1257.77196564
_cell_formula_units_Z   2
loop_
 _symmetry_equiv_pos_site_id
 _symmetry_equiv_pos_as_xyz
  1  'x, y, z'
loop_
 _atom_site_type_symbol
 _atom_site_label
 _atom_site_symmetry_multiplicity
 _atom_site_fract_x
 _atom_site_fract_y
 _atom_site_fract_z
 _atom_site_occupancy
  U  U0  1  0.17158000  0.48240000  0.19772000  1.0
  U  U1  1  0.82842000  0.51760000  0.80229000  1.0
  Tl  Tl2  1  0.66404000  0.57908000  0.06659000  1.0
  Tl  Tl3  1  0.33596000  0.42092000  0.93341000  1.0
  H  H4  1  0.85122000  0.82181000  0.93339000  1.0
  H  H5  1  0.14878000  0.17820000  0.06659000  1.0
  H  H6  1  0.64750000  0.30486000  0.16979000  1.0
  H  H7  1  0.35250000  0.69515000  0.83021000  1.0
  H  H8  1  0.44315000  0.15365000  0.22432000  1.0
  H  H9  1  0.55685000  0.84636000  0.77568000  1.0
  H  H10  1  0.96102000  0.09735000  0.39413000  1.0
  H  H11  1  0.03897000  0.90264000  0.60587000  1.0
  H  H12  1  0.05410000  0.16595000  0.78458000  1.0
  H  H13  1  0.94592000  0.83406000  0.21541000  1.0
  H  H14  1  0.64822000  0.63706000  0.29353000  1.0
  H  H15  1  0.35179000  0.36293000  0.70647000  1.0
  H  H16  1  0.52596000  0.27187000  0.46161000  1.0
  H  H17  1  0.47403000  0.72812000  0.53839000  1.0
  H  H18  1  0.84475000  0.64239000  0.40604000  1.0
  H  H19  1  0.15525000  0.35759000  0.59397000  1.0
  H  H20  1  0.88244000  0.46256000  0.54683000  1.0
  H  H21  1  0.11755000  0.53743000  0.45318000  1.0
  H  H22  1  0.35219000  0.86166000  0.98613000  1.0
  H  H23  1  0.64780000  0.13835000  0.01388000  1.0
  H  H24  1  0.82080000  0.03752000  0.81756000  1.0
  H  H25  1  0.17922000  0.96249000  0.18244000  1.0
  H  H26  1  0.49763000  0.97059000  0.36230000  1.0
  H  H27  1  0.50237000  0.02942000  0.63769000  1.0
  C  C28  1  0.95395000  0.87798000  0.91917000  1.0
  C  C29  1  0.04605000  0.12203000  0.08082000  1.0
  C  C30  1  0.57451000  0.45525000  0.37149000  1.0
  C  C31  1  0.42551000  0.54475000  0.62850000  1.0
  C  C32  1  0.21827000  0.01992000  0.88274000  1.0
  C  C33  1  0.78174000  0.98009000  0.11727000  1.0
  C  C34  1  0.67216000  0.22529000  0.23046000  1.0
  C  C35  1  0.32784000  0.77471000  0.76953000  1.0
  C  C36  1  0.55780000  0.13950000  0.26083000  1.0
  C  C37  1  0.44219000  0.86050000  0.73916000  1.0
  C  C38  1  0.81731000  0.21012000  0.27843000  1.0
  C  C39  1  0.18268000  0.78988000  0.72157000  1.0
  C  C40  1  0.44619000  0.45852000  0.30842000  1.0
  C  C41  1  0.55381000  0.54147000  0.69158000  1.0
  C  C42  1  0.84877000  0.10723000  0.35679000  1.0
  C  C43  1  0.15123000  0.89276000  0.64321000  1.0
  C  C44  1  0.06948000  0.07109000  0.83494000  1.0
  C  C45  1  0.93053000  0.92892000  0.16506000  1.0
  C  C46  1  0.10352000  0.82918000  0.96697000  1.0
  C  C47  1  0.89647000  0.17084000  0.03302000  1.0
  C  C48  1  0.66666667  0.55794000  0.35478000  1.0
  C  C49  1  0.33333333  0.44205000  0.64523000  1.0
  C  C50  1  0.71248000  0.35413000  0.51050000  1.0
  C  C51  1  0.28751000  0.64587000  0.48951000  1.0
  C  C52  1  0.59779000  0.35154000  0.44978000  1.0
  C  C53  1  0.40220000  0.64845000  0.55023000  1.0
  C  C54  1  0.12625000  0.70365000  0.03908000  1.0
  C  C55  1  0.87374000  0.29636000  0.96093000  1.0
  C  C56  1  0.73361000  0.02168000  0.38597000  1.0
  C  C57  1  0.26637000  0.97832000  0.61402000  1.0
  C  C58  1  0.77708000  0.56033000  0.41770000  1.0
  C  C59  1  0.22293000  0.43966000  0.58231000  1.0
  C  C60  1  0.93670000  0.30364000  0.24952000  1.0
  C  C61  1  0.06330000  0.69636000  0.75049000  1.0
  C  C62  1  0.79980000  0.45908000  0.49645000  1.0
  C  C63  1  0.20019000  0.54091000  0.50356000  1.0
  C  C64  1  0.23674000  0.90052000  0.94838000  1.0
  C  C65  1  0.76326000  0.09949000  0.05162000  1.0
  C  C66  1  0.93806000  0.99835000  0.85406000  1.0
  C  C67  1  0.06195000  0.00167000  0.14593000  1.0
  C  C68  1  0.58781000  0.03718000  0.33853000  1.0
  C  C69  1  0.41218000  0.96281000  0.66146000  1.0
  I  I70  1  0.75770000  0.19695000  0.62657000  1.0
  I  I71  1  0.24227000  0.80305000  0.37345000  1.0
  I  I72  1  0.77146000  0.86998000  0.50513000  1.0
  I  I73  1  0.22852000  0.13002000  0.49486000  1.0
  I  I74  1  0.42445000  0.12121000  0.85400000  1.0
  I  I75  1  0.57557000  0.87878000  0.14601000  1.0
  O  O76  1  0.91264000  0.40107000  0.17863000  1.0
  O  O77  1  0.08736000  0.59893000  0.82137000  1.0
  O  O78  1  0.06764000  0.29055000  0.29433000  1.0
  O  O79  1  0.93235000  0.70945000  0.70567000  1.0
  O  O80  1  0.33492000  0.38387000  0.33105000  1.0
  O  O81  1  0.66509000  0.61611000  0.66894000  1.0
  O  O82  1  0.29533000  0.37360000  0.13254000  1.0
  O  O83  1  0.70465000  0.62641000  0.86746000  1.0
  O  O84  1  0.01131000  0.63225000  0.06122000  1.0
  O  O85  1  0.98867000  0.36777000  0.93878000  1.0
  O  O86  1  0.04634000  0.59747000  0.25577000  1.0
  O  O87  1  0.95368000  0.40252000  0.74424000  1.0
  O  O88  1  0.26531000  0.66615000  0.08163000  1.0
  O  O89  1  0.73468000  0.33385000  0.91838000  1.0
  O  O90  1  0.43942000  0.53962000  0.23006000  1.0
  O  O91  1  0.56058000  0.46039000  0.76994000  1.0
