# generated using pymatgen
data_Zn3H42C62(NO)12
_symmetry_space_group_name_H-M   'P 1'
_cell_length_a   13.56030000
_cell_length_b   13.56030000
_cell_length_c   26.36360000
_cell_angle_alpha   85.87200000
_cell_angle_beta   85.87250000
_cell_angle_gamma   60.39560000
_symmetry_Int_Tables_number   1
_chemical_formula_structural   Zn3H42C62(NO)12
_chemical_formula_sum   'Zn6 H84 C124 N24 O24'
_cell_volume   4200.29740196
_cell_formula_units_Z   2
loop_
 _symmetry_equiv_pos_site_id
 _symmetry_equiv_pos_as_xyz
  1  'x, y, z'
loop_
 _atom_site_type_symbol
 _atom_site_label
 _atom_site_symmetry_multiplicity
 _atom_site_fract_x
 _atom_site_fract_y
 _atom_site_fract_z
 _atom_site_occupancy
  Zn  Zn0  1  0.63391000  0.84895000  0.56929000  1.0
  Zn  Zn1  1  0.15105000  0.36610000  0.93071000  1.0
  Zn  Zn2  1  0.36609000  0.15105000  0.43071000  1.0
  Zn  Zn3  1  0.84895000  0.63390000  0.06929000  1.0
  Zn  Zn4  1  0.95329000  0.04671000  0.25001000  1.0
  Zn  Zn5  1  0.04672000  0.95329000  0.74999000  1.0
  H  H6  1  0.74468000  0.81149000  0.32368000  1.0
  H  H7  1  0.18851000  0.25534000  0.17632000  1.0
  H  H8  1  0.25533000  0.18851000  0.67632000  1.0
  H  H9  1  0.81148000  0.74467000  0.82368000  1.0
  H  H10  1  0.93077000  0.54395000  0.43459000  1.0
  H  H11  1  0.45604000  0.06920000  0.06542000  1.0
  H  H12  1  0.06923000  0.45604000  0.56541000  1.0
  H  H13  1  0.54394000  0.93078000  0.93458000  1.0
  H  H14  1  0.99979000  0.48121000  0.27430000  1.0
  H  H15  1  0.51877000  0.00021000  0.22571000  1.0
  H  H16  1  0.00023000  0.51878000  0.72570000  1.0
  H  H17  1  0.48122000  0.99979000  0.77429000  1.0
  H  H18  1  0.74824000  0.65924000  0.48251000  1.0
  H  H19  1  0.34078000  0.25174000  0.01749000  1.0
  H  H20  1  0.25175000  0.34076000  0.51749000  1.0
  H  H21  1  0.65922000  0.74825000  0.98251000  1.0
  H  H22  1  0.63909000  0.00978000  0.47490000  1.0
  H  H23  1  0.99022000  0.36092000  0.02510000  1.0
  H  H24  1  0.36093000  0.99021000  0.52511000  1.0
  H  H25  1  0.00977000  0.63909000  0.97489000  1.0
  H  H26  1  0.75078000  0.92033000  0.38341000  1.0
  H  H27  1  0.07966000  0.24923000  0.11659000  1.0
  H  H28  1  0.24924000  0.07966000  0.61660000  1.0
  H  H29  1  0.92031000  0.75078000  0.88340000  1.0
  H  H30  1  0.18225000  0.41625000  0.40175000  1.0
  H  H31  1  0.58376000  0.81771000  0.09826000  1.0
  H  H32  1  0.81775000  0.58376000  0.59825000  1.0
  H  H33  1  0.41624000  0.18227000  0.90174000  1.0
  H  H34  1  0.18635000  0.11089000  0.37603000  1.0
  H  H35  1  0.88910000  0.81365000  0.12397000  1.0
  H  H36  1  0.81365000  0.88911000  0.62397000  1.0
  H  H37  1  0.11089000  0.18636000  0.87603000  1.0
  H  H38  1  0.98458000  0.28993000  0.34032000  1.0
  H  H39  1  0.71006000  0.01541000  0.15969000  1.0
  H  H40  1  0.01542000  0.71007000  0.65969000  1.0
  H  H41  1  0.28992000  0.98459000  0.84031000  1.0
  H  H42  1  0.89147000  0.63543000  0.21071000  1.0
  H  H43  1  0.36456000  0.10855000  0.28929000  1.0
  H  H44  1  0.10856000  0.36456000  0.78929000  1.0
  H  H45  1  0.63545000  0.89145000  0.71071000  1.0
  H  H46  1  0.77047000  0.76299000  0.23193000  1.0
  H  H47  1  0.23700000  0.22955000  0.26807000  1.0
  H  H48  1  0.22955000  0.23700000  0.76807000  1.0
  H  H49  1  0.76300000  0.77046000  0.73193000  1.0
  H  H50  1  0.80574000  0.92766000  0.25853000  1.0
  H  H51  1  0.07232000  0.19427000  0.24148000  1.0
  H  H52  1  0.19427000  0.07233000  0.74148000  1.0
  H  H53  1  0.92768000  0.80573000  0.75852000  1.0
  H  H54  1  0.14931000  0.78998000  0.20952000  1.0
  H  H55  1  0.21002000  0.85069000  0.29050000  1.0
  H  H56  1  0.85069000  0.21002000  0.79049000  1.0
  H  H57  1  0.78998000  0.14931000  0.70951000  1.0
  H  H58  1  0.08317000  0.62640000  0.20205000  1.0
  H  H59  1  0.37360000  0.91684000  0.29795000  1.0
  H  H60  1  0.91684000  0.37360000  0.79795000  1.0
  H  H61  1  0.62640000  0.08317000  0.70206000  1.0
  H  H62  1  0.43653000  0.20409000  0.69111000  1.0
  H  H63  1  0.79592000  0.56346000  0.80888000  1.0
  H  H64  1  0.56347000  0.79591000  0.30888000  1.0
  H  H65  1  0.20410000  0.43653000  0.19112000  1.0
  H  H66  1  0.54329000  0.19265000  0.53357000  1.0
  H  H67  1  0.80734000  0.45671000  0.96643000  1.0
  H  H68  1  0.45670000  0.80736000  0.46643000  1.0
  H  H69  1  0.19265000  0.54329000  0.03357000  1.0
  H  H70  1  0.37358000  0.41130000  0.68975000  1.0
  H  H71  1  0.58872000  0.62640000  0.81024000  1.0
  H  H72  1  0.62642000  0.58870000  0.31025000  1.0
  H  H73  1  0.41129000  0.37359000  0.18975000  1.0
  H  H74  1  0.47940000  0.39956000  0.53112000  1.0
  H  H75  1  0.60044000  0.52059000  0.96887000  1.0
  H  H76  1  0.52058000  0.60046000  0.46888000  1.0
  H  H77  1  0.39955000  0.47942000  0.03112000  1.0
  H  H78  1  0.23695000  0.58876000  0.65680000  1.0
  H  H79  1  0.41128000  0.76303000  0.84318000  1.0
  H  H80  1  0.76304000  0.41125000  0.34319000  1.0
  H  H81  1  0.58875000  0.23696000  0.15681000  1.0
  H  H82  1  0.54790000  0.51756000  0.57159000  1.0
  H  H83  1  0.48245000  0.45209000  0.92840000  1.0
  H  H84  1  0.45208000  0.48246000  0.42840000  1.0
  H  H85  1  0.51756000  0.54791000  0.07160000  1.0
  H  H86  1  0.33389000  0.84594000  0.63271000  1.0
  H  H87  1  0.15406000  0.66613000  0.86728000  1.0
  H  H88  1  0.66610000  0.15406000  0.36729000  1.0
  H  H89  1  0.84594000  0.33388000  0.13272000  1.0
  C  C90  1  0.80986000  0.72433000  0.33234000  1.0
  C  C91  1  0.27567000  0.19014000  0.16766000  1.0
  C  C92  1  0.19015000  0.27567000  0.66766000  1.0
  C  C93  1  0.72432000  0.80986000  0.83234000  1.0
  C  C94  1  0.83088000  0.68646000  0.38299000  1.0
  C  C95  1  0.31354000  0.16911000  0.11701000  1.0
  C  C96  1  0.16913000  0.31354000  0.61701000  1.0
  C  C97  1  0.68645000  0.83088000  0.88299000  1.0
  C  C98  1  0.91217000  0.57426000  0.39518000  1.0
  C  C99  1  0.42573000  0.08780000  0.10483000  1.0
  C  C100  1  0.08783000  0.42573000  0.60483000  1.0
  C  C101  1  0.57425000  0.91218000  0.89517000  1.0
  C  C102  1  0.97089000  0.50132000  0.35569000  1.0
  C  C103  1  0.49867000  0.02909000  0.14432000  1.0
  C  C104  1  0.02911000  0.49867000  0.64431000  1.0
  C  C105  1  0.50132000  0.97090000  0.85568000  1.0
  C  C106  1  0.95115000  0.53864000  0.30470000  1.0
  C  C107  1  0.46135000  0.04883000  0.19531000  1.0
  C  C108  1  0.04886000  0.46136000  0.69530000  1.0
  C  C109  1  0.53864000  0.95116000  0.80469000  1.0
  C  C110  1  0.87143000  0.65159000  0.29313000  1.0
  C  C111  1  0.34839000  0.12858000  0.20687000  1.0
  C  C112  1  0.12859000  0.34840000  0.70687000  1.0
  C  C113  1  0.65160000  0.87142000  0.79312000  1.0
  C  C114  1  0.73749000  0.74128000  0.46896000  1.0
  C  C115  1  0.25872000  0.26250000  0.03105000  1.0
  C  C116  1  0.26251000  0.25872000  0.53105000  1.0
  C  C117  1  0.74127000  0.73749000  0.96896000  1.0
  C  C118  1  0.68007000  0.92319000  0.46288000  1.0
  C  C119  1  0.07682000  0.31993000  0.03712000  1.0
  C  C120  1  0.31994000  0.07681000  0.53712000  1.0
  C  C121  1  0.92317000  0.68007000  0.96288000  1.0
  C  C122  1  0.73375000  0.88032000  0.41730000  1.0
  C  C123  1  0.11968000  0.26626000  0.08270000  1.0
  C  C124  1  0.26627000  0.11967000  0.58270000  1.0
  C  C125  1  0.88030000  0.73374000  0.91730000  1.0
  C  C126  1  0.15593000  0.35744000  0.39063000  1.0
  C  C127  1  0.64256000  0.84404000  0.10939000  1.0
  C  C128  1  0.84407000  0.64256000  0.60938000  1.0
  C  C129  1  0.35743000  0.15595000  0.89061000  1.0
  C  C130  1  0.15497000  0.20155000  0.37587000  1.0
  C  C131  1  0.79844000  0.84502000  0.12413000  1.0
  C  C132  1  0.84503000  0.79845000  0.62413000  1.0
  C  C133  1  0.20154000  0.15499000  0.87587000  1.0
  C  C134  1  0.05528000  0.28925000  0.35807000  1.0
  C  C135  1  0.71073000  0.94471000  0.14194000  1.0
  C  C136  1  0.94472000  0.71074000  0.64194000  1.0
  C  C137  1  0.28925000  0.05529000  0.85805000  1.0
  C  C138  1  0.85933000  0.70081000  0.23922000  1.0
  C  C139  1  0.29917000  0.14068000  0.26079000  1.0
  C  C140  1  0.14068000  0.29918000  0.76079000  1.0
  C  C141  1  0.70083000  0.85933000  0.73921000  1.0
  C  C142  1  0.89123000  0.86739000  0.24562000  1.0
  C  C143  1  0.13260000  0.10878000  0.25439000  1.0
  C  C144  1  0.10878000  0.13261000  0.75439000  1.0
  C  C145  1  0.86740000  0.89123000  0.74561000  1.0
  C  C146  1  0.06883000  0.79344000  0.21968000  1.0
  C  C147  1  0.20656000  0.93118000  0.28033000  1.0
  C  C148  1  0.93118000  0.20657000  0.78032000  1.0
  C  C149  1  0.79344000  0.06883000  0.71968000  1.0
  C  C150  1  0.03827000  0.71169000  0.21574000  1.0
  C  C151  1  0.28831000  0.96174000  0.28426000  1.0
  C  C152  1  0.96175000  0.28831000  0.78426000  1.0
  C  C153  1  0.71169000  0.03827000  0.71575000  1.0
  C  C154  1  0.53837000  0.06013000  0.61547000  1.0
  C  C155  1  0.93987000  0.46164000  0.88453000  1.0
  C  C156  1  0.46164000  0.93987000  0.38453000  1.0
  C  C157  1  0.06013000  0.53836000  0.11547000  1.0
  C  C158  1  0.49522000  0.18559000  0.61273000  1.0
  C  C159  1  0.81441000  0.50478000  0.88727000  1.0
  C  C160  1  0.50478000  0.81441000  0.38726000  1.0
  C  C161  1  0.18559000  0.49522000  0.11274000  1.0
  C  C162  1  0.44521000  0.24826000  0.65632000  1.0
  C  C163  1  0.75176000  0.55478000  0.84368000  1.0
  C  C164  1  0.55479000  0.75175000  0.34368000  1.0
  C  C165  1  0.24825000  0.44521000  0.15632000  1.0
  C  C166  1  0.50646000  0.24131000  0.56760000  1.0
  C  C167  1  0.75869000  0.49353000  0.93239000  1.0
  C  C168  1  0.49353000  0.75869000  0.43239000  1.0
  C  C169  1  0.24131000  0.50646000  0.06761000  1.0
  C  C170  1  0.40951000  0.36354000  0.65532000  1.0
  C  C171  1  0.63647000  0.59047000  0.84468000  1.0
  C  C172  1  0.59048000  0.63646000  0.34468000  1.0
  C  C173  1  0.36354000  0.40952000  0.15532000  1.0
  C  C174  1  0.47112000  0.35679000  0.56651000  1.0
  C  C175  1  0.64321000  0.52887000  0.93349000  1.0
  C  C176  1  0.52887000  0.64322000  0.43349000  1.0
  C  C177  1  0.35678000  0.47113000  0.06651000  1.0
  C  C178  1  0.42356000  0.41912000  0.61057000  1.0
  C  C179  1  0.58089000  0.57643000  0.88942000  1.0
  C  C180  1  0.57644000  0.58089000  0.38942000  1.0
  C  C181  1  0.41911000  0.42356000  0.11058000  1.0
  C  C182  1  0.39381000  0.53911000  0.61220000  1.0
  C  C183  1  0.46090000  0.60618000  0.88778000  1.0
  C  C184  1  0.60618000  0.46090000  0.38779000  1.0
  C  C185  1  0.53910000  0.39381000  0.11221000  1.0
  C  C186  1  0.29588000  0.61540000  0.63939000  1.0
  C  C187  1  0.38462000  0.70410000  0.86060000  1.0
  C  C188  1  0.70411000  0.38461000  0.36061000  1.0
  C  C189  1  0.61539000  0.29588000  0.13939000  1.0
  C  C190  1  0.46852000  0.57598000  0.59120000  1.0
  C  C191  1  0.42403000  0.53147000  0.90878000  1.0
  C  C192  1  0.53146000  0.42403000  0.40879000  1.0
  C  C193  1  0.57598000  0.46853000  0.09121000  1.0
  C  C194  1  0.27258000  0.72617000  0.64642000  1.0
  C  C195  1  0.27386000  0.72741000  0.85357000  1.0
  C  C196  1  0.72741000  0.27384000  0.35358000  1.0
  C  C197  1  0.72615000  0.27258000  0.14643000  1.0
  C  C198  1  0.44700000  0.68618000  0.59832000  1.0
  C  C199  1  0.31383000  0.55300000  0.90167000  1.0
  C  C200  1  0.55299000  0.31384000  0.40168000  1.0
  C  C201  1  0.68618000  0.44700000  0.09833000  1.0
  C  C202  1  0.34872000  0.76143000  0.62587000  1.0
  C  C203  1  0.23857000  0.65129000  0.87412000  1.0
  C  C204  1  0.65127000  0.23857000  0.37413000  1.0
  C  C205  1  0.76143000  0.34871000  0.12588000  1.0
  C  C206  1  0.53512000  0.71865000  0.58039000  1.0
  C  C207  1  0.28134000  0.46488000  0.91960000  1.0
  C  C208  1  0.46487000  0.28135000  0.41960000  1.0
  C  C209  1  0.71866000  0.53512000  0.08040000  1.0
  C  C210  1  0.17054000  0.79934000  0.67973000  1.0
  C  C211  1  0.20068000  0.82946000  0.82026000  1.0
  C  C212  1  0.82946000  0.20066000  0.32027000  1.0
  C  C213  1  0.79933000  0.17054000  0.17974000  1.0
  N  N214  1  0.68318000  0.83579000  0.49445000  1.0
  N  N215  1  0.16421000  0.31682000  0.00555000  1.0
  N  N216  1  0.31682000  0.16420000  0.50555000  1.0
  N  N217  1  0.83578000  0.68319000  0.99445000  1.0
  N  N218  1  0.77079000  0.76438000  0.42158000  1.0
  N  N219  1  0.23562000  0.22921000  0.07842000  1.0
  N  N220  1  0.22922000  0.23561000  0.57842000  1.0
  N  N221  1  0.76436000  0.77078000  0.92158000  1.0
  N  N222  1  0.21682000  0.24491000  0.39555000  1.0
  N  N223  1  0.75509000  0.78316000  0.10446000  1.0
  N  N224  1  0.78318000  0.75509000  0.60445000  1.0
  N  N225  1  0.24490000  0.21684000  0.89554000  1.0
  N  N226  1  0.05693000  0.38767000  0.36792000  1.0
  N  N227  1  0.61232000  0.94305000  0.13209000  1.0
  N  N228  1  0.94307000  0.61233000  0.63209000  1.0
  N  N229  1  0.38767000  0.05695000  0.86790000  1.0
  N  N230  1  0.97639000  0.88993000  0.23840000  1.0
  N  N231  1  0.11006000  0.02361000  0.26161000  1.0
  N  N232  1  0.02361000  0.11007000  0.76160000  1.0
  N  N233  1  0.88994000  0.97639000  0.73840000  1.0
  N  N234  1  0.92539000  0.76031000  0.23207000  1.0
  N  N235  1  0.23968000  0.07462000  0.26794000  1.0
  N  N236  1  0.07462000  0.23969000  0.76794000  1.0
  N  N237  1  0.76032000  0.92539000  0.73206000  1.0
  O  O238  1  0.52480000  0.01266000  0.65595000  1.0
  O  O239  1  0.98734000  0.47520000  0.84405000  1.0
  O  O240  1  0.47521000  0.98735000  0.34405000  1.0
  O  O241  1  0.01266000  0.52480000  0.15596000  1.0
  O  O242  1  0.59040000  0.00902000  0.57415000  1.0
  O  O243  1  0.99097000  0.40962000  0.92585000  1.0
  O  O244  1  0.40960000  0.99098000  0.42584000  1.0
  O  O245  1  0.00902000  0.59038000  0.07416000  1.0
  O  O246  1  0.50496000  0.82468000  0.58536000  1.0
  O  O247  1  0.17531000  0.49505000  0.91463000  1.0
  O  O248  1  0.49504000  0.17533000  0.41464000  1.0
  O  O249  1  0.82468000  0.50495000  0.08537000  1.0
  O  O250  1  0.63118000  0.64612000  0.56334000  1.0
  O  O251  1  0.35387000  0.36883000  0.93665000  1.0
  O  O252  1  0.36881000  0.35389000  0.43665000  1.0
  O  O253  1  0.64613000  0.63117000  0.06335000  1.0
  O  O254  1  0.10584000  0.76184000  0.69668000  1.0
  O  O255  1  0.23819000  0.89416000  0.80331000  1.0
  O  O256  1  0.89416000  0.23817000  0.30333000  1.0
  O  O257  1  0.76183000  0.10584000  0.19668000  1.0
  O  O258  1  0.15743000  0.89696000  0.69078000  1.0
  O  O259  1  0.10306000  0.84258000  0.80920000  1.0
  O  O260  1  0.84257000  0.10304000  0.30922000  1.0
  O  O261  1  0.89695000  0.15743000  0.19080000  1.0
