# generated using pymatgen
data_EuH14C14N3O9F4
_symmetry_space_group_name_H-M   'P 1'
_cell_length_a   11.41730000
_cell_length_b   12.37654269
_cell_length_c   20.22630000
_cell_angle_alpha   91.35086349
_cell_angle_beta   106.39340000
_cell_angle_gamma   117.46561808
_symmetry_Int_Tables_number   1
_chemical_formula_structural   EuH14C14N3O9F4
_chemical_formula_sum   'Eu4 H56 C56 N12 O36 F16'
_cell_volume   2392.85926486
_cell_formula_units_Z   4
loop_
 _symmetry_equiv_pos_site_id
 _symmetry_equiv_pos_as_xyz
  1  'x, y, z'
loop_
 _atom_site_type_symbol
 _atom_site_label
 _atom_site_symmetry_multiplicity
 _atom_site_fract_x
 _atom_site_fract_y
 _atom_site_fract_z
 _atom_site_occupancy
  Eu  Eu0  1  0.75359000  0.89170000  0.69529000  1.0
  Eu  Eu1  1  0.66661000  0.60831000  0.80471000  1.0
  Eu  Eu2  1  0.24641000  0.10830000  0.30471000  1.0
  Eu  Eu3  1  0.33339000  0.39169000  0.19529000  1.0
  H  H4  1  0.01336000  0.97588000  0.61182000  1.0
  H  H5  1  0.92567000  0.52412000  0.88819000  1.0
  H  H6  1  0.98664000  0.02412000  0.38818000  1.0
  H  H7  1  0.07433000  0.47588000  0.11181000  1.0
  H  H8  1  0.02176000  0.26255000  0.65810000  1.0
  H  H9  1  0.60112000  0.23748000  0.84191000  1.0
  H  H10  1  0.97824000  0.73745000  0.34190000  1.0
  H  H11  1  0.39888000  0.76252000  0.15809000  1.0
  H  H12  1  0.06173000  0.31488000  0.58126000  1.0
  H  H13  1  0.66559000  0.18514000  0.91875000  1.0
  H  H14  1  0.93827000  0.68512000  0.41874000  1.0
  H  H15  1  0.33441000  0.81486000  0.08125000  1.0
  H  H16  1  0.20007000  0.34483000  0.65972000  1.0
  H  H17  1  0.69551000  0.15517000  0.84029000  1.0
  H  H18  1  0.79993000  0.65517000  0.34028000  1.0
  H  H19  1  0.30449000  0.84483000  0.15971000  1.0
  H  H20  1  0.14413000  0.06639000  0.54755000  1.0
  H  H21  1  0.03019000  0.43360000  0.95245000  1.0
  H  H22  1  0.85587000  0.93361000  0.45245000  1.0
  H  H23  1  0.96981000  0.56640000  0.04755000  1.0
  H  H24  1  0.26302000  0.22803000  0.57645000  1.0
  H  H25  1  0.95852000  0.27195000  0.92354000  1.0
  H  H26  1  0.73698000  0.77197000  0.42355000  1.0
  H  H27  1  0.04148000  0.72805000  0.07646000  1.0
  H  H28  1  0.10404000  0.17747000  0.50669000  1.0
  H  H29  1  0.91989000  0.32252000  0.99331000  1.0
  H  H30  1  0.89596000  0.82253000  0.49331000  1.0
  H  H31  1  0.08011000  0.67748000  0.00669000  1.0
  H  H32  1  0.51097000  0.99162000  0.68188000  1.0
  H  H33  1  0.33748000  0.50841000  0.81812000  1.0
  H  H34  1  0.48903000  0.00838000  0.31812000  1.0
  H  H35  1  0.66252000  0.49159000  0.18188000  1.0
  H  H36  1  0.39628000  0.08884000  0.68278000  1.0
  H  H37  1  0.12467000  0.41119000  0.81722000  1.0
  H  H38  1  0.60372000  0.91116000  0.31722000  1.0
  H  H39  1  0.87533000  0.58881000  0.18278000  1.0
  H  H40  1  0.43617000  0.21154000  0.63296000  1.0
  H  H41  1  0.09168000  0.28848000  0.86704000  1.0
  H  H42  1  0.56383000  0.78846000  0.36704000  1.0
  H  H43  1  0.90832000  0.71152000  0.13296000  1.0
  H  H44  1  0.49982000  0.24818000  0.72605000  1.0
  H  H45  1  0.02560000  0.25184000  0.77395000  1.0
  H  H46  1  0.50018000  0.75182000  0.27395000  1.0
  H  H47  1  0.97440000  0.74816000  0.22605000  1.0
  H  H48  1  0.80996000  0.28065000  0.68646000  1.0
  H  H49  1  0.34287000  0.21938000  0.81355000  1.0
  H  H50  1  0.19004000  0.71935000  0.31354000  1.0
  H  H51  1  0.65714000  0.78063000  0.18645000  1.0
  H  H52  1  0.74088000  0.36718000  0.71908000  1.0
  H  H53  1  0.15464000  0.13284000  0.78092000  1.0
  H  H54  1  0.25912000  0.63282000  0.28092000  1.0
  H  H55  1  0.84536000  0.86716000  0.21908000  1.0
  H  H56  1  0.69266000  0.32061000  0.62698000  1.0
  H  H57  1  0.24508000  0.17942000  0.87303000  1.0
  H  H58  1  0.30734000  0.67939000  0.37302000  1.0
  H  H59  1  0.75492000  0.82058000  0.12697000  1.0
  C  C60  1  0.46974000  0.75000000  0.75000000  1.0
  C  C61  1  0.53026000  0.25000000  0.25000000  1.0
  C  C62  1  0.33732000  0.75000000  0.75000000  1.0
  C  C63  1  0.66268000  0.25000000  0.25000000  1.0
  C  C64  1  0.33970000  0.85565000  0.77783000  1.0
  C  C65  1  0.20623000  0.64435000  0.72217000  1.0
  C  C66  1  0.66030000  0.14435000  0.22217000  1.0
  C  C67  1  0.79376000  0.35565000  0.27783000  1.0
  C  C68  1  0.21765000  0.85594000  0.77739000  1.0
  C  C69  1  0.08433000  0.64405000  0.72261000  1.0
  C  C70  1  0.78235000  0.14406000  0.22261000  1.0
  C  C71  1  0.91567000  0.35595000  0.27739000  1.0
  C  C72  1  0.08681000  0.75000000  0.75000000  1.0
  C  C73  1  0.91319000  0.25000000  0.25000000  1.0
  C  C74  1  0.95403000  0.75000000  0.75000000  1.0
  C  C75  1  0.04597000  0.25000000  0.25000000  1.0
  C  C76  1  0.57588000  0.55821000  0.65189000  1.0
  C  C77  1  0.86577000  0.94179000  0.84811000  1.0
  C  C78  1  0.42412000  0.44179000  0.34811000  1.0
  C  C79  1  0.13423000  0.05821000  0.15188000  1.0
  C  C80  1  0.53683000  0.52869000  0.57355000  1.0
  C  C81  1  0.93458000  0.97131000  0.92645000  1.0
  C  C82  1  0.46317000  0.47131000  0.42645000  1.0
  C  C83  1  0.06542000  0.02869000  0.07355000  1.0
  C  C84  1  0.63668000  0.54346000  0.54258000  1.0
  C  C85  1  0.05062000  0.95653000  0.95741000  1.0
  C  C86  1  0.36332000  0.45654000  0.45742000  1.0
  C  C87  1  0.94938000  0.04347000  0.04259000  1.0
  C  C88  1  0.39987000  0.48521000  0.52977000  1.0
  C  C89  1  0.88490000  0.01480000  0.97024000  1.0
  C  C90  1  0.60013000  0.51479000  0.47023000  1.0
  C  C91  1  0.11510000  0.98520000  0.02976000  1.0
  C  C92  1  0.01337000  0.05973000  0.63169000  1.0
  C  C93  1  0.82194000  0.44029000  0.86831000  1.0
  C  C94  1  0.98664000  0.94028000  0.36831000  1.0
  C  C95  1  0.17806000  0.55971000  0.13169000  1.0
  C  C96  1  0.09211000  0.27779000  0.62794000  1.0
  C  C97  1  0.68637000  0.22222000  0.87207000  1.0
  C  C98  1  0.90789000  0.72221000  0.37206000  1.0
  C  C99  1  0.31363000  0.77778000  0.12793000  1.0
  C  C100  1  0.15210000  0.15756000  0.55669000  1.0
  C  C101  1  0.93785000  0.34243000  0.94331000  1.0
  C  C102  1  0.84790000  0.84244000  0.44330000  1.0
  C  C103  1  0.06215000  0.65757000  0.05669000  1.0
  C  C104  1  0.60694000  0.07330000  0.68105000  1.0
  C  C105  1  0.35260000  0.42672000  0.81895000  1.0
  C  C106  1  0.39306000  0.92670000  0.31895000  1.0
  C  C107  1  0.64740000  0.57328000  0.18105000  1.0
  C  C108  1  0.47566000  0.18159000  0.68076000  1.0
  C  C109  1  0.11332000  0.31844000  0.81925000  1.0
  C  C110  1  0.52434000  0.81841000  0.31924000  1.0
  C  C111  1  0.88668000  0.68156000  0.18075000  1.0
  C  C112  1  0.71903000  0.29409000  0.67831000  1.0
  C  C113  1  0.24665000  0.20593000  0.82169000  1.0
  C  C114  1  0.28097000  0.70591000  0.32169000  1.0
  C  C115  1  0.75335000  0.79407000  0.17831000  1.0
  N  N116  1  0.08328000  0.16024000  0.60675000  1.0
  N  N117  1  0.81629000  0.33976000  0.89326000  1.0
  N  N118  1  0.91672000  0.83976000  0.39325000  1.0
  N  N119  1  0.18371000  0.66024000  0.10674000  1.0
  N  N120  1  0.60156000  0.17842000  0.68081000  1.0
  N  N121  1  0.24234000  0.32160000  0.81919000  1.0
  N  N122  1  0.39844000  0.82158000  0.31919000  1.0
  N  N123  1  0.75767000  0.67840000  0.18081000  1.0
  N  N124  1  0.60701000  0.80913000  0.54394000  1.0
  N  N125  1  0.75391000  0.69088000  0.95605000  1.0
  N  N126  1  0.39299000  0.19087000  0.45606000  1.0
  N  N127  1  0.24609000  0.30912000  0.04395000  1.0
  O  O128  1  0.55298000  0.83995000  0.72903000  1.0
  O  O129  1  0.48402000  0.66008000  0.77097000  1.0
  O  O130  1  0.44702000  0.16005000  0.27097000  1.0
  O  O131  1  0.51598000  0.33992000  0.22903000  1.0
  O  O132  1  0.93356000  0.83283000  0.72196000  1.0
  O  O133  1  0.87878000  0.66718000  0.77804000  1.0
  O  O134  1  0.06644000  0.16717000  0.27804000  1.0
  O  O135  1  0.12122000  0.33282000  0.22196000  1.0
  O  O136  1  0.64220000  0.67184000  0.68126000  1.0
  O  O137  1  0.78908000  0.82817000  0.81873000  1.0
  O  O138  1  0.35780000  0.32816000  0.31874000  1.0
  O  O139  1  0.21092000  0.17183000  0.18127000  1.0
  O  O140  1  0.54409000  0.47141000  0.68613000  1.0
  O  O141  1  0.88654000  0.02860000  0.81387000  1.0
  O  O142  1  0.45590000  0.52858000  0.31387000  1.0
  O  O143  1  0.11346000  0.97140000  0.18613000  1.0
  O  O144  1  0.95198000  0.05834000  0.67454000  1.0
  O  O145  1  0.71912000  0.44168000  0.82548000  1.0
  O  O146  1  0.04802000  0.94166000  0.32546000  1.0
  O  O147  1  0.28088000  0.55832000  0.17452000  1.0
  O  O148  1  0.71282000  0.06459000  0.68150000  1.0
  O  O149  1  0.46673000  0.43543000  0.81850000  1.0
  O  O150  1  0.28718000  0.93541000  0.31850000  1.0
  O  O151  1  0.53328000  0.56458000  0.18150000  1.0
  O  O152  1  0.54557000  0.81842000  0.58603000  1.0
  O  O153  1  0.64112000  0.68161000  0.91397000  1.0
  O  O154  1  0.45443000  0.18158000  0.41397000  1.0
  O  O155  1  0.35888000  0.31839000  0.08603000  1.0
  O  O156  1  0.54662000  0.77350000  0.48014000  1.0
  O  O157  1  0.79293000  0.72648000  0.01987000  1.0
  O  O158  1  0.45338000  0.22650000  0.51986000  1.0
  O  O159  1  0.20706000  0.27351000  0.98013000  1.0
  O  O160  1  0.73720000  0.83863000  0.57222000  1.0
  O  O161  1  0.82633000  0.66137000  0.92779000  1.0
  O  O162  1  0.26280000  0.16137000  0.42778000  1.0
  O  O163  1  0.17367000  0.33863000  0.07221000  1.0
  F  F164  1  0.46298000  0.96113000  0.80778000  1.0
  F  F165  1  0.19410000  0.53887000  0.69223000  1.0
  F  F166  1  0.53702000  0.03887000  0.19222000  1.0
  F  F167  1  0.80590000  0.46113000  0.30777000  1.0
  F  F168  1  0.22940000  0.96191000  0.80597000  1.0
  F  F169  1  0.96154000  0.53809000  0.69403000  1.0
  F  F170  1  0.77060000  0.03809000  0.19403000  1.0
  F  F171  1  0.03846000  0.46191000  0.30597000  1.0
  F  F172  1  0.77101000  0.58469000  0.58313000  1.0
  F  F173  1  0.10317000  0.91530000  0.91686000  1.0
  F  F174  1  0.22899000  0.41531000  0.41687000  1.0
  F  F175  1  0.89682000  0.08469000  0.08314000  1.0
  F  F176  1  0.30011000  0.47164000  0.55780000  1.0
  F  F177  1  0.77068000  0.02838000  0.94221000  1.0
  F  F178  1  0.69989000  0.52836000  0.44220000  1.0
  F  F179  1  0.22932000  0.97162000  0.05779000  1.0
