# generated using pymatgen
data_CaH12C6(SO6)2
_symmetry_space_group_name_H-M   'P 1'
_cell_length_a   6.92848000
_cell_length_b   10.03570000
_cell_length_c   10.72980000
_cell_angle_alpha   64.63140000
_cell_angle_beta   83.33640000
_cell_angle_gamma   85.12820000
_symmetry_Int_Tables_number   1
_chemical_formula_structural   CaH12C6(SO6)2
_chemical_formula_sum   'Ca2 H24 C12 S4 O24'
_cell_volume   669.05354691
_cell_formula_units_Z   2
loop_
 _symmetry_equiv_pos_site_id
 _symmetry_equiv_pos_as_xyz
  1  'x, y, z'
loop_
 _atom_site_type_symbol
 _atom_site_label
 _atom_site_symmetry_multiplicity
 _atom_site_fract_x
 _atom_site_fract_y
 _atom_site_fract_z
 _atom_site_occupancy
  Ca  Ca0  1  0.23702000  0.98099000  0.21671000  1.0
  Ca  Ca1  1  0.76298000  0.01901000  0.78329000  1.0
  H  H2  1  0.74799000  0.68154000  0.18677000  1.0
  H  H3  1  0.25200000  0.31847000  0.81322000  1.0
  H  H4  1  0.73203000  0.60118000  0.61677000  1.0
  H  H5  1  0.26797000  0.39883000  0.38323000  1.0
  H  H6  1  0.71603000  0.18165000  0.44276000  1.0
  H  H7  1  0.28397000  0.81835000  0.55724000  1.0
  H  H8  1  0.76412000  0.35188000  0.77078000  1.0
  H  H9  1  0.23588000  0.64812000  0.22921000  1.0
  H  H10  1  0.94208000  0.14749000  0.01287000  1.0
  H  H11  1  0.05792000  0.85251000  0.98714000  1.0
  H  H12  1  0.02188000  0.26020000  0.05973000  1.0
  H  H13  1  0.97812000  0.73980000  0.94027000  1.0
  H  H14  1  0.51950000  0.22400000  0.15298000  1.0
  H  H15  1  0.48049000  0.77600000  0.84702000  1.0
  H  H16  1  0.39521000  0.30959000  0.02565000  1.0
  H  H17  1  0.60479000  0.69041000  0.97435000  1.0
  H  H18  1  0.38087000  0.85610000  0.99869000  1.0
  H  H19  1  0.61913000  0.14391000  0.00131000  1.0
  H  H20  1  0.28410000  0.00926000  0.93093000  1.0
  H  H21  1  0.71590000  0.99075000  0.06907000  1.0
  H  H22  1  0.20101000  0.12496000  0.41390000  1.0
  H  H23  1  0.79899000  0.87504000  0.58610000  1.0
  H  H24  1  0.08161000  0.22030000  0.28209000  1.0
  H  H25  1  0.91838000  0.77970000  0.71791000  1.0
  C  C26  1  0.73954000  0.65697000  0.39754000  1.0
  C  C27  1  0.26046000  0.34303000  0.60246000  1.0
  C  C28  1  0.74665000  0.60526000  0.29583000  1.0
  C  C29  1  0.25335000  0.39473000  0.70417000  1.0
  C  C30  1  0.75122000  0.45364000  0.33461000  1.0
  C  C31  1  0.24878000  0.54636000  0.66539000  1.0
  C  C32  1  0.75062000  0.35251000  0.47448000  1.0
  C  C33  1  0.24939000  0.64749000  0.52552000  1.0
  C  C34  1  0.74885000  0.40846000  0.57499000  1.0
  C  C35  1  0.25116000  0.59153000  0.42501000  1.0
  C  C36  1  0.74136000  0.55955000  0.53744000  1.0
  C  C37  1  0.25864000  0.44046000  0.46256000  1.0
  S  S38  1  0.72475000  0.85065000  0.34322000  1.0
  S  S39  1  0.27525000  0.14935000  0.65677000  1.0
  S  S40  1  0.75716000  0.39315000  0.20097000  1.0
  S  S41  1  0.24284000  0.60685000  0.79903000  1.0
  O  O42  1  0.91490000  0.90441000  0.27188000  1.0
  O  O43  1  0.08510000  0.09559000  0.72812000  1.0
  O  O44  1  0.57542000  0.90547000  0.24227000  1.0
  O  O45  1  0.42458000  0.09453000  0.75773000  1.0
  O  O46  1  0.66755000  0.87773000  0.46566000  1.0
  O  O47  1  0.33245000  0.12228000  0.53434000  1.0
  O  O48  1  0.65186000  0.50475000  0.09032000  1.0
  O  O49  1  0.34814000  0.49525000  0.90968000  1.0
  O  O50  1  0.96539000  0.37578000  0.15931000  1.0
  O  O51  1  0.03461000  0.62422000  0.84070000  1.0
  O  O52  1  0.66075000  0.24942000  0.26769000  1.0
  O  O53  1  0.33925000  0.75058000  0.73231000  1.0
  O  O54  1  0.75029000  0.20388000  0.51977000  1.0
  O  O55  1  0.24972000  0.79611000  0.48022000  1.0
  O  O56  1  0.74794000  0.30514000  0.70981000  1.0
  O  O57  1  0.25207000  0.69486000  0.29019000  1.0
  O  O58  1  0.06277000  0.18039000  0.03071000  1.0
  O  O59  1  0.93723000  0.81961000  0.96929000  1.0
  O  O60  1  0.44930000  0.21034000  0.08377000  1.0
  O  O61  1  0.55070000  0.78966000  0.91623000  1.0
  O  O62  1  0.27288000  0.91992000  0.01927000  1.0
  O  O63  1  0.72712000  0.08008000  0.98073000  1.0
  O  O64  1  0.13908000  0.12162000  0.33663000  1.0
  O  O65  1  0.86092000  0.87838000  0.66337000  1.0
