# generated using pymatgen
data_Zn2H20C31N3O10
_symmetry_space_group_name_H-M   'P 1'
_cell_length_a   10.77070000
_cell_length_b   15.37610000
_cell_length_c   16.13580000
_cell_angle_alpha   90.00040000
_cell_angle_beta   90.06210000
_cell_angle_gamma   89.99980000
_symmetry_Int_Tables_number   1
_chemical_formula_structural   Zn2H20C31N3O10
_chemical_formula_sum   'Zn8 H80 C124 N12 O40'
_cell_volume   2672.27021737
_cell_formula_units_Z   4
loop_
 _symmetry_equiv_pos_site_id
 _symmetry_equiv_pos_as_xyz
  1  'x, y, z'
loop_
 _atom_site_type_symbol
 _atom_site_label
 _atom_site_symmetry_multiplicity
 _atom_site_fract_x
 _atom_site_fract_y
 _atom_site_fract_z
 _atom_site_occupancy
  Zn  Zn0  1  0.28574000  0.60016000  0.96792000  1.0
  Zn  Zn1  1  0.21425000  0.10017000  0.53209000  1.0
  Zn  Zn2  1  0.71425000  0.39984000  0.03209000  1.0
  Zn  Zn3  1  0.78575000  0.89983000  0.46791000  1.0
  Zn  Zn4  1  0.10525000  0.34870000  0.86680000  1.0
  Zn  Zn5  1  0.39475000  0.84870000  0.63320000  1.0
  Zn  Zn6  1  0.89475000  0.65130000  0.13320000  1.0
  Zn  Zn7  1  0.60525000  0.15130000  0.36680000  1.0
  H  H8  1  0.25296000  0.34185000  0.72675000  1.0
  H  H9  1  0.24704000  0.84186000  0.77325000  1.0
  H  H10  1  0.74703000  0.65815000  0.27325000  1.0
  H  H11  1  0.75296000  0.15815000  0.22675000  1.0
  H  H12  1  0.21920000  0.25118000  0.76120000  1.0
  H  H13  1  0.28080000  0.75118000  0.73881000  1.0
  H  H14  1  0.78079000  0.74882000  0.23880000  1.0
  H  H15  1  0.71920000  0.24883000  0.26119000  1.0
  H  H16  1  0.39176000  0.35404000  0.11393000  1.0
  H  H17  1  0.10824000  0.85405000  0.38607000  1.0
  H  H18  1  0.60824000  0.64596000  0.88607000  1.0
  H  H19  1  0.89176000  0.14595000  0.61393000  1.0
  H  H20  1  0.36015000  0.23004000  0.21254000  1.0
  H  H21  1  0.13984000  0.73005000  0.28746000  1.0
  H  H22  1  0.63984000  0.76995000  0.78746000  1.0
  H  H23  1  0.86015000  0.26995000  0.71255000  1.0
  H  H24  1  0.97240000  0.22539000  0.14722000  1.0
  H  H25  1  0.52760000  0.72538000  0.35277000  1.0
  H  H26  1  0.02760000  0.77462000  0.85278000  1.0
  H  H27  1  0.47240000  0.27462000  0.64722000  1.0
  H  H28  1  0.02447000  0.04817000  0.33278000  1.0
  H  H29  1  0.47552000  0.54817000  0.16721000  1.0
  H  H30  1  0.97553000  0.95183000  0.66722000  1.0
  H  H31  1  0.52447000  0.45183000  0.83279000  1.0
  H  H32  1  0.15245000  0.08302000  0.08178000  1.0
  H  H33  1  0.34756000  0.58303000  0.41821000  1.0
  H  H34  1  0.84755000  0.91697000  0.91821000  1.0
  H  H35  1  0.65245000  0.41698000  0.58180000  1.0
  H  H36  1  0.06293000  0.93977000  0.04436000  1.0
  H  H37  1  0.43708000  0.43978000  0.45564000  1.0
  H  H38  1  0.93706000  0.06023000  0.95564000  1.0
  H  H39  1  0.56293000  0.56022000  0.54437000  1.0
  H  H40  1  0.85394000  0.42790000  0.81865000  1.0
  H  H41  1  0.64607000  0.92791000  0.68134000  1.0
  H  H42  1  0.14606000  0.57209000  0.18134000  1.0
  H  H43  1  0.35393000  0.07209000  0.31866000  1.0
  H  H44  1  0.78012000  0.55133000  0.73472000  1.0
  H  H45  1  0.71988000  0.05133000  0.76528000  1.0
  H  H46  1  0.21988000  0.44867000  0.26528000  1.0
  H  H47  1  0.28012000  0.94867000  0.23472000  1.0
  H  H48  1  0.16601000  0.62243000  0.69675000  1.0
  H  H49  1  0.33399000  0.12243000  0.80325000  1.0
  H  H50  1  0.83399000  0.37757000  0.30325000  1.0
  H  H51  1  0.66601000  0.87757000  0.19675000  1.0
  H  H52  1  0.22191000  0.49612000  0.78301000  1.0
  H  H53  1  0.27809000  0.99612000  0.71699000  1.0
  H  H54  1  0.77808000  0.50387000  0.21698000  1.0
  H  H55  1  0.72191000  0.00388000  0.28301000  1.0
  H  H56  1  0.72989000  0.64205000  0.65646000  1.0
  H  H57  1  0.77012000  0.14205000  0.84353000  1.0
  H  H58  1  0.27012000  0.35795000  0.34353000  1.0
  H  H59  1  0.22988000  0.85795000  0.15647000  1.0
  H  H60  1  0.67000000  0.76177000  0.56509000  1.0
  H  H61  1  0.83001000  0.26177000  0.93490000  1.0
  H  H62  1  0.33002000  0.23823000  0.43490000  1.0
  H  H63  1  0.16998000  0.73823000  0.06510000  1.0
  H  H64  1  0.03637000  0.84000000  0.53533000  1.0
  H  H65  1  0.46363000  0.34000000  0.96468000  1.0
  H  H66  1  0.96364000  0.16000000  0.46468000  1.0
  H  H67  1  0.53636000  0.66000000  0.03532000  1.0
  H  H68  1  0.11311000  0.72420000  0.62655000  1.0
  H  H69  1  0.38689000  0.22420000  0.87346000  1.0
  H  H70  1  0.88689000  0.27580000  0.37346000  1.0
  H  H71  1  0.61310000  0.77580000  0.12654000  1.0
  H  H72  1  0.92733000  0.70819000  0.35624000  1.0
  H  H73  1  0.57267000  0.20820000  0.14376000  1.0
  H  H74  1  0.07267000  0.29180000  0.64375000  1.0
  H  H75  1  0.42734000  0.79181000  0.85624000  1.0
  H  H76  1  0.08083000  0.63193000  0.44403000  1.0
  H  H77  1  0.41917000  0.13194000  0.05596000  1.0
  H  H78  1  0.91918000  0.36806000  0.55596000  1.0
  H  H79  1  0.58083000  0.86807000  0.94404000  1.0
  H  H80  1  0.80007000  0.43379000  0.48450000  1.0
  H  H81  1  0.69994000  0.93379000  0.01550000  1.0
  H  H82  1  0.19994000  0.56621000  0.51551000  1.0
  H  H83  1  0.30006000  0.06621000  0.98450000  1.0
  H  H84  1  0.66144000  0.51930000  0.39710000  1.0
  H  H85  1  0.83855000  0.01930000  0.10291000  1.0
  H  H86  1  0.33855000  0.48069000  0.60291000  1.0
  H  H87  1  0.16145000  0.98070000  0.89708000  1.0
  C  C88  1  0.23314000  0.42760000  0.01234000  1.0
  C  C89  1  0.26687000  0.92760000  0.48766000  1.0
  C  C90  1  0.76686000  0.57241000  0.98767000  1.0
  C  C91  1  0.73313000  0.07240000  0.51234000  1.0
  C  C92  1  0.20301000  0.35450000  0.07077000  1.0
  C  C93  1  0.29699000  0.85450000  0.42923000  1.0
  C  C94  1  0.79698000  0.64551000  0.92924000  1.0
  C  C95  1  0.70301000  0.14550000  0.57077000  1.0
  C  C96  1  0.30109000  0.32318000  0.11951000  1.0
  C  C97  1  0.19891000  0.82318000  0.38049000  1.0
  C  C98  1  0.69891000  0.67683000  0.88050000  1.0
  C  C99  1  0.80109000  0.17682000  0.61951000  1.0
  C  C100  1  0.28422000  0.25380000  0.17392000  1.0
  C  C101  1  0.21577000  0.75381000  0.32608000  1.0
  C  C102  1  0.71577000  0.74620000  0.82608000  1.0
  C  C103  1  0.78422000  0.24619000  0.67392000  1.0
  C  C104  1  0.16639000  0.21696000  0.18073000  1.0
  C  C105  1  0.33360000  0.71696000  0.31926000  1.0
  C  C106  1  0.83360000  0.78305000  0.81927000  1.0
  C  C107  1  0.66639000  0.28305000  0.68074000  1.0
  C  C108  1  0.06562000  0.25089000  0.13726000  1.0
  C  C109  1  0.43437000  0.75089000  0.36273000  1.0
  C  C110  1  0.93437000  0.74912000  0.86275000  1.0
  C  C111  1  0.56562000  0.24911000  0.63726000  1.0
  C  C112  1  0.08333000  0.31920000  0.08114000  1.0
  C  C113  1  0.41666000  0.81920000  0.41886000  1.0
  C  C114  1  0.91666000  0.68081000  0.91886000  1.0
  C  C115  1  0.58334000  0.18080000  0.58114000  1.0
  C  C116  1  0.02914000  0.64525000  0.96237000  1.0
  C  C117  1  0.47086000  0.14525000  0.53763000  1.0
  C  C118  1  0.97086000  0.35476000  0.03763000  1.0
  C  C119  1  0.52914000  0.85476000  0.46237000  1.0
  C  C120  1  0.90668000  0.89750000  0.31316000  1.0
  C  C121  1  0.59332000  0.39750000  0.18683000  1.0
  C  C122  1  0.09333000  0.10249000  0.68683000  1.0
  C  C123  1  0.40668000  0.60249000  0.81318000  1.0
  C  C124  1  0.98141000  0.94414000  0.24825000  1.0
  C  C125  1  0.51859000  0.44415000  0.25174000  1.0
  C  C126  1  0.01859000  0.05585000  0.75175000  1.0
  C  C127  1  0.48142000  0.55586000  0.74826000  1.0
  C  C128  1  0.03368000  0.02448000  0.26955000  1.0
  C  C129  1  0.46631000  0.52448000  0.23044000  1.0
  C  C130  1  0.96632000  0.97552000  0.73044000  1.0
  C  C131  1  0.53368000  0.47552000  0.76956000  1.0
  C  C132  1  0.09552000  0.07387000  0.21030000  1.0
  C  C133  1  0.40447000  0.57387000  0.28970000  1.0
  C  C134  1  0.90448000  0.92613000  0.78970000  1.0
  C  C135  1  0.59552000  0.42613000  0.71031000  1.0
  C  C136  1  0.10597000  0.04382000  0.12866000  1.0
  C  C137  1  0.39404000  0.54383000  0.37133000  1.0
  C  C138  1  0.89403000  0.95617000  0.87134000  1.0
  C  C139  1  0.60597000  0.45618000  0.62867000  1.0
  C  C140  1  0.05453000  0.96343000  0.10786000  1.0
  C  C141  1  0.44547000  0.46343000  0.39213000  1.0
  C  C142  1  0.94547000  0.03657000  0.89214000  1.0
  C  C143  1  0.55453000  0.53657000  0.60787000  1.0
  C  C144  1  0.99212000  0.91231000  0.16651000  1.0
  C  C145  1  0.50788000  0.41232000  0.33348000  1.0
  C  C146  1  0.00788000  0.08768000  0.83348000  1.0
  C  C147  1  0.49212000  0.58768000  0.66653000  1.0
  C  C148  1  0.93693000  0.82693000  0.13842000  1.0
  C  C149  1  0.56309000  0.32694000  0.36158000  1.0
  C  C150  1  0.06307000  0.17306000  0.86158000  1.0
  C  C151  1  0.43692000  0.67306000  0.63843000  1.0
  C  C152  1  0.91967000  0.47180000  0.78907000  1.0
  C  C153  1  0.58034000  0.97180000  0.71093000  1.0
  C  C154  1  0.08033000  0.52820000  0.21093000  1.0
  C  C155  1  0.41967000  0.02820000  0.28907000  1.0
  C  C156  1  0.87957000  0.54173000  0.74177000  1.0
  C  C157  1  0.62044000  0.04173000  0.75823000  1.0
  C  C158  1  0.12043000  0.45827000  0.25823000  1.0
  C  C159  1  0.37957000  0.95827000  0.24177000  1.0
  C  C160  1  0.96674000  0.59776000  0.70488000  1.0
  C  C161  1  0.53327000  0.09776000  0.79512000  1.0
  C  C162  1  0.03326000  0.40224000  0.29512000  1.0
  C  C163  1  0.46673000  0.90224000  0.20488000  1.0
  C  C164  1  0.09236000  0.58155000  0.72131000  1.0
  C  C165  1  0.40765000  0.08155000  0.77868000  1.0
  C  C166  1  0.90764000  0.41845000  0.27869000  1.0
  C  C167  1  0.59235000  0.91845000  0.22131000  1.0
  C  C168  1  0.12503000  0.51045000  0.76938000  1.0
  C  C169  1  0.37497000  0.01045000  0.73062000  1.0
  C  C170  1  0.87497000  0.48955000  0.23062000  1.0
  C  C171  1  0.62503000  0.98955000  0.26938000  1.0
  C  C172  1  0.92820000  0.66996000  0.65008000  1.0
  C  C173  1  0.57181000  0.16996000  0.84992000  1.0
  C  C174  1  0.07181000  0.33004000  0.34992000  1.0
  C  C175  1  0.42819000  0.83004000  0.15008000  1.0
  C  C176  1  0.80259000  0.68291000  0.63089000  1.0
  C  C177  1  0.69741000  0.18291000  0.86911000  1.0
  C  C178  1  0.19741000  0.31709000  0.36911000  1.0
  C  C179  1  0.30258000  0.81708000  0.13089000  1.0
  C  C180  1  0.76749000  0.74994000  0.57871000  1.0
  C  C181  1  0.73252000  0.24994000  0.92129000  1.0
  C  C182  1  0.23252000  0.25006000  0.42129000  1.0
  C  C183  1  0.26748000  0.75006000  0.07871000  1.0
  C  C184  1  0.97157000  0.79394000  0.56291000  1.0
  C  C185  1  0.52843000  0.29393000  0.93710000  1.0
  C  C186  1  0.02844000  0.20606000  0.43710000  1.0
  C  C187  1  0.47156000  0.70606000  0.06290000  1.0
  C  C188  1  0.01385000  0.72801000  0.61452000  1.0
  C  C189  1  0.48615000  0.22800000  0.88548000  1.0
  C  C190  1  0.98615000  0.27199000  0.38548000  1.0
  C  C191  1  0.51384000  0.77199000  0.11452000  1.0
  C  C192  1  0.90313000  0.64746000  0.38730000  1.0
  C  C193  1  0.59687000  0.14746000  0.11270000  1.0
  C  C194  1  0.09688000  0.35253000  0.61270000  1.0
  C  C195  1  0.40313000  0.85254000  0.88730000  1.0
  C  C196  1  0.98862000  0.60401000  0.43674000  1.0
  C  C197  1  0.51138000  0.10401000  0.06326000  1.0
  C  C198  1  0.01139000  0.39598000  0.56326000  1.0
  C  C199  1  0.48862000  0.89599000  0.93674000  1.0
  C  C200  1  0.95534000  0.52507000  0.47464000  1.0
  C  C201  1  0.54466000  0.02507000  0.02536000  1.0
  C  C202  1  0.04466000  0.47493000  0.52536000  1.0
  C  C203  1  0.45534000  0.97493000  0.97465000  1.0
  C  C204  1  0.83379000  0.49562000  0.46077000  1.0
  C  C205  1  0.66621000  0.99562000  0.03923000  1.0
  C  C206  1  0.16622000  0.50438000  0.53923000  1.0
  C  C207  1  0.33379000  0.00438000  0.96077000  1.0
  C  C208  1  0.75440000  0.54353000  0.41036000  1.0
  C  C209  1  0.74560000  0.04353000  0.08964000  1.0
  C  C210  1  0.24560000  0.45647000  0.58964000  1.0
  C  C211  1  0.25440000  0.95647000  0.91036000  1.0
  N  N212  1  0.04113000  0.45514000  0.80130000  1.0
  N  N213  1  0.45888000  0.95514000  0.69870000  1.0
  N  N214  1  0.95887000  0.54485000  0.19870000  1.0
  N  N215  1  0.54113000  0.04486000  0.30130000  1.0
  N  N216  1  0.35043000  0.69522000  0.04449000  1.0
  N  N217  1  0.14957000  0.19523000  0.45551000  1.0
  N  N218  1  0.64957000  0.30477000  0.95551000  1.0
  N  N219  1  0.85043000  0.80477000  0.54449000  1.0
  N  N220  1  0.78743000  0.61799000  0.37307000  1.0
  N  N221  1  0.71258000  0.11799000  0.12694000  1.0
  N  N222  1  0.21258000  0.38201000  0.62694000  1.0
  N  N223  1  0.28742000  0.88202000  0.87306000  1.0
  O  O224  1  0.23192000  0.41539000  0.93446000  1.0
  O  O225  1  0.26807000  0.91538000  0.56555000  1.0
  O  O226  1  0.76808000  0.58460000  0.06555000  1.0
  O  O227  1  0.73190000  0.08461000  0.43446000  1.0
  O  O228  1  0.24768000  0.30915000  0.78058000  1.0
  O  O229  1  0.25232000  0.80915000  0.71942000  1.0
  O  O230  1  0.75231000  0.69084000  0.21941000  1.0
  O  O231  1  0.74768000  0.19085000  0.28058000  1.0
  O  O232  1  0.26694000  0.49912000  0.04545000  1.0
  O  O233  1  0.23309000  0.99912000  0.45455000  1.0
  O  O234  1  0.73305000  0.50089000  0.95455000  1.0
  O  O235  1  0.76694000  0.00088000  0.54545000  1.0
  O  O236  1  0.97569000  0.37823000  0.96268000  1.0
  O  O237  1  0.52431000  0.87821000  0.53732000  1.0
  O  O238  1  0.02430000  0.62179000  0.03732000  1.0
  O  O239  1  0.47569000  0.12179000  0.46268000  1.0
  O  O240  1  0.12852000  0.64226000  0.91865000  1.0
  O  O241  1  0.37148000  0.14226000  0.58135000  1.0
  O  O242  1  0.87148000  0.35776000  0.08135000  1.0
  O  O243  1  0.62853000  0.85775000  0.41865000  1.0
  O  O244  1  0.15013000  0.14998000  0.23750000  1.0
  O  O245  1  0.34985000  0.64998000  0.26249000  1.0
  O  O246  1  0.84985000  0.85002000  0.76250000  1.0
  O  O247  1  0.65014000  0.35002000  0.73751000  1.0
  O  O248  1  0.91630000  0.92873000  0.38751000  1.0
  O  O249  1  0.58369000  0.42873000  0.11247000  1.0
  O  O250  1  0.08372000  0.07126000  0.61248000  1.0
  O  O251  1  0.41629000  0.57126000  0.88752000  1.0
  O  O252  1  0.83814000  0.83488000  0.29402000  1.0
  O  O253  1  0.66185000  0.33488000  0.20597000  1.0
  O  O254  1  0.16185000  0.16512000  0.70597000  1.0
  O  O255  1  0.33815000  0.66513000  0.79404000  1.0
  O  O256  1  0.84421000  0.82724000  0.09141000  1.0
  O  O257  1  0.65583000  0.32725000  0.40858000  1.0
  O  O258  1  0.15581000  0.17275000  0.90858000  1.0
  O  O259  1  0.34419000  0.67275000  0.59142000  1.0
  O  O260  1  0.99460000  0.75771000  0.16299000  1.0
  O  O261  1  0.50542000  0.25772000  0.33702000  1.0
  O  O262  1  0.00540000  0.24229000  0.83702000  1.0
  O  O263  1  0.49459000  0.74229000  0.66298000  1.0
