# generated using pymatgen
data_AgH8C10N2Cl
_symmetry_space_group_name_H-M   'P 1'
_cell_length_a   5.89395000
_cell_length_b   9.27241000
_cell_length_c   9.27221000
_cell_angle_alpha   92.46150000
_cell_angle_beta   107.93900000
_cell_angle_gamma   107.94100000
_symmetry_Int_Tables_number   1
_chemical_formula_structural   AgH8C10N2Cl
_chemical_formula_sum   'Ag2 H16 C20 N4 Cl2'
_cell_volume   453.31048715
_cell_formula_units_Z   2
loop_
 _symmetry_equiv_pos_site_id
 _symmetry_equiv_pos_as_xyz
  1  'x, y, z'
loop_
 _atom_site_type_symbol
 _atom_site_label
 _atom_site_symmetry_multiplicity
 _atom_site_fract_x
 _atom_site_fract_y
 _atom_site_fract_z
 _atom_site_occupancy
  Ag  Ag0  1  0.24999000  0.91853000  0.08148000  1.0
  Ag  Ag1  1  0.75001000  0.08147000  0.91853000  1.0
  H  H2  1  0.11948000  0.02451000  0.37097000  1.0
  H  H3  1  0.38049000  0.62904000  0.97549000  1.0
  H  H4  1  0.88052000  0.97549000  0.62903000  1.0
  H  H5  1  0.61951000  0.37096000  0.02451000  1.0
  H  H6  1  0.32935000  0.21617000  0.61335000  1.0
  H  H7  1  0.17062000  0.38666000  0.78384000  1.0
  H  H8  1  0.67066000  0.78385000  0.38665000  1.0
  H  H9  1  0.82938000  0.61333000  0.21615000  1.0
  H  H10  1  0.01156000  0.34274000  0.49468000  1.0
  H  H11  1  0.48842000  0.50533000  0.65726000  1.0
  H  H12  1  0.98844000  0.65726000  0.50532000  1.0
  H  H13  1  0.51158000  0.49467000  0.34274000  1.0
  H  H14  1  0.77960000  0.13490000  0.26786000  1.0
  H  H15  1  0.72039000  0.73215000  0.86509000  1.0
  H  H16  1  0.22041000  0.86509000  0.73214000  1.0
  H  H17  1  0.27961000  0.26785000  0.13491000  1.0
  C  C18  1  0.31781000  0.09770000  0.40477000  1.0
  C  C19  1  0.18217000  0.59525000  0.90230000  1.0
  C  C20  1  0.68221000  0.90231000  0.59525000  1.0
  C  C21  1  0.81784000  0.40475000  0.09770000  1.0
  C  C22  1  0.43300000  0.20750000  0.53591000  1.0
  C  C23  1  0.06697000  0.46410000  0.79251000  1.0
  C  C24  1  0.56701000  0.79251000  0.46409000  1.0
  C  C25  1  0.93302000  0.53589000  0.20749000  1.0
  C  C26  1  0.68680000  0.30047000  0.57128000  1.0
  C  C27  1  0.81318000  0.42872000  0.69953000  1.0
  C  C28  1  0.31321000  0.69954000  0.42873000  1.0
  C  C29  1  0.18682000  0.57127000  0.30046000  1.0
  C  C30  1  0.81492000  0.27316000  0.47403000  1.0
  C  C31  1  0.68506000  0.52598000  0.72684000  1.0
  C  C32  1  0.18505000  0.72682000  0.52597000  1.0
  C  C33  1  0.31495000  0.47402000  0.27316000  1.0
  C  C34  1  0.68684000  0.16002000  0.34612000  1.0
  C  C35  1  0.81313000  0.65388000  0.83998000  1.0
  C  C36  1  0.31317000  0.83998000  0.65388000  1.0
  C  C37  1  0.18687000  0.34612000  0.16002000  1.0
  N  N38  1  0.44080000  0.07441000  0.31000000  1.0
  N  N39  1  0.05916000  0.69001000  0.92559000  1.0
  N  N40  1  0.55919000  0.92558000  0.68999000  1.0
  N  N41  1  0.94084000  0.30999000  0.07442000  1.0
  Cl  Cl42  1  0.25001000  0.12160000  0.87840000  1.0
  Cl  Cl43  1  0.74999000  0.87840000  0.12160000  1.0
