# generated using pymatgen
data_ZnH16C16(NO2)2
_symmetry_space_group_name_H-M   'P 1'
_cell_length_a   7.77959000
_cell_length_b   7.83835000
_cell_length_c   12.85000000
_cell_angle_alpha   89.91960000
_cell_angle_beta   98.78910000
_cell_angle_gamma   89.52980000
_symmetry_Int_Tables_number   1
_chemical_formula_structural   ZnH16C16(NO2)2
_chemical_formula_sum   'Zn2 H32 C32 N4 O8'
_cell_volume   774.35195517
_cell_formula_units_Z   2
loop_
 _symmetry_equiv_pos_site_id
 _symmetry_equiv_pos_as_xyz
  1  'x, y, z'
loop_
 _atom_site_type_symbol
 _atom_site_label
 _atom_site_symmetry_multiplicity
 _atom_site_fract_x
 _atom_site_fract_y
 _atom_site_fract_z
 _atom_site_occupancy
  Zn  Zn0  1  0.69098000  0.92801000  0.32804000  1.0
  Zn  Zn1  1  0.30902000  0.07199000  0.67196000  1.0
  H  H2  1  0.31647000  0.94262000  0.35501000  1.0
  H  H3  1  0.68353000  0.05738000  0.64499000  1.0
  H  H4  1  0.01304000  0.81502000  0.05680000  1.0
  H  H5  1  0.98696000  0.18497000  0.94320000  1.0
  H  H6  1  0.57556000  0.82853000  0.10443000  1.0
  H  H7  1  0.42444000  0.17148000  0.89557000  1.0
  H  H8  1  0.42451000  0.77989000  0.92954000  1.0
  H  H9  1  0.57549000  0.22012000  0.07046000  1.0
  H  H10  1  0.20453000  0.83603000  0.89777000  1.0
  H  H11  1  0.79547000  0.16397000  0.10224000  1.0
  H  H12  1  0.25130000  0.53297000  0.85340000  1.0
  H  H13  1  0.74870000  0.46703000  0.14660000  1.0
  H  H14  1  0.11829000  0.54263000  0.95402000  1.0
  H  H15  1  0.88171000  0.45737000  0.04598000  1.0
  H  H16  1  0.34118000  0.48593000  0.98667000  1.0
  H  H17  1  0.65883000  0.51407000  0.01333000  1.0
  H  H18  1  0.63025000  0.55478000  0.29520000  1.0
  H  H19  1  0.36974000  0.44522000  0.70480000  1.0
  H  H20  1  0.81109000  0.30404000  0.58872000  1.0
  H  H21  1  0.18890000  0.69596000  0.41128000  1.0
  H  H22  1  0.82587000  0.85229000  0.55302000  1.0
  H  H23  1  0.17413000  0.14771000  0.44698000  1.0
  H  H24  1  0.97926000  0.71567000  0.71276000  1.0
  H  H25  1  0.02074000  0.28433000  0.28723000  1.0
  H  H26  1  0.98515000  0.49187000  0.72785000  1.0
  H  H27  1  0.01485000  0.50813000  0.27215000  1.0
  H  H28  1  0.81613000  0.63006000  0.85716000  1.0
  H  H29  1  0.18387000  0.36994000  0.14284000  1.0
  H  H30  1  0.68056000  0.49435000  0.77034000  1.0
  H  H31  1  0.31944000  0.50565000  0.22966000  1.0
  H  H32  1  0.66632000  0.71818000  0.75197000  1.0
  H  H33  1  0.33368000  0.28182000  0.24803000  1.0
  C  C34  1  0.30655000  0.90769000  0.27204000  1.0
  C  C35  1  0.69345000  0.09231000  0.72796000  1.0
  C  C36  1  0.14471000  0.88306000  0.21010000  1.0
  C  C37  1  0.85529000  0.11694000  0.78990000  1.0
  C  C38  1  0.13942000  0.83549000  0.10498000  1.0
  C  C39  1  0.86058000  0.16451000  0.89502000  1.0
  C  C40  1  0.29415000  0.81391000  0.06323000  1.0
  C  C41  1  0.70586000  0.18609000  0.93677000  1.0
  C  C42  1  0.44960000  0.84218000  0.13103000  1.0
  C  C43  1  0.55040000  0.15782000  0.86897000  1.0
  C  C44  1  0.98280000  0.90496000  0.25853000  1.0
  C  C45  1  0.01720000  0.09504000  0.74147000  1.0
  C  C46  1  0.29570000  0.75719000  0.95177000  1.0
  C  C47  1  0.70430000  0.24281000  0.04823000  1.0
  C  C48  1  0.24913000  0.56837000  0.93565000  1.0
  C  C49  1  0.75087000  0.43163000  0.06435000  1.0
  C  C50  1  0.68274000  0.55937000  0.37877000  1.0
  C  C51  1  0.31726000  0.44063000  0.62122000  1.0
  C  C52  1  0.71237000  0.40931000  0.43725000  1.0
  C  C53  1  0.28762000  0.59069000  0.56275000  1.0
  C  C54  1  0.78248000  0.42151000  0.54370000  1.0
  C  C55  1  0.21751000  0.57849000  0.45630000  1.0
  C  C56  1  0.82290000  0.58114000  0.58911000  1.0
  C  C57  1  0.17709000  0.41885000  0.41089000  1.0
  C  C58  1  0.79036000  0.72453000  0.52387000  1.0
  C  C59  1  0.20963000  0.27547000  0.47613000  1.0
  C  C60  1  0.68195000  0.24080000  0.38343000  1.0
  C  C61  1  0.31805000  0.75920000  0.61657000  1.0
  C  C62  1  0.89834000  0.60090000  0.70344000  1.0
  C  C63  1  0.10165000  0.39910000  0.29656000  1.0
  C  C64  1  0.75727000  0.61193000  0.77463000  1.0
  C  C65  1  0.24273000  0.38807000  0.22537000  1.0
  N  N66  1  0.45553000  0.88726000  0.23276000  1.0
  N  N67  1  0.54447000  0.11274000  0.76724000  1.0
  N  N68  1  0.72061000  0.71314000  0.42146000  1.0
  N  N69  1  0.27939000  0.28686000  0.57854000  1.0
  O  O70  1  0.83689000  0.86278000  0.20435000  1.0
  O  O71  1  0.16311000  0.13722000  0.79565000  1.0
  O  O72  1  0.99482000  0.96222000  0.35124000  1.0
  O  O73  1  0.00519000  0.03778000  0.64875000  1.0
  O  O74  1  0.67686000  0.23298000  0.28492000  1.0
  O  O75  1  0.32314000  0.76702000  0.71508000  1.0
  O  O76  1  0.66841000  0.10847000  0.44106000  1.0
  O  O77  1  0.33159000  0.89153000  0.55894000  1.0
