# generated using pymatgen
data_ZnH4C3SN4O3
_symmetry_space_group_name_H-M   'P 1'
_cell_length_a   6.63429000
_cell_length_b   8.58899000
_cell_length_c   12.74230000
_cell_angle_alpha   90.00000000
_cell_angle_beta   103.18400000
_cell_angle_gamma   90.00000000
_symmetry_Int_Tables_number   1
_chemical_formula_structural   ZnH4C3SN4O3
_chemical_formula_sum   'Zn4 H16 C12 S4 N16 O12'
_cell_volume   706.94228021
_cell_formula_units_Z   4
loop_
 _symmetry_equiv_pos_site_id
 _symmetry_equiv_pos_as_xyz
  1  'x, y, z'
loop_
 _atom_site_type_symbol
 _atom_site_label
 _atom_site_symmetry_multiplicity
 _atom_site_fract_x
 _atom_site_fract_y
 _atom_site_fract_z
 _atom_site_occupancy
  Zn  Zn0  1  0.99257000  0.51313000  0.30962000  1.0
  Zn  Zn1  1  0.00742000  0.01314000  0.19038000  1.0
  Zn  Zn2  1  0.00743000  0.48686000  0.69038000  1.0
  Zn  Zn3  1  0.99258000  0.98686000  0.80962000  1.0
  H  H4  1  0.88582000  0.63978000  0.47395000  1.0
  H  H5  1  0.11418000  0.13979000  0.02605000  1.0
  H  H6  1  0.11418000  0.36021000  0.52605000  1.0
  H  H7  1  0.88582000  0.86022000  0.97395000  1.0
  H  H8  1  0.91833000  0.77744000  0.39489000  1.0
  H  H9  1  0.08168000  0.27744000  0.10512000  1.0
  H  H10  1  0.08168000  0.22256000  0.60512000  1.0
  H  H11  1  0.91833000  0.72256000  0.89489000  1.0
  H  H12  1  0.38231000  0.88033000  0.02480000  1.0
  H  H13  1  0.61768000  0.38033000  0.47520000  1.0
  H  H14  1  0.61768000  0.11968000  0.97520000  1.0
  H  H15  1  0.38231000  0.61967000  0.52479000  1.0
  H  H16  1  0.46951000  0.71263000  0.96649000  1.0
  H  H17  1  0.53049000  0.21262000  0.53351000  1.0
  H  H18  1  0.53049000  0.28738000  0.03351000  1.0
  H  H19  1  0.46951000  0.78737000  0.46649000  1.0
  C  C20  1  0.67676000  0.79199000  0.11441000  1.0
  C  C21  1  0.32324000  0.29198000  0.38559000  1.0
  C  C22  1  0.32324000  0.20802000  0.88559000  1.0
  C  C23  1  0.67677000  0.70801000  0.61440000  1.0
  C  C24  1  0.46009000  0.76746000  0.04308000  1.0
  C  C25  1  0.53990000  0.26746000  0.45692000  1.0
  C  C26  1  0.53990000  0.23254000  0.95692000  1.0
  C  C27  1  0.46009000  0.73254000  0.54308000  1.0
  C  C28  1  0.25807000  0.70059000  0.18195000  1.0
  C  C29  1  0.74192000  0.20059000  0.31805000  1.0
  C  C30  1  0.74193000  0.29941000  0.81805000  1.0
  C  C31  1  0.25808000  0.79941000  0.68195000  1.0
  S  S32  1  0.30112000  0.86887000  0.25532000  1.0
  S  S33  1  0.69888000  0.36887000  0.24468000  1.0
  S  S34  1  0.69888000  0.13113000  0.74468000  1.0
  S  S35  1  0.30112000  0.63113000  0.75532000  1.0
  N  N36  1  0.33454000  0.66802000  0.09376000  1.0
  N  N37  1  0.66546000  0.16801000  0.40624000  1.0
  N  N38  1  0.66546000  0.33199000  0.90624000  1.0
  N  N39  1  0.33454000  0.83198000  0.59376000  1.0
  N  N40  1  0.27900000  0.52330000  0.05778000  1.0
  N  N41  1  0.72100000  0.02329000  0.44223000  1.0
  N  N42  1  0.72100000  0.47671000  0.94223000  1.0
  N  N43  1  0.27900000  0.97670000  0.55777000  1.0
  N  N44  1  0.17033000  0.46700000  0.12119000  1.0
  N  N45  1  0.82967000  0.96700000  0.37881000  1.0
  N  N46  1  0.82968000  0.53300000  0.87881000  1.0
  N  N47  1  0.17033000  0.03300000  0.62119000  1.0
  N  N48  1  0.15444000  0.57110000  0.19845000  1.0
  N  N49  1  0.84557000  0.07110000  0.30156000  1.0
  N  N50  1  0.84557000  0.42890000  0.80156000  1.0
  N  N51  1  0.15444000  0.92890000  0.69845000  1.0
  O  O52  1  0.73883000  0.71536000  0.19772000  1.0
  O  O53  1  0.26117000  0.21536000  0.30228000  1.0
  O  O54  1  0.26117000  0.28464000  0.80228000  1.0
  O  O55  1  0.73884000  0.78464000  0.69772000  1.0
  O  O56  1  0.78039000  0.90121000  0.07855000  1.0
  O  O57  1  0.21960000  0.40121000  0.42145000  1.0
  O  O58  1  0.21960000  0.09879000  0.92145000  1.0
  O  O59  1  0.78039000  0.59879000  0.57855000  1.0
  O  O60  1  0.96977000  0.67132000  0.42162000  1.0
  O  O61  1  0.03023000  0.17133000  0.07838000  1.0
  O  O62  1  0.03023000  0.32867000  0.57838000  1.0
  O  O63  1  0.96977000  0.82868000  0.92162000  1.0
