# generated using pymatgen
data_SmH13C20S(N2O3)2
_symmetry_space_group_name_H-M   'P 1'
_cell_length_a   6.89881000
_cell_length_b   9.98008000
_cell_length_c   15.13330000
_cell_angle_alpha   84.70630000
_cell_angle_beta   79.36730000
_cell_angle_gamma   79.96190000
_symmetry_Int_Tables_number   1
_chemical_formula_structural   SmH13C20S(N2O3)2
_chemical_formula_sum   'Sm2 H26 C40 S2 N8 O12'
_cell_volume   1006.42574207
_cell_formula_units_Z   2
loop_
 _symmetry_equiv_pos_site_id
 _symmetry_equiv_pos_as_xyz
  1  'x, y, z'
loop_
 _atom_site_type_symbol
 _atom_site_label
 _atom_site_symmetry_multiplicity
 _atom_site_fract_x
 _atom_site_fract_y
 _atom_site_fract_z
 _atom_site_occupancy
  Sm  Sm0  1  0.43466000  0.04791000  0.11532000  1.0
  Sm  Sm1  1  0.56534000  0.95209000  0.88468000  1.0
  H  H2  1  0.18318000  0.60388000  0.71151000  1.0
  H  H3  1  0.81682000  0.39613000  0.28849000  1.0
  H  H4  1  0.27126000  0.36321000  0.77211000  1.0
  H  H5  1  0.72874000  0.63680000  0.22789000  1.0
  H  H6  1  0.27165000  0.50554000  0.03104000  1.0
  H  H7  1  0.72836000  0.49446000  0.96896000  1.0
  H  H8  1  0.19360000  0.74608000  0.97127000  1.0
  H  H9  1  0.80640000  0.25392000  0.02873000  1.0
  H  H10  1  0.42075000  0.76007000  0.25349000  1.0
  H  H11  1  0.57925000  0.23993000  0.74650000  1.0
  H  H12  1  0.37168000  0.66397000  0.41379000  1.0
  H  H13  1  0.62832000  0.33603000  0.58620000  1.0
  H  H14  1  0.27404000  0.82587000  0.53788000  1.0
  H  H15  1  0.72595000  0.17412000  0.46212000  1.0
  H  H16  1  0.09997000  0.24648000  0.69872000  1.0
  H  H17  1  0.90003000  0.75352000  0.30128000  1.0
  H  H18  1  0.15505000  0.51005000  0.41160000  1.0
  H  H19  1  0.84494000  0.48994000  0.58841000  1.0
  H  H20  1  0.22706000  0.57615000  0.24495000  1.0
  H  H21  1  0.77293000  0.42385000  0.75505000  1.0
  H  H22  1  0.33246000  0.38982000  0.13729000  1.0
  H  H23  1  0.66752000  0.61018000  0.86271000  1.0
  H  H24  1  0.17124000  0.00751000  0.64083000  1.0
  H  H25  1  0.82876000  0.99248000  0.35917000  1.0
  H  H26  1  0.18118000  0.99148000  0.00379000  1.0
  H  H27  1  0.81882000  0.00852000  0.99621000  1.0
  C  C28  1  0.18218000  0.68765000  0.83808000  1.0
  C  C29  1  0.81782000  0.31235000  0.16192000  1.0
  C  C30  1  0.20302000  0.58150000  0.78137000  1.0
  C  C31  1  0.79698000  0.41851000  0.21863000  1.0
  C  C32  1  0.25172000  0.44766000  0.81530000  1.0
  C  C33  1  0.74829000  0.55234000  0.18470000  1.0
  C  C34  1  0.27830000  0.41931000  0.90510000  1.0
  C  C35  1  0.72171000  0.58069000  0.09490000  1.0
  C  C36  1  0.25261000  0.52762000  0.96115000  1.0
  C  C37  1  0.74739000  0.47238000  0.03885000  1.0
  C  C38  1  0.20579000  0.66193000  0.92826000  1.0
  C  C39  1  0.79422000  0.33807000  0.07174000  1.0
  C  C40  1  0.33913000  0.27452000  0.94004000  1.0
  C  C41  1  0.66088000  0.72549000  0.05995000  1.0
  C  C42  1  0.37768000  0.82701000  0.30929000  1.0
  C  C43  1  0.62232000  0.17299000  0.69070000  1.0
  C  C44  1  0.35014000  0.77389000  0.39910000  1.0
  C  C45  1  0.64987000  0.22611000  0.60090000  1.0
  C  C46  1  0.29795000  0.86316000  0.46727000  1.0
  C  C47  1  0.70205000  0.13684000  0.53273000  1.0
  C  C48  1  0.27551000  0.00457000  0.44421000  1.0
  C  C49  1  0.72450000  0.99543000  0.55579000  1.0
  C  C50  1  0.22169000  0.10702000  0.50775000  1.0
  C  C51  1  0.77831000  0.89298000  0.49225000  1.0
  C  C52  1  0.13826000  0.22661000  0.62772000  1.0
  C  C53  1  0.86174000  0.77338000  0.37228000  1.0
  C  C54  1  0.20174000  0.24694000  0.48359000  1.0
  C  C55  1  0.79827000  0.75306000  0.51641000  1.0
  C  C56  1  0.23436000  0.29477000  0.39081000  1.0
  C  C57  1  0.76565000  0.70522000  0.60919000  1.0
  C  C58  1  0.20944000  0.43397000  0.36185000  1.0
  C  C59  1  0.79056000  0.56603000  0.63816000  1.0
  C  C60  1  0.24540000  0.46987000  0.27065000  1.0
  C  C61  1  0.75458000  0.53013000  0.72935000  1.0
  C  C62  1  0.30399000  0.36639000  0.20985000  1.0
  C  C63  1  0.69600000  0.63361000  0.79016000  1.0
  C  C64  1  0.29089000  0.19572000  0.32476000  1.0
  C  C65  1  0.70911000  0.80428000  0.67524000  1.0
  C  C66  1  0.30975000  0.05047000  0.35130000  1.0
  C  C67  1  0.69025000  0.94954000  0.64870000  1.0
  S  S68  1  0.12731000  0.85935000  0.79584000  1.0
  S  S69  1  0.87269000  0.14066000  0.20415000  1.0
  N  N70  1  0.35924000  0.96016000  0.28575000  1.0
  N  N71  1  0.64076000  0.03984000  0.71425000  1.0
  N  N72  1  0.32510000  0.23401000  0.23542000  1.0
  N  N73  1  0.67490000  0.76599000  0.76458000  1.0
  N  N74  1  0.14983000  0.32077000  0.55959000  1.0
  N  N75  1  0.85018000  0.67922000  0.44041000  1.0
  N  N76  1  0.18070000  0.09662000  0.60018000  1.0
  N  N77  1  0.81931000  0.90338000  0.39982000  1.0
  O  O78  1  0.28056000  0.93172000  0.81598000  1.0
  O  O79  1  0.71944000  0.06828000  0.18402000  1.0
  O  O80  1  0.13364000  0.85520000  0.69864000  1.0
  O  O81  1  0.86636000  0.14480000  0.30136000  1.0
  O  O82  1  0.93065000  0.91649000  0.84518000  1.0
  O  O83  1  0.06934000  0.08351000  0.15482000  1.0
  O  O84  1  0.39426000  0.18500000  0.88172000  1.0
  O  O85  1  0.60574000  0.81500000  0.11827000  1.0
  O  O86  1  0.33252000  0.25218000  0.02462000  1.0
  O  O87  1  0.66748000  0.74782000  0.97538000  1.0
  O  O88  1  0.31350000  0.94351000  0.01017000  1.0
  O  O89  1  0.68650000  0.05649000  0.98983000  1.0
