# generated using pymatgen
data_CaH12C7(NO4)2
_symmetry_space_group_name_H-M   'P 1'
_cell_length_a   7.72250000
_cell_length_b   8.32854000
_cell_length_c   18.73310000
_cell_angle_alpha   90.00000000
_cell_angle_beta   90.00000000
_cell_angle_gamma   105.16700000
_symmetry_Int_Tables_number   1
_chemical_formula_structural   CaH12C7(NO4)2
_chemical_formula_sum   'Ca4 H48 C28 N8 O32'
_cell_volume   1162.89114595
_cell_formula_units_Z   4
loop_
 _symmetry_equiv_pos_site_id
 _symmetry_equiv_pos_as_xyz
  1  'x, y, z'
loop_
 _atom_site_type_symbol
 _atom_site_label
 _atom_site_symmetry_multiplicity
 _atom_site_fract_x
 _atom_site_fract_y
 _atom_site_fract_z
 _atom_site_occupancy
  Ca  Ca0  1  0.23672000  0.46194000  0.97248000  1.0
  Ca  Ca1  1  0.26328000  0.03806000  0.47248000  1.0
  Ca  Ca2  1  0.76328000  0.53806000  0.02752000  1.0
  Ca  Ca3  1  0.73672000  0.96194000  0.52752000  1.0
  H  H4  1  0.11607000  0.00426000  0.04529000  1.0
  H  H5  1  0.38392000  0.49574000  0.54529000  1.0
  H  H6  1  0.88392000  0.99574000  0.95471000  1.0
  H  H7  1  0.61608000  0.50426000  0.45471000  1.0
  H  H8  1  0.11031000  0.87022000  0.11976000  1.0
  H  H9  1  0.38969000  0.62978000  0.61976000  1.0
  H  H10  1  0.88969000  0.12978000  0.88024000  1.0
  H  H11  1  0.61031000  0.37022000  0.38024000  1.0
  H  H12  1  0.44941000  0.09288000  0.05969000  1.0
  H  H13  1  0.05059000  0.40712000  0.55969000  1.0
  H  H14  1  0.55059000  0.90712000  0.94031000  1.0
  H  H15  1  0.94941000  0.59288000  0.44031000  1.0
  H  H16  1  0.59587000  0.24528000  0.21447000  1.0
  H  H17  1  0.90413000  0.25473000  0.71447000  1.0
  H  H18  1  0.40413000  0.75473000  0.78553000  1.0
  H  H19  1  0.09587000  0.74527000  0.28553000  1.0
  H  H20  1  0.66751000  0.20161000  0.12854000  1.0
  H  H21  1  0.83248000  0.29839000  0.62853000  1.0
  H  H22  1  0.33249000  0.79839000  0.87147000  1.0
  H  H23  1  0.16752000  0.70161000  0.37146000  1.0
  H  H24  1  0.81919000  0.23342000  0.28028000  1.0
  H  H25  1  0.68081000  0.26658000  0.78028000  1.0
  H  H26  1  0.18081000  0.76658000  0.71972000  1.0
  H  H27  1  0.31919000  0.73342000  0.21972000  1.0
  H  H28  1  0.07399000  0.11905000  0.30931000  1.0
  H  H29  1  0.42601000  0.38095000  0.80931000  1.0
  H  H30  1  0.92600000  0.88095000  0.69069000  1.0
  H  H31  1  0.57399000  0.61905000  0.19069000  1.0
  H  H32  1  0.94788000  0.92540000  0.27412000  1.0
  H  H33  1  0.55212000  0.57460000  0.77412000  1.0
  H  H34  1  0.05212000  0.07460000  0.72588000  1.0
  H  H35  1  0.44787000  0.42540000  0.22588000  1.0
  H  H36  1  0.42736000  0.20621000  0.95976000  1.0
  H  H37  1  0.07264000  0.29379000  0.45976000  1.0
  H  H38  1  0.57264000  0.79379000  0.04024000  1.0
  H  H39  1  0.92736000  0.70621000  0.54024000  1.0
  H  H40  1  0.28862000  0.15762000  0.89690000  1.0
  H  H41  1  0.21139000  0.34238000  0.39690000  1.0
  H  H42  1  0.71138000  0.84238000  0.10310000  1.0
  H  H43  1  0.78862000  0.65762000  0.60310000  1.0
  H  H44  1  0.13408000  0.48884000  0.80676000  1.0
  H  H45  1  0.36592000  0.01116000  0.30676000  1.0
  H  H46  1  0.86592000  0.51116000  0.19324000  1.0
  H  H47  1  0.63408000  0.98884000  0.69324000  1.0
  H  H48  1  0.98268000  0.48937000  0.86386000  1.0
  H  H49  1  0.51732000  0.01063000  0.36386000  1.0
  H  H50  1  0.01732000  0.51063000  0.13613000  1.0
  H  H51  1  0.48268000  0.98937000  0.63613000  1.0
  C  C52  1  0.20573000  0.78759000  0.02271000  1.0
  C  C53  1  0.29427000  0.71241000  0.52270000  1.0
  C  C54  1  0.79427000  0.21241000  0.97729000  1.0
  C  C55  1  0.70573000  0.28759000  0.47730000  1.0
  C  C56  1  0.18974000  0.92651000  0.07319000  1.0
  C  C57  1  0.31026000  0.57349000  0.57319000  1.0
  C  C58  1  0.81026000  0.07349000  0.92681000  1.0
  C  C59  1  0.68975000  0.42651000  0.42681000  1.0
  C  C60  1  0.41739000  0.03588000  0.16466000  1.0
  C  C61  1  0.08261000  0.46412000  0.66466000  1.0
  C  C62  1  0.58261000  0.96412000  0.83534000  1.0
  C  C63  1  0.91739000  0.53588000  0.33534000  1.0
  C  C64  1  0.60477000  0.14438000  0.17818000  1.0
  C  C65  1  0.89523000  0.35562000  0.67818000  1.0
  C  C66  1  0.39523000  0.85562000  0.82182000  1.0
  C  C67  1  0.10477000  0.64438000  0.32182000  1.0
  C  C68  1  0.72195000  0.04318000  0.21099000  1.0
  C  C69  1  0.77805000  0.45683000  0.71099000  1.0
  C  C70  1  0.27805000  0.95683000  0.78901000  1.0
  C  C71  1  0.22195000  0.54317000  0.28901000  1.0
  C  C72  1  0.93865000  0.03545000  0.30469000  1.0
  C  C73  1  0.56135000  0.46455000  0.80469000  1.0
  C  C74  1  0.06134000  0.96455000  0.69532000  1.0
  C  C75  1  0.43865000  0.53545000  0.19531000  1.0
  C  C76  1  0.86776000  0.97973000  0.37917000  1.0
  C  C77  1  0.63224000  0.52028000  0.87917000  1.0
  C  C78  1  0.13224000  0.02027000  0.62083000  1.0
  C  C79  1  0.36776000  0.47972000  0.12083000  1.0
  N  N80  1  0.36182000  0.02758000  0.09696000  1.0
  N  N81  1  0.13818000  0.47242000  0.59696000  1.0
  N  N82  1  0.63818000  0.97242000  0.90304000  1.0
  N  N83  1  0.86182000  0.52758000  0.40304000  1.0
  N  N84  1  0.82394000  0.11585000  0.26571000  1.0
  N  N85  1  0.67606000  0.38415000  0.76571000  1.0
  N  N86  1  0.17605000  0.88415000  0.73429000  1.0
  N  N87  1  0.32394000  0.61585000  0.23429000  1.0
  O  O88  1  0.06213000  0.68684000  0.00173000  1.0
  O  O89  1  0.43786000  0.81316000  0.50172000  1.0
  O  O90  1  0.93787000  0.31316000  0.99827000  1.0
  O  O91  1  0.56213000  0.18684000  0.49828000  1.0
  O  O92  1  0.35966000  0.77372000  0.00330000  1.0
  O  O93  1  0.14034000  0.72628000  0.50330000  1.0
  O  O94  1  0.64034000  0.22629000  0.99670000  1.0
  O  O95  1  0.85966000  0.27371000  0.49671000  1.0
  O  O96  1  0.32227000  0.95862000  0.21489000  1.0
  O  O97  1  0.17773000  0.54138000  0.71489000  1.0
  O  O98  1  0.67773000  0.04138000  0.78510000  1.0
  O  O99  1  0.82227000  0.45862000  0.28511000  1.0
  O  O100  1  0.72327000  0.90219000  0.18789000  1.0
  O  O101  1  0.77673000  0.59781000  0.68789000  1.0
  O  O102  1  0.27673000  0.09781000  0.81211000  1.0
  O  O103  1  0.22327000  0.40219000  0.31211000  1.0
  O  O104  1  0.97535000  0.94088000  0.42325000  1.0
  O  O105  1  0.52465000  0.55912000  0.92325000  1.0
  O  O106  1  0.02465000  0.05912000  0.57675000  1.0
  O  O107  1  0.47535000  0.44088000  0.07675000  1.0
  O  O108  1  0.70727000  0.97437000  0.39587000  1.0
  O  O109  1  0.79273000  0.52563000  0.89587000  1.0
  O  O110  1  0.29272000  0.02562000  0.60413000  1.0
  O  O111  1  0.20727000  0.47437000  0.10413000  1.0
  O  O112  1  0.30182000  0.20143000  0.94681000  1.0
  O  O113  1  0.19818000  0.29857000  0.44681000  1.0
  O  O114  1  0.69818000  0.79857000  0.05319000  1.0
  O  O115  1  0.80182000  0.70143000  0.55319000  1.0
  O  O116  1  0.10307000  0.46817000  0.85780000  1.0
  O  O117  1  0.39693000  0.03183000  0.35780000  1.0
  O  O118  1  0.89693000  0.53183000  0.14220000  1.0
  O  O119  1  0.60307000  0.96817000  0.64220000  1.0
