# generated using pymatgen
data_ZnH10C12(NO)2
_symmetry_space_group_name_H-M   'P 1'
_cell_length_a   13.71550000
_cell_length_b   18.11080000
_cell_length_c   18.11080000
_cell_angle_alpha   81.61510000
_cell_angle_beta   67.78130000
_cell_angle_gamma   67.78130000
_symmetry_Int_Tables_number   1
_chemical_formula_structural   ZnH10C12(NO)2
_chemical_formula_sum   'Zn8 H80 C96 N16 O16'
_cell_volume   3855.39940389
_cell_formula_units_Z   8
loop_
 _symmetry_equiv_pos_site_id
 _symmetry_equiv_pos_as_xyz
  1  'x, y, z'
loop_
 _atom_site_type_symbol
 _atom_site_label
 _atom_site_symmetry_multiplicity
 _atom_site_fract_x
 _atom_site_fract_y
 _atom_site_fract_z
 _atom_site_occupancy
  Zn  Zn0  1  0.12778000  0.71608000  0.26874000  1.0
  Zn  Zn1  1  0.88744000  0.76873000  0.21601000  1.0
  Zn  Zn2  1  0.37222000  0.73126000  0.28392000  1.0
  Zn  Zn3  1  0.61256000  0.78399000  0.23127000  1.0
  Zn  Zn4  1  0.87222000  0.28392000  0.73126000  1.0
  Zn  Zn5  1  0.11256000  0.23127000  0.78399000  1.0
  Zn  Zn6  1  0.62778000  0.26874000  0.71608000  1.0
  Zn  Zn7  1  0.38744000  0.21601000  0.76873000  1.0
  H  H8  1  0.28994000  0.51567000  0.13720000  1.0
  H  H9  1  0.05778000  0.63675000  0.01541000  1.0
  H  H10  1  0.21006000  0.86280000  0.48433000  1.0
  H  H11  1  0.44222000  0.98459000  0.36325000  1.0
  H  H12  1  0.71007000  0.48433000  0.86280000  1.0
  H  H13  1  0.94222000  0.36325000  0.98459000  1.0
  H  H14  1  0.78994000  0.13720000  0.51567000  1.0
  H  H15  1  0.55778000  0.01541000  0.63675000  1.0
  H  H16  1  0.39582000  0.41039000  0.03226000  1.0
  H  H17  1  0.16281000  0.53179000  0.91016000  1.0
  H  H18  1  0.10418000  0.96774000  0.58961000  1.0
  H  H19  1  0.33719000  0.08984000  0.46821000  1.0
  H  H20  1  0.60418000  0.58961000  0.96774000  1.0
  H  H21  1  0.83719000  0.46821000  0.08984000  1.0
  H  H22  1  0.89582000  0.03226000  0.41039000  1.0
  H  H23  1  0.66281000  0.91016000  0.53179000  1.0
  H  H24  1  0.62821000  0.38633000  0.80226000  1.0
  H  H25  1  0.18334000  0.30239000  0.88644000  1.0
  H  H26  1  0.87179000  0.19774000  0.61367000  1.0
  H  H27  1  0.31666000  0.11356000  0.69760000  1.0
  H  H28  1  0.37179000  0.61367000  0.19774000  1.0
  H  H29  1  0.81666000  0.69760000  0.11356000  1.0
  H  H30  1  0.12821000  0.80226000  0.38633000  1.0
  H  H31  1  0.68334000  0.88644000  0.30239000  1.0
  H  H32  1  0.55789000  0.41173000  0.90448000  1.0
  H  H33  1  0.12636000  0.40463000  0.91176000  1.0
  H  H34  1  0.94212000  0.09552000  0.58827000  1.0
  H  H35  1  0.37364000  0.08824000  0.59537000  1.0
  H  H36  1  0.44211000  0.58827000  0.09552000  1.0
  H  H37  1  0.87364000  0.59537000  0.08824000  1.0
  H  H38  1  0.05788000  0.90448000  0.41173000  1.0
  H  H39  1  0.62636000  0.91176000  0.40462000  1.0
  H  H40  1  0.51759000  0.47966000  0.83138000  1.0
  H  H41  1  0.17156000  0.33156000  0.97980000  1.0
  H  H42  1  0.98241000  0.16862000  0.52034000  1.0
  H  H43  1  0.32844000  0.02020000  0.66844000  1.0
  H  H44  1  0.48241000  0.52034000  0.16862000  1.0
  H  H45  1  0.82844000  0.66844000  0.02020000  1.0
  H  H46  1  0.01759000  0.83139000  0.47966000  1.0
  H  H47  1  0.67156000  0.97980000  0.33156000  1.0
  H  H48  1  0.20668000  0.82409000  0.04558000  1.0
  H  H49  1  0.92344000  0.54547000  0.32405000  1.0
  H  H50  1  0.29332000  0.95442000  0.17591000  1.0
  H  H51  1  0.57656000  0.67595000  0.45453000  1.0
  H  H52  1  0.79332000  0.17591000  0.95442000  1.0
  H  H53  1  0.07657000  0.45452000  0.67595000  1.0
  H  H54  1  0.70668000  0.04558000  0.82409000  1.0
  H  H55  1  0.42344000  0.32404000  0.54547000  1.0
  H  H56  1  0.20789000  0.92876000  0.93952000  1.0
  H  H57  1  0.92352000  0.43935000  0.42862000  1.0
  H  H58  1  0.29211000  0.06048000  0.07124000  1.0
  H  H59  1  0.57648000  0.57138000  0.56065000  1.0
  H  H60  1  0.79211000  0.07124000  0.06049000  1.0
  H  H61  1  0.07648000  0.56064000  0.57138000  1.0
  H  H62  1  0.70789000  0.93952000  0.92877000  1.0
  H  H63  1  0.42352000  0.42862000  0.43935000  1.0
  H  H64  1  0.00454000  0.13856000  0.88997000  1.0
  H  H65  1  0.96697000  0.38992000  0.63858000  1.0
  H  H66  1  0.49546000  0.11003000  0.86144000  1.0
  H  H67  1  0.53303000  0.36142000  0.61008000  1.0
  H  H68  1  0.99546000  0.86144000  0.11003000  1.0
  H  H69  1  0.03303000  0.61008000  0.36142000  1.0
  H  H70  1  0.50454000  0.88997000  0.13856000  1.0
  H  H71  1  0.46697000  0.63858000  0.38993000  1.0
  H  H72  1  0.00504000  0.10566000  0.98696000  1.0
  H  H73  1  0.90243000  0.48690000  0.60566000  1.0
  H  H74  1  0.49496000  0.01303000  0.89434000  1.0
  H  H75  1  0.59756000  0.39434000  0.51310000  1.0
  H  H76  1  0.99496000  0.89434000  0.01304000  1.0
  H  H77  1  0.09756000  0.51310000  0.39434000  1.0
  H  H78  1  0.50504000  0.98697000  0.10566000  1.0
  H  H79  1  0.40243000  0.60566000  0.48690000  1.0
  H  H80  1  0.06208000  0.03545000  0.90984000  1.0
  H  H81  1  0.99256000  0.40975000  0.53545000  1.0
  H  H82  1  0.43792000  0.09016000  0.96455000  1.0
  H  H83  1  0.50744000  0.46455000  0.59025000  1.0
  H  H84  1  0.93792000  0.96455000  0.09017000  1.0
  H  H85  1  0.00744000  0.59025000  0.46455000  1.0
  H  H86  1  0.56208000  0.90984000  0.03545000  1.0
  H  H87  1  0.49256000  0.53545000  0.40975000  1.0
  C  C88  1  0.10472000  0.64521000  0.14523000  1.0
  C  C89  1  0.39528000  0.85477000  0.35479000  1.0
  C  C90  1  0.89528000  0.35479000  0.85477000  1.0
  C  C91  1  0.60472000  0.14523000  0.64521000  1.0
  C  C92  1  0.16751000  0.58258000  0.08264000  1.0
  C  C93  1  0.33249000  0.91736000  0.41742000  1.0
  C  C94  1  0.83250000  0.41742000  0.91736000  1.0
  C  C95  1  0.66751000  0.08264000  0.58258000  1.0
  C  C96  1  0.26316000  0.51874000  0.08699000  1.0
  C  C97  1  0.13173000  0.58673000  0.01861000  1.0
  C  C98  1  0.23685000  0.91301000  0.48126000  1.0
  C  C99  1  0.36827000  0.98139000  0.41327000  1.0
  C  C100  1  0.73685000  0.48126000  0.91301000  1.0
  C  C101  1  0.86827000  0.41327000  0.98139000  1.0
  C  C102  1  0.76315000  0.08699000  0.51874000  1.0
  C  C103  1  0.63173000  0.01861000  0.58673000  1.0
  C  C104  1  0.32216000  0.46040000  0.02819000  1.0
  C  C105  1  0.19024000  0.52789000  0.96031000  1.0
  C  C106  1  0.17785000  0.97181000  0.53960000  1.0
  C  C107  1  0.30976000  0.03969000  0.47211000  1.0
  C  C108  1  0.67785000  0.53960000  0.97181000  1.0
  C  C109  1  0.80976000  0.47211000  0.03969000  1.0
  C  C110  1  0.82215000  0.02819000  0.46040000  1.0
  C  C111  1  0.69024000  0.96031000  0.52789000  1.0
  C  C112  1  0.28656000  0.46383000  0.96397000  1.0
  C  C113  1  0.21344000  0.03603000  0.53617000  1.0
  C  C114  1  0.71344000  0.53617000  0.03603000  1.0
  C  C115  1  0.78656000  0.96397000  0.46383000  1.0
  C  C116  1  0.34825000  0.40200000  0.90220000  1.0
  C  C117  1  0.15175000  0.09780000  0.59800000  1.0
  C  C118  1  0.65174000  0.59801000  0.09781000  1.0
  C  C119  1  0.84825000  0.90219000  0.40199000  1.0
  C  C120  1  0.46186000  0.38033000  0.85198000  1.0
  C  C121  1  0.30619000  0.35193000  0.88048000  1.0
  C  C122  1  0.03814000  0.14802000  0.61967000  1.0
  C  C123  1  0.19381000  0.11952000  0.64807000  1.0
  C  C124  1  0.53814000  0.61967000  0.14802000  1.0
  C  C125  1  0.69381000  0.64807000  0.11952000  1.0
  C  C126  1  0.96186000  0.85198000  0.38033000  1.0
  C  C127  1  0.80619000  0.88048000  0.35193000  1.0
  C  C128  1  0.54595000  0.41599000  0.84715000  1.0
  C  C129  1  0.19118000  0.34726000  0.91611000  1.0
  C  C130  1  0.95405000  0.15285000  0.58401000  1.0
  C  C131  1  0.30882000  0.08389000  0.65274000  1.0
  C  C132  1  0.45405000  0.58401000  0.15285000  1.0
  C  C133  1  0.80882000  0.65274000  0.08389000  1.0
  C  C134  1  0.04595000  0.84715000  0.41599000  1.0
  C  C135  1  0.69118000  0.91611000  0.34726000  1.0
  C  C136  1  0.25000000  0.82022000  0.17978000  1.0
  C  C137  1  0.75000000  0.67979000  0.32021000  1.0
  C  C138  1  0.75000000  0.17978000  0.82022000  1.0
  C  C139  1  0.25000000  0.32020000  0.67979000  1.0
  C  C140  1  0.25000000  0.88295000  0.11705000  1.0
  C  C141  1  0.75000000  0.61705000  0.38295000  1.0
  C  C142  1  0.75000000  0.11705000  0.88295000  1.0
  C  C143  1  0.25000000  0.38295000  0.61705000  1.0
  C  C144  1  0.22505000  0.87629000  0.05054000  1.0
  C  C145  1  0.84799000  0.55048000  0.37627000  1.0
  C  C146  1  0.27494000  0.94947000  0.12372000  1.0
  C  C147  1  0.65201000  0.62373000  0.44952000  1.0
  C  C148  1  0.77494000  0.12372000  0.94946000  1.0
  C  C149  1  0.15201000  0.44952000  0.62373000  1.0
  C  C150  1  0.72506000  0.05054000  0.87628000  1.0
  C  C151  1  0.34799000  0.37627000  0.55048000  1.0
  C  C152  1  0.22518000  0.93505000  0.99186000  1.0
  C  C153  1  0.84771000  0.49175000  0.43499000  1.0
  C  C154  1  0.27482000  0.00814000  0.06495000  1.0
  C  C155  1  0.65229000  0.56501000  0.50825000  1.0
  C  C156  1  0.77482000  0.06495000  0.00814000  1.0
  C  C157  1  0.15229000  0.50825000  0.56501000  1.0
  C  C158  1  0.72518000  0.99186000  0.93505000  1.0
  C  C159  1  0.34771000  0.43499000  0.49175000  1.0
  C  C160  1  0.25000000  0.00218000  0.99782000  1.0
  C  C161  1  0.75000000  0.49778000  0.50222000  1.0
  C  C162  1  0.75000000  0.99782000  0.00219000  1.0
  C  C163  1  0.25000000  0.50222000  0.49778000  1.0
  C  C164  1  0.25000000  0.06405000  0.93594000  1.0
  C  C165  1  0.75000000  0.43590000  0.56410000  1.0
  C  C166  1  0.75000000  0.93595000  0.06406000  1.0
  C  C167  1  0.25000000  0.56410000  0.43590000  1.0
  C  C168  1  0.16565000  0.10319000  0.90264000  1.0
  C  C169  1  0.82854000  0.40258000  0.60323000  1.0
  C  C170  1  0.33435000  0.09736000  0.89681000  1.0
  C  C171  1  0.67146000  0.39677000  0.59742000  1.0
  C  C172  1  0.83435000  0.89681000  0.09736000  1.0
  C  C173  1  0.17146000  0.59742000  0.39677000  1.0
  C  C174  1  0.66565000  0.90264000  0.10319000  1.0
  C  C175  1  0.32854000  0.60323000  0.40258000  1.0
  C  C176  1  0.05407000  0.09523000  0.92298000  1.0
  C  C177  1  0.92776000  0.42291000  0.59524000  1.0
  C  C178  1  0.44593000  0.07702000  0.90477000  1.0
  C  C179  1  0.57223000  0.40476000  0.57709000  1.0
  C  C180  1  0.94593000  0.90477000  0.07702000  1.0
  C  C181  1  0.07224000  0.57709000  0.40476000  1.0
  C  C182  1  0.55407000  0.92298000  0.09523000  1.0
  C  C183  1  0.42776000  0.59524000  0.42291000  1.0
  N  N184  1  0.48532000  0.32121000  0.80321000  1.0
  N  N185  1  0.39035000  0.30323000  0.82124000  1.0
  N  N186  1  0.01468000  0.19679000  0.67879000  1.0
  N  N187  1  0.10966000  0.17876000  0.69677000  1.0
  N  N188  1  0.51468000  0.67879000  0.19679000  1.0
  N  N189  1  0.60965000  0.69677000  0.17876000  1.0
  N  N190  1  0.98531000  0.80321000  0.32121000  1.0
  N  N191  1  0.89035000  0.82124000  0.30323000  1.0
  N  N192  1  0.19819000  0.15639000  0.84789000  1.0
  N  N193  1  0.79754000  0.34783000  0.65644000  1.0
  N  N194  1  0.30181000  0.15211000  0.84361000  1.0
  N  N195  1  0.70246000  0.34356000  0.65217000  1.0
  N  N196  1  0.80181000  0.84361000  0.15211000  1.0
  N  N197  1  0.20246000  0.65217000  0.34356000  1.0
  N  N198  1  0.69819000  0.84789000  0.15639000  1.0
  N  N199  1  0.29754000  0.65644000  0.34783000  1.0
  O  O200  1  0.13008000  0.63226000  0.20813000  1.0
  O  O201  1  0.02939000  0.70800000  0.13216000  1.0
  O  O202  1  0.36992000  0.79187000  0.36774000  1.0
  O  O203  1  0.47061000  0.86784000  0.29200000  1.0
  O  O204  1  0.86992000  0.36774000  0.79187000  1.0
  O  O205  1  0.97061000  0.29200000  0.86784000  1.0
  O  O206  1  0.63008000  0.20813000  0.63226000  1.0
  O  O207  1  0.52939000  0.13216000  0.70800000  1.0
  O  O208  1  0.21790000  0.76413000  0.17422000  1.0
  O  O209  1  0.84365000  0.67422000  0.26408000  1.0
  O  O210  1  0.28210000  0.82578000  0.23587000  1.0
  O  O211  1  0.65636000  0.73592000  0.32578000  1.0
  O  O212  1  0.78210000  0.23587000  0.82578000  1.0
  O  O213  1  0.15636000  0.32578000  0.73592000  1.0
  O  O214  1  0.71790000  0.17422000  0.76414000  1.0
  O  O215  1  0.34365000  0.26408000  0.67422000  1.0
