# generated using pymatgen
data_Zn3H34(C22O5)2
_symmetry_space_group_name_H-M   'P 1'
_cell_length_a   6.00244000
_cell_length_b   19.22460000
_cell_length_c   19.34050000
_cell_angle_alpha   76.70330000
_cell_angle_beta   81.54000000
_cell_angle_gamma   81.68790000
_symmetry_Int_Tables_number   1
_chemical_formula_structural   Zn3H34(C22O5)2
_chemical_formula_sum   'Zn3 H34 C44 O10'
_cell_volume   2134.06382615
_cell_formula_units_Z   1
loop_
 _symmetry_equiv_pos_site_id
 _symmetry_equiv_pos_as_xyz
  1  'x, y, z'
loop_
 _atom_site_type_symbol
 _atom_site_label
 _atom_site_symmetry_multiplicity
 _atom_site_fract_x
 _atom_site_fract_y
 _atom_site_fract_z
 _atom_site_occupancy
  Zn  Zn0  1  0.50001000  0.00000000  0.00000000  1.0
  Zn  Zn1  1  0.00750000  0.93811000  0.06551000  1.0
  Zn  Zn2  1  0.99250000  0.06189000  0.93449000  1.0
  H  H3  1  0.22549000  0.71434000  0.07246000  1.0
  H  H4  1  0.43789000  0.59411000  0.06417000  1.0
  H  H5  1  0.02662000  0.69654000  0.96075000  1.0
  H  H6  1  0.81033000  0.81632000  0.96595000  1.0
  H  H7  1  0.93385000  0.43585000  0.90934000  1.0
  H  H8  1  0.67546000  0.53413000  0.85865000  1.0
  H  H9  1  0.48060000  0.55469000  0.93161000  1.0
  H  H10  1  0.65908000  0.61890000  0.88264000  1.0
  H  H11  1  0.77935000  0.92900000  0.28661000  1.0
  H  H12  1  0.57732000  0.94742000  0.40454000  1.0
  H  H13  1  0.96249000  0.02298000  0.30748000  1.0
  H  H14  1  0.16290000  0.00237000  0.19061000  1.0
  H  H15  1  0.06311000  0.09163000  0.56341000  1.0
  H  H16  1  0.31997000  0.14315000  0.46659000  1.0
  H  H17  1  0.51968000  0.07069000  0.44725000  1.0
  H  H18  1  0.34357000  0.11849000  0.38228000  1.0
  H  H19  1  0.77452000  0.28565000  0.92754000  1.0
  H  H20  1  0.56212000  0.40589000  0.93583000  1.0
  H  H21  1  0.97338000  0.30346000  0.03926000  1.0
  H  H22  1  0.18966000  0.18367000  0.03406000  1.0
  H  H23  1  0.06617000  0.56414000  0.09066000  1.0
  H  H24  1  0.32456000  0.46587000  0.14136000  1.0
  H  H25  1  0.51940000  0.44531000  0.06840000  1.0
  H  H26  1  0.34093000  0.38110000  0.11737000  1.0
  H  H27  1  0.22064000  0.07100000  0.71339000  1.0
  H  H28  1  0.42266000  0.05259000  0.59546000  1.0
  H  H29  1  0.03751000  0.97703000  0.69252000  1.0
  H  H30  1  0.83710000  0.99763000  0.80939000  1.0
  H  H31  1  0.93688000  0.90838000  0.43658000  1.0
  H  H32  1  0.68002000  0.85686000  0.53340000  1.0
  H  H33  1  0.48031000  0.92932000  0.55274000  1.0
  H  H34  1  0.65644000  0.88153000  0.61772000  1.0
  H  H35  1  0.14664000  0.06394000  0.05481000  1.0
  H  H36  1  0.85337000  0.93606000  0.94518000  1.0
  C  C37  1  0.37505000  0.84509000  0.02014000  1.0
  C  C38  1  0.50355000  0.77282000  0.01859000  1.0
  C  C39  1  0.40029000  0.70983000  0.04740000  1.0
  C  C40  1  0.51953000  0.64297000  0.04296000  1.0
  C  C41  1  0.74553000  0.63737000  0.01142000  1.0
  C  C42  1  0.85032000  0.70042000  0.98470000  1.0
  C  C43  1  0.72980000  0.76739000  0.98757000  1.0
  C  C44  1  0.87275000  0.56634000  0.00522000  1.0
  C  C45  1  0.83045000  0.53017000  0.95363000  1.0
  C  C46  1  0.96031000  0.46427000  0.94975000  1.0
  C  C47  1  0.65278000  0.56100000  0.90392000  1.0
  C  C48  1  0.60526000  0.95525000  0.16025000  1.0
  C  C49  1  0.48478000  0.96536000  0.23112000  1.0
  C  C50  1  0.60058000  0.94996000  0.29174000  1.0
  C  C51  1  0.48733000  0.96041000  0.35737000  1.0
  C  C52  1  0.25615000  0.98642000  0.36396000  1.0
  C  C53  1  0.14157000  0.00209000  0.30299000  1.0
  C  C54  1  0.25392000  0.99133000  0.23736000  1.0
  C  C55  1  0.12964000  0.99464000  0.43416000  1.0
  C  C56  1  0.17076000  0.04667000  0.47014000  1.0
  C  C57  1  0.03856000  0.05058000  0.53536000  1.0
  C  C58  1  0.34721000  0.09746000  0.43998000  1.0
  C  C59  1  0.62495000  0.15491000  0.97986000  1.0
  C  C60  1  0.49645000  0.22717000  0.98142000  1.0
  C  C61  1  0.59971000  0.29017000  0.95261000  1.0
  C  C62  1  0.48047000  0.35703000  0.95704000  1.0
  C  C63  1  0.25448000  0.36262000  0.98858000  1.0
  C  C64  1  0.14969000  0.29957000  0.01531000  1.0
  C  C65  1  0.27020000  0.23260000  0.01244000  1.0
  C  C66  1  0.12725000  0.43366000  0.99479000  1.0
  C  C67  1  0.16956000  0.46983000  0.04637000  1.0
  C  C68  1  0.03971000  0.53573000  0.05026000  1.0
  C  C69  1  0.34723000  0.43900000  0.09609000  1.0
  C  C70  1  0.39474000  0.04475000  0.83975000  1.0
  C  C71  1  0.51521000  0.03464000  0.76888000  1.0
  C  C72  1  0.39941000  0.05003000  0.70826000  1.0
  C  C73  1  0.51266000  0.03960000  0.64263000  1.0
  C  C74  1  0.74385000  0.01358000  0.63603000  1.0
  C  C75  1  0.85842000  0.99791000  0.69701000  1.0
  C  C76  1  0.74608000  0.00867000  0.76263000  1.0
  C  C77  1  0.87035000  0.00537000  0.56583000  1.0
  C  C78  1  0.82923000  0.95335000  0.52985000  1.0
  C  C79  1  0.96143000  0.94944000  0.46463000  1.0
  C  C80  1  0.65278000  0.90255000  0.56001000  1.0
  O  O81  1  0.45405000  0.90009000  0.97988000  1.0
  O  O82  1  0.18751000  0.84630000  0.06226000  1.0
  O  O83  1  0.48928000  0.95498000  0.11084000  1.0
  O  O84  1  0.82426000  0.94736000  0.15471000  1.0
  O  O85  1  0.54594000  0.09991000  0.02012000  1.0
  O  O86  1  0.81249000  0.15370000  0.93775000  1.0
  O  O87  1  0.51074000  0.04501000  0.88916000  1.0
  O  O88  1  0.17574000  0.05263000  0.84529000  1.0
  O  O89  1  0.84553000  0.97010000  0.97595000  1.0
  O  O90  1  0.15447000  0.02989000  0.02405000  1.0
