# generated using pymatgen
data_CoH22C19(NO2)2
_symmetry_space_group_name_H-M   'P 1'
_cell_length_a   8.72222000
_cell_length_b   8.99601000
_cell_length_c   11.73910000
_cell_angle_alpha   80.75160000
_cell_angle_beta   89.28470000
_cell_angle_gamma   78.51680000
_symmetry_Int_Tables_number   1
_chemical_formula_structural   CoH22C19(NO2)2
_chemical_formula_sum   'Co2 H44 C38 N4 O8'
_cell_volume   890.75755686
_cell_formula_units_Z   2
loop_
 _symmetry_equiv_pos_site_id
 _symmetry_equiv_pos_as_xyz
  1  'x, y, z'
loop_
 _atom_site_type_symbol
 _atom_site_label
 _atom_site_symmetry_multiplicity
 _atom_site_fract_x
 _atom_site_fract_y
 _atom_site_fract_z
 _atom_site_occupancy
  Co  Co0  1  0.13426000  0.55346000  0.11970000  1.0
  Co  Co1  1  0.86573000  0.44656000  0.88030000  1.0
  H  H2  1  0.97447000  0.86010000  0.99235000  1.0
  H  H3  1  0.02556000  0.13991000  0.00765000  1.0
  H  H4  1  0.37451000  0.55507000  0.92409000  1.0
  H  H5  1  0.62548000  0.44491000  0.07590000  1.0
  H  H6  1  0.36464000  0.41351000  0.75409000  1.0
  H  H7  1  0.63536000  0.58650000  0.24591000  1.0
  H  H8  1  0.31266000  0.23994000  0.73276000  1.0
  H  H9  1  0.68734000  0.76005000  0.26726000  1.0
  H  H10  1  0.37235000  0.12472000  0.93468000  1.0
  H  H11  1  0.62766000  0.87530000  0.06534000  1.0
  H  H12  1  0.46143000  0.27639000  0.96034000  1.0
  H  H13  1  0.53856000  0.72365000  0.03966000  1.0
  H  H14  1  0.40567000  0.71081000  0.73659000  1.0
  H  H15  1  0.59433000  0.28916000  0.26341000  1.0
  H  H16  1  0.99087000  0.03452000  0.80969000  1.0
  H  H17  1  0.00915000  0.96547000  0.19030000  1.0
  H  H18  1  0.32489000  0.27302000  0.25470000  1.0
  H  H19  1  0.67509000  0.72701000  0.74529000  1.0
  H  H20  1  0.32591000  0.02522000  0.63992000  1.0
  H  H21  1  0.67411000  0.97477000  0.36007000  1.0
  H  H22  1  0.23209000  0.90640000  0.57266000  1.0
  H  H23  1  0.76794000  0.09359000  0.42733000  1.0
  H  H24  1  0.32121000  0.09512000  0.44016000  1.0
  H  H25  1  0.67878000  0.90491000  0.55983000  1.0
  H  H26  1  0.06226000  0.19269000  0.66984000  1.0
  H  H27  1  0.93776000  0.80730000  0.33016000  1.0
  H  H28  1  0.97038000  0.07443000  0.60282000  1.0
  H  H29  1  0.02964000  0.92555000  0.39718000  1.0
  H  H30  1  0.87068000  0.36749000  0.50192000  1.0
  H  H31  1  0.12931000  0.63251000  0.49807000  1.0
  H  H32  1  0.89378000  0.53188000  0.31201000  1.0
  H  H33  1  0.10621000  0.46811000  0.68799000  1.0
  H  H34  1  0.72965000  0.01386000  0.74846000  1.0
  H  H35  1  0.27034000  0.98612000  0.25155000  1.0
  H  H36  1  0.53044000  0.99354000  0.75641000  1.0
  H  H37  1  0.46954000  0.00646000  0.24361000  1.0
  H  H38  1  0.62730000  0.02991000  0.87787000  1.0
  H  H39  1  0.37268000  0.97009000  0.12214000  1.0
  H  H40  1  0.53108000  0.39000000  0.57863000  1.0
  H  H41  1  0.46893000  0.60998000  0.42137000  1.0
  H  H42  1  0.48781000  0.20734000  0.56964000  1.0
  H  H43  1  0.51218000  0.79265000  0.43038000  1.0
  H  H44  1  0.68630000  0.22739000  0.57998000  1.0
  H  H45  1  0.31369000  0.77258000  0.42003000  1.0
  C  C46  1  0.21270000  0.33193000  0.94831000  1.0
  C  C47  1  0.78730000  0.66807000  0.05169000  1.0
  C  C48  1  0.67577000  0.31656000  0.78898000  1.0
  C  C49  1  0.32423000  0.68344000  0.21102000  1.0
  C  C50  1  0.19906000  0.88710000  0.75370000  1.0
  C  C51  1  0.80096000  0.11288000  0.24629000  1.0
  C  C52  1  0.06800000  0.83089000  0.93267000  1.0
  C  C53  1  0.93202000  0.16912000  0.06732000  1.0
  C  C54  1  0.09430000  0.21547000  0.48879000  1.0
  C  C55  1  0.90570000  0.78454000  0.51120000  1.0
  C  C56  1  0.28941000  0.66042000  0.89519000  1.0
  C  C57  1  0.71059000  0.33957000  0.10480000  1.0
  C  C58  1  0.39401000  0.28809000  0.78016000  1.0
  C  C59  1  0.60599000  0.71191000  0.21985000  1.0
  C  C60  1  0.36879000  0.24891000  0.90969000  1.0
  C  C61  1  0.63121000  0.75110000  0.09031000  1.0
  C  C62  1  0.30721000  0.75018000  0.78986000  1.0
  C  C63  1  0.69280000  0.24979000  0.21013000  1.0
  C  C64  1  0.56149000  0.23018000  0.74220000  1.0
  C  C65  1  0.43850000  0.76981000  0.25781000  1.0
  C  C66  1  0.07833000  0.92830000  0.82930000  1.0
  C  C67  1  0.92169000  0.07169000  0.17069000  1.0
  C  C68  1  0.22698000  0.28967000  0.31297000  1.0
  C  C69  1  0.77301000  0.71035000  0.68703000  1.0
  C  C70  1  0.21578000  0.98287000  0.63825000  1.0
  C  C71  1  0.78424000  0.01713000  0.36174000  1.0
  C  C72  1  0.22313000  0.19105000  0.41693000  1.0
  C  C73  1  0.77686000  0.80897000  0.58306000  1.0
  C  C74  1  0.08022000  0.11745000  0.60341000  1.0
  C  C75  1  0.91979000  0.88255000  0.39658000  1.0
  C  C76  1  0.97347000  0.34088000  0.44946000  1.0
  C  C77  1  0.02652000  0.65912000  0.55053000  1.0
  C  C78  1  0.98566000  0.43390000  0.34481000  1.0
  C  C79  1  0.01432000  0.56610000  0.65519000  1.0
  C  C80  1  0.61545000  0.05711000  0.78345000  1.0
  C  C81  1  0.38454000  0.94289000  0.21657000  1.0
  C  C82  1  0.56720000  0.26592000  0.60956000  1.0
  C  C83  1  0.43280000  0.73406000  0.39045000  1.0
  N  N84  1  0.16919000  0.69731000  0.96562000  1.0
  N  N85  1  0.83082000  0.30269000  0.03437000  1.0
  N  N86  1  0.11083000  0.41002000  0.27664000  1.0
  N  N87  1  0.88915000  0.58999000  0.72336000  1.0
  O  O88  1  0.09796000  0.36207000  0.87707000  1.0
  O  O89  1  0.90203000  0.63795000  0.12293000  1.0
  O  O90  1  0.62583000  0.44583000  0.82167000  1.0
  O  O91  1  0.37417000  0.55416000  0.17833000  1.0
  O  O92  1  0.20659000  0.36390000  0.05044000  1.0
  O  O93  1  0.79340000  0.63611000  0.94956000  1.0
  O  O94  1  0.82183000  0.25815000  0.79356000  1.0
  O  O95  1  0.17818000  0.74186000  0.20644000  1.0
