# generated using pymatgen
data_Zn2H5C14I3(NO4)2
_symmetry_space_group_name_H-M   'P 1'
_cell_length_a   9.98383000
_cell_length_b   11.12060000
_cell_length_c   11.89510000
_cell_angle_alpha   94.94780000
_cell_angle_beta   92.94790000
_cell_angle_gamma   90.59910000
_symmetry_Int_Tables_number   1
_chemical_formula_structural   Zn2H5C14I3(NO4)2
_chemical_formula_sum   'Zn2 H5 C14 I3 N2 O8'
_cell_volume   1313.85799621
_cell_formula_units_Z   1
loop_
 _symmetry_equiv_pos_site_id
 _symmetry_equiv_pos_as_xyz
  1  'x, y, z'
loop_
 _atom_site_type_symbol
 _atom_site_label
 _atom_site_symmetry_multiplicity
 _atom_site_fract_x
 _atom_site_fract_y
 _atom_site_fract_z
 _atom_site_occupancy
  Zn  Zn0  1  0.64122000  0.50901000  0.50067000  1.0
  Zn  Zn1  1  0.35966000  0.49105000  0.48523000  1.0
  H  H2  1  0.55962000  0.91441000  0.56766000  1.0
  H  H3  1  0.32036000  0.11901000  0.45198000  1.0
  H  H4  1  0.62722000  0.09100000  0.45951000  1.0
  H  H5  1  0.89112000  0.46346000  0.56211000  1.0
  H  H6  1  0.14030000  0.66000000  0.48021000  1.0
  C  C7  1  0.52738000  0.26750000  0.47283000  1.0
  C  C8  1  0.49402000  0.49991000  0.83294000  1.0
  C  C9  1  0.49444000  0.50227000  0.93603000  1.0
  C  C10  1  0.49388000  0.50424000  0.04965000  1.0
  C  C11  1  0.49261000  0.50515000  0.15257000  1.0
  C  C12  1  0.40268000  0.93792000  0.44988000  1.0
  C  C13  1  0.48235000  0.86793000  0.51092000  1.0
  C  C14  1  0.41388000  0.06881000  0.45535000  1.0
  C  C15  1  0.52935000  0.13341000  0.46243000  1.0
  C  C16  1  0.93190000  0.58851000  0.46527000  1.0
  C  C17  1  0.07962000  0.57608000  0.47509000  1.0
  C  C18  1  0.49368000  0.49798000  0.71127000  1.0
  C  C19  1  0.48342000  0.73450000  0.50951000  1.0
  C  C20  1  0.48887000  0.50364000  0.27363000  1.0
  I  I21  1  0.24669000  0.86990000  0.33376000  1.0
  I  I22  1  0.87256000  0.71938000  0.35727000  1.0
  I  I23  1  0.06257000  0.30714000  0.45759000  1.0
  N  N24  1  0.84724000  0.52597000  0.51319000  1.0
  N  N25  1  0.14851000  0.47909000  0.47398000  1.0
  O  O26  1  0.63971000  0.32297000  0.47140000  1.0
  O  O27  1  0.41322000  0.31692000  0.48316000  1.0
  O  O28  1  0.60729000  0.48674000  0.66774000  1.0
  O  O29  1  0.37977000  0.50794000  0.65970000  1.0
  O  O30  1  0.59772000  0.68961000  0.53192000  1.0
  O  O31  1  0.37370000  0.67543000  0.48755000  1.0
  O  O32  1  0.60018000  0.52271000  0.33029000  1.0
  O  O33  1  0.37491000  0.48355000  0.31200000  1.0
