# generated using pymatgen
data_LaH13C7S2O13
_symmetry_space_group_name_H-M   'P 1'
_cell_length_a   7.90245000
_cell_length_b   10.30270000
_cell_length_c   10.75830000
_cell_angle_alpha   115.60100000
_cell_angle_beta   94.08310000
_cell_angle_gamma   105.44100000
_symmetry_Int_Tables_number   1
_chemical_formula_structural   LaH13C7S2O13
_chemical_formula_sum   'La2 H26 C14 S4 O26'
_cell_volume   743.71839868
_cell_formula_units_Z   2
loop_
 _symmetry_equiv_pos_site_id
 _symmetry_equiv_pos_as_xyz
  1  'x, y, z'
loop_
 _atom_site_type_symbol
 _atom_site_label
 _atom_site_symmetry_multiplicity
 _atom_site_fract_x
 _atom_site_fract_y
 _atom_site_fract_z
 _atom_site_occupancy
  La  La0  1  0.43827000  0.81451000  0.71631000  1.0
  La  La1  1  0.56172000  0.18549000  0.28369000  1.0
  H  H2  1  0.41767000  0.73621000  0.27126000  1.0
  H  H3  1  0.58233000  0.26379000  0.72875000  1.0
  H  H4  1  0.16038000  0.24739000  0.03622000  1.0
  H  H5  1  0.83962000  0.75261000  0.96378000  1.0
  H  H6  1  0.26191000  0.52022000  0.81885000  1.0
  H  H7  1  0.73809000  0.47977000  0.18115000  1.0
  H  H8  1  0.19160000  0.83916000  0.47541000  1.0
  H  H9  1  0.80840000  0.16085000  0.52459000  1.0
  H  H10  1  0.26852000  0.00160000  0.61060000  1.0
  H  H11  1  0.73148000  0.99840000  0.38941000  1.0
  H  H12  1  0.69736000  0.82808000  0.49850000  1.0
  H  H13  1  0.30265000  0.17192000  0.50150000  1.0
  H  H14  1  0.81110000  0.95111000  0.65027000  1.0
  H  H15  1  0.18891000  0.04889000  0.34973000  1.0
  H  H16  1  0.16106000  0.47649000  0.54318000  1.0
  H  H17  1  0.83894000  0.52351000  0.45682000  1.0
  H  H18  1  0.04853000  0.55948000  0.64684000  1.0
  H  H19  1  0.95147000  0.44052000  0.35316000  1.0
  H  H20  1  0.03708000  0.79326000  0.78341000  1.0
  H  H21  1  0.96293000  0.20675000  0.21659000  1.0
  H  H22  1  0.12105000  0.95381000  0.79392000  1.0
  H  H23  1  0.87894000  0.04620000  0.20609000  1.0
  H  H24  1  0.85221000  0.00783000  0.86247000  1.0
  H  H25  1  0.14779000  0.99216000  0.13753000  1.0
  H  H26  1  0.77356000  0.00980000  0.99229000  1.0
  H  H27  1  0.22644000  0.99020000  0.00771000  1.0
  C  C28  1  0.42971000  0.79418000  0.04819000  1.0
  C  C29  1  0.57028000  0.20581000  0.95180000  1.0
  C  C30  1  0.35013000  0.64283000  0.04523000  1.0
  C  C31  1  0.64989000  0.35717000  0.95477000  1.0
  C  C32  1  0.35771000  0.63332000  0.17135000  1.0
  C  C33  1  0.64229000  0.36667000  0.82865000  1.0
  C  C34  1  0.29005000  0.49156000  0.16637000  1.0
  C  C35  1  0.70994000  0.50844000  0.83364000  1.0
  C  C36  1  0.21017000  0.35798000  0.03859000  1.0
  C  C37  1  0.78983000  0.64203000  0.96142000  1.0
  C  C38  1  0.19913000  0.37116000  0.91489000  1.0
  C  C39  1  0.80087000  0.62884000  0.08511000  1.0
  C  C40  1  0.26984000  0.51170000  0.91658000  1.0
  C  C41  1  0.73017000  0.48829000  0.08342000  1.0
  S  S42  1  0.31630000  0.47945000  0.32583000  1.0
  S  S43  1  0.68371000  0.52054000  0.67416000  1.0
  S  S44  1  0.09283000  0.21108000  0.74719000  1.0
  S  S45  1  0.90716000  0.78893000  0.25281000  1.0
  O  O46  1  0.41937000  0.79755000  0.93156000  1.0
  O  O47  1  0.58062000  0.20243000  0.06842000  1.0
  O  O48  1  0.50313000  0.90981000  0.16788000  1.0
  O  O49  1  0.49686000  0.09017000  0.83210000  1.0
  O  O50  1  0.37173000  0.63569000  0.44037000  1.0
  O  O51  1  0.62828000  0.36431000  0.55964000  1.0
  O  O52  1  0.45237000  0.40578000  0.32023000  1.0
  O  O53  1  0.54763000  0.59422000  0.67977000  1.0
  O  O54  1  0.13940000  0.38500000  0.32894000  1.0
  O  O55  1  0.86061000  0.61501000  0.67107000  1.0
  O  O56  1  0.23297000  0.18631000  0.66520000  1.0
  O  O57  1  0.76703000  0.81370000  0.33480000  1.0
  O  O58  1  0.95441000  0.25024000  0.68771000  1.0
  O  O59  1  0.04558000  0.74977000  0.31229000  1.0
  O  O60  1  0.01636000  0.07952000  0.77493000  1.0
  O  O61  1  0.98363000  0.92048000  0.22508000  1.0
  O  O62  1  0.26847000  0.89576000  0.57135000  1.0
  O  O63  1  0.73153000  0.10424000  0.42865000  1.0
  O  O64  1  0.69155000  0.87501000  0.59861000  1.0
  O  O65  1  0.30845000  0.12498000  0.40138000  1.0
  O  O66  1  0.17211000  0.56032000  0.63638000  1.0
  O  O67  1  0.82789000  0.43969000  0.36362000  1.0
  O  O68  1  0.15042000  0.88020000  0.82034000  1.0
  O  O69  1  0.84958000  0.11980000  0.17967000  1.0
  O  O70  1  0.75787000  0.94708000  0.88891000  1.0
  O  O71  1  0.24213000  0.05292000  0.11108000  1.0
