# generated using pymatgen
data_MgHC6O7
_symmetry_space_group_name_H-M   'P 1'
_cell_length_a   7.04138000
_cell_length_b   15.11010000
_cell_length_c   15.11280000
_cell_angle_alpha   117.60200000
_cell_angle_beta   98.92790000
_cell_angle_gamma   98.94030000
_symmetry_Int_Tables_number   1
_chemical_formula_structural   MgHC6O7
_chemical_formula_sum   'Mg6 H6 C36 O42'
_cell_volume   1359.39418446
_cell_formula_units_Z   6
loop_
 _symmetry_equiv_pos_site_id
 _symmetry_equiv_pos_as_xyz
  1  'x, y, z'
loop_
 _atom_site_type_symbol
 _atom_site_label
 _atom_site_symmetry_multiplicity
 _atom_site_fract_x
 _atom_site_fract_y
 _atom_site_fract_z
 _atom_site_occupancy
  Mg  Mg0  1  0.52164000  0.73545000  0.41066000  1.0
  Mg  Mg1  1  0.78622000  0.67539000  0.26448000  1.0
  Mg  Mg2  1  0.11086000  0.58924000  0.32460000  1.0
  Mg  Mg3  1  0.47837000  0.26455000  0.58934000  1.0
  Mg  Mg4  1  0.21378000  0.32461000  0.73552000  1.0
  Mg  Mg5  1  0.88914000  0.41076000  0.67540000  1.0
  H  H6  1  0.18559000  0.54764000  0.52675000  1.0
  H  H7  1  0.63799000  0.97920000  0.45226000  1.0
  H  H8  1  0.65890000  0.47322000  0.02097000  1.0
  H  H9  1  0.81442000  0.45236000  0.47326000  1.0
  H  H10  1  0.36201000  0.02080000  0.54774000  1.0
  H  H11  1  0.34111000  0.52678000  0.97903000  1.0
  C  C12  1  0.74081000  0.56766000  0.39248000  1.0
  C  C13  1  0.17309000  0.82486000  0.43225000  1.0
  C  C14  1  0.34828000  0.60754000  0.17506000  1.0
  C  C15  1  0.25919000  0.43235000  0.60752000  1.0
  C  C16  1  0.82691000  0.17514000  0.56775000  1.0
  C  C17  1  0.65172000  0.39246000  0.82493000  1.0
  C  C18  1  0.43357000  0.56699000  0.46559000  1.0
  C  C19  1  0.86657000  0.89867000  0.43290000  1.0
  C  C20  1  0.96798000  0.53439000  0.10135000  1.0
  C  C21  1  0.56643000  0.43301000  0.53441000  1.0
  C  C22  1  0.13343000  0.10133000  0.56710000  1.0
  C  C23  1  0.03203000  0.46561000  0.89865000  1.0
  C  C24  1  0.77069000  0.79717000  0.65066000  1.0
  C  C25  1  0.97442000  0.85410000  0.20285000  1.0
  C  C26  1  0.12073000  0.34927000  0.14655000  1.0
  C  C27  1  0.22930000  0.20282000  0.34932000  1.0
  C  C28  1  0.02560000  0.14590000  0.79715000  1.0
  C  C29  1  0.87924000  0.65073000  0.85344000  1.0
  C  C30  1  0.61483000  0.53743000  0.44946000  1.0
  C  C31  1  0.07736000  0.91205000  0.46253000  1.0
  C  C32  1  0.16536000  0.55057000  0.08793000  1.0
  C  C33  1  0.38517000  0.46258000  0.55054000  1.0
  C  C34  1  0.92264000  0.08795000  0.53747000  1.0
  C  C35  1  0.83464000  0.44943000  0.91207000  1.0
  C  C36  1  0.32508000  0.52725000  0.51528000  1.0
  C  C37  1  0.79786000  0.98808000  0.47269000  1.0
  C  C38  1  0.80982000  0.48467000  0.01198000  1.0
  C  C39  1  0.67492000  0.47275000  0.48472000  1.0
  C  C40  1  0.20214000  0.01192000  0.52731000  1.0
  C  C41  1  0.19018000  0.51533000  0.98802000  1.0
  C  C42  1  0.26041000  0.78143000  0.64768000  1.0
  C  C43  1  0.47959000  0.86629000  0.21838000  1.0
  C  C44  1  0.61379000  0.35201000  0.13369000  1.0
  C  C45  1  0.73961000  0.21859000  0.35234000  1.0
  C  C46  1  0.52042000  0.13370000  0.78163000  1.0
  C  C47  1  0.38618000  0.64799000  0.86632000  1.0
  O  O48  1  0.68878000  0.62802000  0.36064000  1.0
  O  O49  1  0.06072000  0.73272000  0.37190000  1.0
  O  O50  1  0.32807000  0.63940000  0.26722000  1.0
  O  O51  1  0.31121000  0.37198000  0.63936000  1.0
  O  O52  1  0.93928000  0.26728000  0.62810000  1.0
  O  O53  1  0.67193000  0.36060000  0.73277000  1.0
  O  O54  1  0.36166000  0.62981000  0.43689000  1.0
  O  O55  1  0.73188000  0.80722000  0.37005000  1.0
  O  O56  1  0.92470000  0.56308000  0.19283000  1.0
  O  O57  1  0.63834000  0.37019000  0.56311000  1.0
  O  O58  1  0.26812000  0.19277000  0.62995000  1.0
  O  O59  1  0.07530000  0.43691000  0.80717000  1.0
  O  O60  1  0.71529000  0.81118000  0.58163000  1.0
  O  O61  1  0.90466000  0.77112000  0.18892000  1.0
  O  O62  1  0.13407000  0.41836000  0.22946000  1.0
  O  O63  1  0.28471000  0.18882000  0.41835000  1.0
  O  O64  1  0.09536000  0.22888000  0.81108000  1.0
  O  O65  1  0.86591000  0.58164000  0.77053000  1.0
  O  O66  1  0.35962000  0.84174000  0.46665000  1.0
  O  O67  1  0.51795000  0.62502000  0.15816000  1.0
  O  O68  1  0.89295000  0.53324000  0.37500000  1.0
  O  O69  1  0.64038000  0.15826000  0.53335000  1.0
  O  O70  1  0.48205000  0.37498000  0.84184000  1.0
  O  O71  1  0.10705000  0.46676000  0.62501000  1.0
  O  O72  1  0.82778000  0.78523000  0.72033000  1.0
  O  O73  1  0.04382000  0.93566000  0.21474000  1.0
  O  O74  1  0.10845000  0.27955000  0.06507000  1.0
  O  O75  1  0.17220000  0.21476000  0.27964000  1.0
  O  O76  1  0.95620000  0.06435000  0.78526000  1.0
  O  O77  1  0.89152000  0.72045000  0.93491000  1.0
  O  O78  1  0.10674000  0.75623000  0.58814000  1.0
  O  O79  1  0.35110000  0.83204000  0.24369000  1.0
  O  O80  1  0.51974000  0.41161000  0.16801000  1.0
  O  O81  1  0.89329000  0.24379000  0.41189000  1.0
  O  O82  1  0.64890000  0.16795000  0.75631000  1.0
  O  O83  1  0.48023000  0.58838000  0.83199000  1.0
  O  O84  1  0.41276000  0.80738000  0.70875000  1.0
  O  O85  1  0.60596000  0.90133000  0.19232000  1.0
  O  O86  1  0.70499000  0.29088000  0.09860000  1.0
  O  O87  1  0.58728000  0.19263000  0.29126000  1.0
  O  O88  1  0.39406000  0.09867000  0.80770000  1.0
  O  O89  1  0.29499000  0.70911000  0.90141000  1.0
