# generated using pymatgen
data_ZnH10C13NO5
_symmetry_space_group_name_H-M   'P 1'
_cell_length_a   9.69147000
_cell_length_b   11.65610000
_cell_length_c   11.84440000
_cell_angle_alpha   67.79900000
_cell_angle_beta   89.99930000
_cell_angle_gamma   89.99870000
_symmetry_Int_Tables_number   1
_chemical_formula_structural   ZnH10C13NO5
_chemical_formula_sum   'Zn4 H40 C52 N4 O20'
_cell_volume   1238.80565505
_cell_formula_units_Z   4
loop_
 _symmetry_equiv_pos_site_id
 _symmetry_equiv_pos_as_xyz
  1  'x, y, z'
loop_
 _atom_site_type_symbol
 _atom_site_label
 _atom_site_symmetry_multiplicity
 _atom_site_fract_x
 _atom_site_fract_y
 _atom_site_fract_z
 _atom_site_occupancy
  Zn  Zn0  1  0.10570000  0.12550000  0.89890000  1.0
  Zn  Zn1  1  0.60571000  0.37449000  0.60110000  1.0
  Zn  Zn2  1  0.89429000  0.87449000  0.10110000  1.0
  Zn  Zn3  1  0.39429000  0.62551000  0.39889000  1.0
  H  H4  1  0.78441000  0.23678000  0.21443000  1.0
  H  H5  1  0.28443000  0.26322000  0.28558000  1.0
  H  H6  1  0.21559000  0.76321000  0.78557000  1.0
  H  H7  1  0.71557000  0.73678000  0.71442000  1.0
  H  H8  1  0.54153000  0.21529000  0.29131000  1.0
  H  H9  1  0.04156000  0.28470000  0.20870000  1.0
  H  H10  1  0.45846000  0.78470000  0.70869000  1.0
  H  H11  1  0.95844000  0.71530000  0.79131000  1.0
  H  H12  1  0.35417000  0.16663000  0.16971000  1.0
  H  H13  1  0.85418000  0.33333333  0.33028000  1.0
  H  H14  1  0.64583000  0.83337000  0.83028000  1.0
  H  H15  1  0.14582000  0.66663000  0.66973000  1.0
  H  H16  1  0.65584000  0.13781000  0.91612000  1.0
  H  H17  1  0.15584000  0.36220000  0.58388000  1.0
  H  H18  1  0.34416000  0.86219000  0.08388000  1.0
  H  H19  1  0.84417000  0.63781000  0.41612000  1.0
  H  H20  1  0.85721000  0.06946000  0.78714000  1.0
  H  H21  1  0.35720000  0.43053000  0.71286000  1.0
  H  H22  1  0.14279000  0.93053000  0.21286000  1.0
  H  H23  1  0.64280000  0.56948000  0.28714000  1.0
  H  H24  1  0.79969000  0.01970000  0.60899000  1.0
  H  H25  1  0.29969000  0.48030000  0.89102000  1.0
  H  H26  1  0.20030000  0.98030000  0.39102000  1.0
  H  H27  1  0.70032000  0.51970000  0.10898000  1.0
  H  H28  1  0.23954000  0.01949000  0.53734000  1.0
  H  H29  1  0.73954000  0.48052000  0.96264000  1.0
  H  H30  1  0.76045000  0.98051000  0.46265000  1.0
  H  H31  1  0.26047000  0.51948000  0.03735000  1.0
  H  H32  1  0.27716000  0.07226000  0.71792000  1.0
  H  H33  1  0.77716000  0.42775000  0.78206000  1.0
  H  H34  1  0.72283000  0.92774000  0.28208000  1.0
  H  H35  1  0.22285000  0.57225000  0.21793000  1.0
  H  H36  1  0.05263000  0.33287000  0.88071000  1.0
  H  H37  1  0.55265000  0.16713000  0.61929000  1.0
  H  H38  1  0.94737000  0.66713000  0.11930000  1.0
  H  H39  1  0.44736000  0.83288000  0.38070000  1.0
  H  H40  1  0.02958000  0.34179000  0.74398000  1.0
  H  H41  1  0.52958000  0.15820000  0.75602000  1.0
  H  H42  1  0.97042000  0.65820000  0.25602000  1.0
  H  H43  1  0.47042000  0.84180000  0.24398000  1.0
  C  C44  1  0.87984000  0.19875000  0.01613000  1.0
  C  C45  1  0.37984000  0.30125000  0.48388000  1.0
  C  C46  1  0.12016000  0.80124000  0.98388000  1.0
  C  C47  1  0.62016000  0.69876000  0.51612000  1.0
  C  C48  1  0.73462000  0.18615000  0.06241000  1.0
  C  C49  1  0.23463000  0.31386000  0.43758000  1.0
  C  C50  1  0.26538000  0.81385000  0.93758000  1.0
  C  C51  1  0.76537000  0.68614000  0.56242000  1.0
  C  C52  1  0.70192000  0.21126000  0.16597000  1.0
  C  C53  1  0.20194000  0.28874000  0.33403000  1.0
  C  C54  1  0.29808000  0.78874000  0.83403000  1.0
  C  C55  1  0.79806000  0.71126000  0.66597000  1.0
  C  C56  1  0.56607000  0.20068000  0.20777000  1.0
  C  C57  1  0.06609000  0.29931000  0.29223000  1.0
  C  C58  1  0.43392000  0.79931000  0.79223000  1.0
  C  C59  1  0.93391000  0.70069000  0.70778000  1.0
  C  C60  1  0.46169000  0.17279000  0.14121000  1.0
  C  C61  1  0.96171000  0.32721000  0.35879000  1.0
  C  C62  1  0.53831000  0.82722000  0.85879000  1.0
  C  C63  1  0.03829000  0.67279000  0.64122000  1.0
  C  C64  1  0.49246000  0.15388000  0.03377000  1.0
  C  C65  1  0.99247000  0.34612000  0.46622000  1.0
  C  C66  1  0.50754000  0.84611000  0.96623000  1.0
  C  C67  1  0.00754000  0.65389000  0.53378000  1.0
  C  C68  1  0.62984000  0.15650000  0.99697000  1.0
  C  C69  1  0.12985000  0.34350000  0.50302000  1.0
  C  C70  1  0.37016000  0.84350000  0.00302000  1.0
  C  C71  1  0.87016000  0.65650000  0.49698000  1.0
  C  C72  1  0.37777000  0.13515000  0.95797000  1.0
  C  C73  1  0.87777000  0.36486000  0.54201000  1.0
  C  C74  1  0.62223000  0.86486000  0.04202000  1.0
  C  C75  1  0.12224000  0.63514000  0.45799000  1.0
  C  C76  1  0.93849000  0.05782000  0.72889000  1.0
  C  C77  1  0.43850000  0.44217000  0.77111000  1.0
  C  C78  1  0.06150000  0.94217000  0.27111000  1.0
  C  C79  1  0.56151000  0.55783000  0.22889000  1.0
  C  C80  1  0.90782000  0.02909000  0.62847000  1.0
  C  C81  1  0.40782000  0.47092000  0.87154000  1.0
  C  C82  1  0.09217000  0.97091000  0.37153000  1.0
  C  C83  1  0.59218000  0.52909000  0.12846000  1.0
  C  C84  1  0.01460000  0.01434000  0.55456000  1.0
  C  C85  1  0.51461000  0.48565000  0.94545000  1.0
  C  C86  1  0.98540000  0.98565000  0.44544000  1.0
  C  C87  1  0.48540000  0.51435000  0.05455000  1.0
  C  C88  1  0.15003000  0.02844000  0.58878000  1.0
  C  C89  1  0.65004000  0.47157000  0.91120000  1.0
  C  C90  1  0.84996000  0.97156000  0.41121000  1.0
  C  C91  1  0.34997000  0.52843000  0.08879000  1.0
  C  C92  1  0.17347000  0.05847000  0.68987000  1.0
  C  C93  1  0.67347000  0.44153000  0.81012000  1.0
  C  C94  1  0.82652000  0.94152000  0.31013000  1.0
  C  C95  1  0.32653000  0.55847000  0.18988000  1.0
  N  N96  1  0.06984000  0.07343000  0.75860000  1.0
  N  N97  1  0.56985000  0.42657000  0.74138000  1.0
  N  N98  1  0.93015000  0.92656000  0.24139000  1.0
  N  N99  1  0.43015000  0.57344000  0.25862000  1.0
  O  O100  1  0.92145000  0.11238000  0.98000000  1.0
  O  O101  1  0.42145000  0.38762000  0.52001000  1.0
  O  O102  1  0.07855000  0.88762000  0.02001000  1.0
  O  O103  1  0.57855000  0.61238000  0.47999000  1.0
  O  O104  1  0.94999000  0.29124000  0.01164000  1.0
  O  O105  1  0.45000000  0.20877000  0.48836000  1.0
  O  O106  1  0.05001000  0.70876000  0.98836000  1.0
  O  O107  1  0.55001000  0.79123000  0.51164000  1.0
  O  O108  1  0.39835000  0.13988000  0.85114000  1.0
  O  O109  1  0.89835000  0.36013000  0.64886000  1.0
  O  O110  1  0.60165000  0.86013000  0.14886000  1.0
  O  O111  1  0.10166000  0.63987000  0.35115000  1.0
  O  O112  1  0.25746000  0.11697000  0.00870000  1.0
  O  O113  1  0.75746000  0.38303000  0.49129000  1.0
  O  O114  1  0.74254000  0.88302000  0.99130000  1.0
  O  O115  1  0.24255000  0.61698000  0.50872000  1.0
  O  O116  1  0.10033000  0.32153000  0.81084000  1.0
  O  O117  1  0.60034000  0.17846000  0.68916000  1.0
  O  O118  1  0.89967000  0.67846000  0.18917000  1.0
  O  O119  1  0.39966000  0.82155000  0.31083000  1.0
