# generated using pymatgen
data_ZnH3C9Br4NO4
_symmetry_space_group_name_H-M   'P 1'
_cell_length_a   9.77337000
_cell_length_b   10.82400000
_cell_length_c   11.16430000
_cell_angle_alpha   84.74080000
_cell_angle_beta   88.54900000
_cell_angle_gamma   69.76300000
_symmetry_Int_Tables_number   1
_chemical_formula_structural   ZnH3C9Br4NO4
_chemical_formula_sum   'Zn2 H6 C18 Br8 N2 O8'
_cell_volume   1103.44095585
_cell_formula_units_Z   2
loop_
 _symmetry_equiv_pos_site_id
 _symmetry_equiv_pos_as_xyz
  1  'x, y, z'
loop_
 _atom_site_type_symbol
 _atom_site_label
 _atom_site_symmetry_multiplicity
 _atom_site_fract_x
 _atom_site_fract_y
 _atom_site_fract_z
 _atom_site_occupancy
  Zn  Zn0  1  0.64983000  0.45327000  0.48006000  1.0
  Zn  Zn1  1  0.34883000  0.54038000  0.51614000  1.0
  H  H2  1  0.56798000  0.90956000  0.30263000  1.0
  H  H3  1  0.43139000  0.08362000  0.69538000  1.0
  H  H4  1  0.65765000  0.84130000  0.65467000  1.0
  H  H5  1  0.34318000  0.15125000  0.34328000  1.0
  H  H6  1  0.85949000  0.54587000  0.57839000  1.0
  H  H7  1  0.13829000  0.45345000  0.41440000  1.0
  C  C8  1  0.44691000  0.51358000  0.26902000  1.0
  C  C9  1  0.51583000  0.11681000  0.49937000  1.0
  C  C10  1  0.58745000  0.91116000  0.58591000  1.0
  C  C11  1  0.41260000  0.08131000  0.41242000  1.0
  C  C12  1  0.43198000  0.51086000  0.13543000  1.0
  C  C13  1  0.56460000  0.45797000  0.86267000  1.0
  C  C14  1  0.49734000  0.40609000  0.07274000  1.0
  C  C15  1  0.48939000  0.40644000  0.94265000  1.0
  C  C16  1  0.07074000  0.50286000  0.48799000  1.0
  C  C17  1  0.92774000  0.49325000  0.50662000  1.0
  C  C18  1  0.54857000  0.46986000  0.72788000  1.0
  C  C19  1  0.51878000  0.25302000  0.50176000  1.0
  C  C20  1  0.48280000  0.73889000  0.49649000  1.0
  C  C21  1  0.63992000  0.98336000  0.47616000  1.0
  C  C22  1  0.35998000  0.00898000  0.52190000  1.0
  C  C23  1  0.53746000  0.94943000  0.38977000  1.0
  C  C24  1  0.46231000  0.04321000  0.60849000  1.0
  C  C25  1  0.48469000  0.87531000  0.50009000  1.0
  Br  Br26  1  0.84041000  0.95978000  0.44157000  1.0
  Br  Br27  1  0.15958000  0.03092000  0.55430000  1.0
  Br  Br28  1  0.35982000  0.32436000  0.88830000  1.0
  Br  Br29  1  0.60981000  0.24084000  0.15697000  1.0
  Br  Br30  1  0.70289000  0.52863000  0.91631000  1.0
  Br  Br31  1  0.31190000  0.67431000  0.05767000  1.0
  Br  Br32  1  0.96175000  0.33641000  0.31730000  1.0
  Br  Br33  1  0.03622000  0.65547000  0.68039000  1.0
  N  N34  1  0.13158000  0.56530000  0.54944000  1.0
  N  N35  1  0.86644000  0.43036000  0.44630000  1.0
  O  O36  1  0.57058000  0.50901000  0.30485000  1.0
  O  O37  1  0.42058000  0.53340000  0.68856000  1.0
  O  O38  1  0.33490000  0.52173000  0.33220000  1.0
  O  O39  1  0.66248000  0.41875000  0.66758000  1.0
  O  O40  1  0.63475000  0.27442000  0.46937000  1.0
  O  O41  1  0.36170000  0.72271000  0.48236000  1.0
  O  O42  1  0.40086000  0.33752000  0.53595000  1.0
  O  O43  1  0.60806000  0.64833000  0.50642000  1.0
