# generated using pymatgen
data_CdH16C17(NO)4
_symmetry_space_group_name_H-M   'P 1'
_cell_length_a   8.74555000
_cell_length_b   10.40960000
_cell_length_c   11.85940000
_cell_angle_alpha   85.76790000
_cell_angle_beta   69.07520000
_cell_angle_gamma   67.34690000
_symmetry_Int_Tables_number   1
_chemical_formula_structural   CdH16C17(NO)4
_chemical_formula_sum   'Cd2 H32 C34 N8 O8'
_cell_volume   928.10182173
_cell_formula_units_Z   2
loop_
 _symmetry_equiv_pos_site_id
 _symmetry_equiv_pos_as_xyz
  1  'x, y, z'
loop_
 _atom_site_type_symbol
 _atom_site_label
 _atom_site_symmetry_multiplicity
 _atom_site_fract_x
 _atom_site_fract_y
 _atom_site_fract_z
 _atom_site_occupancy
  Cd  Cd0  1  0.36063000  0.17557000  0.13993000  1.0
  Cd  Cd1  1  0.63937000  0.82443000  0.86007000  1.0
  H  H2  1  0.27127000  0.03829000  0.42090000  1.0
  H  H3  1  0.72873000  0.96172000  0.57910000  1.0
  H  H4  1  0.94907000  0.41989000  0.33251000  1.0
  H  H5  1  0.05092000  0.58011000  0.66749000  1.0
  H  H6  1  0.77228000  0.37241000  0.56963000  1.0
  H  H7  1  0.22772000  0.62758000  0.43037000  1.0
  H  H8  1  0.06926000  0.01276000  0.62753000  1.0
  H  H9  1  0.93075000  0.98724000  0.37246000  1.0
  H  H10  1  0.84275000  0.12653000  0.67650000  1.0
  H  H11  1  0.15726000  0.87346000  0.32350000  1.0
  H  H12  1  0.91600000  0.30942000  0.74954000  1.0
  H  H13  1  0.08401000  0.69058000  0.25047000  1.0
  H  H14  1  0.14270000  0.19412000  0.70149000  1.0
  H  H15  1  0.85731000  0.80588000  0.29851000  1.0
  H  H16  1  0.83232000  0.14141000  0.89597000  1.0
  H  H17  1  0.16768000  0.85859000  0.10404000  1.0
  H  H18  1  0.05629000  0.01999000  0.84449000  1.0
  H  H19  1  0.94371000  0.98001000  0.15552000  1.0
  H  H20  1  0.23436000  0.02232000  0.96055000  1.0
  H  H21  1  0.76564000  0.97768000  0.03945000  1.0
  H  H22  1  0.81500000  0.40664000  0.96816000  1.0
  H  H23  1  0.18500000  0.59336000  0.03184000  1.0
  H  H24  1  0.98856000  0.43690000  0.11443000  1.0
  H  H25  1  0.01145000  0.56310000  0.88557000  1.0
  H  H26  1  0.57439000  0.35868000  0.90545000  1.0
  H  H27  1  0.42561000  0.64131000  0.09455000  1.0
  H  H28  1  0.39715000  0.63313000  0.64916000  1.0
  H  H29  1  0.60285000  0.36687000  0.35084000  1.0
  H  H30  1  0.35095000  0.44277000  0.56501000  1.0
  H  H31  1  0.64905000  0.55722000  0.43499000  1.0
  H  H32  1  0.41144000  0.21258000  0.65623000  1.0
  H  H33  1  0.58856000  0.78742000  0.34378000  1.0
  C  C34  1  0.16080000  0.13628000  0.42787000  1.0
  C  C35  1  0.83920000  0.86372000  0.57213000  1.0
  C  C36  1  0.98994000  0.33360000  0.38632000  1.0
  C  C37  1  0.01006000  0.66640000  0.61368000  1.0
  C  C38  1  0.90065000  0.31197000  0.50305000  1.0
  C  C39  1  0.09935000  0.68803000  0.49695000  1.0
  C  C40  1  0.97868000  0.12327000  0.64387000  1.0
  C  C41  1  0.02132000  0.87673000  0.35613000  1.0
  C  C42  1  0.00589000  0.19864000  0.73616000  1.0
  C  C43  1  0.99411000  0.80135000  0.26384000  1.0
  C  C44  1  0.97114000  0.13171000  0.85675000  1.0
  C  C45  1  0.02886000  0.86829000  0.14325000  1.0
  C  C46  1  0.14387000  0.13019000  0.98543000  1.0
  C  C47  1  0.85613000  0.86981000  0.01458000  1.0
  C  C48  1  0.92537000  0.33226000  0.99072000  1.0
  C  C49  1  0.07464000  0.66774000  0.00928000  1.0
  C  C50  1  0.01277000  0.34529000  0.06246000  1.0
  C  C51  1  0.98724000  0.65471000  0.93754000  1.0
  C  C52  1  0.54044000  0.61474000  0.82103000  1.0
  C  C53  1  0.45955000  0.38526000  0.17896000  1.0
  C  C54  1  0.53240000  0.13329000  0.84108000  1.0
  C  C55  1  0.46760000  0.86671000  0.15892000  1.0
  C  C56  1  0.49292000  0.27270000  0.78793000  1.0
  C  C57  1  0.50708000  0.72730000  0.21207000  1.0
  C  C58  1  0.52508000  0.37761000  0.83105000  1.0
  C  C59  1  0.47492000  0.62238000  0.16895000  1.0
  C  C60  1  0.49320000  0.50657000  0.78007000  1.0
  C  C61  1  0.50680000  0.49343000  0.21993000  1.0
  C  C62  1  0.42510000  0.53125000  0.68645000  1.0
  C  C63  1  0.57490000  0.46874000  0.31354000  1.0
  C  C64  1  0.39729000  0.42541000  0.64088000  1.0
  C  C65  1  0.60270000  0.57459000  0.35912000  1.0
  C  C66  1  0.43138000  0.29659000  0.69099000  1.0
  C  C67  1  0.56862000  0.70341000  0.30901000  1.0
  N  N68  1  0.15123000  0.22338000  0.34049000  1.0
  N  N69  1  0.84877000  0.77662000  0.65951000  1.0
  N  N70  1  0.01089000  0.18571000  0.52787000  1.0
  N  N71  1  0.98911000  0.81429000  0.47213000  1.0
  N  N72  1  0.01046000  0.19507000  0.94290000  1.0
  N  N73  1  0.98954000  0.80493000  0.05710000  1.0
  N  N74  1  0.14849000  0.21878000  0.05853000  1.0
  N  N75  1  0.85151000  0.78122000  0.94148000  1.0
  O  O76  1  0.45375000  0.74310000  0.81123000  1.0
  O  O77  1  0.54624000  0.25690000  0.18876000  1.0
  O  O78  1  0.66867000  0.57294000  0.85996000  1.0
  O  O79  1  0.33132000  0.42707000  0.14004000  1.0
  O  O80  1  0.52322000  0.03653000  0.78672000  1.0
  O  O81  1  0.47678000  0.96347000  0.21328000  1.0
  O  O82  1  0.57757000  0.11683000  0.93365000  1.0
  O  O83  1  0.42244000  0.88317000  0.06635000  1.0
