# generated using pymatgen
data_MnH14C14(N2O)4
_symmetry_space_group_name_H-M   'P 1'
_cell_length_a   7.86534000
_cell_length_b   8.11602000
_cell_length_c   12.87390000
_cell_angle_alpha   81.72560000
_cell_angle_beta   90.00020000
_cell_angle_gamma   89.99980000
_symmetry_Int_Tables_number   1
_chemical_formula_structural   MnH14C14(N2O)4
_chemical_formula_sum   'Mn2 H28 C28 N16 O8'
_cell_volume   813.25383867
_cell_formula_units_Z   2
loop_
 _symmetry_equiv_pos_site_id
 _symmetry_equiv_pos_as_xyz
  1  'x, y, z'
loop_
 _atom_site_type_symbol
 _atom_site_label
 _atom_site_symmetry_multiplicity
 _atom_site_fract_x
 _atom_site_fract_y
 _atom_site_fract_z
 _atom_site_occupancy
  Mn  Mn0  1  0.00295000  0.00470000  0.00113000  1.0
  Mn  Mn1  1  0.50296000  0.49533000  0.99886000  1.0
  H  H2  1  0.36789000  0.91944000  0.04940000  1.0
  H  H3  1  0.86790000  0.58056000  0.95060000  1.0
  H  H4  1  0.62957000  0.07515000  0.95572000  1.0
  H  H5  1  0.12957000  0.42487000  0.04427000  1.0
  H  H6  1  0.58052000  0.97323000  0.18311000  1.0
  H  H7  1  0.08054000  0.52676000  0.81689000  1.0
  H  H8  1  0.41904000  0.02197000  0.82122000  1.0
  H  H9  1  0.91903000  0.47806000  0.17877000  1.0
  H  H10  1  0.17084000  0.15016000  0.36026000  1.0
  H  H11  1  0.67085000  0.34983000  0.63974000  1.0
  H  H12  1  0.83267000  0.85609000  0.64238000  1.0
  H  H13  1  0.33267000  0.64389000  0.35763000  1.0
  H  H14  1  0.97077000  0.07989000  0.22212000  1.0
  H  H15  1  0.47078000  0.42011000  0.77788000  1.0
  H  H16  1  0.03106000  0.92900000  0.78054000  1.0
  H  H17  1  0.53106000  0.57098000  0.21946000  1.0
  H  H18  1  0.84482000  0.22842000  0.39515000  1.0
  H  H19  1  0.34484000  0.27158000  0.60484000  1.0
  H  H20  1  0.16048000  0.77082000  0.60796000  1.0
  H  H21  1  0.66047000  0.72917000  0.39204000  1.0
  H  H22  1  0.89937000  0.00939000  0.42045000  1.0
  H  H23  1  0.39938000  0.49061000  0.57955000  1.0
  H  H24  1  0.10449000  0.98903000  0.57809000  1.0
  H  H25  1  0.60450000  0.51095000  0.42191000  1.0
  H  H26  1  0.74433000  0.09704000  0.49984000  1.0
  H  H27  1  0.24434000  0.40296000  0.50016000  1.0
  H  H28  1  0.26041000  0.89802000  0.50103000  1.0
  H  H29  1  0.76041000  0.60197000  0.49897000  1.0
  C  C30  1  0.32844000  0.97084000  0.11905000  1.0
  C  C31  1  0.82845000  0.52916000  0.88096000  1.0
  C  C32  1  0.67087000  0.02794000  0.88500000  1.0
  C  C33  1  0.17087000  0.47208000  0.11499000  1.0
  C  C34  1  0.44680000  0.00096000  0.19376000  1.0
  C  C35  1  0.94682000  0.49904000  0.80625000  1.0
  C  C36  1  0.55338000  0.99819000  0.80968000  1.0
  C  C37  1  0.05337000  0.50184000  0.19031000  1.0
  C  C38  1  0.39298000  0.07130000  0.28128000  1.0
  C  C39  1  0.89301000  0.42870000  0.71872000  1.0
  C  C40  1  0.60899000  0.93113000  0.72138000  1.0
  C  C41  1  0.10900000  0.56889000  0.27861000  1.0
  C  C42  1  0.21834000  0.09838000  0.29238000  1.0
  C  C43  1  0.71837000  0.40162000  0.70762000  1.0
  C  C44  1  0.78404000  0.90633000  0.71051000  1.0
  C  C45  1  0.28405000  0.59367000  0.28948000  1.0
  C  C46  1  0.10712000  0.06168000  0.21552000  1.0
  C  C47  1  0.60714000  0.43832000  0.78448000  1.0
  C  C48  1  0.89431000  0.94391000  0.78765000  1.0
  C  C49  1  0.39431000  0.55608000  0.21234000  1.0
  C  C50  1  0.51389000  0.12039000  0.35975000  1.0
  C  C51  1  0.01391000  0.37961000  0.64025000  1.0
  C  C52  1  0.48953000  0.88078000  0.64245000  1.0
  C  C53  1  0.98953000  0.61923000  0.35755000  1.0
  C  C54  1  0.79826000  0.10180000  0.42117000  1.0
  C  C55  1  0.29827000  0.39820000  0.57883000  1.0
  C  C56  1  0.20629000  0.89691000  0.57937000  1.0
  C  C57  1  0.70629000  0.60308000  0.42063000  1.0
  N  N58  1  0.17221000  0.13149000  0.91165000  1.0
  N  N59  1  0.67221000  0.36852000  0.08837000  1.0
  N  N60  1  0.81702000  0.83786000  0.11405000  1.0
  N  N61  1  0.31704000  0.66212000  0.88596000  1.0
  N  N62  1  0.27527000  0.22682000  0.93816000  1.0
  N  N63  1  0.77527000  0.27319000  0.06185000  1.0
  N  N64  1  0.71148000  0.76585000  0.07232000  1.0
  N  N65  1  0.21149000  0.73415000  0.92767000  1.0
  N  N66  1  0.88512000  0.18676000  0.03894000  1.0
  N  N67  1  0.38515000  0.31323000  0.96105000  1.0
  N  N68  1  0.09777000  0.79501000  0.96895000  1.0
  N  N69  1  0.59777000  0.70500000  0.03104000  1.0
  N  N70  1  0.16030000  0.00539000  0.12645000  1.0
  N  N71  1  0.66032000  0.49460000  0.87356000  1.0
  N  N72  1  0.83972000  0.99830000  0.87701000  1.0
  N  N73  1  0.33973000  0.50170000  0.12298000  1.0
  O  O74  1  0.47572000  0.20716000  0.42690000  1.0
  O  O75  1  0.97573000  0.29284000  0.57310000  1.0
  O  O76  1  0.52893000  0.79099000  0.57721000  1.0
  O  O77  1  0.02894000  0.70902000  0.42279000  1.0
  O  O78  1  0.67125000  0.05832000  0.34842000  1.0
  O  O79  1  0.17127000  0.44167000  0.65159000  1.0
  O  O80  1  0.33256000  0.94504000  0.65110000  1.0
  O  O81  1  0.83256000  0.55497000  0.34890000  1.0
