# generated using pymatgen
data_H20PbC18(NO2)2
_symmetry_space_group_name_H-M   'P 1'
_cell_length_a   5.26948000
_cell_length_b   5.27445000
_cell_length_c   16.26175164
_cell_angle_alpha   96.04902397
_cell_angle_beta   96.34410976
_cell_angle_gamma   106.44640000
_symmetry_Int_Tables_number   1
_chemical_formula_structural   H20PbC18(NO2)2
_chemical_formula_sum   'H20 Pb1 C18 N2 O4'
_cell_volume   426.37483562
_cell_formula_units_Z   1
loop_
 _symmetry_equiv_pos_site_id
 _symmetry_equiv_pos_as_xyz
  1  'x, y, z'
loop_
 _atom_site_type_symbol
 _atom_site_label
 _atom_site_symmetry_multiplicity
 _atom_site_fract_x
 _atom_site_fract_y
 _atom_site_fract_z
 _atom_site_occupancy
  H  H0  1  0.86874000  0.47286000  0.88115000  1.0
  H  H1  1  0.52907000  0.12935000  0.11905000  1.0
  H  H2  1  0.86384000  0.73911000  0.83691000  1.0
  H  H3  1  0.26322000  0.13326000  0.16333000  1.0
  H  H4  1  0.33760000  0.58624000  0.89968000  1.0
  H  H5  1  0.41573000  0.66112000  0.10027000  1.0
  H  H6  1  0.43676000  0.59336000  0.75524000  1.0
  H  H7  1  0.40941000  0.55925000  0.24464000  1.0
  H  H8  1  0.14344000  0.34173000  0.76664000  1.0
  H  H9  1  0.66150000  0.85226000  0.23346000  1.0
  H  H10  1  0.71990000  0.31668000  0.69342000  1.0
  H  H11  1  0.68738000  0.27418000  0.30592000  1.0
  H  H12  1  0.44757000  0.47792000  0.58730000  1.0
  H  H13  1  0.52898000  0.54658000  0.41216000  1.0
  H  H14  1  0.64426000  0.90789000  0.53594000  1.0
  H  H15  1  0.09954000  0.35056000  0.46379000  1.0
  H  H16  1  0.11662000  0.16958000  0.58866000  1.0
  H  H17  1  0.83689000  0.87914000  0.41195000  1.0
  H  H18  1  0.38761000  0.00804000  0.69467000  1.0
  H  H19  1  0.99580000  0.60796000  0.30586000  1.0
  Pb  Pb20  1  0.97879000  0.02093000  0.00008000  1.0
  C  C21  1  0.42322000  0.98664000  0.87498000  1.0
  C  C22  1  0.01515000  0.57501000  0.12505000  1.0
  C  C23  1  0.24078000  0.69393000  0.85747000  1.0
  C  C24  1  0.30831000  0.75690000  0.14257000  1.0
  C  C25  1  0.23026000  0.55774000  0.76794000  1.0
  C  C26  1  0.44524000  0.76575000  0.23205000  1.0
  C  C27  1  0.07090000  0.65300000  0.70189000  1.0
  C  C28  1  0.35084000  0.92425000  0.29808000  1.0
  C  C29  1  0.80569000  0.50482000  0.67053000  1.0
  C  C30  1  0.49972000  0.18896000  0.32913000  1.0
  C  C31  1  0.65378000  0.59415000  0.61061000  1.0
  C  C32  1  0.41184000  0.34083000  0.38899000  1.0
  C  C33  1  0.76445000  0.83435000  0.58129000  1.0
  C  C34  1  0.17221000  0.23033000  0.41857000  1.0
  C  C35  1  0.02929000  0.98224000  0.61146000  1.0
  C  C36  1  0.02355000  0.96592000  0.38876000  1.0
  C  C37  1  0.18111000  0.89264000  0.67109000  1.0
  C  C38  1  0.11180000  0.81410000  0.32915000  1.0
  N  N39  1  0.97380000  0.67010000  0.88081000  1.0
  N  N40  1  0.33169000  0.02413000  0.11936000  1.0
  O  O41  1  0.35681000  0.15485000  0.92463000  1.0
  O  O42  1  0.84611000  0.64217000  0.07548000  1.0
  O  O43  1  0.63949000  0.04300000  0.84454000  1.0
  O  O44  1  0.95902000  0.35847000  0.15543000  1.0
