# generated using pymatgen
data_AgH7C5N3ClO4
_symmetry_space_group_name_H-M   'P 1'
_cell_length_a   9.07350000
_cell_length_b   10.75817546
_cell_length_c   11.38400000
_cell_angle_alpha   73.35514731
_cell_angle_beta   66.53570000
_cell_angle_gamma   65.07615534
_symmetry_Int_Tables_number   1
_chemical_formula_structural   AgH7C5N3ClO4
_chemical_formula_sum   'Ag4 H28 C20 N12 Cl4 O16'
_cell_volume   914.96778816
_cell_formula_units_Z   4
loop_
 _symmetry_equiv_pos_site_id
 _symmetry_equiv_pos_as_xyz
  1  'x, y, z'
loop_
 _atom_site_type_symbol
 _atom_site_label
 _atom_site_symmetry_multiplicity
 _atom_site_fract_x
 _atom_site_fract_y
 _atom_site_fract_z
 _atom_site_occupancy
  Ag  Ag0  1  0.85925000  0.75007000  0.25000000  1.0
  Ag  Ag1  1  0.14075000  0.24993000  0.75000000  1.0
  Ag  Ag2  1  0.50000000  0.00000000  0.50000000  1.0
  Ag  Ag3  1  0.00000000  0.50000000  0.00000000  1.0
  H  H4  1  0.17340000  0.84381000  0.13922000  1.0
  H  H5  1  0.15601000  0.65629000  0.36095000  1.0
  H  H6  1  0.82660000  0.15619000  0.86078000  1.0
  H  H7  1  0.84399000  0.34371000  0.63906000  1.0
  H  H8  1  0.34443000  0.83009000  0.98934000  1.0
  H  H9  1  0.16355000  0.67005000  0.51081000  1.0
  H  H10  1  0.65558000  0.16990000  0.01066000  1.0
  H  H11  1  0.83645000  0.32995000  0.48919000  1.0
  H  H12  1  0.29253000  0.68161000  0.08162000  1.0
  H  H13  1  0.05560000  0.81855000  0.41842000  1.0
  H  H14  1  0.70747000  0.31839000  0.91838000  1.0
  H  H15  1  0.94440000  0.18145000  0.58158000  1.0
  H  H16  1  0.75104000  0.83755000  0.98013000  1.0
  H  H17  1  0.56846000  0.66255000  0.51992000  1.0
  H  H18  1  0.24896000  0.16245000  0.01987000  1.0
  H  H19  1  0.43154000  0.33745000  0.48008000  1.0
  H  H20  1  0.94629000  0.90195000  0.75865000  1.0
  H  H21  1  0.60689000  0.59803000  0.74138000  1.0
  H  H22  1  0.05371000  0.09805000  0.24134000  1.0
  H  H23  1  0.39312000  0.40197000  0.25863000  1.0
  H  H24  1  0.37208000  0.89479000  0.78108000  1.0
  H  H25  1  0.04797000  0.60521000  0.71891000  1.0
  H  H26  1  0.62791000  0.10522000  0.21892000  1.0
  H  H27  1  0.95203000  0.39479000  0.28109000  1.0
  H  H28  1  0.19690000  0.96262000  0.49442000  1.0
  H  H29  1  0.65412000  0.53730000  0.00554000  1.0
  H  H30  1  0.80310000  0.03738000  0.50558000  1.0
  H  H31  1  0.34588000  0.46270000  0.99446000  1.0
  C  C32  1  0.87808000  0.83780000  0.96063000  1.0
  C  C33  1  0.67625000  0.66233000  0.53941000  1.0
  C  C34  1  0.12192000  0.16220000  0.03937000  1.0
  C  C35  1  0.32375000  0.33767000  0.46059000  1.0
  C  C36  1  0.11389000  0.82278000  0.98428000  1.0
  C  C37  1  0.92065000  0.67743000  0.51580000  1.0
  C  C38  1  0.88612000  0.17721000  0.01572000  1.0
  C  C39  1  0.07935000  0.32257000  0.48420000  1.0
  C  C40  1  0.13020000  0.86307000  0.85295000  1.0
  C  C41  1  0.84610000  0.63700000  0.64710000  1.0
  C  C42  1  0.86980000  0.13693000  0.14704000  1.0
  C  C43  1  0.15391000  0.36300000  0.35291000  1.0
  C  C44  1  0.26973000  0.89634000  0.75240000  1.0
  C  C45  1  0.91854000  0.60362000  0.74759000  1.0
  C  C46  1  0.73027000  0.10366000  0.24760000  1.0
  C  C47  1  0.08146000  0.39638000  0.25241000  1.0
  C  C48  1  0.23807000  0.79368000  0.05147000  1.0
  C  C49  1  0.08288000  0.70651000  0.44866000  1.0
  C  C50  1  0.76193000  0.20632000  0.94853000  1.0
  C  C51  1  0.91712000  0.29349000  0.55134000  1.0
  N  N52  1  0.95615000  0.80827000  0.04886000  1.0
  N  N53  1  0.81293000  0.69197000  0.45120000  1.0
  N  N54  1  0.04385000  0.19173000  0.95114000  1.0
  N  N55  1  0.18707000  0.30803000  0.54880000  1.0
  N  N56  1  0.97939000  0.87060000  0.84197000  1.0
  N  N57  1  0.69185000  0.62946000  0.65806000  1.0
  N  N58  1  0.02061000  0.12940000  0.15803000  1.0
  N  N59  1  0.30815000  0.37054000  0.34194000  1.0
  N  N60  1  0.29208000  0.93238000  0.62917000  1.0
  N  N61  1  0.85380000  0.56750000  0.87081000  1.0
  N  N62  1  0.70792000  0.06762000  0.37083000  1.0
  N  N63  1  0.14620000  0.43250000  0.12919000  1.0
  Cl  Cl64  1  0.39195000  0.94571000  0.24455000  1.0
  Cl  Cl65  1  0.58203000  0.55441000  0.25543000  1.0
  Cl  Cl66  1  0.60805000  0.05429000  0.75545000  1.0
  Cl  Cl67  1  0.41796000  0.44559000  0.74457000  1.0
  O  O68  1  0.16314000  0.93567000  0.59126000  1.0
  O  O69  1  0.69030000  0.56421000  0.90869000  1.0
  O  O70  1  0.83686000  0.06433000  0.40874000  1.0
  O  O71  1  0.30970000  0.43579000  0.09131000  1.0
  O  O72  1  0.21270000  0.01312000  0.33787000  1.0
  O  O73  1  0.56335000  0.48710000  0.16205000  1.0
  O  O74  1  0.78730000  0.98688000  0.66213000  1.0
  O  O75  1  0.43666000  0.51289000  0.83795000  1.0
  O  O76  1  0.50384000  0.86948000  0.32870000  1.0
  O  O77  1  0.70203000  0.63048000  0.17131000  1.0
  O  O78  1  0.49616000  0.13052000  0.67129000  1.0
  O  O79  1  0.29797000  0.36952000  0.82869000  1.0
  O  O80  1  0.44912000  0.06032000  0.15645000  1.0
  O  O81  1  0.66552000  0.43975000  0.34358000  1.0
  O  O82  1  0.55088000  0.93968000  0.84355000  1.0
  O  O83  1  0.33446000  0.56025000  0.65642000  1.0
