# generated using pymatgen
data_CdH10C12(NO2)2
_symmetry_space_group_name_H-M   'P 1'
_cell_length_a   8.28718000
_cell_length_b   8.28717000
_cell_length_c   10.71622181
_cell_angle_alpha   112.72259916
_cell_angle_beta   112.72265713
_cell_angle_gamma   90.00680000
_symmetry_Int_Tables_number   1
_chemical_formula_structural   CdH10C12(NO2)2
_chemical_formula_sum   'Cd2 H20 C24 N4 O8'
_cell_volume   616.43256656
_cell_formula_units_Z   2
loop_
 _symmetry_equiv_pos_site_id
 _symmetry_equiv_pos_as_xyz
  1  'x, y, z'
loop_
 _atom_site_type_symbol
 _atom_site_label
 _atom_site_symmetry_multiplicity
 _atom_site_fract_x
 _atom_site_fract_y
 _atom_site_fract_z
 _atom_site_occupancy
  Cd  Cd0  1  0.75004000  0.24996000  0.50000000  1.0
  Cd  Cd1  1  0.49995000  0.50005000  0.00000000  1.0
  H  H2  1  0.12488000  0.33300000  0.74994000  1.0
  H  H3  1  0.62510000  0.41710000  0.74998000  1.0
  H  H4  1  0.58290000  0.37490000  0.25002000  1.0
  H  H5  1  0.66700000  0.87512000  0.25006000  1.0
  H  H6  1  0.75181000  0.66302000  0.59348000  1.0
  H  H7  1  0.84180000  0.93046000  0.59368000  1.0
  H  H8  1  0.91301000  0.59172000  0.09358000  1.0
  H  H9  1  0.18051000  0.50181000  0.09362000  1.0
  H  H10  1  0.40828000  0.08699000  0.90642000  1.0
  H  H11  1  0.49819000  0.81949000  0.90638000  1.0
  H  H12  1  0.06954000  0.15820000  0.40632000  1.0
  H  H13  1  0.33698000  0.24820000  0.40652000  1.0
  H  H14  1  0.54670000  0.88737000  0.59185000  1.0
  H  H15  1  0.04537000  0.70454000  0.59211000  1.0
  H  H16  1  0.13740000  0.79526000  0.09197000  1.0
  H  H17  1  0.95446000  0.29671000  0.09194000  1.0
  H  H18  1  0.20474000  0.86260000  0.90803000  1.0
  H  H19  1  0.70329000  0.04554000  0.90806000  1.0
  H  H20  1  0.29546000  0.95463000  0.40789000  1.0
  H  H21  1  0.11262000  0.45330000  0.40815000  1.0
  C  C22  1  0.12489000  0.46718000  0.74999000  1.0
  C  C23  1  0.62508000  0.28294000  0.75000000  1.0
  C  C24  1  0.71706000  0.37492000  0.25000000  1.0
  C  C25  1  0.53282000  0.87511000  0.25001000  1.0
  C  C26  1  0.60859000  0.62385000  0.55063000  1.0
  C  C27  1  0.94217000  0.92677000  0.55080000  1.0
  C  C28  1  0.87389000  0.69210000  0.05072000  1.0
  C  C29  1  0.17680000  0.35859000  0.05074000  1.0
  C  C30  1  0.30791000  0.12612000  0.94929000  1.0
  C  C31  1  0.64141000  0.82320000  0.94926000  1.0
  C  C32  1  0.07323000  0.05783000  0.44920000  1.0
  C  C33  1  0.37615000  0.39141000  0.44937000  1.0
  C  C34  1  0.49449000  0.74664000  0.55020000  1.0
  C  C35  1  0.05594000  0.80361000  0.55041000  1.0
  C  C36  1  0.99669000  0.80583000  0.05029000  1.0
  C  C37  1  0.05357000  0.24446000  0.05030000  1.0
  C  C38  1  0.19417000  0.00332000  0.94971000  1.0
  C  C39  1  0.75554000  0.94643000  0.94970000  1.0
  C  C40  1  0.19639000  0.94405000  0.44959000  1.0
  C  C41  1  0.25336000  0.50551000  0.44980000  1.0
  C  C42  1  0.31290000  0.68710000  0.50000000  1.0
  C  C43  1  0.18718000  0.81282000  0.50000000  1.0
  C  C44  1  0.93713000  0.93716000  0.00001000  1.0
  C  C45  1  0.06284000  0.06288000  0.99999000  1.0
  N  N46  1  0.55077000  0.44923000  0.50000000  1.0
  N  N47  1  0.94931000  0.05069000  0.50000000  1.0
  N  N48  1  0.69924000  0.69923000  0.99997000  1.0
  N  N49  1  0.30077000  0.30076000  0.00003000  1.0
  O  O50  1  0.97959000  0.49852000  0.67177000  1.0
  O  O51  1  0.69212000  0.17339000  0.67173000  1.0
  O  O52  1  0.74827000  0.44196000  0.17166000  1.0
  O  O53  1  0.42336000  0.72979000  0.17176000  1.0
  O  O54  1  0.55803000  0.25172000  0.82833000  1.0
  O  O55  1  0.27021000  0.57664000  0.82824000  1.0
  O  O56  1  0.82661000  0.30788000  0.32827000  1.0
  O  O57  1  0.50148000  0.02041000  0.32823000  1.0
