# generated using pymatgen
data_GdH9C11O7
_symmetry_space_group_name_H-M   'P 1'
_cell_length_a   10.37260000
_cell_length_b   10.37270000
_cell_length_c   14.05700000
_cell_angle_alpha   90.00000000
_cell_angle_beta   90.00000000
_cell_angle_gamma   90.00000000
_symmetry_Int_Tables_number   1
_chemical_formula_structural   GdH9C11O7
_chemical_formula_sum   'Gd4 H36 C44 O28'
_cell_volume   1512.41888876
_cell_formula_units_Z   4
loop_
 _symmetry_equiv_pos_site_id
 _symmetry_equiv_pos_as_xyz
  1  'x, y, z'
loop_
 _atom_site_type_symbol
 _atom_site_label
 _atom_site_symmetry_multiplicity
 _atom_site_fract_x
 _atom_site_fract_y
 _atom_site_fract_z
 _atom_site_occupancy
  Gd  Gd0  1  0.13020000  0.12848000  0.16505000  1.0
  Gd  Gd1  1  0.86980000  0.87152000  0.66505000  1.0
  Gd  Gd2  1  0.87152000  0.13020000  0.91505000  1.0
  Gd  Gd3  1  0.12848000  0.86980000  0.41505000  1.0
  H  H4  1  0.23683000  0.36483000  0.08658000  1.0
  H  H5  1  0.76317000  0.63517000  0.58658000  1.0
  H  H6  1  0.63517000  0.23683000  0.83658000  1.0
  H  H7  1  0.36483000  0.76317000  0.33658000  1.0
  H  H8  1  0.89666000  0.00774000  0.30033000  1.0
  H  H9  1  0.10334000  0.99226000  0.80033000  1.0
  H  H10  1  0.99226000  0.89666000  0.05033000  1.0
  H  H11  1  0.00774000  0.10334000  0.55033000  1.0
  H  H12  1  0.53773000  0.07804000  0.15691000  1.0
  H  H13  1  0.46227000  0.92196000  0.65691000  1.0
  H  H14  1  0.92196000  0.53773000  0.90691000  1.0
  H  H15  1  0.07804000  0.46227000  0.40691000  1.0
  H  H16  1  0.53957000  0.98637000  0.45545000  1.0
  H  H17  1  0.46043000  0.01363000  0.95545000  1.0
  H  H18  1  0.01363000  0.53957000  0.20545000  1.0
  H  H19  1  0.98637000  0.46043000  0.70545000  1.0
  H  H20  1  0.40571000  0.32132000  0.98404000  1.0
  H  H21  1  0.59429000  0.67868000  0.48405000  1.0
  H  H22  1  0.67868000  0.40571000  0.73405000  1.0
  H  H23  1  0.32132000  0.59429000  0.23405000  1.0
  H  H24  1  0.44542000  0.18926000  0.05840000  1.0
  H  H25  1  0.55458000  0.81074000  0.55840000  1.0
  H  H26  1  0.81074000  0.44542000  0.80840000  1.0
  H  H27  1  0.18926000  0.55458000  0.30840000  1.0
  H  H28  1  0.60456000  0.36408000  0.08356000  1.0
  H  H29  1  0.39544000  0.63592000  0.58356000  1.0
  H  H30  1  0.63593000  0.60456000  0.83356000  1.0
  H  H31  1  0.36408000  0.39544000  0.33356000  1.0
  H  H32  1  0.51097000  0.34305000  0.18878000  1.0
  H  H33  1  0.48903000  0.65695000  0.68878000  1.0
  H  H34  1  0.65695000  0.51097000  0.93878000  1.0
  H  H35  1  0.34306000  0.48903000  0.43878000  1.0
  H  H36  1  0.47986000  0.47604000  0.11129000  1.0
  H  H37  1  0.52014000  0.52396000  0.61129000  1.0
  H  H38  1  0.52395000  0.47986000  0.86129000  1.0
  H  H39  1  0.47605000  0.52014000  0.36129000  1.0
  C  C40  1  0.79618000  0.95977000  0.47687000  1.0
  C  C41  1  0.20382000  0.04023000  0.97687000  1.0
  C  C42  1  0.04023000  0.79619000  0.22687000  1.0
  C  C43  1  0.95977000  0.20381000  0.72687000  1.0
  C  C44  1  0.72647000  0.99339000  0.38755000  1.0
  C  C45  1  0.27353000  0.00661000  0.88756000  1.0
  C  C46  1  0.00661000  0.72647000  0.13755000  1.0
  C  C47  1  0.99339000  0.27353000  0.63755000  1.0
  C  C48  1  0.79226000  0.01505000  0.30256000  1.0
  C  C49  1  0.20774000  0.98495000  0.80256000  1.0
  C  C50  1  0.98495000  0.79226000  0.05256000  1.0
  C  C51  1  0.01505000  0.20774000  0.55256000  1.0
  C  C52  1  0.72495000  0.04850000  0.22000000  1.0
  C  C53  1  0.27505000  0.95150000  0.72000000  1.0
  C  C54  1  0.95150000  0.72495000  0.97000000  1.0
  C  C55  1  0.04850000  0.27505000  0.47000000  1.0
  C  C56  1  0.59049000  0.05602000  0.22176000  1.0
  C  C57  1  0.40951000  0.94398000  0.72176000  1.0
  C  C58  1  0.94398000  0.59049000  0.97176000  1.0
  C  C59  1  0.05602000  0.40951000  0.47176000  1.0
  C  C60  1  0.52386000  0.03186000  0.30623000  1.0
  C  C61  1  0.47614000  0.96814000  0.80623000  1.0
  C  C62  1  0.96814000  0.52386000  0.05623000  1.0
  C  C63  1  0.03186000  0.47614000  0.55623000  1.0
  C  C64  1  0.59184000  0.00267000  0.38936000  1.0
  C  C65  1  0.40816000  0.99733000  0.88936000  1.0
  C  C66  1  0.99733000  0.59184000  0.13936000  1.0
  C  C67  1  0.00267000  0.40816000  0.63936000  1.0
  C  C68  1  0.79849000  0.07426000  0.13086000  1.0
  C  C69  1  0.20151000  0.92574000  0.63086000  1.0
  C  C70  1  0.92574000  0.79849000  0.88086000  1.0
  C  C71  1  0.07426000  0.20151000  0.38086000  1.0
  C  C72  1  0.37950000  0.03092000  0.30705000  1.0
  C  C73  1  0.62050000  0.96908000  0.80705000  1.0
  C  C74  1  0.96909000  0.37950000  0.05706000  1.0
  C  C75  1  0.03091000  0.62050000  0.55706000  1.0
  C  C76  1  0.41381000  0.29002000  0.05876000  1.0
  C  C77  1  0.58619000  0.70998000  0.55876000  1.0
  C  C78  1  0.70998000  0.41381000  0.80876000  1.0
  C  C79  1  0.29002000  0.58619000  0.30876000  1.0
  C  C80  1  0.50741000  0.37369000  0.11405000  1.0
  C  C81  1  0.49259000  0.62630000  0.61405000  1.0
  C  C82  1  0.62630000  0.50740000  0.86405000  1.0
  C  C83  1  0.37370000  0.49259000  0.36405000  1.0
  O  O84  1  0.74120000  0.98668000  0.55540000  1.0
  O  O85  1  0.25880000  0.01332000  0.05540000  1.0
  O  O86  1  0.01332000  0.74120000  0.30540000  1.0
  O  O87  1  0.98668000  0.25880000  0.80540000  1.0
  O  O88  1  0.90599000  0.90214000  0.47487000  1.0
  O  O89  1  0.09401000  0.09786000  0.97487000  1.0
  O  O90  1  0.09786000  0.90599000  0.22487000  1.0
  O  O91  1  0.90214000  0.09401000  0.72487000  1.0
  O  O92  1  0.92124000  0.07928000  0.13725000  1.0
  O  O93  1  0.07876000  0.92072000  0.63725000  1.0
  O  O94  1  0.92072000  0.92124000  0.88725000  1.0
  O  O95  1  0.07928000  0.07876000  0.38725000  1.0
  O  O96  1  0.73924000  0.08850000  0.05271000  1.0
  O  O97  1  0.26076000  0.91151000  0.55271000  1.0
  O  O98  1  0.91150000  0.73924000  0.80271000  1.0
  O  O99  1  0.08850000  0.26076000  0.30271000  1.0
  O  O100  1  0.32063000  0.10322000  0.24898000  1.0
  O  O101  1  0.67937000  0.89678000  0.74898000  1.0
  O  O102  1  0.89677000  0.32063000  0.99898000  1.0
  O  O103  1  0.10323000  0.67937000  0.49897000  1.0
  O  O104  1  0.32724000  0.95405000  0.36606000  1.0
  O  O105  1  0.67276000  0.04595000  0.86606000  1.0
  O  O106  1  0.04595000  0.32725000  0.11606000  1.0
  O  O107  1  0.95405000  0.67276000  0.61606000  1.0
  O  O108  1  0.28673000  0.28754000  0.10089000  1.0
  O  O109  1  0.71327000  0.71246000  0.60089000  1.0
  O  O110  1  0.71246000  0.28673000  0.85089000  1.0
  O  O111  1  0.28754000  0.71327000  0.35089000  1.0
