# generated using pymatgen
data_CdH54C58S2(N2O)6
_symmetry_space_group_name_H-M   'P 1'
_cell_length_a   9.66803000
_cell_length_b   9.85206000
_cell_length_c   14.69677501
_cell_angle_alpha   82.71422158
_cell_angle_beta   71.56603127
_cell_angle_gamma   75.11480000
_symmetry_Int_Tables_number   1
_chemical_formula_structural   CdH54C58S2(N2O)6
_chemical_formula_sum   'Cd1 H54 C58 S2 N12 O6'
_cell_volume   1281.88562563
_cell_formula_units_Z   1
loop_
 _symmetry_equiv_pos_site_id
 _symmetry_equiv_pos_as_xyz
  1  'x, y, z'
loop_
 _atom_site_type_symbol
 _atom_site_label
 _atom_site_symmetry_multiplicity
 _atom_site_fract_x
 _atom_site_fract_y
 _atom_site_fract_z
 _atom_site_occupancy
  Cd  Cd0  1  0.00000000  0.50000000  0.50000000  1.0
  H  H1  1  0.61553000  0.65091000  0.56720000  1.0
  H  H2  1  0.38448000  0.34908000  0.43280000  1.0
  H  H3  1  0.97291000  0.84867000  0.43293000  1.0
  H  H4  1  0.02709000  0.15134000  0.56707000  1.0
  H  H5  1  0.23967000  0.43972000  0.28318000  1.0
  H  H6  1  0.76033000  0.56027000  0.71682000  1.0
  H  H7  1  0.58785000  0.53641000  0.38990000  1.0
  H  H8  1  0.41214000  0.46357000  0.61010000  1.0
  H  H9  1  0.73115000  0.04667000  0.53217000  1.0
  H  H10  1  0.26885000  0.95333000  0.46783000  1.0
  H  H11  1  0.35175000  0.70752000  0.18094000  1.0
  H  H12  1  0.64825000  0.29250000  0.81906000  1.0
  H  H13  1  0.85911000  0.26858000  0.39602000  1.0
  H  H14  1  0.14088000  0.73142000  0.60399000  1.0
  H  H15  1  0.06892000  0.09634000  0.25423000  1.0
  H  H16  1  0.93106000  0.90366000  0.74577000  1.0
  H  H17  1  0.50884000  0.14306000  0.58926000  1.0
  H  H18  1  0.49116000  0.85694000  0.41074000  1.0
  H  H19  1  0.26165000  0.25016000  0.69172000  1.0
  H  H20  1  0.73834000  0.74983000  0.30829000  1.0
  H  H21  1  0.38125000  0.39602000  0.12143000  1.0
  H  H22  1  0.61875000  0.60398000  0.87857000  1.0
  H  H23  1  0.42410000  0.73065000  0.68598000  1.0
  H  H24  1  0.57590000  0.26935000  0.31402000  1.0
  H  H25  1  0.32349000  0.97986000  0.23056000  1.0
  H  H26  1  0.67650000  0.02014000  0.76944000  1.0
  H  H27  1  0.57373000  0.59526000  0.05174000  1.0
  H  H28  1  0.42629000  0.40477000  0.94825000  1.0
  H  H29  1  0.81070000  0.42871000  0.25945000  1.0
  H  H30  1  0.18929000  0.57128000  0.74055000  1.0
  H  H31  1  0.17560000  0.84049000  0.78949000  1.0
  H  H32  1  0.82440000  0.15950000  0.21051000  1.0
  H  H33  1  0.63039000  0.29094000  0.01069000  1.0
  H  H34  1  0.36961000  0.70907000  0.98931000  1.0
  H  H35  1  0.56823000  0.87771000  0.11995000  1.0
  H  H36  1  0.43177000  0.12229000  0.88005000  1.0
  H  H37  1  0.87918000  0.30941000  0.84803000  1.0
  H  H38  1  0.12081000  0.69058000  0.15197000  1.0
  H  H39  1  0.98880000  0.30756000  0.72428000  1.0
  H  H40  1  0.01120000  0.69243000  0.27572000  1.0
  H  H41  1  0.06640000  0.33313000  0.81280000  1.0
  H  H42  1  0.93361000  0.66686000  0.18719000  1.0
  H  H43  1  0.93955000  0.39654000  0.09281000  1.0
  H  H44  1  0.06045000  0.60347000  0.90718000  1.0
  H  H45  1  0.86433000  0.50336000  0.00466000  1.0
  H  H46  1  0.13566000  0.49664000  0.99534000  1.0
  H  H47  1  0.81909000  0.33873000  0.04493000  1.0
  H  H48  1  0.18091000  0.66127000  0.95507000  1.0
  H  H49  1  0.93646000  0.82961000  0.94843000  1.0
  H  H50  1  0.06353000  0.17039000  0.05158000  1.0
  H  H51  1  0.75015000  0.80353000  0.97901000  1.0
  H  H52  1  0.24984000  0.19647000  0.02099000  1.0
  H  H53  1  0.82388000  0.82313000  0.07104000  1.0
  H  H54  1  0.17611000  0.17686000  0.92896000  1.0
  C  C55  1  0.68058000  0.73023000  0.54344000  1.0
  C  C56  1  0.31943000  0.26977000  0.45656000  1.0
  C  C57  1  0.86156000  0.83714000  0.47518000  1.0
  C  C58  1  0.13844000  0.16288000  0.52482000  1.0
  C  C59  1  0.45591000  0.62585000  0.29332000  1.0
  C  C60  1  0.54409000  0.37415000  0.70668000  1.0
  C  C61  1  0.16133000  0.37385000  0.29292000  1.0
  C  C62  1  0.83866000  0.62615000  0.70709000  1.0
  C  C63  1  0.58493000  0.54862000  0.31564000  1.0
  C  C64  1  0.41506000  0.45137000  0.68436000  1.0
  C  C65  1  0.74270000  0.93647000  0.52380000  1.0
  C  C66  1  0.25729000  0.06354000  0.47621000  1.0
  C  C67  1  0.45151000  0.64350000  0.19812000  1.0
  C  C68  1  0.54850000  0.35651000  0.80187000  1.0
  C  C69  1  0.96873000  0.27960000  0.34997000  1.0
  C  C70  1  0.03126000  0.72040000  0.65004000  1.0
  C  C71  1  0.48353000  0.92936000  0.62872000  1.0
  C  C72  1  0.51647000  0.07064000  0.37129000  1.0
  C  C73  1  0.07138000  0.19262000  0.28145000  1.0
  C  C74  1  0.92861000  0.80738000  0.71855000  1.0
  C  C75  1  0.33525000  0.19426000  0.18099000  1.0
  C  C76  1  0.66474000  0.80575000  0.81901000  1.0
  C  C77  1  0.43680000  0.07554000  0.63276000  1.0
  C  C78  1  0.56321000  0.92445000  0.36724000  1.0
  C  C79  1  0.04738000  0.12036000  0.80902000  1.0
  C  C80  1  0.95262000  0.87963000  0.19098000  1.0
  C  C81  1  0.19745000  0.05383000  0.74815000  1.0
  C  C82  1  0.80255000  0.94616000  0.25185000  1.0
  C  C83  1  0.29558000  0.13605000  0.69143000  1.0
  C  C84  1  0.70442000  0.86394000  0.30858000  1.0
  C  C85  1  0.42267000  0.28221000  0.12022000  1.0
  C  C86  1  0.57733000  0.71779000  0.87978000  1.0
  C  C87  1  0.61749000  0.07713000  0.05584000  1.0
  C  C88  1  0.38251000  0.92287000  0.94416000  1.0
  C  C89  1  0.38871000  0.84481000  0.68601000  1.0
  C  C90  1  0.61130000  0.15518000  0.31399000  1.0
  C  C91  1  0.70697000  0.50155000  0.14655000  1.0
  C  C92  1  0.29303000  0.49846000  0.85345000  1.0
  C  C93  1  0.38856000  0.04839000  0.18064000  1.0
  C  C94  1  0.61144000  0.95161000  0.81936000  1.0
  C  C95  1  0.57649000  0.58083000  0.12594000  1.0
  C  C96  1  0.42353000  0.41918000  0.87405000  1.0
  C  C97  1  0.70973000  0.48811000  0.24198000  1.0
  C  C98  1  0.29027000  0.51188000  0.75802000  1.0
  C  C99  1  0.24843000  0.90646000  0.74479000  1.0
  C  C100  1  0.75158000  0.09353000  0.25521000  1.0
  C  C101  1  0.56190000  0.22381000  0.05868000  1.0
  C  C102  1  0.43810000  0.77619000  0.94133000  1.0
  C  C103  1  0.52828000  0.99152000  0.11845000  1.0
  C  C104  1  0.47172000  0.00848000  0.88155000  1.0
  C  C105  1  0.99153000  0.27673000  0.79837000  1.0
  C  C106  1  0.00846000  0.72326000  0.20163000  1.0
  C  C107  1  0.83945000  0.43185000  0.06829000  1.0
  C  C108  1  0.16055000  0.56815000  0.93171000  1.0
  C  C109  1  0.76448000  0.01433000  0.98989000  1.0
  C  C110  1  0.23552000  0.98567000  0.01011000  1.0
  C  C111  1  0.82310000  0.85817000  0.99724000  1.0
  C  C112  1  0.17690000  0.14183000  0.00276000  1.0
  S  S113  1  0.29206000  0.69731000  0.38623000  1.0
  S  S114  1  0.70793000  0.30269000  0.61377000  1.0
  N  N115  1  0.82189000  0.70877000  0.48808000  1.0
  N  N116  1  0.17813000  0.29124000  0.51192000  1.0
  N  N117  1  0.62754000  0.86773000  0.56805000  1.0
  N  N118  1  0.37245000  0.13227000  0.43196000  1.0
  N  N119  1  0.02650000  0.39193000  0.35672000  1.0
  N  N120  1  0.97349000  0.60807000  0.64329000  1.0
  N  N121  1  0.19417000  0.25334000  0.24564000  1.0
  N  N122  1  0.80582000  0.74667000  0.75436000  1.0
  N  N123  1  0.97237000  0.03621000  0.86910000  1.0
  N  N124  1  0.02763000  0.96378000  0.13090000  1.0
  N  N125  1  0.83485000  0.10013000  0.92812000  1.0
  N  N126  1  0.16515000  0.89987000  0.07188000  1.0
  O  O127  1  0.20089000  0.59113000  0.40162000  1.0
  O  O128  1  0.79911000  0.40887000  0.59837000  1.0
  O  O129  1  0.22141000  0.83250000  0.34803000  1.0
  O  O130  1  0.77860000  0.16750000  0.65196000  1.0
  O  O131  1  0.34032000  0.70548000  0.47013000  1.0
  O  O132  1  0.65967000  0.29452000  0.52987000  1.0
