# generated using pymatgen
data_CdH6C8S2N4O
_symmetry_space_group_name_H-M   'P 1'
_cell_length_a   9.09543000
_cell_length_b   10.53030000
_cell_length_c   12.07170000
_cell_angle_alpha   99.71370000
_cell_angle_beta   92.45550000
_cell_angle_gamma   92.06510000
_symmetry_Int_Tables_number   1
_chemical_formula_structural   CdH6C8S2N4O
_chemical_formula_sum   'Cd4 H24 C32 S8 N16 O4'
_cell_volume   1137.47655119
_cell_formula_units_Z   4
loop_
 _symmetry_equiv_pos_site_id
 _symmetry_equiv_pos_as_xyz
  1  'x, y, z'
loop_
 _atom_site_type_symbol
 _atom_site_label
 _atom_site_symmetry_multiplicity
 _atom_site_fract_x
 _atom_site_fract_y
 _atom_site_fract_z
 _atom_site_occupancy
  Cd  Cd0  1  0.75620000  0.35481000  0.03440000  1.0
  Cd  Cd1  1  0.24380000  0.64519000  0.96560000  1.0
  Cd  Cd2  1  0.75339000  0.83954000  0.47527000  1.0
  Cd  Cd3  1  0.24662000  0.16046000  0.52473000  1.0
  H  H4  1  0.66988000  0.87433000  0.11923000  1.0
  H  H5  1  0.33013000  0.12567000  0.88078000  1.0
  H  H6  1  0.78483000  0.75764000  0.95126000  1.0
  H  H7  1  0.21517000  0.24236000  0.04874000  1.0
  H  H8  1  0.88700000  0.88444000  0.81075000  1.0
  H  H9  1  0.11300000  0.11556000  0.18925000  1.0
  H  H10  1  0.87318000  0.12522000  0.84872000  1.0
  H  H11  1  0.12682000  0.87478000  0.15128000  1.0
  H  H12  1  0.51725000  0.13821000  0.30569000  1.0
  H  H13  1  0.48274000  0.86179000  0.69431000  1.0
  H  H14  1  0.55860000  0.98473000  0.23482000  1.0
  H  H15  1  0.44140000  0.01527000  0.76518000  1.0
  H  H16  1  0.66746000  0.36899000  0.58783000  1.0
  H  H17  1  0.33254000  0.63101000  0.41217000  1.0
  H  H18  1  0.82897000  0.24932000  0.44980000  1.0
  H  H19  1  0.17103000  0.75068000  0.55021000  1.0
  H  H20  1  0.96247000  0.36955000  0.31881000  1.0
  H  H21  1  0.03753000  0.63045000  0.68119000  1.0
  H  H22  1  0.93486000  0.60823000  0.33766000  1.0
  H  H23  1  0.06514000  0.39177000  0.66234000  1.0
  H  H24  1  0.47193000  0.63160000  0.73756000  1.0
  H  H25  1  0.52807000  0.36840000  0.26244000  1.0
  H  H26  1  0.56379000  0.48728000  0.70021000  1.0
  H  H27  1  0.43621000  0.51272000  0.29979000  1.0
  C  C28  1  0.91982000  0.52257000  0.86654000  1.0
  C  C29  1  0.08018000  0.47743000  0.13346000  1.0
  C  C30  1  0.58884000  0.63105000  0.07170000  1.0
  C  C31  1  0.41116000  0.36895000  0.92831000  1.0
  C  C32  1  0.71270000  0.06219000  0.07363000  1.0
  C  C33  1  0.28730000  0.93781000  0.92637000  1.0
  C  C34  1  0.71518000  0.92807000  0.05831000  1.0
  C  C35  1  0.28483000  0.07193000  0.94169000  1.0
  C  C36  1  0.77903000  0.86208000  0.96354000  1.0
  C  C37  1  0.22097000  0.13792000  0.03646000  1.0
  C  C38  1  0.83688000  0.93194000  0.88617000  1.0
  C  C39  1  0.16312000  0.06806000  0.11382000  1.0
  C  C40  1  0.82936000  0.06602000  0.90680000  1.0
  C  C41  1  0.17064000  0.93398000  0.09320000  1.0
  C  C42  1  0.64660000  0.14206000  0.17302000  1.0
  C  C43  1  0.35340000  0.85795000  0.82698000  1.0
  C  C44  1  0.39868000  0.88909000  0.40310000  1.0
  C  C45  1  0.60133000  0.11090000  0.59689000  1.0
  C  C46  1  0.98472000  0.01040000  0.35812000  1.0
  C  C47  1  0.01528000  0.98960000  0.64188000  1.0
  C  C48  1  0.71471000  0.55283000  0.53470000  1.0
  C  C49  1  0.28529000  0.44717000  0.46530000  1.0
  C  C50  1  0.72749000  0.42053000  0.53174000  1.0
  C  C51  1  0.27251000  0.57947000  0.46826000  1.0
  C  C52  1  0.81705000  0.35252000  0.45361000  1.0
  C  C53  1  0.18296000  0.64748000  0.54639000  1.0
  C  C54  1  0.89224000  0.41890000  0.38153000  1.0
  C  C55  1  0.10776000  0.58110000  0.61848000  1.0
  C  C56  1  0.87559000  0.55138000  0.39057000  1.0
  C  C57  1  0.12441000  0.44862000  0.60944000  1.0
  C  C58  1  0.61624000  0.63361000  0.61272000  1.0
  C  C59  1  0.38376000  0.36639000  0.38728000  1.0
  S  S60  1  0.80621000  0.39827000  0.82578000  1.0
  S  S61  1  0.19379000  0.60174000  0.17422000  1.0
  S  S62  1  0.72651000  0.59239000  0.14851000  1.0
  S  S63  1  0.27349000  0.40761000  0.85150000  1.0
  S  S64  1  0.50385000  0.79138000  0.32515000  1.0
  S  S65  1  0.49616000  0.20862000  0.67485000  1.0
  S  S66  1  0.90508000  0.87262000  0.29906000  1.0
  S  S67  1  0.09493000  0.12738000  0.70094000  1.0
  N  N68  1  0.00151000  0.61400000  0.89347000  1.0
  N  N69  1  0.99849000  0.38600000  0.10653000  1.0
  N  N70  1  0.49231000  0.66440000  0.01612000  1.0
  N  N71  1  0.50769000  0.33560000  0.98389000  1.0
  N  N72  1  0.76974000  0.12929000  0.99856000  1.0
  N  N73  1  0.23026000  0.87071000  0.00144000  1.0
  N  N74  1  0.56941000  0.08245000  0.24186000  1.0
  N  N75  1  0.43059000  0.91755000  0.75813000  1.0
  N  N76  1  0.32248000  0.95922000  0.45943000  1.0
  N  N77  1  0.67753000  0.04078000  0.54056000  1.0
  N  N78  1  0.04391000  0.11146000  0.39628000  1.0
  N  N79  1  0.95610000  0.88855000  0.60372000  1.0
  N  N80  1  0.78816000  0.61639000  0.46467000  1.0
  N  N81  1  0.21184000  0.38361000  0.53533000  1.0
  N  N82  1  0.54536000  0.57857000  0.68777000  1.0
  N  N83  1  0.45464000  0.42143000  0.31223000  1.0
  O  O84  1  0.66329000  0.26338000  0.18924000  1.0
  O  O85  1  0.33671000  0.73662000  0.81076000  1.0
  O  O86  1  0.59998000  0.75033000  0.60421000  1.0
  O  O87  1  0.40002000  0.24967000  0.39578000  1.0
