# generated using pymatgen
data_ZnH18C18S2(NO3)4
_symmetry_space_group_name_H-M   'P 1'
_cell_length_a   7.02705000
_cell_length_b   10.37270000
_cell_length_c   15.95400000
_cell_angle_alpha   100.33100000
_cell_angle_beta   90.00000000
_cell_angle_gamma   90.00000000
_symmetry_Int_Tables_number   1
_chemical_formula_structural   ZnH18C18S2(NO3)4
_chemical_formula_sum   'Zn2 H36 C36 S4 N8 O24'
_cell_volume   1144.02637497
_cell_formula_units_Z   2
loop_
 _symmetry_equiv_pos_site_id
 _symmetry_equiv_pos_as_xyz
  1  'x, y, z'
loop_
 _atom_site_type_symbol
 _atom_site_label
 _atom_site_symmetry_multiplicity
 _atom_site_fract_x
 _atom_site_fract_y
 _atom_site_fract_z
 _atom_site_occupancy
  Zn  Zn0  1  0.99999000  0.00000000  0.00000000  1.0
  Zn  Zn1  1  0.50001000  0.00000000  0.50000000  1.0
  H  H2  1  0.13894000  0.75921000  0.07611000  1.0
  H  H3  1  0.63895000  0.24079000  0.42390000  1.0
  H  H4  1  0.86105000  0.24078000  0.92390000  1.0
  H  H5  1  0.36105000  0.75921000  0.57610000  1.0
  H  H6  1  0.29046000  0.54122000  0.02515000  1.0
  H  H7  1  0.79049000  0.45877000  0.47485000  1.0
  H  H8  1  0.70954000  0.45877000  0.97485000  1.0
  H  H9  1  0.20953000  0.54123000  0.52515000  1.0
  H  H10  1  0.40359000  0.48653000  0.87381000  1.0
  H  H11  1  0.90361000  0.51346000  0.62619000  1.0
  H  H12  1  0.59640000  0.51346000  0.12619000  1.0
  H  H13  1  0.09640000  0.48654000  0.37381000  1.0
  H  H14  1  0.18441000  0.86458000  0.83975000  1.0
  H  H15  1  0.68440000  0.13542000  0.66025000  1.0
  H  H16  1  0.81558000  0.13542000  0.16025000  1.0
  H  H17  1  0.31560000  0.86458000  0.33975000  1.0
  H  H18  1  0.52844000  0.88811000  0.77497000  1.0
  H  H19  1  0.02845000  0.11189000  0.72503000  1.0
  H  H20  1  0.47155000  0.11189000  0.22503000  1.0
  H  H21  1  0.97155000  0.88811000  0.27497000  1.0
  H  H22  1  0.82897000  0.96735000  0.73352000  1.0
  H  H23  1  0.32898000  0.03265000  0.76648000  1.0
  H  H24  1  0.17102000  0.03265000  0.26648000  1.0
  H  H25  1  0.67102000  0.96735000  0.23352000  1.0
  H  H26  1  0.93331000  0.80711000  0.71449000  1.0
  H  H27  1  0.43332000  0.19290000  0.78551000  1.0
  H  H28  1  0.06668000  0.19290000  0.28551000  1.0
  H  H29  1  0.56668000  0.80710000  0.21449000  1.0
  H  H30  1  0.64811000  0.65568000  0.67794000  1.0
  H  H31  1  0.14811000  0.34432000  0.82206000  1.0
  H  H32  1  0.35189000  0.34432000  0.32206000  1.0
  H  H33  1  0.85190000  0.65568000  0.17794000  1.0
  H  H34  1  0.75509000  0.65019000  0.84633000  1.0
  H  H35  1  0.25510000  0.34982000  0.65367000  1.0
  H  H36  1  0.24490000  0.34981000  0.15367000  1.0
  H  H37  1  0.74491000  0.65019000  0.34633000  1.0
  C  C38  1  0.18588000  0.73167000  0.01071000  1.0
  C  C39  1  0.68590000  0.26833000  0.48929000  1.0
  C  C40  1  0.81410000  0.26833000  0.98929000  1.0
  C  C41  1  0.31411000  0.73167000  0.51071000  1.0
  C  C42  1  0.27410000  0.61102000  0.98221000  1.0
  C  C43  1  0.77412000  0.38898000  0.51779000  1.0
  C  C44  1  0.72590000  0.38898000  0.01779000  1.0
  C  C45  1  0.22589000  0.61102000  0.48220000  1.0
  C  C46  1  0.33562000  0.58022000  0.89821000  1.0
  C  C47  1  0.83564000  0.41978000  0.60179000  1.0
  C  C48  1  0.66437000  0.41977000  0.10179000  1.0
  C  C49  1  0.16438000  0.58023000  0.39821000  1.0
  C  C50  1  0.30270000  0.67309000  0.84633000  1.0
  C  C51  1  0.80270000  0.32691000  0.65368000  1.0
  C  C52  1  0.69729000  0.32691000  0.15367000  1.0
  C  C53  1  0.19730000  0.67309000  0.34632000  1.0
  C  C54  1  0.21227000  0.79087000  0.87881000  1.0
  C  C55  1  0.71226000  0.20913000  0.62119000  1.0
  C  C56  1  0.78773000  0.20913000  0.12119000  1.0
  C  C57  1  0.28775000  0.79088000  0.37881000  1.0
  C  C58  1  0.65047000  0.82082000  0.77188000  1.0
  C  C59  1  0.15048000  0.17918000  0.72812000  1.0
  C  C60  1  0.34953000  0.17918000  0.22812000  1.0
  C  C61  1  0.84953000  0.82082000  0.27188000  1.0
  C  C62  1  0.73680000  0.83705000  0.86072000  1.0
  C  C63  1  0.23681000  0.16295000  0.63928000  1.0
  C  C64  1  0.26319000  0.16294000  0.13928000  1.0
  C  C65  1  0.76320000  0.83705000  0.36072000  1.0
  C  C66  1  0.80133000  0.86291000  0.71165000  1.0
  C  C67  1  0.30133000  0.13709000  0.78835000  1.0
  C  C68  1  0.19867000  0.13709000  0.28834000  1.0
  C  C69  1  0.69867000  0.86291000  0.21165000  1.0
  C  C70  1  0.72171000  0.83406000  0.62086000  1.0
  C  C71  1  0.22172000  0.16596000  0.87914000  1.0
  C  C72  1  0.27828000  0.16595000  0.37914000  1.0
  C  C73  1  0.77828000  0.83404000  0.12086000  1.0
  S  S74  1  0.36607000  0.64855000  0.73782000  1.0
  S  S75  1  0.86607000  0.35143000  0.76218000  1.0
  S  S76  1  0.63393000  0.35143000  0.26218000  1.0
  S  S77  1  0.13394000  0.64856000  0.23782000  1.0
  N  N78  1  0.15562000  0.81999000  0.96009000  1.0
  N  N79  1  0.65562000  0.18001000  0.53992000  1.0
  N  N80  1  0.84437000  0.18000000  0.03991000  1.0
  N  N81  1  0.34438000  0.81999000  0.46009000  1.0
  N  N82  1  0.59473000  0.68424000  0.74029000  1.0
  N  N83  1  0.09474000  0.31576000  0.75971000  1.0
  N  N84  1  0.40527000  0.31576000  0.25971000  1.0
  N  N85  1  0.90527000  0.68424000  0.24029000  1.0
  O  O86  1  0.77992000  0.72948000  0.89026000  1.0
  O  O87  1  0.27993000  0.27052000  0.60975000  1.0
  O  O88  1  0.22007000  0.27052000  0.10975000  1.0
  O  O89  1  0.72007000  0.72948000  0.39026000  1.0
  O  O90  1  0.77275000  0.94737000  0.90092000  1.0
  O  O91  1  0.27276000  0.05263000  0.59908000  1.0
  O  O92  1  0.22723000  0.05263000  0.09908000  1.0
  O  O93  1  0.72725000  0.94737000  0.40092000  1.0
  O  O94  1  0.65503000  0.93263000  0.59298000  1.0
  O  O95  1  0.15501000  0.06737000  0.90702000  1.0
  O  O96  1  0.34499000  0.06738000  0.40702000  1.0
  O  O97  1  0.84497000  0.93262000  0.09297000  1.0
  O  O98  1  0.71815000  0.71524000  0.58508000  1.0
  O  O99  1  0.21816000  0.28476000  0.91492000  1.0
  O  O100  1  0.28185000  0.28477000  0.41492000  1.0
  O  O101  1  0.78184000  0.71523000  0.08508000  1.0
  O  O102  1  0.25350000  0.74156000  0.70095000  1.0
  O  O103  1  0.75351000  0.25843000  0.79905000  1.0
  O  O104  1  0.74649000  0.25843000  0.29905000  1.0
  O  O105  1  0.24650000  0.74158000  0.20096000  1.0
  O  O106  1  0.35722000  0.51139000  0.69921000  1.0
  O  O107  1  0.85720000  0.48861000  0.80080000  1.0
  O  O108  1  0.64280000  0.48861000  0.30079000  1.0
  O  O109  1  0.14281000  0.51140000  0.19920000  1.0
