# generated using pymatgen
data_Al2H8C19O11
_symmetry_space_group_name_H-M   'P 1'
_cell_length_a   6.70287000
_cell_length_b   18.42340000
_cell_length_c   20.60340000
_cell_angle_alpha   107.87900000
_cell_angle_beta   89.63540000
_cell_angle_gamma   89.93230000
_symmetry_Int_Tables_number   1
_chemical_formula_structural   Al2H8C19O11
_chemical_formula_sum   'Al4 H16 C38 O22'
_cell_volume   2421.37236859
_cell_formula_units_Z   2
loop_
 _symmetry_equiv_pos_site_id
 _symmetry_equiv_pos_as_xyz
  1  'x, y, z'
loop_
 _atom_site_type_symbol
 _atom_site_label
 _atom_site_symmetry_multiplicity
 _atom_site_fract_x
 _atom_site_fract_y
 _atom_site_fract_z
 _atom_site_occupancy
  Al  Al0  1  0.13705000  0.49943000  0.49886000  1.0
  Al  Al1  1  0.63720000  0.49901000  0.49861000  1.0
  Al  Al2  1  0.65311000  0.99943000  0.99828000  1.0
  Al  Al3  1  0.15283000  0.99985000  0.99915000  1.0
  H  H4  1  0.20705000  0.30990000  0.72767000  1.0
  H  H5  1  0.20748000  0.22639000  0.80136000  1.0
  H  H6  1  0.71146000  0.71038000  0.29017000  1.0
  H  H7  1  0.71614000  0.79102000  0.21232000  1.0
  H  H8  1  0.07372000  0.78961000  0.20877000  1.0
  H  H9  1  0.06909000  0.70896000  0.28663000  1.0
  H  H10  1  0.59292000  0.08039000  0.79467000  1.0
  H  H11  1  0.59210000  0.06600000  0.70419000  1.0
  H  H12  1  0.36270000  0.08463000  0.75221000  1.0
  H  H13  1  0.47233000  0.16039000  0.62834000  1.0
  H  H14  1  0.60387000  0.21651000  0.58385000  1.0
  H  H15  1  0.34661000  0.23637000  0.60750000  1.0
  H  H16  1  0.38701000  0.40638000  0.50293000  1.0
  H  H17  1  0.88564000  0.59844000  0.51222000  1.0
  H  H18  1  0.40261000  0.09836000  0.01077000  1.0
  H  H19  1  0.90378000  0.90247000  0.99292000  1.0
  C  C20  1  0.38600000  0.60503000  0.60364000  1.0
  C  C21  1  0.38770000  0.57584000  0.42256000  1.0
  C  C22  1  0.88909000  0.39470000  0.39375000  1.0
  C  C23  1  0.88668000  0.42220000  0.57499000  1.0
  C  C24  1  0.07025000  0.23512000  0.77674000  1.0
  C  C25  1  0.89402000  0.19835000  0.78797000  1.0
  C  C26  1  0.71447000  0.20883000  0.75559000  1.0
  C  C27  1  0.71438000  0.25757000  0.71466000  1.0
  C  C28  1  0.89201000  0.29379000  0.70409000  1.0
  C  C29  1  0.07007000  0.28207000  0.73577000  1.0
  C  C30  1  0.89892000  0.15513000  0.83392000  1.0
  C  C31  1  0.88912000  0.33964000  0.66029000  1.0
  C  C32  1  0.88707000  0.37802000  0.62154000  1.0
  C  C33  1  0.90652000  0.11920000  0.87466000  1.0
  C  C34  1  0.89676000  0.16675000  0.16680000  1.0
  C  C35  1  0.89427000  0.22031000  0.21952000  1.0
  C  C36  1  0.89213000  0.27937000  0.27777000  1.0
  C  C37  1  0.89088000  0.33291000  0.33051000  1.0
  C  C38  1  0.38677000  0.66673000  0.66695000  1.0
  C  C39  1  0.39175000  0.72007000  0.71979000  1.0
  C  C40  1  0.39728000  0.77898000  0.77809000  1.0
  C  C41  1  0.40284000  0.83244000  0.83083000  1.0
  C  C42  1  0.57543000  0.77283000  0.22893000  1.0
  C  C43  1  0.39523000  0.79555000  0.20562000  1.0
  C  C44  1  0.21233000  0.77207000  0.22697000  1.0
  C  C45  1  0.20979000  0.72735000  0.27018000  1.0
  C  C46  1  0.39004000  0.70472000  0.29352000  1.0
  C  C47  1  0.57289000  0.72815000  0.27214000  1.0
  C  C48  1  0.39818000  0.84069000  0.16107000  1.0
  C  C49  1  0.38821000  0.65936000  0.33786000  1.0
  C  C50  1  0.38828000  0.62058000  0.37627000  1.0
  C  C51  1  0.40095000  0.87903000  0.12228000  1.0
  C  C52  1  0.40205000  0.92283000  0.07519000  1.0
  C  C53  1  0.40420000  0.89436000  0.89396000  1.0
  C  C54  1  0.90537000  0.07607000  0.92210000  1.0
  C  C55  1  0.89982000  0.10497000  0.10360000  1.0
  C  C56  1  0.52271000  0.09709000  0.75348000  1.0
  C  C57  1  0.48921000  0.21756000  0.62265000  1.0
  O  O58  1  0.55732000  0.55901000  0.44160000  1.0
  O  O59  1  0.21578000  0.58217000  0.57863000  1.0
  O  O60  1  0.05702000  0.44034000  0.55678000  1.0
  O  O61  1  0.21737000  0.55819000  0.44086000  1.0
  O  O62  1  0.05848000  0.41796000  0.41913000  1.0
  O  O63  1  0.55676000  0.58078000  0.57895000  1.0
  O  O64  1  0.38722000  0.45439000  0.49278000  1.0
  O  O65  1  0.71798000  0.41866000  0.41815000  1.0
  O  O66  1  0.71680000  0.43829000  0.55527000  1.0
  O  O67  1  0.88664000  0.54413000  0.50583000  1.0
  O  O68  1  0.23392000  0.91850000  0.91912000  1.0
  O  O69  1  0.57239000  0.93957000  0.05604000  1.0
  O  O70  1  0.73068000  0.08146000  0.07796000  1.0
  O  O71  1  0.57451000  0.91783000  0.91843000  1.0
  O  O72  1  0.73431000  0.05826000  0.94002000  1.0
  O  O73  1  0.23203000  0.93979000  0.05640000  1.0
  O  O74  1  0.40296000  0.04430000  0.00557000  1.0
  O  O75  1  0.07449000  0.06005000  0.94224000  1.0
  O  O76  1  0.07130000  0.08098000  0.07943000  1.0
  O  O77  1  0.90326000  0.95474000  0.99207000  1.0
  O  O78  1  0.53506000  0.17822000  0.76445000  1.0
  O  O79  1  0.54008000  0.27259000  0.68674000  1.0
