# generated using pymatgen
data_HgH24C28Br2N4O3
_symmetry_space_group_name_H-M   'P 1'
_cell_length_a   8.66651000
_cell_length_b   12.94870000
_cell_length_c   12.97360000
_cell_angle_alpha   95.09450000
_cell_angle_beta   99.08560000
_cell_angle_gamma   98.06630000
_symmetry_Int_Tables_number   1
_chemical_formula_structural   HgH24C28Br2N4O3
_chemical_formula_sum   'Hg2 H48 C56 Br4 N8 O6'
_cell_volume   1414.21180494
_cell_formula_units_Z   2
loop_
 _symmetry_equiv_pos_site_id
 _symmetry_equiv_pos_as_xyz
  1  'x, y, z'
loop_
 _atom_site_type_symbol
 _atom_site_label
 _atom_site_symmetry_multiplicity
 _atom_site_fract_x
 _atom_site_fract_y
 _atom_site_fract_z
 _atom_site_occupancy
  Hg  Hg0  1  0.44322000  0.37147000  0.35991000  1.0
  Hg  Hg1  1  0.55678000  0.62852000  0.64009000  1.0
  H  H2  1  0.81761000  0.42623000  0.43704000  1.0
  H  H3  1  0.18239000  0.57377000  0.56296000  1.0
  H  H4  1  0.04108000  0.41781000  0.58305000  1.0
  H  H5  1  0.95892000  0.58219000  0.41695000  1.0
  H  H6  1  0.69533000  0.27740000  0.75545000  1.0
  H  H7  1  0.30466000  0.72260000  0.24455000  1.0
  H  H8  1  0.48466000  0.29545000  0.60379000  1.0
  H  H9  1  0.51533000  0.70455000  0.39621000  1.0
  H  H10  1  0.13176000  0.37028000  0.75570000  1.0
  H  H11  1  0.86824000  0.62972000  0.24430000  1.0
  H  H12  1  0.99733000  0.38700000  0.84331000  1.0
  H  H13  1  0.00267000  0.61300000  0.15669000  1.0
  H  H14  1  0.16633000  0.26327000  0.63757000  1.0
  H  H15  1  0.83367000  0.73673000  0.36244000  1.0
  H  H16  1  0.24162000  0.12177000  0.52972000  1.0
  H  H17  1  0.75837000  0.87824000  0.47027000  1.0
  H  H18  1  0.02536000  0.89438000  0.70638000  1.0
  H  H19  1  0.97464000  0.10562000  0.29362000  1.0
  H  H20  1  0.17122000  0.92217000  0.46113000  1.0
  H  H21  1  0.82878000  0.07784000  0.53887000  1.0
  H  H22  1  0.11987000  0.83336000  0.55125000  1.0
  H  H23  1  0.88012000  0.16664000  0.44874000  1.0
  H  H24  1  0.31487000  0.90370000  0.56866000  1.0
  H  H25  1  0.68512000  0.09630000  0.43134000  1.0
  H  H26  1  0.87582000  0.73836000  0.85349000  1.0
  H  H27  1  0.12418000  0.26164000  0.14650000  1.0
  H  H28  1  0.62368000  0.54100000  0.04127000  1.0
  H  H29  1  0.37633000  0.45900000  0.95873000  1.0
  H  H30  1  0.53774000  0.69408000  0.12636000  1.0
  H  H31  1  0.46227000  0.30592000  0.87365000  1.0
  H  H32  1  0.81483000  0.54133000  0.80596000  1.0
  H  H33  1  0.18517000  0.45867000  0.19404000  1.0
  H  H34  1  0.73307000  0.46163000  0.89484000  1.0
  H  H35  1  0.26693000  0.53837000  0.10516000  1.0
  H  H36  1  0.93177000  0.52764000  0.92737000  1.0
  H  H37  1  0.06823000  0.47236000  0.07263000  1.0
  H  H38  1  0.58015000  0.84559000  0.22740000  1.0
  H  H39  1  0.41985000  0.15440000  0.77260000  1.0
  H  H40  1  0.40496000  0.84651000  0.13218000  1.0
  H  H41  1  0.59503000  0.15349000  0.86782000  1.0
  H  H42  1  0.66463000  0.07763000  0.11227000  1.0
  H  H43  1  0.33537000  0.92237000  0.88774000  1.0
  H  H44  1  0.63171000  0.25662000  0.19237000  1.0
  H  H45  1  0.36829000  0.74338000  0.80763000  1.0
  H  H46  1  0.33360000  0.12709000  0.38269000  1.0
  H  H47  1  0.66640000  0.87290000  0.61731000  1.0
  H  H48  1  0.36201000  0.94422000  0.31740000  1.0
  H  H49  1  0.63799000  0.05578000  0.68259000  1.0
  C  C50  1  0.79589000  0.39484000  0.50970000  1.0
  C  C51  1  0.20411000  0.60516000  0.49030000  1.0
  C  C52  1  0.91938000  0.39003000  0.59116000  1.0
  C  C53  1  0.08062000  0.60997000  0.40884000  1.0
  C  C54  1  0.88532000  0.34754000  0.68159000  1.0
  C  C55  1  0.11468000  0.65246000  0.31841000  1.0
  C  C56  1  0.72662000  0.31130000  0.68614000  1.0
  C  C57  1  0.27337000  0.68871000  0.31386000  1.0
  C  C58  1  0.60983000  0.32009000  0.60207000  1.0
  C  C59  1  0.39016000  0.67991000  0.39793000  1.0
  C  C60  1  0.01418000  0.34033000  0.77230000  1.0
  C  C61  1  0.98582000  0.65967000  0.22770000  1.0
  C  C62  1  0.05247000  0.16128000  0.73683000  1.0
  C  C63  1  0.94753000  0.83872000  0.26317000  1.0
  C  C64  1  0.13625000  0.18313000  0.65540000  1.0
  C  C65  1  0.86375000  0.81687000  0.34460000  1.0
  C  C66  1  0.17982000  0.10178000  0.59402000  1.0
  C  C67  1  0.82018000  0.89822000  0.40598000  1.0
  C  C68  1  0.14168000  0.99654000  0.61077000  1.0
  C  C69  1  0.85832000  0.00346000  0.38923000  1.0
  C  C70  1  0.05816000  0.97554000  0.69198000  1.0
  C  C71  1  0.94184000  0.02447000  0.30802000  1.0
  C  C72  1  0.01280000  0.05557000  0.75596000  1.0
  C  C73  1  0.98720000  0.94444000  0.24404000  1.0
  C  C74  1  0.18926000  0.90930000  0.54441000  1.0
  C  C75  1  0.81074000  0.09071000  0.45559000  1.0
  C  C76  1  0.92561000  0.02740000  0.83860000  1.0
  C  C77  1  0.07439000  0.97260000  0.16140000  1.0
  C  C78  1  0.80996000  0.92010000  0.93151000  1.0
  C  C79  1  0.19004000  0.07990000  0.06849000  1.0
  C  C80  1  0.75686000  0.81809000  0.96224000  1.0
  C  C81  1  0.24314000  0.18191000  0.03776000  1.0
  C  C82  1  0.80219000  0.72848000  0.91377000  1.0
  C  C83  1  0.19781000  0.27153000  0.08623000  1.0
  C  C84  1  0.75624000  0.62823000  0.94059000  1.0
  C  C85  1  0.24376000  0.37177000  0.05941000  1.0
  C  C86  1  0.66064000  0.61821000  0.01774000  1.0
  C  C87  1  0.33936000  0.38179000  0.98226000  1.0
  C  C88  1  0.61174000  0.70528000  0.06656000  1.0
  C  C89  1  0.38826000  0.29472000  0.93344000  1.0
  C  C90  1  0.65962000  0.80574000  0.03983000  1.0
  C  C91  1  0.34038000  0.19426000  0.96017000  1.0
  C  C92  1  0.81123000  0.53460000  0.88936000  1.0
  C  C93  1  0.18877000  0.46540000  0.11064000  1.0
  C  C94  1  0.52574000  0.88800000  0.16448000  1.0
  C  C95  1  0.47425000  0.11199000  0.83552000  1.0
  C  C96  1  0.51577000  0.99718000  0.20905000  1.0
  C  C97  1  0.48422000  0.00282000  0.79095000  1.0
  C  C98  1  0.59313000  0.08607000  0.17377000  1.0
  C  C99  1  0.40687000  0.91393000  0.82623000  1.0
  C  C100  1  0.57442000  0.18471000  0.21741000  1.0
  C  C101  1  0.42557000  0.81529000  0.78259000  1.0
  C  C102  1  0.40934000  0.11253000  0.32497000  1.0
  C  C103  1  0.59066000  0.88747000  0.67503000  1.0
  C  C104  1  0.42423000  0.01124000  0.28740000  1.0
  C  C105  1  0.57577000  0.98876000  0.71259000  1.0
  Br  Br106  1  0.61259000  0.49693000  0.26746000  1.0
  Br  Br107  1  0.38741000  0.50306000  0.73254000  1.0
  Br  Br108  1  0.17331000  0.31907000  0.40881000  1.0
  Br  Br109  1  0.82669000  0.68093000  0.59119000  1.0
  N  N110  1  0.86473000  0.08437000  0.90618000  1.0
  N  N111  1  0.13527000  0.91563000  0.09382000  1.0
  N  N112  1  0.79068000  0.01539000  0.96611000  1.0
  N  N113  1  0.20932000  0.98461000  0.03389000  1.0
  N  N114  1  0.48318000  0.19780000  0.29080000  1.0
  N  N115  1  0.51682000  0.80219000  0.70920000  1.0
  N  N116  1  0.64419000  0.36116000  0.51516000  1.0
  N  N117  1  0.35580000  0.63884000  0.48484000  1.0
  O  O118  1  0.89571000  0.92257000  0.85096000  1.0
  O  O119  1  0.10429000  0.07744000  0.14904000  1.0
  O  O120  1  0.61958000  0.89488000  0.08411000  1.0
  O  O121  1  0.38042000  0.10512000  0.91589000  1.0
  O  O122  1  0.00537000  0.23545000  0.80097000  1.0
  O  O123  1  0.99463000  0.76455000  0.19903000  1.0
