# generated using pymatgen
data_ZnH19C22N5O4
_symmetry_space_group_name_H-M   'P 1'
_cell_length_a   11.53790000
_cell_length_b   11.85300000
_cell_length_c   14.22700000
_cell_angle_alpha   112.47000000
_cell_angle_beta   90.00000000
_cell_angle_gamma   119.12400000
_symmetry_Int_Tables_number   1
_chemical_formula_structural   ZnH19C22N5O4
_chemical_formula_sum   'Zn2 H38 C44 N10 O8'
_cell_volume   1528.36431744
_cell_formula_units_Z   2
loop_
 _symmetry_equiv_pos_site_id
 _symmetry_equiv_pos_as_xyz
  1  'x, y, z'
loop_
 _atom_site_type_symbol
 _atom_site_label
 _atom_site_symmetry_multiplicity
 _atom_site_fract_x
 _atom_site_fract_y
 _atom_site_fract_z
 _atom_site_occupancy
  Zn  Zn0  1  0.37271000  0.71691000  0.75720000  1.0
  Zn  Zn1  1  0.34420000  0.71691000  0.25720000  1.0
  H  H2  1  0.90783000  0.44427000  0.15939000  1.0
  H  H3  1  0.53644000  0.44427000  0.65939000  1.0
  H  H4  1  0.04950000  0.18514000  0.95996000  1.0
  H  H5  1  0.13564000  0.18514000  0.45995000  1.0
  H  H6  1  0.80709000  0.99713000  0.85648000  1.0
  H  H7  1  0.19005000  0.99713000  0.35648000  1.0
  H  H8  1  0.14771000  0.54618000  0.54191000  1.0
  H  H9  1  0.39847000  0.54618000  0.04191000  1.0
  H  H10  1  0.42471000  0.98940000  0.72341000  1.0
  H  H11  1  0.56469000  0.98940000  0.22341000  1.0
  H  H12  1  0.27011000  0.95150000  0.55044000  1.0
  H  H13  1  0.68139000  0.95151000  0.05044000  1.0
  H  H14  1  0.10823000  0.70475000  0.37242000  1.0
  H  H15  1  0.59652000  0.70476000  0.87243000  1.0
  H  H16  1  0.03031000  0.54564000  0.39045000  1.0
  H  H17  1  0.51533000  0.54564000  0.89045000  1.0
  H  H18  1  0.86055000  0.50878000  0.50649000  1.0
  H  H19  1  0.64824000  0.50879000  0.00649000  1.0
  H  H20  1  0.68910000  0.56298000  0.57847000  1.0
  H  H21  1  0.87387000  0.56298000  0.07846000  1.0
  H  H22  1  0.85546000  0.92605000  0.50684000  1.0
  H  H23  1  0.07059000  0.92605000  0.00684000  1.0
  H  H24  1  0.02770000  0.87248000  0.43508000  1.0
  H  H25  1  0.84479000  0.87249000  0.93507000  1.0
  H  H26  1  0.60886000  0.72901000  0.64150000  1.0
  H  H27  1  0.12015000  0.72901000  0.14150000  1.0
  H  H28  1  0.68513000  0.88858000  0.62401000  1.0
  H  H29  1  0.20345000  0.88858000  0.12401000  1.0
  H  H30  1  0.56701000  0.88684000  0.47238000  1.0
  H  H31  1  0.31984000  0.88685000  0.97238000  1.0
  H  H32  1  0.29351000  0.44351000  0.28978000  1.0
  H  H33  1  0.15001000  0.44352000  0.78977000  1.0
  H  H34  1  0.44831000  0.48214000  0.46310000  1.0
  H  H35  1  0.03383000  0.48214000  0.96310000  1.0
  H  H36  1  0.55080000  0.18806000  0.01701000  1.0
  H  H37  1  0.63726000  0.18806000  0.51701000  1.0
  H  H38  1  0.66370000  0.34803000  0.12988000  1.0
  H  H39  1  0.68433000  0.34803000  0.62988000  1.0
  C  C40  1  0.58030000  0.99584000  0.88914000  1.0
  C  C41  1  0.41555000  0.99584000  0.38915000  1.0
  C  C42  1  0.72171000  0.11458000  0.94845000  1.0
  C  C43  1  0.39287000  0.11458000  0.44845000  1.0
  C  C44  1  0.74855000  0.24377000  0.03408000  1.0
  C  C45  1  0.49522000  0.24376000  0.53408000  1.0
  C  C46  1  0.88430000  0.34546000  0.09237000  1.0
  C  C47  1  0.46116000  0.34546000  0.59237000  1.0
  C  C48  1  0.99074000  0.32455000  0.06588000  1.0
  C  C49  1  0.33381000  0.32455000  0.56587000  1.0
  C  C50  1  0.96452000  0.19866000  0.97997000  1.0
  C  C51  1  0.23414000  0.19866000  0.47996000  1.0
  C  C52  1  0.83131000  0.09632000  0.92324000  1.0
  C  C53  1  0.26501000  0.09631000  0.42323000  1.0
  C  C54  1  0.13496000  0.44020000  0.12573000  1.0
  C  C55  1  0.30525000  0.44020000  0.62572000  1.0
  C  C56  1  0.20231000  0.66152000  0.56762000  1.0
  C  C57  1  0.45921000  0.66152000  0.06762000  1.0
  C  C58  1  0.34512000  0.89226000  0.65895000  1.0
  C  C59  1  0.54714000  0.89226000  0.15895000  1.0
  C  C60  1  0.26923000  0.87494000  0.57474000  1.0
  C  C61  1  0.60570000  0.87494000  0.07474000  1.0
  C  C62  1  0.06728000  0.66073000  0.42830000  1.0
  C  C63  1  0.59345000  0.66073000  0.92830000  1.0
  C  C64  1  0.95600000  0.68693000  0.46536000  1.0
  C  C65  1  0.73094000  0.68693000  0.96536000  1.0
  C  C66  1  0.86033000  0.60077000  0.50643000  1.0
  C  C67  1  0.74044000  0.60077000  0.00643000  1.0
  C  C68  1  0.76411000  0.63163000  0.54771000  1.0
  C  C69  1  0.86752000  0.63164000  0.04771000  1.0
  C  C70  1  0.76112000  0.74871000  0.54866000  1.0
  C  C71  1  0.98759000  0.74872000  0.04865000  1.0
  C  C72  1  0.85647000  0.83459000  0.50726000  1.0
  C  C73  1  0.97811000  0.83459000  0.00726000  1.0
  C  C74  1  0.95291000  0.80389000  0.46604000  1.0
  C  C75  1  0.85098000  0.80389000  0.96604000  1.0
  C  C76  1  0.64936000  0.77380000  0.58592000  1.0
  C  C77  1  0.12444000  0.77380000  0.08592000  1.0
  C  C78  1  0.51344000  0.77168000  0.44664000  1.0
  C  C79  1  0.25824000  0.77168000  0.94664000  1.0
  C  C80  1  0.37246000  0.54076000  0.35457000  1.0
  C  C81  1  0.16830000  0.54077000  0.85457000  1.0
  C  C82  1  0.44851000  0.55848000  0.43893000  1.0
  C  C83  1  0.10997000  0.55849000  0.93892000  1.0
  N  N84  1  0.30234000  0.75827000  0.65356000  1.0
  N  N85  1  0.45594000  0.75827000  0.15356000  1.0
  N  N86  1  0.18004000  0.72859000  0.51770000  1.0
  N  N87  1  0.54855000  0.72859000  0.01770000  1.0
  N  N88  1  0.41407000  0.67472000  0.36037000  1.0
  N  N89  1  0.26065000  0.67472000  0.86037000  1.0
  N  N90  1  0.53646000  0.70499000  0.49643000  1.0
  N  N91  1  0.16853000  0.70499000  0.99643000  1.0
  N  N92  1  0.64744000  0.27110000  0.05856000  1.0
  N  N93  1  0.62366000  0.27111000  0.55856000  1.0
  O  O94  1  0.48017000  0.01237000  0.90369000  1.0
  O  O95  1  0.53221000  0.01238000  0.40369000  1.0
  O  O96  1  0.56634000  0.87527000  0.82444000  1.0
  O  O97  1  0.30893000  0.87526000  0.32444000  1.0
  O  O98  1  0.15065000  0.56214000  0.19044000  1.0
  O  O99  1  0.41148000  0.56213000  0.69043000  1.0
  O  O100  1  0.23010000  0.41752000  0.11051000  1.0
  O  O101  1  0.18741000  0.41751000  0.61050000  1.0
