# generated using pymatgen
data_ZnH27C32N2ClO4
_symmetry_space_group_name_H-M   'P 1'
_cell_length_a   9.95627000
_cell_length_b   10.31950000
_cell_length_c   16.14200000
_cell_angle_alpha   81.09250000
_cell_angle_beta   75.25500000
_cell_angle_gamma   81.67550000
_symmetry_Int_Tables_number   1
_chemical_formula_structural   ZnH27C32N2ClO4
_chemical_formula_sum   'Zn2 H54 C64 N4 Cl2 O8'
_cell_volume   1574.86263588
_cell_formula_units_Z   2
loop_
 _symmetry_equiv_pos_site_id
 _symmetry_equiv_pos_as_xyz
  1  'x, y, z'
loop_
 _atom_site_type_symbol
 _atom_site_label
 _atom_site_symmetry_multiplicity
 _atom_site_fract_x
 _atom_site_fract_y
 _atom_site_fract_z
 _atom_site_occupancy
  Zn  Zn0  1  0.35025000  0.88277000  0.53857000  1.0
  Zn  Zn1  1  0.64975000  0.11723000  0.46143000  1.0
  H  H2  1  0.39338000  0.94936000  0.34028000  1.0
  H  H3  1  0.60662000  0.05064000  0.65972000  1.0
  H  H4  1  0.49163000  0.83210000  0.20955000  1.0
  H  H5  1  0.50837000  0.16790000  0.79045000  1.0
  H  H6  1  0.61993000  0.49578000  0.37983000  1.0
  H  H7  1  0.38007000  0.50422000  0.62017000  1.0
  H  H8  1  0.51284000  0.62658000  0.50135000  1.0
  H  H9  1  0.48716000  0.37342000  0.49865000  1.0
  H  H10  1  0.60278000  0.63165000  0.14633000  1.0
  H  H11  1  0.39722000  0.36834000  0.85367000  1.0
  H  H12  1  0.72099000  0.41535000  0.27135000  1.0
  H  H13  1  0.27900000  0.58465000  0.72865000  1.0
  H  H14  1  0.93519000  0.27400000  0.84451000  1.0
  H  H15  1  0.06481000  0.72600000  0.15549000  1.0
  H  H16  1  0.11044000  0.07468000  0.94771000  1.0
  H  H17  1  0.88957000  0.92532000  0.05229000  1.0
  H  H18  1  0.08081000  0.24946000  0.72420000  1.0
  H  H19  1  0.91919000  0.75054000  0.27580000  1.0
  H  H20  1  0.18978000  0.14667000  0.59054000  1.0
  H  H21  1  0.81022000  0.85334000  0.40946000  1.0
  H  H22  1  0.34397000  0.80906000  0.72592000  1.0
  H  H23  1  0.65603000  0.19094000  0.27408000  1.0
  H  H24  1  0.23112000  0.89183000  0.86781000  1.0
  H  H25  1  0.76888000  0.10817000  0.13219000  1.0
  H  H26  1  0.47983000  0.43742000  0.05838000  1.0
  H  H27  1  0.52017000  0.56258000  0.94162000  1.0
  H  H28  1  0.48697000  0.40912000  0.16858000  1.0
  H  H29  1  0.51303000  0.59088000  0.83142000  1.0
  H  H30  1  0.49133000  0.27512000  0.11074000  1.0
  H  H31  1  0.50866000  0.72488000  0.88926000  1.0
  H  H32  1  0.59634000  0.19610000  0.98846000  1.0
  H  H33  1  0.40366000  0.80390000  0.01154000  1.0
  H  H34  1  0.73738000  0.21088000  0.89659000  1.0
  H  H35  1  0.26262000  0.78912000  0.10341000  1.0
  H  H36  1  0.61079000  0.34777000  0.92118000  1.0
  H  H37  1  0.38921000  0.65223000  0.07882000  1.0
  H  H38  1  0.18351000  0.21436000  0.05323000  1.0
  H  H39  1  0.81649000  0.78564000  0.94677000  1.0
  H  H40  1  0.17778000  0.38784000  0.02811000  1.0
  H  H41  1  0.82222000  0.61216000  0.97189000  1.0
  H  H42  1  0.18292000  0.28875000  0.94660000  1.0
  H  H43  1  0.81708000  0.71125000  0.05340000  1.0
  H  H44  1  0.92905000  0.40913000  0.23839000  1.0
  H  H45  1  0.07095000  0.59087000  0.76161000  1.0
  H  H46  1  0.03849000  0.49350000  0.14843000  1.0
  H  H47  1  0.96151000  0.50650000  0.85157000  1.0
  H  H48  1  0.08100000  0.32351000  0.17901000  1.0
  H  H49  1  0.91900000  0.67649000  0.82099000  1.0
  H  H50  1  0.63418000  0.55895000  0.62970000  1.0
  H  H51  1  0.36582000  0.44105000  0.37030000  1.0
  H  H52  1  0.07609000  0.48767000  0.62190000  1.0
  H  H53  1  0.92391000  0.51233000  0.37810000  1.0
  H  H54  1  0.89213000  0.87900000  0.54989000  1.0
  H  H55  1  0.10787000  0.12100000  0.45011000  1.0
  C  C56  1  0.44380000  0.84843000  0.34541000  1.0
  C  C57  1  0.55620000  0.15157000  0.65459000  1.0
  C  C58  1  0.49891000  0.78244000  0.27332000  1.0
  C  C59  1  0.50109000  0.21756000  0.72668000  1.0
  C  C60  1  0.56330000  0.65221000  0.28281000  1.0
  C  C61  1  0.43670000  0.34779000  0.71719000  1.0
  C  C62  1  0.56913000  0.59529000  0.36708000  1.0
  C  C63  1  0.43087000  0.40472000  0.63292000  1.0
  C  C64  1  0.51086000  0.66764000  0.43535000  1.0
  C  C65  1  0.48914000  0.33236000  0.56465000  1.0
  C  C66  1  0.62098000  0.58124000  0.20800000  1.0
  C  C67  1  0.37902000  0.41876000  0.79200000  1.0
  C  C68  1  0.69814000  0.46247000  0.21007000  1.0
  C  C69  1  0.30186000  0.53753000  0.78993000  1.0
  C  C70  1  0.76431000  0.39540000  0.13336000  1.0
  C  C71  1  0.23570000  0.60460000  0.86664000  1.0
  C  C72  1  0.68581000  0.36106000  0.07985000  1.0
  C  C73  1  0.31419000  0.63894000  0.92015000  1.0
  C  C74  1  0.75633000  0.30472000  0.00438000  1.0
  C  C75  1  0.24367000  0.69528000  0.99562000  1.0
  C  C76  1  0.90436000  0.28270000  0.98247000  1.0
  C  C77  1  0.09564000  0.71729000  0.01753000  1.0
  C  C78  1  0.98221000  0.31397000  0.03764000  1.0
  C  C79  1  0.01779000  0.68603000  0.96236000  1.0
  C  C80  1  0.91136000  0.36711000  0.11410000  1.0
  C  C81  1  0.08864000  0.63289000  0.88590000  1.0
  C  C82  1  0.97358000  0.22891000  0.90131000  1.0
  C  C83  1  0.02642000  0.77109000  0.09869000  1.0
  C  C84  1  0.07672000  0.12799000  0.89112000  1.0
  C  C85  1  0.92328000  0.87201000  0.10888000  1.0
  C  C86  1  0.14428000  0.07850000  0.80906000  1.0
  C  C87  1  0.85572000  0.92150000  0.19094000  1.0
  C  C88  1  0.13576000  0.15038000  0.72865000  1.0
  C  C89  1  0.86423000  0.84962000  0.27135000  1.0
  C  C90  1  0.19779000  0.09455000  0.65345000  1.0
  C  C91  1  0.80221000  0.90545000  0.34655000  1.0
  C  C92  1  0.28290000  0.90539000  0.72941000  1.0
  C  C93  1  0.71710000  0.09461000  0.27059000  1.0
  C  C94  1  0.22142000  0.95316000  0.80774000  1.0
  C  C95  1  0.77859000  0.04684000  0.19226000  1.0
  C  C96  1  0.52833000  0.37225000  0.10598000  1.0
  C  C97  1  0.47167000  0.62775000  0.89403000  1.0
  C  C98  1  0.67205000  0.26284000  0.94950000  1.0
  C  C99  1  0.32795000  0.73715000  0.05050000  1.0
  C  C100  1  0.13972000  0.30026000  0.01481000  1.0
  C  C101  1  0.86028000  0.69975000  0.98519000  1.0
  C  C102  1  0.99351000  0.39960000  0.17323000  1.0
  C  C103  1  0.00649000  0.60040000  0.82677000  1.0
  C  C104  1  0.75026000  0.72822000  0.58901000  1.0
  C  C105  1  0.24974000  0.27179000  0.41099000  1.0
  C  C106  1  0.73606000  0.59441000  0.61732000  1.0
  C  C107  1  0.26393000  0.40559000  0.38268000  1.0
  C  C108  1  0.85378000  0.50875000  0.62794000  1.0
  C  C109  1  0.14622000  0.49125000  0.37206000  1.0
  C  C110  1  0.98403000  0.55420000  0.61297000  1.0
  C  C111  1  0.01596000  0.44580000  0.38703000  1.0
  C  C112  1  0.99710000  0.68839000  0.58579000  1.0
  C  C113  1  0.00290000  0.31161000  0.41421000  1.0
  C  C114  1  0.88078000  0.77509000  0.57255000  1.0
  C  C115  1  0.11922000  0.22491000  0.42745000  1.0
  C  C116  1  0.62562000  0.82041000  0.57297000  1.0
  C  C117  1  0.37438000  0.17959000  0.42703000  1.0
  C  C118  1  0.13612000  0.73854000  0.57345000  1.0
  C  C119  1  0.86388000  0.26146000  0.42655000  1.0
  N  N120  1  0.44899000  0.79244000  0.42565000  1.0
  N  N121  1  0.55101000  0.20757000  0.57435000  1.0
  N  N122  1  0.27117000  0.97408000  0.65314000  1.0
  N  N123  1  0.72883000  0.02592000  0.34686000  1.0
  Cl  Cl124  1  0.83741000  0.34172000  0.65996000  1.0
  Cl  Cl125  1  0.16259000  0.65829000  0.34004000  1.0
  O  O126  1  0.50696000  0.77585000  0.59602000  1.0
  O  O127  1  0.49304000  0.22415000  0.40398000  1.0
  O  O128  1  0.64706000  0.93556000  0.53625000  1.0
  O  O129  1  0.35294000  0.06444000  0.46375000  1.0
  O  O130  1  0.23025000  0.66649000  0.60428000  1.0
  O  O131  1  0.76975000  0.33350000  0.39572000  1.0
  O  O132  1  0.15126000  0.85475000  0.53318000  1.0
  O  O133  1  0.84874000  0.14525000  0.46682000  1.0
