# generated using pymatgen
data_DyH10C11NO7
_symmetry_space_group_name_H-M   'P 1'
_cell_length_a   8.30558000
_cell_length_b   8.94887000
_cell_length_c   10.50550000
_cell_angle_alpha   105.26800000
_cell_angle_beta   100.84000000
_cell_angle_gamma   95.35670000
_symmetry_Int_Tables_number   1
_chemical_formula_structural   DyH10C11NO7
_chemical_formula_sum   'Dy2 H20 C22 N2 O14'
_cell_volume   731.36609473
_cell_formula_units_Z   2
loop_
 _symmetry_equiv_pos_site_id
 _symmetry_equiv_pos_as_xyz
  1  'x, y, z'
loop_
 _atom_site_type_symbol
 _atom_site_label
 _atom_site_symmetry_multiplicity
 _atom_site_fract_x
 _atom_site_fract_y
 _atom_site_fract_z
 _atom_site_occupancy
  Dy  Dy0  1  0.41727000  0.29402000  0.02939000  1.0
  Dy  Dy1  1  0.58273000  0.70598000  0.97061000  1.0
  H  H2  1  0.74681000  0.18661000  0.37800000  1.0
  H  H3  1  0.25318000  0.81339000  0.62200000  1.0
  H  H4  1  0.65240000  0.29063000  0.58629000  1.0
  H  H5  1  0.34760000  0.70936000  0.41371000  1.0
  H  H6  1  0.76095000  0.75996000  0.56247000  1.0
  H  H7  1  0.23905000  0.24004000  0.43753000  1.0
  H  H8  1  0.85806000  0.66084000  0.35394000  1.0
  H  H9  1  0.14194000  0.33916000  0.64606000  1.0
  H  H10  1  0.94231000  0.15038000  0.27822000  1.0
  H  H11  1  0.05769000  0.84962000  0.72178000  1.0
  H  H12  1  0.99560000  0.18400000  0.13375000  1.0
  H  H13  1  0.00439000  0.81600000  0.86624000  1.0
  H  H14  1  0.99797000  0.39998000  0.09002000  1.0
  H  H15  1  0.00203000  0.60003000  0.90999000  1.0
  H  H16  1  0.03391000  0.56048000  0.23573000  1.0
  H  H17  1  0.96609000  0.43952000  0.76427000  1.0
  H  H18  1  0.55008000  0.14890000  0.79132000  1.0
  H  H19  1  0.44992000  0.85109000  0.20867000  1.0
  H  H20  1  0.53399000  0.32347000  0.78384000  1.0
  H  H21  1  0.46600000  0.67653000  0.21617000  1.0
  C  C22  1  0.81810000  0.41538000  0.35118000  1.0
  C  C23  1  0.18190000  0.58462000  0.64882000  1.0
  C  C24  1  0.75443000  0.31281000  0.41837000  1.0
  C  C25  1  0.24557000  0.68719000  0.58163000  1.0
  C  C26  1  0.70044000  0.37142000  0.53603000  1.0
  C  C27  1  0.29956000  0.62857000  0.46397000  1.0
  C  C28  1  0.70470000  0.53312000  0.59165000  1.0
  C  C29  1  0.29530000  0.46688000  0.40835000  1.0
  C  C30  1  0.76042000  0.63452000  0.52183000  1.0
  C  C31  1  0.23958000  0.36547000  0.47817000  1.0
  C  C32  1  0.81502000  0.57801000  0.40418000  1.0
  C  C33  1  0.18499000  0.42199000  0.59583000  1.0
  C  C34  1  0.65646000  0.59426000  0.72031000  1.0
  C  C35  1  0.34353000  0.40573000  0.27969000  1.0
  C  C36  1  0.89874000  0.19621000  0.19258000  1.0
  C  C37  1  0.10126000  0.80379000  0.80742000  1.0
  C  C38  1  0.74104000  0.08897000  0.10325000  1.0
  C  C39  1  0.25895000  0.91104000  0.89675000  1.0
  C  C40  1  0.93823000  0.46433000  0.16818000  1.0
  C  C41  1  0.06177000  0.53567000  0.83182000  1.0
  C  C42  1  0.80709000  0.53896000  0.09538000  1.0
  C  C43  1  0.19291000  0.46105000  0.90462000  1.0
  N  N44  1  0.88179000  0.35961000  0.23926000  1.0
  N  N45  1  0.11822000  0.64039000  0.76074000  1.0
  O  O46  1  0.61728000  0.15123000  0.06447000  1.0
  O  O47  1  0.38273000  0.84877000  0.93553000  1.0
  O  O48  1  0.74791000  0.94378000  0.07322000  1.0
  O  O49  1  0.25209000  0.05621000  0.92677000  1.0
  O  O50  1  0.65149000  0.48791000  0.07135000  1.0
  O  O51  1  0.34852000  0.51210000  0.92865000  1.0
  O  O52  1  0.85645000  0.65536000  0.05794000  1.0
  O  O53  1  0.14355000  0.34465000  0.94206000  1.0
  O  O54  1  0.60911000  0.49919000  0.78543000  1.0
  O  O55  1  0.39089000  0.50081000  0.21457000  1.0
  O  O56  1  0.66488000  0.74175000  0.77523000  1.0
  O  O57  1  0.33511000  0.25824000  0.22476000  1.0
  O  O58  1  0.48140000  0.23117000  0.80734000  1.0
  O  O59  1  0.51859000  0.76883000  0.19266000  1.0
