# generated using pymatgen
data_NaZnH14C11NO9
_symmetry_space_group_name_H-M   'P 1'
_cell_length_a   7.90421000
_cell_length_b   8.48197000
_cell_length_c   11.43800000
_cell_angle_alpha   98.99790000
_cell_angle_beta   97.28550000
_cell_angle_gamma   94.79690000
_symmetry_Int_Tables_number   1
_chemical_formula_structural   NaZnH14C11NO9
_chemical_formula_sum   'Na2 Zn2 H28 C22 N2 O18'
_cell_volume   747.08880058
_cell_formula_units_Z   2
loop_
 _symmetry_equiv_pos_site_id
 _symmetry_equiv_pos_as_xyz
  1  'x, y, z'
loop_
 _atom_site_type_symbol
 _atom_site_label
 _atom_site_symmetry_multiplicity
 _atom_site_fract_x
 _atom_site_fract_y
 _atom_site_fract_z
 _atom_site_occupancy
  Na  Na0  1  0.71409000  0.47498000  0.53659000  1.0
  Na  Na1  1  0.28590000  0.52501000  0.46341000  1.0
  Zn  Zn2  1  0.81843000  0.12717000  0.65487000  1.0
  Zn  Zn3  1  0.18158000  0.87280000  0.34513000  1.0
  H  H4  1  0.37525000  0.20693000  0.82123000  1.0
  H  H5  1  0.62476000  0.79308000  0.17877000  1.0
  H  H6  1  0.35828000  0.15360000  0.66386000  1.0
  H  H7  1  0.64171000  0.84641000  0.33616000  1.0
  H  H8  1  0.34954000  0.90940000  0.62746000  1.0
  H  H9  1  0.65044000  0.09059000  0.37254000  1.0
  H  H10  1  0.44746000  0.79242000  0.72451000  1.0
  H  H11  1  0.55255000  0.20758000  0.27550000  1.0
  H  H12  1  0.61183000  0.27218000  0.95173000  1.0
  H  H13  1  0.38818000  0.72782000  0.04826000  1.0
  H  H14  1  0.77472000  0.24924000  0.14301000  1.0
  H  H15  1  0.22529000  0.75076000  0.85699000  1.0
  H  H16  1  0.85041000  0.76198000  0.00880000  1.0
  H  H17  1  0.14961000  0.23802000  0.99119000  1.0
  H  H18  1  0.68022000  0.77779000  0.81636000  1.0
  H  H19  1  0.31981000  0.22221000  0.18363000  1.0
  H  H20  1  0.94827000  0.16287000  0.44759000  1.0
  H  H21  1  0.05172000  0.83713000  0.55241000  1.0
  H  H22  1  0.04317000  0.29244000  0.56174000  1.0
  H  H23  1  0.95681000  0.70756000  0.43825000  1.0
  H  H24  1  0.97048000  0.71434000  0.71996000  1.0
  H  H25  1  0.02951000  0.28567000  0.28004000  1.0
  H  H26  1  0.87100000  0.55784000  0.76010000  1.0
  H  H27  1  0.12900000  0.44218000  0.23990000  1.0
  H  H28  1  0.90208000  0.49292000  0.33236000  1.0
  H  H29  1  0.09790000  0.50708000  0.66764000  1.0
  H  H30  1  0.71343000  0.55594000  0.31472000  1.0
  H  H31  1  0.28656000  0.44405000  0.68528000  1.0
  C  C32  1  0.55922000  0.33369000  0.73862000  1.0
  C  C33  1  0.44078000  0.66632000  0.26138000  1.0
  C  C34  1  0.44980000  0.17972000  0.74699000  1.0
  C  C35  1  0.55020000  0.82029000  0.25301000  1.0
  C  C36  1  0.58288000  0.83337000  0.57985000  1.0
  C  C37  1  0.41711000  0.16662000  0.42016000  1.0
  C  C38  1  0.47365000  0.89156000  0.67580000  1.0
  C  C39  1  0.52633000  0.10843000  0.32420000  1.0
  C  C40  1  0.63308000  0.02718000  0.86747000  1.0
  C  C41  1  0.36692000  0.97282000  0.13253000  1.0
  C  C42  1  0.66281000  0.15922000  0.96205000  1.0
  C  C43  1  0.33720000  0.84078000  0.03795000  1.0
  C  C44  1  0.75579000  0.14647000  0.07072000  1.0
  C  C45  1  0.24424000  0.85353000  0.92929000  1.0
  C  C46  1  0.82519000  0.00391000  0.08932000  1.0
  C  C47  1  0.17482000  0.99609000  0.91066000  1.0
  C  C48  1  0.79647000  0.87284000  0.99501000  1.0
  C  C49  1  0.20355000  0.12716000  0.00498000  1.0
  C  C50  1  0.70181000  0.88307000  0.88643000  1.0
  C  C51  1  0.29820000  0.11692000  0.11357000  1.0
  C  C52  1  0.92874000  0.99214000  0.20397000  1.0
  C  C53  1  0.07126000  0.00786000  0.79604000  1.0
  N  N54  1  0.54098000  0.03916000  0.75725000  1.0
  N  N55  1  0.45902000  0.96085000  0.24275000  1.0
  O  O56  1  0.49380000  0.46327000  0.75704000  1.0
  O  O57  1  0.50619000  0.53674000  0.24296000  1.0
  O  O58  1  0.71160000  0.32557000  0.70988000  1.0
  O  O59  1  0.28841000  0.67443000  0.29011000  1.0
  O  O60  1  0.70490000  0.92787000  0.55571000  1.0
  O  O61  1  0.29511000  0.07212000  0.44431000  1.0
  O  O62  1  0.54137000  0.69305000  0.52411000  1.0
  O  O63  1  0.45863000  0.30696000  0.47589000  1.0
  O  O64  1  0.94844000  0.10973000  0.29089000  1.0
  O  O65  1  0.05156000  0.89026000  0.70911000  1.0
  O  O66  1  0.99663000  0.86069000  0.21152000  1.0
  O  O67  1  0.00336000  0.13932000  0.78847000  1.0
  O  O68  1  0.93165000  0.22449000  0.52585000  1.0
  O  O69  1  0.06833000  0.77551000  0.47415000  1.0
  O  O70  1  0.92772000  0.59712000  0.69786000  1.0
  O  O71  1  0.07228000  0.40289000  0.30214000  1.0
  O  O72  1  0.81868000  0.55637000  0.37313000  1.0
  O  O73  1  0.18131000  0.44362000  0.62687000  1.0
