# generated using pymatgen
data_ZnH5C4N5O2
_symmetry_space_group_name_H-M   'P 1'
_cell_length_a   9.06389000
_cell_length_b   10.06900000
_cell_length_c   12.09870000
_cell_angle_alpha   108.07000000
_cell_angle_beta   101.95000000
_cell_angle_gamma   94.68140000
_symmetry_Int_Tables_number   1
_chemical_formula_structural   ZnH5C4N5O2
_chemical_formula_sum   'Zn4 H20 C16 N20 O8'
_cell_volume   1014.26667263
_cell_formula_units_Z   4
loop_
 _symmetry_equiv_pos_site_id
 _symmetry_equiv_pos_as_xyz
  1  'x, y, z'
loop_
 _atom_site_type_symbol
 _atom_site_label
 _atom_site_symmetry_multiplicity
 _atom_site_fract_x
 _atom_site_fract_y
 _atom_site_fract_z
 _atom_site_occupancy
  Zn  Zn0  1  0.44925000  0.65191000  0.59560000  1.0
  Zn  Zn1  1  0.55075000  0.34809000  0.40440000  1.0
  Zn  Zn2  1  0.90645000  0.86079000  0.36351000  1.0
  Zn  Zn3  1  0.09355000  0.13922000  0.63649000  1.0
  H  H4  1  0.86339000  0.58255000  0.93021000  1.0
  H  H5  1  0.13660000  0.41745000  0.06979000  1.0
  H  H6  1  0.66091000  0.81369000  0.99550000  1.0
  H  H7  1  0.33908000  0.18631000  0.00450000  1.0
  H  H8  1  0.55718000  0.92044000  0.57110000  1.0
  H  H9  1  0.44283000  0.07956000  0.42891000  1.0
  H  H10  1  0.72326000  0.98548000  0.54663000  1.0
  H  H11  1  0.27674000  0.01452000  0.45337000  1.0
  H  H12  1  0.81311000  0.40195000  0.29930000  1.0
  H  H13  1  0.18689000  0.59805000  0.70070000  1.0
  H  H14  1  0.88587000  0.54284000  0.26397000  1.0
  H  H15  1  0.11414000  0.45715000  0.73603000  1.0
  H  H16  1  0.73054000  0.98265000  0.19098000  1.0
  H  H17  1  0.26946000  0.01736000  0.80903000  1.0
  H  H18  1  0.60496000  0.11041000  0.20646000  1.0
  H  H19  1  0.39505000  0.88958000  0.79354000  1.0
  H  H20  1  0.86777000  0.33799000  0.72762000  1.0
  H  H21  1  0.13223000  0.66201000  0.27238000  1.0
  H  H22  1  0.72933000  0.41293000  0.65810000  1.0
  H  H23  1  0.27067000  0.58707000  0.34190000  1.0
  C  C24  1  0.66295000  0.77101000  0.47761000  1.0
  C  C25  1  0.33706000  0.22899000  0.52239000  1.0
  C  C26  1  0.75513000  0.58938000  0.38569000  1.0
  C  C27  1  0.24488000  0.41062000  0.61431000  1.0
  C  C28  1  0.75305000  0.11507000  0.36050000  1.0
  C  C29  1  0.24696000  0.88493000  0.63950000  1.0
  C  C30  1  0.79201000  0.23457000  0.54980000  1.0
  C  C31  1  0.20799000  0.76543000  0.45020000  1.0
  C  C32  1  0.87751000  0.70412000  0.11836000  1.0
  C  C33  1  0.12248000  0.29587000  0.88163000  1.0
  C  C34  1  0.81784000  0.66816000  0.98690000  1.0
  C  C35  1  0.18215000  0.33184000  0.01310000  1.0
  C  C36  1  0.70830000  0.72999000  0.93863000  1.0
  C  C37  1  0.29168000  0.27001000  0.06137000  1.0
  C  C38  1  0.64155000  0.68563000  0.80708000  1.0
  C  C39  1  0.35844000  0.31436000  0.19293000  1.0
  N  N40  1  0.63235000  0.90560000  0.51842000  1.0
  N  N41  1  0.36765000  0.09440000  0.48158000  1.0
  N  N42  1  0.84374000  0.50818000  0.32441000  1.0
  N  N43  1  0.15627000  0.49183000  0.67559000  1.0
  N  N44  1  0.76718000  0.73278000  0.41120000  1.0
  N  N45  1  0.23282000  0.26722000  0.58881000  1.0
  N  N46  1  0.59086000  0.65976000  0.49256000  1.0
  N  N47  1  0.40914000  0.34024000  0.50744000  1.0
  N  N48  1  0.64948000  0.54191000  0.43245000  1.0
  N  N49  1  0.35052000  0.45809000  0.56755000  1.0
  N  N50  1  0.69905000  0.07285000  0.24038000  1.0
  N  N51  1  0.30096000  0.92716000  0.75962000  1.0
  N  N52  1  0.78074000  0.32543000  0.65412000  1.0
  N  N53  1  0.21925000  0.67457000  0.34588000  1.0
  N  N54  1  0.70764000  0.22490000  0.43899000  1.0
  N  N55  1  0.29236000  0.77510000  0.56101000  1.0
  N  N56  1  0.85885000  0.05809000  0.41749000  1.0
  N  N57  1  0.14115000  0.94192000  0.58252000  1.0
  N  N58  1  0.88354000  0.13451000  0.54145000  1.0
  N  N59  1  0.11647000  0.86549000  0.45855000  1.0
  O  O60  1  0.84821000  0.82042000  0.18787000  1.0
  O  O61  1  0.15179000  0.17958000  0.81213000  1.0
  O  O62  1  0.95106000  0.61911000  0.15591000  1.0
  O  O63  1  0.04894000  0.38089000  0.84409000  1.0
  O  O64  1  0.53074000  0.75117000  0.77382000  1.0
  O  O65  1  0.46925000  0.24882000  0.22617000  1.0
  O  O66  1  0.68811000  0.59094000  0.73428000  1.0
  O  O67  1  0.31188000  0.40906000  0.26572000  1.0
