# generated using pymatgen
data_CdH10C11(NO3)2
_symmetry_space_group_name_H-M   'P 1'
_cell_length_a   7.96614000
_cell_length_b   12.07680000
_cell_length_c   13.31270000
_cell_angle_alpha   91.02950000
_cell_angle_beta   89.99970000
_cell_angle_gamma   89.99960000
_symmetry_Int_Tables_number   1
_chemical_formula_structural   CdH10C11(NO3)2
_chemical_formula_sum   'Cd4 H40 C44 N8 O24'
_cell_volume   1280.54794416
_cell_formula_units_Z   4
loop_
 _symmetry_equiv_pos_site_id
 _symmetry_equiv_pos_as_xyz
  1  'x, y, z'
loop_
 _atom_site_type_symbol
 _atom_site_label
 _atom_site_symmetry_multiplicity
 _atom_site_fract_x
 _atom_site_fract_y
 _atom_site_fract_z
 _atom_site_occupancy
  Cd  Cd0  1  0.99503000  0.75004000  0.05367000  1.0
  Cd  Cd1  1  0.49503000  0.74996000  0.44633000  1.0
  Cd  Cd2  1  0.00498000  0.24996000  0.94633000  1.0
  Cd  Cd3  1  0.50497000  0.25004000  0.55367000  1.0
  H  H4  1  0.81391000  0.95786000  0.06020000  1.0
  H  H5  1  0.31390000  0.54214000  0.43980000  1.0
  H  H6  1  0.18610000  0.04213000  0.93979000  1.0
  H  H7  1  0.68609000  0.45787000  0.56021000  1.0
  H  H8  1  0.30819000  0.08563000  0.08187000  1.0
  H  H9  1  0.80818000  0.41437000  0.41813000  1.0
  H  H10  1  0.69182000  0.91437000  0.91813000  1.0
  H  H11  1  0.19181000  0.58563000  0.58187000  1.0
  H  H12  1  0.47994000  0.99371000  0.08737000  1.0
  H  H13  1  0.97994000  0.50629000  0.41263000  1.0
  H  H14  1  0.52006000  0.00629000  0.91263000  1.0
  H  H15  1  0.02006000  0.49371000  0.58737000  1.0
  H  H16  1  0.06037000  0.12774000  0.21642000  1.0
  H  H17  1  0.56037000  0.37226000  0.28358000  1.0
  H  H18  1  0.93963000  0.87226000  0.78358000  1.0
  H  H19  1  0.43963000  0.62774000  0.71643000  1.0
  H  H20  1  0.80506000  0.08076000  0.32094000  1.0
  H  H21  1  0.30506000  0.41924000  0.17905000  1.0
  H  H22  1  0.19494000  0.91924000  0.67905000  1.0
  H  H23  1  0.69494000  0.58076000  0.82095000  1.0
  H  H24  1  0.09114000  0.81547000  0.45396000  1.0
  H  H25  1  0.59114000  0.68453000  0.04604000  1.0
  H  H26  1  0.90885000  0.18453000  0.54604000  1.0
  H  H27  1  0.40886000  0.31547000  0.95396000  1.0
  H  H28  1  0.82173000  0.92045000  0.43820000  1.0
  H  H29  1  0.32172000  0.57955000  0.06180000  1.0
  H  H30  1  0.17828000  0.07955000  0.56180000  1.0
  H  H31  1  0.67828000  0.42045000  0.93820000  1.0
  H  H32  1  0.55495000  0.14234000  0.20936000  1.0
  H  H33  1  0.05495000  0.35766000  0.29064000  1.0
  H  H34  1  0.44505000  0.85767000  0.79064000  1.0
  H  H35  1  0.94505000  0.64234000  0.70936000  1.0
  H  H36  1  0.35082000  0.19813000  0.22120000  1.0
  H  H37  1  0.85082000  0.30187000  0.27880000  1.0
  H  H38  1  0.64917000  0.80187000  0.77880000  1.0
  H  H39  1  0.14917000  0.69813000  0.72120000  1.0
  H  H40  1  0.73708000  0.88798000  0.15097000  1.0
  H  H41  1  0.23708000  0.61202000  0.34903000  1.0
  H  H42  1  0.26292000  0.11202000  0.84903000  1.0
  H  H43  1  0.76292000  0.38798000  0.65097000  1.0
  C  C44  1  0.24088000  0.91354000  0.07581000  1.0
  C  C45  1  0.74088000  0.58645000  0.42419000  1.0
  C  C46  1  0.75913000  0.08645000  0.92419000  1.0
  C  C47  1  0.25912000  0.41355000  0.57581000  1.0
  C  C48  1  0.35093000  0.00776000  0.11461000  1.0
  C  C49  1  0.85093000  0.49224000  0.38539000  1.0
  C  C50  1  0.64908000  0.99224000  0.88539000  1.0
  C  C51  1  0.14907000  0.50776000  0.61461000  1.0
  C  C52  1  0.36263000  0.02076000  0.22932000  1.0
  C  C53  1  0.86263000  0.47924000  0.27068000  1.0
  C  C54  1  0.63737000  0.97924000  0.77068000  1.0
  C  C55  1  0.13737000  0.52076000  0.72932000  1.0
  C  C56  1  0.05785000  0.06109000  0.27079000  1.0
  C  C57  1  0.55786000  0.43891000  0.22921000  1.0
  C  C58  1  0.94215000  0.93891000  0.72921000  1.0
  C  C59  1  0.44215000  0.56109000  0.77079000  1.0
  C  C60  1  0.92033000  0.03357000  0.32796000  1.0
  C  C61  1  0.42032000  0.46643000  0.17204000  1.0
  C  C62  1  0.07968000  0.96643000  0.67204000  1.0
  C  C63  1  0.57968000  0.53356000  0.82796000  1.0
  C  C64  1  0.47002000  0.16797000  0.36148000  1.0
  C  C65  1  0.97002000  0.33203000  0.13852000  1.0
  C  C66  1  0.52998000  0.83204000  0.63852000  1.0
  C  C67  1  0.02998000  0.66797000  0.86148000  1.0
  C  C68  1  0.46850000  0.92812000  0.27694000  1.0
  C  C69  1  0.96849000  0.57188000  0.22306000  1.0
  C  C70  1  0.53150000  0.07188000  0.72306000  1.0
  C  C71  1  0.03151000  0.42812000  0.77694000  1.0
  C  C72  1  0.43757000  0.13608000  0.25210000  1.0
  C  C73  1  0.93756000  0.36392000  0.24791000  1.0
  C  C74  1  0.56243000  0.86392000  0.74791000  1.0
  C  C75  1  0.06243000  0.63608000  0.75210000  1.0
  C  C76  1  0.21805000  0.91749000  0.34716000  1.0
  C  C77  1  0.71805000  0.58251000  0.15284000  1.0
  C  C78  1  0.78195000  0.08251000  0.65284000  1.0
  C  C79  1  0.28195000  0.41749000  0.84716000  1.0
  C  C80  1  0.07892000  0.88501000  0.40355000  1.0
  C  C81  1  0.57891000  0.61499000  0.09645000  1.0
  C  C82  1  0.92108000  0.11499000  0.59645000  1.0
  C  C83  1  0.42109000  0.38500000  0.90355000  1.0
  C  C84  1  0.93061000  0.94379000  0.39376000  1.0
  C  C85  1  0.43061000  0.55621000  0.10624000  1.0
  C  C86  1  0.06939000  0.05622000  0.60624000  1.0
  C  C87  1  0.56939000  0.44378000  0.89376000  1.0
  N  N88  1  0.20137000  0.00286000  0.28130000  1.0
  N  N89  1  0.70136000  0.49714000  0.21869000  1.0
  N  N90  1  0.79863000  0.99714000  0.71869000  1.0
  N  N91  1  0.29864000  0.50286000  0.78131000  1.0
  N  N92  1  0.37614000  0.87511000  0.34697000  1.0
  N  N93  1  0.87614000  0.62489000  0.15302000  1.0
  N  N94  1  0.62386000  0.12489000  0.65303000  1.0
  N  N95  1  0.12386000  0.37511000  0.84698000  1.0
  O  O96  1  0.17319000  0.92188000  0.98969000  1.0
  O  O97  1  0.67318000  0.57812000  0.51031000  1.0
  O  O98  1  0.82683000  0.07812000  0.01030000  1.0
  O  O99  1  0.32681000  0.42188000  0.48969000  1.0
  O  O100  1  0.21825000  0.83082000  0.13226000  1.0
  O  O101  1  0.71825000  0.66918000  0.36774000  1.0
  O  O102  1  0.78175000  0.16918000  0.86774000  1.0
  O  O103  1  0.28175000  0.33082000  0.63226000  1.0
  O  O104  1  0.79385000  0.88033000  0.08498000  1.0
  O  O105  1  0.29384000  0.61967000  0.41502000  1.0
  O  O106  1  0.20616000  0.11967000  0.91502000  1.0
  O  O107  1  0.70615000  0.38033000  0.58498000  1.0
  O  O108  1  0.61691000  0.90811000  0.25574000  1.0
  O  O109  1  0.11691000  0.59189000  0.24426000  1.0
  O  O110  1  0.38309000  0.09189000  0.74426000  1.0
  O  O111  1  0.88309000  0.40811000  0.75574000  1.0
  O  O112  1  0.59645000  0.23047000  0.37988000  1.0
  O  O113  1  0.09645000  0.26953000  0.12012000  1.0
  O  O114  1  0.40355000  0.76953000  0.62012000  1.0
  O  O115  1  0.90355000  0.73047000  0.87988000  1.0
  O  O116  1  0.36878000  0.13680000  0.42903000  1.0
  O  O117  1  0.86877000  0.36319000  0.07097000  1.0
  O  O118  1  0.63122000  0.86320000  0.57097000  1.0
  O  O119  1  0.13122000  0.63680000  0.92903000  1.0
