# generated using pymatgen
data_Zn4H8C40Br8Cl4O13
_symmetry_space_group_name_H-M   'P 1'
_cell_length_a   23.98913157
_cell_length_b   23.98910000
_cell_length_c   23.98770000
_cell_angle_alpha   72.48200000
_cell_angle_beta   66.54009381
_cell_angle_gamma   107.51363304
_symmetry_Int_Tables_number   1
_chemical_formula_structural   Zn4H8C40Br8Cl4O13
_chemical_formula_sum   'Zn8 H16 C80 Br16 Cl8 O26'
_cell_volume   10587.36884208
_cell_formula_units_Z   2
loop_
 _symmetry_equiv_pos_site_id
 _symmetry_equiv_pos_as_xyz
  1  'x, y, z'
loop_
 _atom_site_type_symbol
 _atom_site_label
 _atom_site_symmetry_multiplicity
 _atom_site_fract_x
 _atom_site_fract_y
 _atom_site_fract_z
 _atom_site_occupancy
  Zn  Zn0  1  0.48551000  0.44310000  0.45758000  1.0
  Zn  Zn1  1  0.45760000  0.55692000  0.48549000  1.0
  Zn  Zn2  1  0.45758000  0.44308000  0.59934000  1.0
  Zn  Zn3  1  0.59932000  0.55691000  0.45758000  1.0
  Zn  Zn4  1  0.01449000  0.55690000  0.04242000  1.0
  Zn  Zn5  1  0.04242000  0.55692000  0.90066000  1.0
  Zn  Zn6  1  0.04241000  0.44309000  0.01450000  1.0
  Zn  Zn7  1  0.90068000  0.44309000  0.04242000  1.0
  H  H8  1  0.17534000  0.89025000  0.90071000  1.0
  H  H9  1  0.21496000  0.89029000  0.70900000  1.0
  H  H10  1  0.28506000  0.10972000  0.79099000  1.0
  H  H11  1  0.32474000  0.10975000  0.59927000  1.0
  H  H12  1  0.70905000  0.10973000  0.21490000  1.0
  H  H13  1  0.90072000  0.10973000  0.17532000  1.0
  H  H14  1  0.59930000  0.89028000  0.32471000  1.0
  H  H15  1  0.79098000  0.89027000  0.28507000  1.0
  H  H16  1  0.17531000  0.57601000  0.21496000  1.0
  H  H17  1  0.21496000  0.42397000  0.17532000  1.0
  H  H18  1  0.28503000  0.57602000  0.32469000  1.0
  H  H19  1  0.32461000  0.42392000  0.28512000  1.0
  H  H20  1  0.90070000  0.57599000  0.70901000  1.0
  H  H21  1  0.70901000  0.42395000  0.90073000  1.0
  H  H22  1  0.79099000  0.57603000  0.59927000  1.0
  H  H23  1  0.59931000  0.42395000  0.79097000  1.0
  C  C24  1  0.40945000  0.50001000  0.40944000  1.0
  C  C25  1  0.36306000  0.50000000  0.63694000  1.0
  C  C26  1  0.40945000  0.31890000  0.59056000  1.0
  C  C27  1  0.59056000  0.50000000  0.59054000  1.0
  C  C28  1  0.63694000  0.50000000  0.36306000  1.0
  C  C29  1  0.59056000  0.68111000  0.40944000  1.0
  C  C30  1  0.09056000  0.68110000  0.90944000  1.0
  C  C31  1  0.13694000  0.50001000  0.86305000  1.0
  C  C32  1  0.09054000  0.49998000  0.09057000  1.0
  C  C33  1  0.90946000  0.31890000  0.09055000  1.0
  C  C34  1  0.86306000  0.50000000  0.13694000  1.0
  C  C35  1  0.90944000  0.49999000  0.90946000  1.0
  C  C36  1  0.69484000  0.50000000  0.30516000  1.0
  C  C37  1  0.80516000  0.50000000  0.19484000  1.0
  C  C38  1  0.76575000  0.54270000  0.27695000  1.0
  C  C39  1  0.73425000  0.45730000  0.22305000  1.0
  C  C40  1  0.81965000  0.54269000  0.22305000  1.0
  C  C41  1  0.68035000  0.45730000  0.27695000  1.0
  C  C42  1  0.30516000  0.50000000  0.69484000  1.0
  C  C43  1  0.19484000  0.50000000  0.80516000  1.0
  C  C44  1  0.27695000  0.45730000  0.76575000  1.0
  C  C45  1  0.22306000  0.54271000  0.73424000  1.0
  C  C46  1  0.22304000  0.45730000  0.81966000  1.0
  C  C47  1  0.27696000  0.54270000  0.68034000  1.0
  C  C48  1  0.12807000  0.75611000  0.87193000  1.0
  C  C49  1  0.13593000  0.79410000  0.90657000  1.0
  C  C50  1  0.17064000  0.86347000  0.87201000  1.0
  C  C51  1  0.19958000  0.89914000  0.80043000  1.0
  C  C52  1  0.19287000  0.86349000  0.76449000  1.0
  C  C53  1  0.15820000  0.79412000  0.79930000  1.0
  C  C54  1  0.23481000  0.96959000  0.76520000  1.0
  C  C55  1  0.26522000  0.03040000  0.73480000  1.0
  C  C56  1  0.30045000  0.10085000  0.69958000  1.0
  C  C57  1  0.30715000  0.13651000  0.73551000  1.0
  C  C58  1  0.34181000  0.20587000  0.70070000  1.0
  C  C59  1  0.37196000  0.24389000  0.62806000  1.0
  C  C60  1  0.36412000  0.20589000  0.59342000  1.0
  C  C61  1  0.32942000  0.13653000  0.62798000  1.0
  C  C62  1  0.87196000  0.24389000  0.12804000  1.0
  C  C63  1  0.79933000  0.20588000  0.15816000  1.0
  C  C64  1  0.76453000  0.13652000  0.19282000  1.0
  C  C65  1  0.80045000  0.10086000  0.19955000  1.0
  C  C66  1  0.87202000  0.13651000  0.17062000  1.0
  C  C67  1  0.90658000  0.20587000  0.13591000  1.0
  C  C68  1  0.76522000  0.03041000  0.23479000  1.0
  C  C69  1  0.73481000  0.96960000  0.26521000  1.0
  C  C70  1  0.69958000  0.89915000  0.30044000  1.0
  C  C71  1  0.62800000  0.86349000  0.32940000  1.0
  C  C72  1  0.59343000  0.79412000  0.36410000  1.0
  C  C73  1  0.62806000  0.75612000  0.37196000  1.0
  C  C74  1  0.70069000  0.79411000  0.34182000  1.0
  C  C75  1  0.73550000  0.86349000  0.30715000  1.0
  C  C76  1  0.12805000  0.49999000  0.12806000  1.0
  C  C77  1  0.13591000  0.54248000  0.15821000  1.0
  C  C78  1  0.17062000  0.54262000  0.19286000  1.0
  C  C79  1  0.19957000  0.49999000  0.19957000  1.0
  C  C80  1  0.19286000  0.45736000  0.17063000  1.0
  C  C81  1  0.15821000  0.45751000  0.13591000  1.0
  C  C82  1  0.23478000  0.49998000  0.23482000  1.0
  C  C83  1  0.26518000  0.49998000  0.26522000  1.0
  C  C84  1  0.30040000  0.49998000  0.30046000  1.0
  C  C85  1  0.30712000  0.54262000  0.32939000  1.0
  C  C86  1  0.34178000  0.54248000  0.36410000  1.0
  C  C87  1  0.37192000  0.49999000  0.37197000  1.0
  C  C88  1  0.36404000  0.45748000  0.34184000  1.0
  C  C89  1  0.32933000  0.45734000  0.30719000  1.0
  C  C90  1  0.87193000  0.49997000  0.87196000  1.0
  C  C91  1  0.90656000  0.54246000  0.79931000  1.0
  C  C92  1  0.87200000  0.54260000  0.76451000  1.0
  C  C93  1  0.80042000  0.49997000  0.80044000  1.0
  C  C94  1  0.76450000  0.45735000  0.87202000  1.0
  C  C95  1  0.79930000  0.45749000  0.90659000  1.0
  C  C96  1  0.76520000  0.49998000  0.76520000  1.0
  C  C97  1  0.73481000  0.49999000  0.73478000  1.0
  C  C98  1  0.69958000  0.49999000  0.69956000  1.0
  C  C99  1  0.73551000  0.54264000  0.62797000  1.0
  C  C100  1  0.70070000  0.54250000  0.59341000  1.0
  C  C101  1  0.62807000  0.50000000  0.62804000  1.0
  C  C102  1  0.59344000  0.45749000  0.70068000  1.0
  C  C103  1  0.62801000  0.45736000  0.73548000  1.0
  Br  Br104  1  0.10147000  0.75806000  0.00329000  1.0
  Br  Br105  1  0.15663000  0.75810000  0.73861000  1.0
  Br  Br106  1  0.34337000  0.24190000  0.76139000  1.0
  Br  Br107  1  0.39862000  0.24193000  0.49669000  1.0
  Br  Br108  1  0.73866000  0.24192000  0.15656000  1.0
  Br  Br109  1  0.00330000  0.24192000  0.10144000  1.0
  Br  Br110  1  0.49672000  0.75810000  0.39859000  1.0
  Br  Br111  1  0.76137000  0.75808000  0.34339000  1.0
  Br  Br112  1  0.10144000  0.60472000  0.15664000  1.0
  Br  Br113  1  0.15666000  0.39528000  0.10143000  1.0
  Br  Br114  1  0.34334000  0.60472000  0.39857000  1.0
  Br  Br115  1  0.39846000  0.39520000  0.34346000  1.0
  Br  Br116  1  0.00328000  0.60469000  0.73862000  1.0
  Br  Br117  1  0.73862000  0.39525000  0.00331000  1.0
  Br  Br118  1  0.76138000  0.60475000  0.49669000  1.0
  Br  Br119  1  0.49673000  0.39523000  0.76137000  1.0
  Cl  Cl120  1  0.79170000  0.59720000  0.30551000  1.0
  Cl  Cl121  1  0.70830000  0.40280000  0.19449000  1.0
  Cl  Cl122  1  0.90271000  0.59720000  0.19450000  1.0
  Cl  Cl123  1  0.59729000  0.40280000  0.30550000  1.0
  Cl  Cl124  1  0.30549000  0.40278000  0.79172000  1.0
  Cl  Cl125  1  0.19452000  0.59723000  0.70827000  1.0
  Cl  Cl126  1  0.19448000  0.40279000  0.90272000  1.0
  Cl  Cl127  1  0.30552000  0.59722000  0.59727000  1.0
  O  O128  1  0.50000000  0.50000000  0.50000000  1.0
  O  O129  1  0.43452000  0.46021000  0.41365000  1.0
  O  O130  1  0.38545000  0.53963000  0.57491000  1.0
  O  O131  1  0.41369000  0.34817000  0.62615000  1.0
  O  O132  1  0.41368000  0.53983000  0.43449000  1.0
  O  O133  1  0.43446000  0.34817000  0.52570000  1.0
  O  O134  1  0.38545000  0.46036000  0.65420000  1.0
  O  O135  1  0.52569000  0.46019000  0.62614000  1.0
  O  O136  1  0.65418000  0.53964000  0.38544000  1.0
  O  O137  1  0.62616000  0.53982000  0.52567000  1.0
  O  O138  1  0.57492000  0.46036000  0.38546000  1.0
  O  O139  1  0.52570000  0.65184000  0.43448000  1.0
  O  O140  1  0.62615000  0.65183000  0.41367000  1.0
  O  O141  1  0.00000000  0.50000000  0.00000000  1.0
  O  O142  1  0.06551000  0.65183000  0.97431000  1.0
  O  O143  1  0.11454000  0.53963000  0.84580000  1.0
  O  O144  1  0.08630000  0.46015000  0.06553000  1.0
  O  O145  1  0.08634000  0.65184000  0.87384000  1.0
  O  O146  1  0.06551000  0.53982000  0.08632000  1.0
  O  O147  1  0.11456000  0.46038000  0.92508000  1.0
  O  O148  1  0.97432000  0.34816000  0.06550000  1.0
  O  O149  1  0.84582000  0.46036000  0.11456000  1.0
  O  O150  1  0.87386000  0.34817000  0.08635000  1.0
  O  O151  1  0.92509000  0.53964000  0.11454000  1.0
  O  O152  1  0.97430000  0.53982000  0.87386000  1.0
  O  O153  1  0.87385000  0.46016000  0.97432000  1.0
