# generated using pymatgen
data_CuH22C18(NO2)4
_symmetry_space_group_name_H-M   'P 1'
_cell_length_a   7.57648000
_cell_length_b   9.09322000
_cell_length_c   14.47650000
_cell_angle_alpha   93.15210000
_cell_angle_beta   89.99980000
_cell_angle_gamma   90.00000000
_symmetry_Int_Tables_number   1
_chemical_formula_structural   CuH22C18(NO2)4
_chemical_formula_sum   'Cu2 H44 C36 N8 O16'
_cell_volume   995.84375710
_cell_formula_units_Z   2
loop_
 _symmetry_equiv_pos_site_id
 _symmetry_equiv_pos_as_xyz
  1  'x, y, z'
loop_
 _atom_site_type_symbol
 _atom_site_label
 _atom_site_symmetry_multiplicity
 _atom_site_fract_x
 _atom_site_fract_y
 _atom_site_fract_z
 _atom_site_occupancy
  Cu  Cu0  1  0.00000000  0.00000000  0.50000000  1.0
  Cu  Cu1  1  0.50000000  0.00000000  0.00000000  1.0
  H  H2  1  0.05719000  0.03220000  0.20631000  1.0
  H  H3  1  0.55719000  0.96779000  0.29369000  1.0
  H  H4  1  0.94281000  0.96779000  0.79369000  1.0
  H  H5  1  0.44281000  0.03221000  0.70631000  1.0
  H  H6  1  0.88806000  0.91695000  0.24231000  1.0
  H  H7  1  0.38806000  0.08305000  0.25769000  1.0
  H  H8  1  0.11194000  0.08305000  0.75768000  1.0
  H  H9  1  0.61194000  0.91695000  0.74231000  1.0
  H  H10  1  0.98745000  0.72601000  0.11188000  1.0
  H  H11  1  0.48745000  0.27399000  0.38812000  1.0
  H  H12  1  0.01255000  0.27399000  0.88812000  1.0
  H  H13  1  0.51255000  0.72601000  0.61188000  1.0
  H  H14  1  0.88165000  0.88507000  0.07808000  1.0
  H  H15  1  0.38165000  0.11493000  0.42192000  1.0
  H  H16  1  0.11835000  0.11492000  0.92192000  1.0
  H  H17  1  0.61835000  0.88507000  0.57808000  1.0
  H  H18  1  0.97611000  0.17763000  0.34463000  1.0
  H  H19  1  0.47611000  0.82238000  0.15537000  1.0
  H  H20  1  0.02389000  0.82238000  0.65537000  1.0
  H  H21  1  0.52389000  0.17762000  0.84463000  1.0
  H  H22  1  0.26555000  0.57916000  0.41215000  1.0
  H  H23  1  0.76555000  0.42084000  0.08785000  1.0
  H  H24  1  0.73445000  0.42084000  0.58785000  1.0
  H  H25  1  0.23445000  0.57916000  0.91215000  1.0
  H  H26  1  0.30526000  0.49137000  0.57038000  1.0
  H  H27  1  0.80526000  0.50863000  0.92962000  1.0
  H  H28  1  0.69474000  0.50863000  0.42962000  1.0
  H  H29  1  0.19474000  0.49137000  0.07038000  1.0
  H  H30  1  0.18669000  0.24400000  0.60824000  1.0
  H  H31  1  0.68668000  0.75600000  0.89176000  1.0
  H  H32  1  0.81331000  0.75599000  0.39176000  1.0
  H  H33  1  0.31332000  0.24400000  0.10824000  1.0
  H  H34  1  0.12392000  0.52740000  0.25836000  1.0
  H  H35  1  0.62392000  0.47260000  0.24164000  1.0
  H  H36  1  0.87608000  0.47260000  0.74164000  1.0
  H  H37  1  0.37608000  0.52740000  0.75836000  1.0
  H  H38  1  0.98797000  0.37550000  0.23974000  1.0
  H  H39  1  0.48798000  0.62450000  0.26026000  1.0
  H  H40  1  0.01202000  0.62450000  0.76026000  1.0
  H  H41  1  0.51203000  0.37550000  0.73974000  1.0
  H  H42  1  0.25120000  0.85738000  0.39962000  1.0
  H  H43  1  0.75120000  0.14262000  0.10038000  1.0
  H  H44  1  0.74880000  0.14262000  0.60038000  1.0
  H  H45  1  0.24880000  0.85739000  0.89963000  1.0
  C  C46  1  0.14374000  0.84014000  0.27035000  1.0
  C  C47  1  0.64375000  0.15988000  0.22965000  1.0
  C  C48  1  0.85626000  0.15988000  0.72965000  1.0
  C  C49  1  0.35625000  0.84015000  0.77035000  1.0
  C  C50  1  0.01760000  0.91598000  0.20780000  1.0
  C  C51  1  0.51760000  0.08401000  0.29220000  1.0
  C  C52  1  0.98240000  0.08401000  0.79219000  1.0
  C  C53  1  0.48239000  0.91599000  0.70781000  1.0
  C  C54  1  0.00216000  0.84605000  0.11090000  1.0
  C  C55  1  0.50216000  0.15394000  0.38910000  1.0
  C  C56  1  0.99784000  0.15394000  0.88910000  1.0
  C  C57  1  0.49784000  0.84606000  0.61090000  1.0
  C  C58  1  0.15082000  0.87546000  0.04453000  1.0
  C  C59  1  0.65082000  0.12454000  0.45547000  1.0
  C  C60  1  0.84918000  0.12454000  0.95547000  1.0
  C  C61  1  0.34919000  0.87546000  0.54453000  1.0
  C  C62  1  0.05148000  0.24998000  0.39207000  1.0
  C  C63  1  0.55148000  0.75002000  0.10793000  1.0
  C  C64  1  0.94852000  0.75001000  0.60793000  1.0
  C  C65  1  0.44852000  0.24998000  0.89207000  1.0
  C  C66  1  0.11744000  0.38486000  0.36332000  1.0
  C  C67  1  0.61744000  0.61515000  0.13669000  1.0
  C  C68  1  0.88256000  0.61514000  0.63668000  1.0
  C  C69  1  0.38256000  0.38485000  0.86331000  1.0
  C  C70  1  0.21213000  0.47291000  0.42956000  1.0
  C  C71  1  0.71213000  0.52709000  0.07044000  1.0
  C  C72  1  0.78787000  0.52709000  0.57044000  1.0
  C  C73  1  0.28787000  0.47291000  0.92956000  1.0
  C  C74  1  0.23453000  0.42398000  0.51805000  1.0
  C  C75  1  0.73453000  0.57602000  0.98195000  1.0
  C  C76  1  0.76547000  0.57602000  0.48195000  1.0
  C  C77  1  0.26547000  0.42398000  0.01805000  1.0
  C  C78  1  0.16683000  0.28817000  0.54075000  1.0
  C  C79  1  0.66683000  0.71183000  0.95925000  1.0
  C  C80  1  0.83317000  0.71183000  0.45925000  1.0
  C  C81  1  0.33317000  0.28817000  0.04075000  1.0
  N  N82  1  0.07721000  0.20368000  0.47736000  1.0
  N  N83  1  0.57721000  0.79632000  0.02264000  1.0
  N  N84  1  0.92279000  0.79632000  0.52264000  1.0
  N  N85  1  0.42279000  0.20368000  0.97736000  1.0
  N  N86  1  0.09359000  0.42206000  0.27360000  1.0
  N  N87  1  0.59359000  0.57795000  0.22640000  1.0
  N  N88  1  0.90642000  0.57794000  0.72640000  1.0
  N  N89  1  0.40641000  0.42206000  0.77360000  1.0
  O  O90  1  0.16204000  0.91114000  0.35156000  1.0
  O  O91  1  0.66204000  0.08885000  0.14844000  1.0
  O  O92  1  0.83796000  0.08886000  0.64843000  1.0
  O  O93  1  0.33797000  0.91115000  0.85157000  1.0
  O  O94  1  0.22087000  0.72284000  0.24802000  1.0
  O  O95  1  0.72086000  0.27714000  0.25198000  1.0
  O  O96  1  0.77914000  0.27714000  0.75198000  1.0
  O  O97  1  0.27912000  0.72286000  0.74802000  1.0
  O  O98  1  0.27318000  0.96542000  0.07063000  1.0
  O  O99  1  0.77318000  0.03458000  0.42937000  1.0
  O  O100  1  0.72682000  0.03457000  0.92937000  1.0
  O  O101  1  0.22682000  0.96543000  0.57063000  1.0
  O  O102  1  0.13921000  0.80923000  0.96484000  1.0
  O  O103  1  0.63920000  0.19077000  0.53516000  1.0
  O  O104  1  0.86079000  0.19077000  0.03515000  1.0
  O  O105  1  0.36080000  0.80923000  0.46485000  1.0
