# generated using pymatgen
data_CdH9C15N3O4
_symmetry_space_group_name_H-M   'P 1'
_cell_length_a   9.06497000
_cell_length_b   11.35700000
_cell_length_c   13.61850000
_cell_angle_alpha   95.80430000
_cell_angle_beta   90.00000000
_cell_angle_gamma   89.99990000
_symmetry_Int_Tables_number   1
_chemical_formula_structural   CdH9C15N3O4
_chemical_formula_sum   'Cd4 H36 C60 N12 O16'
_cell_volume   1394.84827581
_cell_formula_units_Z   4
loop_
 _symmetry_equiv_pos_site_id
 _symmetry_equiv_pos_as_xyz
  1  'x, y, z'
loop_
 _atom_site_type_symbol
 _atom_site_label
 _atom_site_symmetry_multiplicity
 _atom_site_fract_x
 _atom_site_fract_y
 _atom_site_fract_z
 _atom_site_occupancy
  Cd  Cd0  1  0.05141000  0.40481000  0.60836000  1.0
  Cd  Cd1  1  0.55141000  0.09519000  0.89164000  1.0
  Cd  Cd2  1  0.94859000  0.59519000  0.39164000  1.0
  Cd  Cd3  1  0.44859000  0.90481000  0.10836000  1.0
  H  H4  1  0.46816000  0.32713000  0.40784000  1.0
  H  H5  1  0.96816000  0.17287000  0.09216000  1.0
  H  H6  1  0.53184000  0.67287000  0.59216000  1.0
  H  H7  1  0.03184000  0.82713000  0.90784000  1.0
  H  H8  1  0.27232000  0.66253000  0.36051000  1.0
  H  H9  1  0.77232000  0.83747000  0.13949000  1.0
  H  H10  1  0.72768000  0.33746000  0.63949000  1.0
  H  H11  1  0.22768000  0.16254000  0.86051000  1.0
  H  H12  1  0.64369000  0.53523000  0.18624000  1.0
  H  H13  1  0.14369000  0.96477000  0.31376000  1.0
  H  H14  1  0.35632000  0.46477000  0.81376000  1.0
  H  H15  1  0.85632000  0.03523000  0.68624000  1.0
  H  H16  1  0.72765000  0.33520000  0.19084000  1.0
  H  H17  1  0.22765000  0.16480000  0.30916000  1.0
  H  H18  1  0.27235000  0.66480000  0.80916000  1.0
  H  H19  1  0.77235000  0.83520000  0.69084000  1.0
  H  H20  1  0.78452000  0.34474000  0.31601000  1.0
  H  H21  1  0.28452000  0.15526000  0.18399000  1.0
  H  H22  1  0.21548000  0.65526000  0.68399000  1.0
  H  H23  1  0.71548000  0.84474000  0.81601000  1.0
  H  H24  1  0.55517000  0.84983000  0.35077000  1.0
  H  H25  1  0.05517000  0.65018000  0.14924000  1.0
  H  H26  1  0.44483000  0.15017000  0.64924000  1.0
  H  H27  1  0.94483000  0.34983000  0.85077000  1.0
  H  H28  1  0.72092000  0.87019000  0.49681000  1.0
  H  H29  1  0.22092000  0.62981000  0.00319000  1.0
  H  H30  1  0.27908000  0.12980000  0.50319000  1.0
  H  H31  1  0.77908000  0.37019000  0.99681000  1.0
  H  H32  1  0.85347000  0.06069000  0.54600000  1.0
  H  H33  1  0.35347000  0.43931000  0.95400000  1.0
  H  H34  1  0.14653000  0.93930000  0.45400000  1.0
  H  H35  1  0.64653000  0.56069000  0.04600000  1.0
  H  H36  1  0.82400000  0.23361000  0.45304000  1.0
  H  H37  1  0.32400000  0.26639000  0.04696000  1.0
  H  H38  1  0.17600000  0.76639000  0.54696000  1.0
  H  H39  1  0.67600000  0.73361000  0.95304000  1.0
  C  C40  1  0.56933000  0.41963000  0.29310000  1.0
  C  C41  1  0.06933000  0.08037000  0.20690000  1.0
  C  C42  1  0.43067000  0.58037000  0.70690000  1.0
  C  C43  1  0.93067000  0.91963000  0.79310000  1.0
  C  C44  1  0.46703000  0.40527000  0.36746000  1.0
  C  C45  1  0.96702000  0.09473000  0.13254000  1.0
  C  C46  1  0.53297000  0.59473000  0.63254000  1.0
  C  C47  1  0.03297000  0.90527000  0.86746000  1.0
  C  C48  1  0.35977000  0.49224000  0.39238000  1.0
  C  C49  1  0.85977000  0.00776000  0.10761000  1.0
  C  C50  1  0.64023000  0.50776000  0.60762000  1.0
  C  C51  1  0.14023000  0.99224000  0.89238000  1.0
  C  C52  1  0.35478000  0.59387000  0.34239000  1.0
  C  C53  1  0.85478000  0.90613000  0.15761000  1.0
  C  C54  1  0.64522000  0.40613000  0.65761000  1.0
  C  C55  1  0.14522000  0.09387000  0.84239000  1.0
  C  C56  1  0.45554000  0.60754000  0.26665000  1.0
  C  C57  1  0.95554000  0.89246000  0.23335000  1.0
  C  C58  1  0.54446000  0.39246000  0.73335000  1.0
  C  C59  1  0.04446000  0.10754000  0.76665000  1.0
  C  C60  1  0.56325000  0.52111000  0.24324000  1.0
  C  C61  1  0.06325000  0.97889000  0.25676000  1.0
  C  C62  1  0.43675000  0.47888000  0.75676000  1.0
  C  C63  1  0.93675000  0.02112000  0.74323000  1.0
  C  C64  1  0.68921000  0.32940000  0.26664000  1.0
  C  C65  1  0.18921000  0.17060000  0.23336000  1.0
  C  C66  1  0.31079000  0.67060000  0.73336000  1.0
  C  C67  1  0.81079000  0.82940000  0.76664000  1.0
  C  C68  1  0.67765000  0.13609000  0.34587000  1.0
  C  C69  1  0.17765000  0.36391000  0.15413000  1.0
  C  C70  1  0.32235000  0.86391000  0.65413000  1.0
  C  C71  1  0.82235000  0.63609000  0.84587000  1.0
  C  C72  1  0.60271000  0.02909000  0.31644000  1.0
  C  C73  1  0.10271000  0.47091000  0.18356000  1.0
  C  C74  1  0.39729000  0.97091000  0.68356000  1.0
  C  C75  1  0.89729000  0.52909000  0.81644000  1.0
  C  C76  1  0.61452000  0.93153000  0.37178000  1.0
  C  C77  1  0.11452000  0.56847000  0.12822000  1.0
  C  C78  1  0.38548000  0.06847000  0.62822000  1.0
  C  C79  1  0.88548000  0.43154000  0.87179000  1.0
  C  C80  1  0.70582000  0.94521000  0.45372000  1.0
  C  C81  1  0.20582000  0.55479000  0.04628000  1.0
  C  C82  1  0.29418000  0.05479000  0.54628000  1.0
  C  C83  1  0.79418000  0.44521000  0.95372000  1.0
  C  C84  1  0.78130000  0.05256000  0.48186000  1.0
  C  C85  1  0.28130000  0.44744000  0.01814000  1.0
  C  C86  1  0.21870000  0.94744000  0.51814000  1.0
  C  C87  1  0.71869000  0.55256000  0.98186000  1.0
  C  C88  1  0.76770000  0.15077000  0.42978000  1.0
  C  C89  1  0.26770000  0.34923000  0.07022000  1.0
  C  C90  1  0.23230000  0.84922000  0.57022000  1.0
  C  C91  1  0.73230000  0.65077000  0.92978000  1.0
  C  C92  1  0.24995000  0.47303000  0.47051000  1.0
  C  C93  1  0.74995000  0.02697000  0.02949000  1.0
  C  C94  1  0.75005000  0.52697000  0.52949000  1.0
  C  C95  1  0.25005000  0.97303000  0.97051000  1.0
  C  C96  1  0.44525000  0.71368000  0.21018000  1.0
  C  C97  1  0.94525000  0.78632000  0.28982000  1.0
  C  C98  1  0.55475000  0.28632000  0.78982000  1.0
  C  C99  1  0.05475000  0.21368000  0.71018000  1.0
  N  N100  1  0.53060000  0.04483000  0.22946000  1.0
  N  N101  1  0.03060000  0.45517000  0.27054000  1.0
  N  N102  1  0.46940000  0.95517000  0.77054000  1.0
  N  N103  1  0.96940000  0.54483000  0.72946000  1.0
  N  N104  1  0.55587000  0.15212000  0.20483000  1.0
  N  N105  1  0.05587000  0.34788000  0.29517000  1.0
  N  N106  1  0.44414000  0.84788000  0.79517000  1.0
  N  N107  1  0.94414000  0.65212000  0.70483000  1.0
  N  N108  1  0.64320000  0.20806000  0.27418000  1.0
  N  N109  1  0.14320000  0.29194000  0.22582000  1.0
  N  N110  1  0.35680000  0.79194000  0.72582000  1.0
  N  N111  1  0.85680000  0.70806000  0.77418000  1.0
  O  O112  1  0.15097000  0.55223000  0.49519000  1.0
  O  O113  1  0.65096000  0.94777000  0.00480000  1.0
  O  O114  1  0.84904000  0.44777000  0.50480000  1.0
  O  O115  1  0.34903000  0.05223000  0.99520000  1.0
  O  O116  1  0.25584000  0.37728000  0.51166000  1.0
  O  O117  1  0.75584000  0.12272000  0.98834000  1.0
  O  O118  1  0.74416000  0.62272000  0.48834000  1.0
  O  O119  1  0.24416000  0.87728000  0.01166000  1.0
  O  O120  1  0.35600000  0.79609000  0.23952000  1.0
  O  O121  1  0.85600000  0.70391000  0.26048000  1.0
  O  O122  1  0.64400000  0.20391000  0.76048000  1.0
  O  O123  1  0.14400000  0.29609000  0.73952000  1.0
  O  O124  1  0.52852000  0.71856000  0.13429000  1.0
  O  O125  1  0.02851000  0.78145000  0.36571000  1.0
  O  O126  1  0.47149000  0.28144000  0.86571000  1.0
  O  O127  1  0.97149000  0.21856000  0.63429000  1.0
