# generated using pymatgen
data_ZnH15C10N2ClO4
_symmetry_space_group_name_H-M   'P 1'
_cell_length_a   6.20295000
_cell_length_b   11.53450000
_cell_length_c   17.57940000
_cell_angle_alpha   90.00020000
_cell_angle_beta   89.99950000
_cell_angle_gamma   89.99980000
_symmetry_Int_Tables_number   1
_chemical_formula_structural   ZnH15C10N2ClO4
_chemical_formula_sum   'Zn4 H60 C40 N8 Cl4 O16'
_cell_volume   1257.76962389
_cell_formula_units_Z   4
loop_
 _symmetry_equiv_pos_site_id
 _symmetry_equiv_pos_as_xyz
  1  'x, y, z'
loop_
 _atom_site_type_symbol
 _atom_site_label
 _atom_site_symmetry_multiplicity
 _atom_site_fract_x
 _atom_site_fract_y
 _atom_site_fract_z
 _atom_site_occupancy
  Zn  Zn0  1  0.73514000  0.58072000  0.78777000  1.0
  Zn  Zn1  1  0.76485000  0.41929000  0.28777000  1.0
  Zn  Zn2  1  0.26485000  0.08072000  0.71223000  1.0
  Zn  Zn3  1  0.23515000  0.91928000  0.21223000  1.0
  H  H4  1  0.60383000  0.69218000  0.27209000  1.0
  H  H5  1  0.89617000  0.30782000  0.77209000  1.0
  H  H6  1  0.39617000  0.19218000  0.22791000  1.0
  H  H7  1  0.10383000  0.80782000  0.72791000  1.0
  H  H8  1  0.36971000  0.68807000  0.74244000  1.0
  H  H9  1  0.13030000  0.31193000  0.24244000  1.0
  H  H10  1  0.63029000  0.18807000  0.75756000  1.0
  H  H11  1  0.86971000  0.81192000  0.25757000  1.0
  H  H12  1  0.28012000  0.58032000  0.79185000  1.0
  H  H13  1  0.21987000  0.41968000  0.29185000  1.0
  H  H14  1  0.71987000  0.08032000  0.70815000  1.0
  H  H15  1  0.78013000  0.91968000  0.20815000  1.0
  H  H16  1  0.98005000  0.53210000  0.39679000  1.0
  H  H17  1  0.51995000  0.46789000  0.89678000  1.0
  H  H18  1  0.01997000  0.03210000  0.10321000  1.0
  H  H19  1  0.48005000  0.96789000  0.60321000  1.0
  H  H20  1  0.08884000  0.57801000  0.67206000  1.0
  H  H21  1  0.41115000  0.42199000  0.17206000  1.0
  H  H22  1  0.91116000  0.07801000  0.82794000  1.0
  H  H23  1  0.58885000  0.92199000  0.32794000  1.0
  H  H24  1  0.13479000  0.51811000  0.53590000  1.0
  H  H25  1  0.36520000  0.48189000  0.03591000  1.0
  H  H26  1  0.86521000  0.01811000  0.96410000  1.0
  H  H27  1  0.63480000  0.98189000  0.46409000  1.0
  H  H28  1  0.51417000  0.35014000  0.55264000  1.0
  H  H29  1  0.98582000  0.64986000  0.05263000  1.0
  H  H30  1  0.48583000  0.85014000  0.94736000  1.0
  H  H31  1  0.01418000  0.14986000  0.44737000  1.0
  H  H32  1  0.48787000  0.42202000  0.68541000  1.0
  H  H33  1  0.01212000  0.57798000  0.18541000  1.0
  H  H34  1  0.51213000  0.92201000  0.81459000  1.0
  H  H35  1  0.98788000  0.07799000  0.31459000  1.0
  H  H36  1  0.99307000  0.34904000  0.43839000  1.0
  H  H37  1  0.50691000  0.65096000  0.93839000  1.0
  H  H38  1  0.00692000  0.84904000  0.06161000  1.0
  H  H39  1  0.49309000  0.15096000  0.56161000  1.0
  H  H40  1  0.70868000  0.33265000  0.43683000  1.0
  H  H41  1  0.79131000  0.66735000  0.93683000  1.0
  H  H42  1  0.29132000  0.83264000  0.06317000  1.0
  H  H43  1  0.20870000  0.16736000  0.56317000  1.0
  H  H44  1  0.64092000  0.58866000  0.47598000  1.0
  H  H45  1  0.85908000  0.41134000  0.97598000  1.0
  H  H46  1  0.35909000  0.08866000  0.02402000  1.0
  H  H47  1  0.14092000  0.91134000  0.52402000  1.0
  H  H48  1  0.54948000  0.74650000  0.38945000  1.0
  H  H49  1  0.95053000  0.25350000  0.88945000  1.0
  H  H50  1  0.45053000  0.24650000  0.11055000  1.0
  H  H51  1  0.04947000  0.75350000  0.61055000  1.0
  H  H52  1  0.03886000  0.71347000  0.41095000  1.0
  H  H53  1  0.46114000  0.28653000  0.91096000  1.0
  H  H54  1  0.96114000  0.21347000  0.08904000  1.0
  H  H55  1  0.53886000  0.78653000  0.58905000  1.0
  H  H56  1  0.85361000  0.76885000  0.48019000  1.0
  H  H57  1  0.64639000  0.23115000  0.98019000  1.0
  H  H58  1  0.14640000  0.26885000  0.01981000  1.0
  H  H59  1  0.35361000  0.73114000  0.51981000  1.0
  H  H60  1  0.90370000  0.84690000  0.39506000  1.0
  H  H61  1  0.59630000  0.15310000  0.89506000  1.0
  H  H62  1  0.09630000  0.34690000  0.10494000  1.0
  H  H63  1  0.40370000  0.65310000  0.60494000  1.0
  C  C64  1  0.96385000  0.52939000  0.64247000  1.0
  C  C65  1  0.53613000  0.47061000  0.14248000  1.0
  C  C66  1  0.03614000  0.02939000  0.85753000  1.0
  C  C67  1  0.46387000  0.97061000  0.35752000  1.0
  C  C68  1  0.99066000  0.49353000  0.56763000  1.0
  C  C69  1  0.50932000  0.50647000  0.06763000  1.0
  C  C70  1  0.00934000  0.99353000  0.93237000  1.0
  C  C71  1  0.49067000  0.00647000  0.43237000  1.0
  C  C72  1  0.82732000  0.42854000  0.53287000  1.0
  C  C73  1  0.67266000  0.57145000  0.03287000  1.0
  C  C74  1  0.17268000  0.92854000  0.96713000  1.0
  C  C75  1  0.32734000  0.07146000  0.46713000  1.0
  C  C76  1  0.64605000  0.40084000  0.57655000  1.0
  C  C77  1  0.85393000  0.59916000  0.07655000  1.0
  C  C78  1  0.35394000  0.90084000  0.92345000  1.0
  C  C79  1  0.14607000  0.09917000  0.42345000  1.0
  C  C80  1  0.62897000  0.44132000  0.65077000  1.0
  C  C81  1  0.87102000  0.55868000  0.15077000  1.0
  C  C82  1  0.37103000  0.94131000  0.84923000  1.0
  C  C83  1  0.12898000  0.05869000  0.34923000  1.0
  C  C84  1  0.83991000  0.39339000  0.45026000  1.0
  C  C85  1  0.66008000  0.60660000  0.95026000  1.0
  C  C86  1  0.16009000  0.89339000  0.04974000  1.0
  C  C87  1  0.33992000  0.10661000  0.54974000  1.0
  C  C88  1  0.65631000  0.57593000  0.41420000  1.0
  C  C89  1  0.84370000  0.42407000  0.91420000  1.0
  C  C90  1  0.34370000  0.07593000  0.08580000  1.0
  C  C91  1  0.15630000  0.92407000  0.58580000  1.0
  C  C92  1  0.69982000  0.69732000  0.38029000  1.0
  C  C93  1  0.80018000  0.30268000  0.88029000  1.0
  C  C94  1  0.30019000  0.19732000  0.11971000  1.0
  C  C95  1  0.19982000  0.80268000  0.61971000  1.0
  C  C96  1  0.88577000  0.75956000  0.41908000  1.0
  C  C97  1  0.61423000  0.24044000  0.91908000  1.0
  C  C98  1  0.11423000  0.25956000  0.08092000  1.0
  C  C99  1  0.38577000  0.74044000  0.58092000  1.0
  C  C100  1  0.43754000  0.53060000  0.38608000  1.0
  C  C101  1  0.06246000  0.46940000  0.88608000  1.0
  C  C102  1  0.56247000  0.03060000  0.11392000  1.0
  C  C103  1  0.93754000  0.96940000  0.61392000  1.0
  N  N104  1  0.78446000  0.50631000  0.68286000  1.0
  N  N105  1  0.71553000  0.49369000  0.18286000  1.0
  N  N106  1  0.21554000  0.00631000  0.81714000  1.0
  N  N107  1  0.28446000  0.99369000  0.31714000  1.0
  N  N108  1  0.82951000  0.49270000  0.39609000  1.0
  N  N109  1  0.67049000  0.50730000  0.89609000  1.0
  N  N110  1  0.17050000  0.99270000  0.10391000  1.0
  N  N111  1  0.32951000  0.00730000  0.60390000  1.0
  Cl  Cl112  1  0.82170000  0.77544000  0.78565000  1.0
  Cl  Cl113  1  0.67829000  0.22456000  0.28565000  1.0
  Cl  Cl114  1  0.17830000  0.27544000  0.71435000  1.0
  Cl  Cl115  1  0.32169000  0.72456000  0.21435000  1.0
  O  O116  1  0.74376000  0.69066000  0.30013000  1.0
  O  O117  1  0.75624000  0.30934000  0.80014000  1.0
  O  O118  1  0.25624000  0.19067000  0.19986000  1.0
  O  O119  1  0.24376000  0.80934000  0.69987000  1.0
  O  O120  1  0.44210000  0.46396000  0.32761000  1.0
  O  O121  1  0.05790000  0.53603000  0.82761000  1.0
  O  O122  1  0.55790000  0.96396000  0.17239000  1.0
  O  O123  1  0.94210000  0.03604000  0.67239000  1.0
  O  O124  1  0.27095000  0.56313000  0.42044000  1.0
  O  O125  1  0.22905000  0.43688000  0.92044000  1.0
  O  O126  1  0.72906000  0.06312000  0.07956000  1.0
  O  O127  1  0.77095000  0.93688000  0.57956000  1.0
  O  O128  1  0.40900000  0.61053000  0.76282000  1.0
  O  O129  1  0.09100000  0.38947000  0.26282000  1.0
  O  O130  1  0.59100000  0.11054000  0.73718000  1.0
  O  O131  1  0.90900000  0.88947000  0.23718000  1.0
