# generated using pymatgen
data_MnH18C32I3N5O4
_symmetry_space_group_name_H-M   'P 1'
_cell_length_a   9.65438000
_cell_length_b   18.17120000
_cell_length_c   19.75790000
_cell_angle_alpha   89.89020000
_cell_angle_beta   77.04700000
_cell_angle_gamma   89.75200000
_symmetry_Int_Tables_number   1
_chemical_formula_structural   MnH18C32I3N5O4
_chemical_formula_sum   'Mn4 H72 C128 I12 N20 O16'
_cell_volume   3377.92913157
_cell_formula_units_Z   4
loop_
 _symmetry_equiv_pos_site_id
 _symmetry_equiv_pos_as_xyz
  1  'x, y, z'
loop_
 _atom_site_type_symbol
 _atom_site_label
 _atom_site_symmetry_multiplicity
 _atom_site_fract_x
 _atom_site_fract_y
 _atom_site_fract_z
 _atom_site_occupancy
  Mn  Mn0  1  0.51465000  0.42032000  0.26473000  1.0
  Mn  Mn1  1  0.48458000  0.92009000  0.23545000  1.0
  Mn  Mn2  1  0.47266000  0.57708000  0.72407000  1.0
  Mn  Mn3  1  0.51433000  0.07974000  0.76383000  1.0
  H  H4  1  0.04750000  0.71387000  0.41583000  1.0
  H  H5  1  0.95290000  0.21483000  0.08673000  1.0
  H  H6  1  0.95522000  0.28251000  0.58652000  1.0
  H  H7  1  0.04696000  0.78414000  0.91269000  1.0
  H  H8  1  0.99578000  0.64257000  0.37069000  1.0
  H  H9  1  0.00488000  0.14373000  0.13236000  1.0
  H  H10  1  0.00469000  0.35510000  0.63085000  1.0
  H  H11  1  0.99517000  0.85562000  0.86744000  1.0
  H  H12  1  0.45337000  0.30667000  0.39966000  1.0
  H  H13  1  0.54679000  0.80586000  0.10103000  1.0
  H  H14  1  0.56059000  0.68971000  0.60003000  1.0
  H  H15  1  0.45093000  0.19585000  0.89809000  1.0
  H  H16  1  0.57158000  0.19633000  0.43826000  1.0
  H  H17  1  0.42845000  0.69658000  0.06189000  1.0
  H  H18  1  0.44283000  0.79789000  0.55946000  1.0
  H  H19  1  0.56789000  0.30643000  0.93584000  1.0
  H  H20  1  0.82308000  0.16792000  0.38005000  1.0
  H  H21  1  0.17682000  0.66923000  0.11971000  1.0
  H  H22  1  0.19124000  0.82799000  0.61537000  1.0
  H  H23  1  0.81980000  0.33373000  0.87788000  1.0
  H  H24  1  0.04306000  0.20359000  0.28997000  1.0
  H  H25  1  0.95712000  0.70497000  0.21042000  1.0
  H  H26  1  0.96552000  0.79128000  0.70750000  1.0
  H  H27  1  0.04074000  0.29658000  0.78866000  1.0
  H  H28  1  0.16101000  0.28652000  0.19442000  1.0
  H  H29  1  0.83934000  0.78738000  0.30636000  1.0
  H  H30  1  0.85061000  0.70889000  0.80324000  1.0
  H  H31  1  0.15980000  0.21270000  0.69417000  1.0
  H  H32  1  0.14660000  0.39598000  0.11894000  1.0
  H  H33  1  0.85327000  0.89664000  0.38214000  1.0
  H  H34  1  0.87134000  0.59699000  0.88093000  1.0
  H  H35  1  0.14658000  0.10312000  0.61898000  1.0
  H  H36  1  0.99397000  0.49307000  0.08039000  1.0
  H  H37  1  0.00526000  0.99333000  0.42026000  1.0
  H  H38  1  0.03470000  0.50386000  0.91721000  1.0
  H  H39  1  0.99509000  0.00607000  0.58101000  1.0
  H  H40  1  0.73486000  0.50142000  0.14101000  1.0
  H  H41  1  0.26373000  0.00173000  0.35895000  1.0
  H  H42  1  0.29097000  0.49957000  0.85614000  1.0
  H  H43  1  0.73632000  0.99783000  0.64183000  1.0
  H  H44  1  0.22094000  0.33351000  0.31573000  1.0
  H  H45  1  0.77914000  0.83243000  0.18455000  1.0
  H  H46  1  0.76098000  0.66317000  0.69571000  1.0
  H  H47  1  0.22088000  0.16831000  0.81500000  1.0
  H  H48  1  0.01752000  0.32780000  0.42106000  1.0
  H  H49  1  0.98277000  0.82615000  0.07938000  1.0
  H  H50  1  0.96501000  0.67284000  0.59256000  1.0
  H  H51  1  0.01738000  0.17465000  0.92026000  1.0
  H  H52  1  0.01423000  0.41546000  0.51866000  1.0
  H  H53  1  0.98539000  0.91328000  0.98119000  1.0
  H  H54  1  0.97695000  0.58964000  0.49043000  1.0
  H  H55  1  0.01451000  0.08726000  0.01824000  1.0
  H  H56  1  0.12889000  0.52379000  0.56541000  1.0
  H  H57  1  0.86866000  0.02120000  0.93354000  1.0
  H  H58  1  0.86160000  0.47889000  0.43982000  1.0
  H  H59  1  0.13080000  0.97926000  0.06584000  1.0
  H  H60  1  0.32457000  0.61442000  0.54983000  1.0
  H  H61  1  0.67278000  0.11232000  0.94861000  1.0
  H  H62  1  0.66658000  0.38888000  0.45380000  1.0
  H  H63  1  0.32663000  0.88815000  0.05084000  1.0
  H  H64  1  0.55873000  0.66181000  0.47804000  1.0
  H  H65  1  0.44010000  0.16208000  0.02139000  1.0
  H  H66  1  0.42736000  0.33918000  0.52867000  1.0
  H  H67  1  0.56020000  0.83899000  0.97869000  1.0
  H  H68  1  0.75930000  0.64459000  0.37515000  1.0
  H  H69  1  0.24138000  0.14656000  0.12515000  1.0
  H  H70  1  0.23016000  0.35964000  0.63230000  1.0
  H  H71  1  0.75946000  0.85479000  0.87518000  1.0
  H  H72  1  0.74880000  0.54202000  0.29212000  1.0
  H  H73  1  0.25195000  0.04390000  0.20847000  1.0
  H  H74  1  0.23882000  0.46423000  0.71172000  1.0
  H  H75  1  0.74805000  0.95651000  0.79128000  1.0
  C  C76  1  0.40621000  0.55470000  0.18519000  1.0
  C  C77  1  0.59296000  0.05388000  0.31487000  1.0
  C  C78  1  0.58667000  0.45057000  0.80621000  1.0
  C  C79  1  0.40733000  0.94486000  0.68446000  1.0
  C  C80  1  0.37418000  0.61203000  0.24357000  1.0
  C  C81  1  0.62505000  0.11150000  0.25669000  1.0
  C  C82  1  0.62027000  0.39212000  0.74958000  1.0
  C  C83  1  0.37518000  0.88702000  0.74241000  1.0
  C  C84  1  0.47454000  0.66480000  0.25224000  1.0
  C  C85  1  0.52482000  0.16486000  0.24810000  1.0
  C  C86  1  0.52152000  0.33787000  0.74249000  1.0
  C  C87  1  0.47520000  0.83349000  0.75087000  1.0
  C  C88  1  0.44714000  0.71736000  0.30561000  1.0
  C  C89  1  0.55215000  0.21754000  0.19477000  1.0
  C  C90  1  0.55137000  0.28328000  0.69105000  1.0
  C  C91  1  0.44701000  0.78026000  0.80372000  1.0
  C  C92  1  0.31372000  0.71584000  0.35136000  1.0
  C  C93  1  0.68582000  0.21585000  0.14925000  1.0
  C  C94  1  0.68610000  0.28373000  0.64653000  1.0
  C  C95  1  0.31337000  0.78199000  0.84924000  1.0
  C  C96  1  0.20588000  0.66595000  0.34424000  1.0
  C  C97  1  0.79402000  0.16597000  0.15691000  1.0
  C  C98  1  0.79369000  0.33371000  0.65385000  1.0
  C  C99  1  0.20569000  0.83242000  0.84204000  1.0
  C  C100  1  0.24112000  0.61448000  0.28948000  1.0
  C  C101  1  0.75840000  0.11385000  0.21109000  1.0
  C  C102  1  0.75570000  0.38791000  0.70597000  1.0
  C  C103  1  0.24172000  0.88464000  0.78797000  1.0
  C  C104  1  0.55829000  0.77408000  0.31498000  1.0
  C  C105  1  0.44114000  0.27474000  0.18523000  1.0
  C  C106  1  0.44095000  0.22571000  0.68261000  1.0
  C  C107  1  0.55975000  0.72467000  0.81416000  1.0
  C  C108  1  0.56345000  0.29315000  0.37540000  1.0
  C  C109  1  0.43647000  0.79294000  0.12503000  1.0
  C  C110  1  0.45022000  0.70274000  0.62345000  1.0
  C  C111  1  0.56109000  0.20893000  0.87392000  1.0
  C  C112  1  0.63046000  0.23196000  0.39764000  1.0
  C  C113  1  0.36945000  0.73231000  0.10250000  1.0
  C  C114  1  0.38275000  0.76303000  0.60046000  1.0
  C  C115  1  0.62733000  0.27032000  0.89569000  1.0
  C  C116  1  0.76990000  0.21647000  0.36538000  1.0
  C  C117  1  0.22985000  0.71740000  0.13458000  1.0
  C  C118  1  0.24234000  0.77946000  0.63140000  1.0
  C  C119  1  0.76685000  0.28520000  0.86352000  1.0
  C  C120  1  0.84110000  0.26211000  0.31088000  1.0
  C  C121  1  0.15869000  0.76298000  0.18925000  1.0
  C  C122  1  0.16976000  0.73463000  0.68607000  1.0
  C  C123  1  0.83898000  0.23873000  0.80978000  1.0
  C  C124  1  0.76292000  0.32160000  0.29086000  1.0
  C  C125  1  0.23672000  0.82209000  0.20936000  1.0
  C  C126  1  0.24676000  0.67567000  0.70733000  1.0
  C  C127  1  0.76154000  0.17900000  0.79031000  1.0
  C  C128  1  0.98516000  0.25009000  0.27452000  1.0
  C  C129  1  0.01489000  0.75120000  0.22585000  1.0
  C  C130  1  0.02533000  0.74552000  0.72291000  1.0
  C  C131  1  0.98324000  0.25005000  0.77361000  1.0
  C  C132  1  0.05017000  0.29520000  0.22153000  1.0
  C  C133  1  0.94992000  0.79610000  0.27908000  1.0
  C  C134  1  0.96172000  0.70029000  0.77634000  1.0
  C  C135  1  0.04895000  0.20433000  0.72121000  1.0
  C  C136  1  0.97319000  0.35470000  0.19918000  1.0
  C  C137  1  0.02650000  0.85536000  0.30135000  1.0
  C  C138  1  0.03981000  0.64143000  0.79931000  1.0
  C  C139  1  0.97264000  0.14481000  0.69917000  1.0
  C  C140  1  0.82862000  0.36706000  0.23270000  1.0
  C  C141  1  0.17081000  0.86761000  0.26754000  1.0
  C  C142  1  0.18396000  0.63115000  0.76485000  1.0
  C  C143  1  0.82805000  0.13282000  0.73271000  1.0
  C  C144  1  0.03427000  0.40218000  0.14386000  1.0
  C  C145  1  0.96537000  0.90270000  0.35686000  1.0
  C  C146  1  0.98325000  0.59323000  0.85465000  1.0
  C  C147  1  0.03435000  0.09709000  0.64407000  1.0
  C  C148  1  0.95021000  0.45557000  0.12282000  1.0
  C  C149  1  0.04907000  0.95593000  0.37770000  1.0
  C  C150  1  0.07365000  0.54166000  0.87431000  1.0
  C  C151  1  0.95092000  0.04366000  0.62333000  1.0
  C  C152  1  0.80629000  0.46161000  0.15700000  1.0
  C  C153  1  0.19265000  0.96199000  0.34313000  1.0
  C  C154  1  0.21709000  0.53749000  0.83991000  1.0
  C  C155  1  0.80710000  0.03776000  0.65762000  1.0
  C  C156  1  0.21552000  0.37014000  0.35987000  1.0
  C  C157  1  0.78434000  0.86903000  0.14030000  1.0
  C  C158  1  0.76802000  0.62849000  0.65025000  1.0
  C  C159  1  0.21567000  0.13166000  0.85923000  1.0
  C  C160  1  0.10257000  0.36769000  0.41863000  1.0
  C  C161  1  0.89737000  0.86616000  0.08153000  1.0
  C  C162  1  0.88143000  0.63275000  0.59222000  1.0
  C  C163  1  0.10270000  0.13455000  0.91801000  1.0
  C  C164  1  0.10057000  0.41671000  0.47241000  1.0
  C  C165  1  0.89902000  0.91495000  0.02746000  1.0
  C  C166  1  0.88875000  0.58598000  0.53575000  1.0
  C  C167  1  0.10089000  0.08562000  0.97199000  1.0
  C  C168  1  0.21132000  0.46829000  0.46719000  1.0
  C  C169  1  0.78782000  0.96677000  0.03250000  1.0
  C  C170  1  0.78011000  0.53380000  0.53852000  1.0
  C  C171  1  0.21193000  0.03375000  0.96691000  1.0
  C  C172  1  0.32326000  0.46509000  0.40684000  1.0
  C  C173  1  0.67617000  0.96422000  0.09299000  1.0
  C  C174  1  0.66625000  0.53494000  0.59774000  1.0
  C  C175  1  0.32357000  0.03622000  0.90641000  1.0
  C  C176  1  0.21520000  0.52270000  0.51914000  1.0
  C  C177  1  0.78300000  0.02076000  0.98009000  1.0
  C  C178  1  0.77532000  0.47989000  0.48610000  1.0
  C  C179  1  0.21652000  0.97971000  0.01932000  1.0
  C  C180  1  0.32361000  0.57226000  0.51080000  1.0
  C  C181  1  0.67450000  0.07077000  0.98826000  1.0
  C  C182  1  0.66657000  0.43034000  0.49356000  1.0
  C  C183  1  0.32498000  0.92974000  0.01123000  1.0
  C  C184  1  0.44076000  0.56893000  0.45170000  1.0
  C  C185  1  0.55825000  0.06850000  0.04782000  1.0
  C  C186  1  0.54788000  0.43286000  0.55217000  1.0
  C  C187  1  0.44138000  0.93201000  0.95173000  1.0
  C  C188  1  0.44221000  0.51424000  0.40021000  1.0
  C  C189  1  0.55729000  0.01400000  0.09964000  1.0
  C  C190  1  0.54867000  0.48788000  0.60274000  1.0
  C  C191  1  0.44231000  0.98639000  0.89981000  1.0
  C  C192  1  0.55795000  0.61687000  0.44176000  1.0
  C  C193  1  0.44143000  0.11726000  0.05792000  1.0
  C  C194  1  0.43042000  0.38530000  0.56336000  1.0
  C  C195  1  0.55860000  0.88358000  0.94195000  1.0
  C  C196  1  0.66955000  0.60715000  0.38494000  1.0
  C  C197  1  0.33066000  0.10844000  0.11522000  1.0
  C  C198  1  0.31996000  0.39708000  0.62088000  1.0
  C  C199  1  0.66964000  0.89251000  0.88481000  1.0
  C  C200  1  0.66273000  0.55055000  0.33770000  1.0
  C  C201  1  0.33769000  0.05184000  0.16266000  1.0
  C  C202  1  0.32526000  0.45468000  0.66679000  1.0
  C  C203  1  0.66221000  0.94873000  0.83706000  1.0
  I  I204  1  0.67533000  0.66497000  0.18111000  1.0
  I  I205  1  0.32443000  0.16583000  0.31943000  1.0
  I  I206  1  0.32221000  0.33682000  0.81446000  1.0
  I  I207  1  0.67720000  0.83326000  0.68074000  1.0
  I  I208  1  0.26868000  0.79071000  0.43539000  1.0
  I  I209  1  0.73049000  0.29009000  0.06458000  1.0
  I  I210  1  0.73374000  0.20718000  0.56407000  1.0
  I  I211  1  0.27027000  0.70865000  0.93448000  1.0
  I  I212  1  0.08209000  0.53901000  0.27642000  1.0
  I  I213  1  0.91714000  0.03736000  0.22382000  1.0
  I  I214  1  0.91392000  0.46251000  0.72116000  1.0
  I  I215  1  0.08348000  0.96162000  0.77559000  1.0
  N  N216  1  0.07484000  0.66572000  0.38988000  1.0
  N  N217  1  0.92620000  0.16633000  0.11216000  1.0
  N  N218  1  0.92728000  0.33152000  0.61075000  1.0
  N  N219  1  0.07401000  0.83252000  0.88716000  1.0
  N  N220  1  0.62667000  0.33665000  0.32333000  1.0
  N  N221  1  0.37306000  0.83662000  0.17699000  1.0
  N  N222  1  0.38527000  0.65941000  0.67632000  1.0
  N  N223  1  0.62508000  0.16462000  0.82262000  1.0
  N  N224  1  0.74756000  0.41961000  0.21122000  1.0
  N  N225  1  0.25145000  0.92007000  0.28881000  1.0
  N  N226  1  0.27278000  0.57995000  0.78452000  1.0
  N  N227  1  0.74776000  0.08010000  0.71155000  1.0
  N  N228  1  0.32380000  0.41674000  0.35453000  1.0
  N  N229  1  0.67593000  0.91598000  0.14553000  1.0
  N  N230  1  0.65884000  0.58152000  0.65328000  1.0
  N  N231  1  0.32389000  0.08454000  0.85389000  1.0
  N  N232  1  0.55167000  0.50582000  0.34436000  1.0
  N  N233  1  0.44832000  0.00631000  0.15579000  1.0
  N  N234  1  0.43869000  0.49944000  0.65955000  1.0
  N  N235  1  0.55126000  0.99400000  0.84362000  1.0
  O  O236  1  0.48209000  0.49949000  0.19621000  1.0
  O  O237  1  0.51691000  0.99919000  0.30376000  1.0
  O  O238  1  0.52468000  0.51086000  0.79353000  1.0
  O  O239  1  0.48157000  0.00012000  0.69606000  1.0
  O  O240  1  0.35830000  0.56585000  0.13278000  1.0
  O  O241  1  0.64118000  0.06445000  0.36721000  1.0
  O  O242  1  0.61843000  0.43704000  0.86229000  1.0
  O  O243  1  0.36073000  0.93386000  0.63173000  1.0
  O  O244  1  0.57207000  0.83002000  0.27451000  1.0
  O  O245  1  0.42723000  0.33056000  0.22568000  1.0
  O  O246  1  0.42886000  0.17024000  0.72357000  1.0
  O  O247  1  0.57153000  0.66391000  0.78102000  1.0
  O  O248  1  0.62803000  0.76152000  0.35980000  1.0
  O  O249  1  0.37196000  0.26268000  0.14016000  1.0
  O  O250  1  0.36986000  0.23772000  0.63824000  1.0
  O  O251  1  0.63749000  0.74320000  0.85396000  1.0
