# generated using pymatgen
data_ZnH14C15N4O5
_symmetry_space_group_name_H-M   'P 1'
_cell_length_a   10.16570000
_cell_length_b   10.42760000
_cell_length_c   17.19490000
_cell_angle_alpha   75.64400000
_cell_angle_beta   89.99990000
_cell_angle_gamma   89.99960000
_symmetry_Int_Tables_number   1
_chemical_formula_structural   ZnH14C15N4O5
_chemical_formula_sum   'Zn4 H56 C60 N16 O20'
_cell_volume   1765.80896288
_cell_formula_units_Z   4
loop_
 _symmetry_equiv_pos_site_id
 _symmetry_equiv_pos_as_xyz
  1  'x, y, z'
loop_
 _atom_site_type_symbol
 _atom_site_label
 _atom_site_symmetry_multiplicity
 _atom_site_fract_x
 _atom_site_fract_y
 _atom_site_fract_z
 _atom_site_occupancy
  Zn  Zn0  1  0.92635000  0.19273000  0.61897000  1.0
  Zn  Zn1  1  0.42636000  0.30727000  0.88102000  1.0
  Zn  Zn2  1  0.07364000  0.80727000  0.38103000  1.0
  Zn  Zn3  1  0.57366000  0.69272000  0.11898000  1.0
  H  H4  1  0.16135000  0.01464000  0.58523000  1.0
  H  H5  1  0.66135000  0.48538000  0.91476000  1.0
  H  H6  1  0.83866000  0.98536000  0.41476000  1.0
  H  H7  1  0.33865000  0.51462000  0.08525000  1.0
  H  H8  1  0.93129000  0.29857000  0.42429000  1.0
  H  H9  1  0.43128000  0.20142000  0.07568000  1.0
  H  H10  1  0.06870000  0.70143000  0.57571000  1.0
  H  H11  1  0.56870000  0.79856000  0.92432000  1.0
  H  H12  1  0.11447000  0.19224000  0.33721000  1.0
  H  H13  1  0.61444000  0.30775000  0.16278000  1.0
  H  H14  1  0.88553000  0.80779000  0.66279000  1.0
  H  H15  1  0.38554000  0.69223000  0.83723000  1.0
  H  H16  1  0.20577000  0.25555000  0.69126000  1.0
  H  H17  1  0.70580000  0.24447000  0.80872000  1.0
  H  H18  1  0.79422000  0.74444000  0.30874000  1.0
  H  H19  1  0.29426000  0.75553000  0.19128000  1.0
  H  H20  1  0.83776000  0.44732000  0.68065000  1.0
  H  H21  1  0.33779000  0.05268000  0.81933000  1.0
  H  H22  1  0.16223000  0.55268000  0.31933000  1.0
  H  H23  1  0.66224000  0.94734000  0.18065000  1.0
  H  H24  1  0.01879000  0.57438000  0.75811000  1.0
  H  H25  1  0.51884000  0.92563000  0.74188000  1.0
  H  H26  1  0.98118000  0.42563000  0.24187000  1.0
  H  H27  1  0.48121000  0.07439000  0.25811000  1.0
  H  H28  1  0.43010000  0.16943000  0.49717000  1.0
  H  H29  1  0.93011000  0.33056000  0.00283000  1.0
  H  H30  1  0.56990000  0.83057000  0.50284000  1.0
  H  H31  1  0.06991000  0.66943000  0.99715000  1.0
  H  H32  1  0.23042000  0.31711000  0.46969000  1.0
  H  H33  1  0.73043000  0.18289000  0.03030000  1.0
  H  H34  1  0.76958000  0.68288000  0.53032000  1.0
  H  H35  1  0.26958000  0.81712000  0.96968000  1.0
  H  H36  1  0.21125000  0.50773000  0.53068000  1.0
  H  H37  1  0.71128000  0.99226000  0.96931000  1.0
  H  H38  1  0.78872000  0.49227000  0.46932000  1.0
  H  H39  1  0.28873000  0.00772000  0.03070000  1.0
  H  H40  1  0.59250000  0.41298000  0.64048000  1.0
  H  H41  1  0.09251000  0.08703000  0.85952000  1.0
  H  H42  1  0.40748000  0.58703000  0.35954000  1.0
  H  H43  1  0.90749000  0.91296000  0.14047000  1.0
  H  H44  1  0.45370000  0.71193000  0.67670000  1.0
  H  H45  1  0.95375000  0.78809000  0.82329000  1.0
  H  H46  1  0.54625000  0.28808000  0.32332000  1.0
  H  H47  1  0.04627000  0.21190000  0.17670000  1.0
  H  H48  1  0.57340000  0.62320000  0.63529000  1.0
  H  H49  1  0.07343000  0.87681000  0.86471000  1.0
  H  H50  1  0.42657000  0.37682000  0.36473000  1.0
  H  H51  1  0.92657000  0.12318000  0.13529000  1.0
  H  H52  1  0.23979000  0.01422000  0.44278000  1.0
  H  H53  1  0.73978000  0.48577000  0.05722000  1.0
  H  H54  1  0.76021000  0.98579000  0.55721000  1.0
  H  H55  1  0.26021000  0.51421000  0.94280000  1.0
  H  H56  1  0.23772000  0.45088000  0.75337000  1.0
  H  H57  1  0.73775000  0.04914000  0.74662000  1.0
  H  H58  1  0.76226000  0.54912000  0.24663000  1.0
  H  H59  1  0.26229000  0.95086000  0.25339000  1.0
  C  C60  1  0.12377000  0.07716000  0.52963000  1.0
  C  C61  1  0.62376000  0.42285000  0.97036000  1.0
  C  C62  1  0.87623000  0.92284000  0.47037000  1.0
  C  C63  1  0.37623000  0.57714000  0.02965000  1.0
  C  C64  1  0.00650000  0.22422000  0.44479000  1.0
  C  C65  1  0.50649000  0.27578000  0.05519000  1.0
  C  C66  1  0.99350000  0.77579000  0.55521000  1.0
  C  C67  1  0.49350000  0.72420000  0.94482000  1.0
  C  C68  1  0.09651000  0.17276000  0.40106000  1.0
  C  C69  1  0.59649000  0.32723000  0.09893000  1.0
  C  C70  1  0.90349000  0.82726000  0.59893000  1.0
  C  C71  1  0.40350000  0.67275000  0.90108000  1.0
  C  C72  1  0.12983000  0.32507000  0.69767000  1.0
  C  C73  1  0.62985000  0.17494000  0.80231000  1.0
  C  C74  1  0.87016000  0.67493000  0.30232000  1.0
  C  C75  1  0.37019000  0.82506000  0.19769000  1.0
  C  C76  1  0.94121000  0.42756000  0.69353000  1.0
  C  C77  1  0.44124000  0.07246000  0.80645000  1.0
  C  C78  1  0.05878000  0.57245000  0.30646000  1.0
  C  C79  1  0.55881000  0.92758000  0.19353000  1.0
  C  C80  1  0.02968000  0.49146000  0.73126000  1.0
  C  C81  1  0.52973000  0.00856000  0.76872000  1.0
  C  C82  1  0.97029000  0.50855000  0.26873000  1.0
  C  C83  1  0.47032000  0.99146000  0.23127000  1.0
  C  C84  1  0.64746000  0.20663000  0.57828000  1.0
  C  C85  1  0.14746000  0.29339000  0.92172000  1.0
  C  C86  1  0.35253000  0.79338000  0.42173000  1.0
  C  C87  1  0.85255000  0.70661000  0.07828000  1.0
  C  C88  1  0.52176000  0.28428000  0.57003000  1.0
  C  C89  1  0.02176000  0.21572000  0.92997000  1.0
  C  C90  1  0.47823000  0.71573000  0.42998000  1.0
  C  C91  1  0.97823000  0.78427000  0.07002000  1.0
  C  C92  1  0.41940000  0.25389000  0.52341000  1.0
  C  C93  1  0.91942000  0.24612000  0.97659000  1.0
  C  C94  1  0.58059000  0.74612000  0.47661000  1.0
  C  C95  1  0.08060000  0.75388000  0.02340000  1.0
  C  C96  1  0.30835000  0.33517000  0.50906000  1.0
  C  C97  1  0.80836000  0.16483000  0.99094000  1.0
  C  C98  1  0.69165000  0.66483000  0.49095000  1.0
  C  C99  1  0.19165000  0.83516000  0.00905000  1.0
  C  C100  1  0.29642000  0.44245000  0.54307000  1.0
  C  C101  1  0.79644000  0.05754000  0.95693000  1.0
  C  C102  1  0.70357000  0.55755000  0.45694000  1.0
  C  C103  1  0.20357000  0.94244000  0.04307000  1.0
  C  C104  1  0.39698000  0.46990000  0.59229000  1.0
  C  C105  1  0.89702000  0.03011000  0.90770000  1.0
  C  C106  1  0.60300000  0.53011000  0.40771000  1.0
  C  C107  1  0.10300000  0.96988000  0.09229000  1.0
  C  C108  1  0.51039000  0.39182000  0.60515000  1.0
  C  C109  1  0.01041000  0.10819000  0.89484000  1.0
  C  C110  1  0.48959000  0.60820000  0.39486000  1.0
  C  C111  1  0.98959000  0.89179000  0.10515000  1.0
  C  C112  1  0.48067000  0.61364000  0.66900000  1.0
  C  C113  1  0.98071000  0.88637000  0.83099000  1.0
  C  C114  1  0.51929000  0.38637000  0.33100000  1.0
  C  C115  1  0.01931000  0.11362000  0.16901000  1.0
  C  C116  1  0.50155000  0.51993000  0.75209000  1.0
  C  C117  1  0.00159000  0.98008000  0.74791000  1.0
  C  C118  1  0.49841000  0.48007000  0.24792000  1.0
  C  C119  1  0.99844000  0.01991000  0.25209000  1.0
  N  N120  1  0.02456000  0.16325000  0.52532000  1.0
  N  N121  1  0.52456000  0.33676000  0.97467000  1.0
  N  N122  1  0.97544000  0.83675000  0.47468000  1.0
  N  N123  1  0.47544000  0.66323000  0.02534000  1.0
  N  N124  1  0.16879000  0.08043000  0.45555000  1.0
  N  N125  1  0.66877000  0.41956000  0.04444000  1.0
  N  N126  1  0.83121000  0.91958000  0.54444000  1.0
  N  N127  1  0.33122000  0.58042000  0.95557000  1.0
  N  N128  1  0.00548000  0.32379000  0.67268000  1.0
  N  N129  1  0.50549000  0.17622000  0.82730000  1.0
  N  N130  1  0.99452000  0.67621000  0.32731000  1.0
  N  N131  1  0.49453000  0.82378000  0.17269000  1.0
  N  N132  1  0.14741000  0.42555000  0.73294000  1.0
  N  N133  1  0.64745000  0.07446000  0.76705000  1.0
  N  N134  1  0.85257000  0.57445000  0.26706000  1.0
  N  N135  1  0.35259000  0.92555000  0.23295000  1.0
  O  O136  1  0.74950000  0.26748000  0.59647000  1.0
  O  O137  1  0.24952000  0.23254000  0.90353000  1.0
  O  O138  1  0.25049000  0.73252000  0.40355000  1.0
  O  O139  1  0.75050000  0.76746000  0.09646000  1.0
  O  O140  1  0.64708000  0.09206000  0.56660000  1.0
  O  O141  1  0.14707000  0.40797000  0.93339000  1.0
  O  O142  1  0.35292000  0.90796000  0.43339000  1.0
  O  O143  1  0.85293000  0.59204000  0.06661000  1.0
  O  O144  1  0.37549000  0.57711000  0.62400000  1.0
  O  O145  1  0.87551000  0.92291000  0.87599000  1.0
  O  O146  1  0.62448000  0.42290000  0.37600000  1.0
  O  O147  1  0.12449000  0.07709000  0.12400000  1.0
  O  O148  1  0.61432000  0.50433000  0.78087000  1.0
  O  O149  1  0.11437000  0.99568000  0.71914000  1.0
  O  O150  1  0.38563000  0.49567000  0.21915000  1.0
  O  O151  1  0.88566000  0.00429000  0.28087000  1.0
  O  O152  1  0.39556000  0.46480000  0.78818000  1.0
  O  O153  1  0.89560000  0.03521000  0.71181000  1.0
  O  O154  1  0.60440000  0.53520000  0.21182000  1.0
  O  O155  1  0.10444000  0.96479000  0.28819000  1.0
