# generated using pymatgen
data_MoH6C6N4O3
_symmetry_space_group_name_H-M   'P 1'
_cell_length_a   3.86498000
_cell_length_b   8.94819000
_cell_length_c   14.48880000
_cell_angle_alpha   89.99880000
_cell_angle_beta   89.99950000
_cell_angle_gamma   78.40500000
_symmetry_Int_Tables_number   1
_chemical_formula_structural   MoH6C6N4O3
_chemical_formula_sum   'Mo2 H12 C12 N8 O6'
_cell_volume   490.86316899
_cell_formula_units_Z   2
loop_
 _symmetry_equiv_pos_site_id
 _symmetry_equiv_pos_as_xyz
  1  'x, y, z'
loop_
 _atom_site_type_symbol
 _atom_site_label
 _atom_site_symmetry_multiplicity
 _atom_site_fract_x
 _atom_site_fract_y
 _atom_site_fract_z
 _atom_site_occupancy
  Mo  Mo0  1  0.65879000  0.00164000  0.69409000  1.0
  Mo  Mo1  1  0.34121000  0.99836000  0.19409000  1.0
  H  H2  1  0.50105000  0.38793000  0.59936000  1.0
  H  H3  1  0.49894000  0.61206000  0.09937000  1.0
  H  H4  1  0.10044000  0.38725000  0.10609000  1.0
  H  H5  1  0.89956000  0.61275000  0.60609000  1.0
  H  H6  1  0.71870000  0.42924000  0.41849000  1.0
  H  H7  1  0.28127000  0.57076000  0.91849000  1.0
  H  H8  1  0.83241000  0.43292000  0.92677000  1.0
  H  H9  1  0.16756000  0.56707000  0.42678000  1.0
  H  H10  1  0.96586000  0.16642000  0.35609000  1.0
  H  H11  1  0.03413000  0.83359000  0.85609000  1.0
  H  H12  1  0.86203000  0.17064000  0.85867000  1.0
  H  H13  1  0.13797000  0.82936000  0.35867000  1.0
  C  C14  1  0.80838000  0.08087000  0.48678000  1.0
  C  C15  1  0.19163000  0.91913000  0.98678000  1.0
  C  C16  1  0.10853000  0.08300000  0.98803000  1.0
  C  C17  1  0.89149000  0.91701000  0.48804000  1.0
  C  C18  1  0.61159000  0.30516000  0.54726000  1.0
  C  C19  1  0.38841000  0.69484000  0.04726000  1.0
  C  C20  1  0.07446000  0.30582000  0.05244000  1.0
  C  C21  1  0.92554000  0.69418000  0.55245000  1.0
  C  C22  1  0.71884000  0.32688000  0.45823000  1.0
  C  C23  1  0.28115000  0.67311000  0.95824000  1.0
  C  C24  1  0.94020000  0.32946000  0.96419000  1.0
  C  C25  1  0.05979000  0.67054000  0.46420000  1.0
  N  N26  1  0.66797000  0.15151000  0.56408000  1.0
  N  N27  1  0.33204000  0.84849000  0.06407000  1.0
  N  N28  1  0.18001000  0.15197000  0.06624000  1.0
  N  N29  1  0.82001000  0.84803000  0.56625000  1.0
  N  N30  1  0.84252000  0.18462000  0.42133000  1.0
  N  N31  1  0.15748000  0.81539000  0.92132000  1.0
  N  N32  1  0.96310000  0.18804000  0.92470000  1.0
  N  N33  1  0.03692000  0.81196000  0.42471000  1.0
  O  O34  1  0.20703000  0.00196000  0.67220000  1.0
  O  O35  1  0.79299000  0.99804000  0.17220000  1.0
  O  O36  1  0.64182000  0.16140000  0.76502000  1.0
  O  O37  1  0.35819000  0.83859000  0.26503000  1.0
  O  O38  1  0.21049000  0.15794000  0.26522000  1.0
  O  O39  1  0.78951000  0.84206000  0.76523000  1.0
