# generated using pymatgen
data_ZnH9C14NO7
_symmetry_space_group_name_H-M   'P 1'
_cell_length_a   7.16110000
_cell_length_b   13.90380000
_cell_length_c   14.89885992
_cell_angle_alpha   117.38210830
_cell_angle_beta   90.00000000
_cell_angle_gamma   90.00000000
_symmetry_Int_Tables_number   1
_chemical_formula_structural   ZnH9C14NO7
_chemical_formula_sum   'Zn4 H36 C56 N4 O28'
_cell_volume   1317.22275398
_cell_formula_units_Z   4
loop_
 _symmetry_equiv_pos_site_id
 _symmetry_equiv_pos_as_xyz
  1  'x, y, z'
loop_
 _atom_site_type_symbol
 _atom_site_label
 _atom_site_symmetry_multiplicity
 _atom_site_fract_x
 _atom_site_fract_y
 _atom_site_fract_z
 _atom_site_occupancy
  Zn  Zn0  1  0.87686000  0.75873000  0.07529000  1.0
  Zn  Zn1  1  0.37686000  0.74127000  0.92471000  1.0
  Zn  Zn2  1  0.12313000  0.24127000  0.92471000  1.0
  Zn  Zn3  1  0.62313000  0.25873000  0.07529000  1.0
  H  H4  1  0.14276000  0.10992000  0.45008000  1.0
  H  H5  1  0.64278000  0.39009000  0.54993000  1.0
  H  H6  1  0.85725000  0.89008000  0.54992000  1.0
  H  H7  1  0.35723000  0.60992000  0.45008000  1.0
  H  H8  1  0.12522000  0.62144000  0.08991000  1.0
  H  H9  1  0.62523000  0.87856000  0.91009000  1.0
  H  H10  1  0.87477000  0.37856000  0.91009000  1.0
  H  H11  1  0.37477000  0.12144000  0.08991000  1.0
  H  H12  1  0.22302000  0.73495000  0.10702000  1.0
  H  H13  1  0.72302000  0.76504000  0.89297000  1.0
  H  H14  1  0.77698000  0.26504000  0.89297000  1.0
  H  H15  1  0.27697000  0.23496000  0.10703000  1.0
  H  H16  1  0.95891000  0.35669000  0.76075000  1.0
  H  H17  1  0.45891000  0.14331000  0.23924000  1.0
  H  H18  1  0.04109000  0.64330000  0.23924000  1.0
  H  H19  1  0.54109000  0.85669000  0.76076000  1.0
  H  H20  1  0.24336000  0.37190000  0.51324000  1.0
  H  H21  1  0.74336000  0.12809000  0.48675000  1.0
  H  H22  1  0.75664000  0.62809000  0.48675000  1.0
  H  H23  1  0.25666000  0.87191000  0.51325000  1.0
  H  H24  1  0.23975000  0.57160000  0.60773000  1.0
  H  H25  1  0.73974000  0.92840000  0.39226000  1.0
  H  H26  1  0.76025000  0.42840000  0.39227000  1.0
  H  H27  1  0.26026000  0.07160000  0.60773000  1.0
  H  H28  1  0.24129000  0.93442000  0.93330000  1.0
  H  H29  1  0.74130000  0.56559000  0.06670000  1.0
  H  H30  1  0.75869000  0.06558000  0.06670000  1.0
  H  H31  1  0.25870000  0.43442000  0.93331000  1.0
  H  H32  1  0.83378000  0.86362000  0.69950000  1.0
  H  H33  1  0.33379000  0.63638000  0.30050000  1.0
  H  H34  1  0.16621000  0.13637000  0.30050000  1.0
  H  H35  1  0.66622000  0.36363000  0.69951000  1.0
  H  H36  1  0.84877000  0.66879000  0.66270000  1.0
  H  H37  1  0.34876000  0.83120000  0.33729000  1.0
  H  H38  1  0.15123000  0.33119000  0.33729000  1.0
  H  H39  1  0.65124000  0.16881000  0.66272000  1.0
  C  C40  1  0.91619000  0.56877000  0.88223000  1.0
  C  C41  1  0.41618000  0.93123000  0.11777000  1.0
  C  C42  1  0.08381000  0.43123000  0.11777000  1.0
  C  C43  1  0.58381000  0.06877000  0.88223000  1.0
  C  C44  1  0.00860000  0.51799000  0.77989000  1.0
  C  C45  1  0.50860000  0.98201000  0.22011000  1.0
  C  C46  1  0.99140000  0.48201000  0.22011000  1.0
  C  C47  1  0.49140000  0.01799000  0.77989000  1.0
  C  C48  1  0.01716000  0.40480000  0.72701000  1.0
  C  C49  1  0.51715000  0.09520000  0.27299000  1.0
  C  C50  1  0.98284000  0.59520000  0.27299000  1.0
  C  C51  1  0.48285000  0.90480000  0.72701000  1.0
  C  C52  1  0.09566000  0.35122000  0.63038000  1.0
  C  C53  1  0.59566000  0.14878000  0.36962000  1.0
  C  C54  1  0.90434000  0.64878000  0.36962000  1.0
  C  C55  1  0.40435000  0.85122000  0.63038000  1.0
  C  C56  1  0.07989000  0.23161000  0.57458000  1.0
  C  C57  1  0.57989000  0.26840000  0.42542000  1.0
  C  C58  1  0.92011000  0.76840000  0.42542000  1.0
  C  C59  1  0.42012000  0.73160000  0.57458000  1.0
  C  C60  1  0.17816000  0.41180000  0.58749000  1.0
  C  C61  1  0.67816000  0.08819000  0.41250000  1.0
  C  C62  1  0.82184000  0.58819000  0.41250000  1.0
  C  C63  1  0.32185000  0.91181000  0.58750000  1.0
  C  C64  1  0.17387000  0.52413000  0.64015000  1.0
  C  C65  1  0.67386000  0.97587000  0.35984000  1.0
  C  C66  1  0.82613000  0.47586000  0.35984000  1.0
  C  C67  1  0.32614000  0.02413000  0.64016000  1.0
  C  C68  1  0.08648000  0.57866000  0.73490000  1.0
  C  C69  1  0.58647000  0.92134000  0.26510000  1.0
  C  C70  1  0.91352000  0.42134000  0.26510000  1.0
  C  C71  1  0.41353000  0.07866000  0.73490000  1.0
  C  C72  1  0.06499000  0.69773000  0.77274000  1.0
  C  C73  1  0.56499000  0.80227000  0.22725000  1.0
  C  C74  1  0.93501000  0.30227000  0.22725000  1.0
  C  C75  1  0.43502000  0.19773000  0.77275000  1.0
  C  C76  1  0.15509000  0.87786000  0.87096000  1.0
  C  C77  1  0.65509000  0.62214000  0.12904000  1.0
  C  C78  1  0.84490000  0.12214000  0.12904000  1.0
  C  C79  1  0.34491000  0.37786000  0.87097000  1.0
  C  C80  1  0.03667000  0.91360000  0.81837000  1.0
  C  C81  1  0.53668000  0.58639000  0.18162000  1.0
  C  C82  1  0.96333000  0.08640000  0.18162000  1.0
  C  C83  1  0.46333000  0.41361000  0.81839000  1.0
  C  C84  1  0.03288000  0.02932000  0.83808000  1.0
  C  C85  1  0.53288000  0.47068000  0.16192000  1.0
  C  C86  1  0.96713000  0.97066000  0.16190000  1.0
  C  C87  1  0.46712000  0.52934000  0.83810000  1.0
  C  C88  1  0.92682000  0.83731000  0.74146000  1.0
  C  C89  1  0.42682000  0.66269000  0.25853000  1.0
  C  C90  1  0.07318000  0.16268000  0.25853000  1.0
  C  C91  1  0.57319000  0.33732000  0.74148000  1.0
  C  C92  1  0.93818000  0.72932000  0.71985000  1.0
  C  C93  1  0.43818000  0.77068000  0.28015000  1.0
  C  C94  1  0.06180000  0.27067000  0.28015000  1.0
  C  C95  1  0.56182000  0.22933000  0.71986000  1.0
  N  N96  1  0.17264000  0.77211000  0.84734000  1.0
  N  N97  1  0.67264000  0.72788000  0.15265000  1.0
  N  N98  1  0.82736000  0.22789000  0.15266000  1.0
  N  N99  1  0.32736000  0.27212000  0.84735000  1.0
  O  O100  1  0.88767000  0.67263000  0.92356000  1.0
  O  O101  1  0.38767000  0.82737000  0.07644000  1.0
  O  O102  1  0.11233000  0.32736000  0.07644000  1.0
  O  O103  1  0.61233000  0.17264000  0.92357000  1.0
  O  O104  1  0.87502000  0.51103000  0.92374000  1.0
  O  O105  1  0.37501000  0.98897000  0.07626000  1.0
  O  O106  1  0.12498000  0.48896000  0.07625000  1.0
  O  O107  1  0.62498000  0.01104000  0.92375000  1.0
  O  O108  1  0.99016000  0.17567000  0.60327000  1.0
  O  O109  1  0.49018000  0.32434000  0.39674000  1.0
  O  O110  1  0.00985000  0.82433000  0.39674000  1.0
  O  O111  1  0.50984000  0.67567000  0.60326000  1.0
  O  O112  1  0.17277000  0.18753000  0.48464000  1.0
  O  O113  1  0.67278000  0.31248000  0.51537000  1.0
  O  O114  1  0.82723000  0.81247000  0.51536000  1.0
  O  O115  1  0.32723000  0.68753000  0.48464000  1.0
  O  O116  1  0.11924000  0.09791000  0.91936000  1.0
  O  O117  1  0.61924000  0.40208000  0.08063000  1.0
  O  O118  1  0.88076000  0.90208000  0.08062000  1.0
  O  O119  1  0.38076000  0.59792000  0.91938000  1.0
  O  O120  1  0.95425000  0.05344000  0.77645000  1.0
  O  O121  1  0.45425000  0.44656000  0.22355000  1.0
  O  O122  1  0.04573000  0.94654000  0.22354000  1.0
  O  O123  1  0.54572000  0.55346000  0.77646000  1.0
  O  O124  1  0.10694000  0.70033000  0.11274000  1.0
  O  O125  1  0.60694000  0.79968000  0.88726000  1.0
  O  O126  1  0.89306000  0.29967000  0.88726000  1.0
  O  O127  1  0.39305000  0.20033000  0.11274000  1.0
