# generated using pymatgen
data_BaH10C10(SO4)2
_symmetry_space_group_name_H-M   'P 1'
_cell_length_a   5.62235000
_cell_length_b   10.54980000
_cell_length_c   11.56200000
_cell_angle_alpha   88.14720000
_cell_angle_beta   75.94900000
_cell_angle_gamma   89.99030000
_symmetry_Int_Tables_number   1
_chemical_formula_structural   BaH10C10(SO4)2
_chemical_formula_sum   'Ba2 H20 C20 S4 O16'
_cell_volume   664.90849591
_cell_formula_units_Z   2
loop_
 _symmetry_equiv_pos_site_id
 _symmetry_equiv_pos_as_xyz
  1  'x, y, z'
loop_
 _atom_site_type_symbol
 _atom_site_label
 _atom_site_symmetry_multiplicity
 _atom_site_fract_x
 _atom_site_fract_y
 _atom_site_fract_z
 _atom_site_occupancy
  Ba  Ba0  1  0.65026000  0.25014000  0.99997000  1.0
  Ba  Ba1  1  0.34974000  0.74986000  0.00002000  1.0
  H  H2  1  0.21488000  0.09992000  0.87952000  1.0
  H  H3  1  0.09415000  0.40033000  0.12042000  1.0
  H  H4  1  0.78513000  0.90009000  0.12049000  1.0
  H  H5  1  0.90586000  0.59966000  0.87958000  1.0
  H  H6  1  0.46032000  0.02238000  0.86314000  1.0
  H  H7  1  0.32318000  0.47778000  0.13695000  1.0
  H  H8  1  0.53969000  0.97762000  0.13686000  1.0
  H  H9  1  0.67683000  0.52222000  0.86305000  1.0
  H  H10  1  0.01343000  0.68375000  0.32604000  1.0
  H  H11  1  0.33893000  0.81589000  0.67427000  1.0
  H  H12  1  0.98658000  0.31625000  0.67396000  1.0
  H  H13  1  0.66107000  0.18411000  0.32573000  1.0
  H  H14  1  0.98677000  0.70198000  0.54318000  1.0
  H  H15  1  0.52978000  0.79787000  0.45710000  1.0
  H  H16  1  0.01322000  0.29800000  0.45682000  1.0
  H  H17  1  0.47017000  0.20213000  0.54290000  1.0
  H  H18  1  0.65738000  0.59602000  0.69196000  1.0
  H  H19  1  0.34992000  0.90413000  0.30814000  1.0
  H  H20  1  0.34263000  0.40397000  0.30804000  1.0
  H  H21  1  0.65005000  0.09586000  0.69185000  1.0
  C  C22  1  0.69861000  0.56186000  0.35417000  1.0
  C  C23  1  0.05246000  0.93791000  0.64591000  1.0
  C  C24  1  0.30140000  0.43814000  0.64583000  1.0
  C  C25  1  0.94756000  0.06209000  0.35409000  1.0
  C  C26  1  0.86924000  0.63374000  0.39156000  1.0
  C  C27  1  0.26052000  0.86599000  0.60866000  1.0
  C  C28  1  0.13076000  0.36626000  0.60845000  1.0
  C  C29  1  0.73952000  0.13401000  0.39133000  1.0
  C  C30  1  0.85281000  0.64424000  0.51443000  1.0
  C  C31  1  0.36713000  0.85565000  0.48579000  1.0
  C  C32  1  0.14716000  0.35577000  0.48558000  1.0
  C  C33  1  0.63286000  0.14436000  0.51420000  1.0
  C  C34  1  0.66836000  0.58341000  0.59790000  1.0
  C  C35  1  0.26646000  0.91666000  0.40220000  1.0
  C  C36  1  0.33164000  0.41659000  0.40210000  1.0
  C  C37  1  0.73351000  0.08335000  0.59779000  1.0
  C  C38  1  0.50692000  0.49399000  0.43729000  1.0
  C  C39  1  0.94402000  0.00592000  0.56271000  1.0
  C  C40  1  0.49309000  0.50601000  0.56271000  1.0
  C  C41  1  0.05597000  0.99408000  0.43730000  1.0
  S  S42  1  0.71953000  0.56077000  0.19773000  1.0
  S  S43  1  0.91701000  0.93908000  0.80241000  1.0
  S  S44  1  0.28047000  0.43922000  0.80227000  1.0
  S  S45  1  0.08299000  0.06091000  0.19760000  1.0
  O  O46  1  0.37437000  0.09765000  0.90058000  1.0
  O  O47  1  0.27468000  0.40269000  0.09926000  1.0
  O  O48  1  0.62562000  0.90234000  0.09942000  1.0
  O  O49  1  0.72532000  0.59730000  0.90075000  1.0
  O  O50  1  0.76564000  0.42794000  0.16148000  1.0
  O  O51  1  0.92736000  0.07188000  0.83866000  1.0
  O  O52  1  0.23436000  0.57205000  0.83852000  1.0
  O  O53  1  0.07267000  0.92813000  0.16133000  1.0
  O  O54  1  0.47762000  0.60446000  0.18341000  1.0
  O  O55  1  0.66070000  0.89558000  0.81680000  1.0
  O  O56  1  0.52241000  0.39554000  0.81658000  1.0
  O  O57  1  0.33928000  0.10443000  0.18320000  1.0
  O  O58  1  0.92042000  0.64677000  0.14044000  1.0
  O  O59  1  0.06054000  0.85298000  0.85971000  1.0
  O  O60  1  0.07958000  0.35322000  0.85957000  1.0
  O  O61  1  0.93944000  0.14702000  0.14029000  1.0
