# generated using pymatgen
data_CdH8C8(SN3)2
_symmetry_space_group_name_H-M   'P 1'
_cell_length_a   5.60494000
_cell_length_b   7.76546000
_cell_length_c   14.17380000
_cell_angle_alpha   103.45600000
_cell_angle_beta   89.99960000
_cell_angle_gamma   90.00000000
_symmetry_Int_Tables_number   1
_chemical_formula_structural   CdH8C8(SN3)2
_chemical_formula_sum   'Cd2 H16 C16 S4 N12'
_cell_volume   599.97880028
_cell_formula_units_Z   2
loop_
 _symmetry_equiv_pos_site_id
 _symmetry_equiv_pos_as_xyz
  1  'x, y, z'
loop_
 _atom_site_type_symbol
 _atom_site_label
 _atom_site_symmetry_multiplicity
 _atom_site_fract_x
 _atom_site_fract_y
 _atom_site_fract_z
 _atom_site_occupancy
  Cd  Cd0  1  0.00000000  0.00000000  0.00000000  1.0
  Cd  Cd1  1  0.50000000  0.50000000  0.50000000  1.0
  H  H2  1  0.20857000  0.63034000  0.06005000  1.0
  H  H3  1  0.29143000  0.13035000  0.56005000  1.0
  H  H4  1  0.79143000  0.36965000  0.93994000  1.0
  H  H5  1  0.70858000  0.86966000  0.43994000  1.0
  H  H6  1  0.58054000  0.57453000  0.21699000  1.0
  H  H7  1  0.91945000  0.07454000  0.71698000  1.0
  H  H8  1  0.41947000  0.42547000  0.78302000  1.0
  H  H9  1  0.08055000  0.92547000  0.28301000  1.0
  H  H10  1  0.54617000  0.87732000  0.14397000  1.0
  H  H11  1  0.95383000  0.37733000  0.64396000  1.0
  H  H12  1  0.45384000  0.12267000  0.85604000  1.0
  H  H13  1  0.04618000  0.62267000  0.35604000  1.0
  H  H14  1  0.98905000  0.44250000  0.15759000  1.0
  H  H15  1  0.51095000  0.94252000  0.65759000  1.0
  H  H16  1  0.01095000  0.55749000  0.84241000  1.0
  H  H17  1  0.48906000  0.05749000  0.34241000  1.0
  C  C18  1  0.03352000  0.65841000  0.09249000  1.0
  C  C19  1  0.46648000  0.15842000  0.59249000  1.0
  C  C20  1  0.96648000  0.34159000  0.90751000  1.0
  C  C21  1  0.53353000  0.84159000  0.40751000  1.0
  C  C22  1  0.70297000  0.63225000  0.17382000  1.0
  C  C23  1  0.79702000  0.13226000  0.67382000  1.0
  C  C24  1  0.29702000  0.36773000  0.82618000  1.0
  C  C25  1  0.20299000  0.86774000  0.32618000  1.0
  C  C26  1  0.68901000  0.78129000  0.13728000  1.0
  C  C27  1  0.81099000  0.28130000  0.63728000  1.0
  C  C28  1  0.31099000  0.21871000  0.86272000  1.0
  C  C29  1  0.18902000  0.71871000  0.36272000  1.0
  C  C30  1  0.49313000  0.18821000  0.10249000  1.0
  C  C31  1  0.00686000  0.68822000  0.60248000  1.0
  C  C32  1  0.50687000  0.81179000  0.89751000  1.0
  C  C33  1  0.99313000  0.31178000  0.39751000  1.0
  S  S34  1  0.24810000  0.19763000  0.16595000  1.0
  S  S35  1  0.25188000  0.69764000  0.66594000  1.0
  S  S36  1  0.75190000  0.80236000  0.83405000  1.0
  S  S37  1  0.74810000  0.30237000  0.33406000  1.0
  N  N38  1  0.89602000  0.79575000  0.08650000  1.0
  N  N39  1  0.60399000  0.29577000  0.58650000  1.0
  N  N40  1  0.10399000  0.20424000  0.91350000  1.0
  N  N41  1  0.39602000  0.70424000  0.41350000  1.0
  N  N42  1  0.92159000  0.55754000  0.14470000  1.0
  N  N43  1  0.57841000  0.05755000  0.64469000  1.0
  N  N44  1  0.07842000  0.44245000  0.85531000  1.0
  N  N45  1  0.42160000  0.94246000  0.35531000  1.0
  N  N46  1  0.67154000  0.17956000  0.05694000  1.0
  N  N47  1  0.82843000  0.67957000  0.55694000  1.0
  N  N48  1  0.32845000  0.82043000  0.94306000  1.0
  N  N49  1  0.17155000  0.32044000  0.44306000  1.0
