# generated using pymatgen
data_CoH20C20(NO4)2
_symmetry_space_group_name_H-M   'P 1'
_cell_length_a   5.66717000
_cell_length_b   7.93698000
_cell_length_c   10.60840000
_cell_angle_alpha   108.66400000
_cell_angle_beta   94.83200000
_cell_angle_gamma   98.61020000
_symmetry_Int_Tables_number   1
_chemical_formula_structural   CoH20C20(NO4)2
_chemical_formula_sum   'Co1 H20 C20 N2 O8'
_cell_volume   442.50964141
_cell_formula_units_Z   1
loop_
 _symmetry_equiv_pos_site_id
 _symmetry_equiv_pos_as_xyz
  1  'x, y, z'
loop_
 _atom_site_type_symbol
 _atom_site_label
 _atom_site_symmetry_multiplicity
 _atom_site_fract_x
 _atom_site_fract_y
 _atom_site_fract_z
 _atom_site_occupancy
  Co  Co0  1  0.00000000  0.00000000  0.00000000  1.0
  H  H1  1  0.78359000  0.75916000  0.05700000  1.0
  H  H2  1  0.21641000  0.24083000  0.94300000  1.0
  H  H3  1  0.57766000  0.88524000  0.06630000  1.0
  H  H4  1  0.42235000  0.11476000  0.93370000  1.0
  H  H5  1  0.87501000  0.00954000  0.39596000  1.0
  H  H6  1  0.12498000  0.99046000  0.60404000  1.0
  H  H7  1  0.13940000  0.76174000  0.38339000  1.0
  H  H8  1  0.86059000  0.23824000  0.61661000  1.0
  H  H9  1  0.24352000  0.54360000  0.23127000  1.0
  H  H10  1  0.75648000  0.45640000  0.76873000  1.0
  H  H11  1  0.40193000  0.53261000  0.09228000  1.0
  H  H12  1  0.59806000  0.46737000  0.90772000  1.0
  H  H13  1  0.67847000  0.86965000  0.74747000  1.0
  H  H14  1  0.32154000  0.13035000  0.25253000  1.0
  H  H15  1  0.66222000  0.65150000  0.52151000  1.0
  H  H16  1  0.33778000  0.34850000  0.47849000  1.0
  H  H17  1  0.66593000  0.47129000  0.33636000  1.0
  H  H18  1  0.33407000  0.52872000  0.66363000  1.0
  H  H19  1  0.67146000  0.24206000  0.12047000  1.0
  H  H20  1  0.32855000  0.75795000  0.87954000  1.0
  C  C21  1  0.71115000  0.00665000  0.44244000  1.0
  C  C22  1  0.28886000  0.99334000  0.55755000  1.0
  C  C23  1  0.51202000  0.87033000  0.37630000  1.0
  C  C24  1  0.48797000  0.12966000  0.62370000  1.0
  C  C25  1  0.29862000  0.86452000  0.43387000  1.0
  C  C26  1  0.70139000  0.13548000  0.56613000  1.0
  C  C27  1  0.33614000  0.62488000  0.17725000  1.0
  C  C28  1  0.66385000  0.37511000  0.82275000  1.0
  C  C29  1  0.15747000  0.72031000  0.12283000  1.0
  C  C30  1  0.84252000  0.27968000  0.87717000  1.0
  C  C31  1  0.82032000  0.79117000  0.72396000  1.0
  C  C32  1  0.17966000  0.20884000  0.27605000  1.0
  C  C33  1  0.81388000  0.66644000  0.59682000  1.0
  C  C34  1  0.18613000  0.33356000  0.40318000  1.0
  C  C35  1  0.99975000  0.56650000  0.56710000  1.0
  C  C36  1  0.00024000  0.43351000  0.43290000  1.0
  C  C37  1  0.81466000  0.39807000  0.32623000  1.0
  C  C38  1  0.18536000  0.60194000  0.67378000  1.0
  C  C39  1  0.81654000  0.26911000  0.20216000  1.0
  C  C40  1  0.18344000  0.73089000  0.79784000  1.0
  N  N41  1  0.00375000  0.82625000  0.82482000  1.0
  N  N42  1  0.99627000  0.17375000  0.17519000  1.0
  O  O43  1  0.70338000  0.83996000  0.01218000  1.0
  O  O44  1  0.29662000  0.16004000  0.98782000  1.0
  O  O45  1  0.54567000  0.74627000  0.25801000  1.0
  O  O46  1  0.45433000  0.25372000  0.74198000  1.0
  O  O47  1  0.93672000  0.65278000  0.10931000  1.0
  O  O48  1  0.06328000  0.34722000  0.89068000  1.0
  O  O49  1  0.24529000  0.85951000  0.09405000  1.0
  O  O50  1  0.75471000  0.14049000  0.90595000  1.0
