# generated using pymatgen
data_Hf3H23(C3O)16
_symmetry_space_group_name_H-M   'P 1'
_cell_length_a   17.95620000
_cell_length_b   22.51380000
_cell_length_c   22.62900000
_cell_angle_alpha   65.14730000
_cell_angle_beta   89.26860000
_cell_angle_gamma   88.63170000
_symmetry_Int_Tables_number   1
_chemical_formula_structural   Hf3H23(C3O)16
_chemical_formula_sum   'Hf6 H46 C96 O32'
_cell_volume   8298.45771001
_cell_formula_units_Z   2
loop_
 _symmetry_equiv_pos_site_id
 _symmetry_equiv_pos_as_xyz
  1  'x, y, z'
loop_
 _atom_site_type_symbol
 _atom_site_label
 _atom_site_symmetry_multiplicity
 _atom_site_fract_x
 _atom_site_fract_y
 _atom_site_fract_z
 _atom_site_occupancy
  Hf  Hf0  1  0.21198000  0.97176000  0.03930000  1.0
  Hf  Hf1  1  0.94610000  0.94669000  0.03082000  1.0
  Hf  Hf2  1  0.08581000  0.85824000  0.13639000  1.0
  Hf  Hf3  1  0.07319000  0.06112000  0.93394000  1.0
  Hf  Hf4  1  0.10344000  0.89517000  0.96415000  1.0
  Hf  Hf5  1  0.05460000  0.02919000  0.09973000  1.0
  H  H6  1  0.73662000  0.01713000  0.74303000  1.0
  H  H7  1  0.60698000  0.17327000  0.59828000  1.0
  H  H8  1  0.74525000  0.21350000  0.73112000  1.0
  H  H9  1  0.45769000  0.72566000  0.97662000  1.0
  H  H10  1  0.57136000  0.73099000  0.80523000  1.0
  H  H11  1  0.45448000  0.90341000  0.79912000  1.0
  H  H12  1  0.70425000  0.19323000  0.09632000  1.0
  H  H13  1  0.57175000  0.18428000  0.26035000  1.0
  H  H14  1  0.69959000  0.01453000  0.27269000  1.0
  H  H15  1  0.62699000  0.06621000  0.48706000  1.0
  H  H16  1  0.51387000  0.84674000  0.57916000  1.0
  H  H17  1  0.41013000  0.89103000  0.31979000  1.0
  H  H18  1  0.54096000  0.74116000  0.46993000  1.0
  H  H19  1  0.41378000  0.69263000  0.33644000  1.0
  H  H20  1  0.40568000  0.25639000  0.96433000  1.0
  H  H21  1  0.55381000  0.38947000  0.82022000  1.0
  H  H22  1  0.40855000  0.26914000  0.76838000  1.0
  H  H23  1  0.72051000  0.66347000  0.29468000  1.0
  H  H24  1  0.60604000  0.52136000  0.24957000  1.0
  H  H25  1  0.71999000  0.68014000  0.09751000  1.0
  H  H26  1  0.65604000  0.40115000  0.47960000  1.0
  H  H27  1  0.50138000  0.51065000  0.59016000  1.0
  H  H28  1  0.52167000  0.50431000  0.92358000  1.0
  H  H29  1  0.62931000  0.41268000  0.14569000  1.0
  H  H30  1  0.19221000  0.99864000  0.90009000  1.0
  H  H31  1  0.99759000  0.81195000  0.07113000  1.0
  H  H32  1  0.94895000  0.08509000  0.99313000  1.0
  H  H33  1  0.17426000  0.95079000  0.17073000  1.0
  H  H34  1  0.08114000  0.78123000  0.98432000  1.0
  H  H35  1  0.00551000  0.83681000  0.23829000  1.0
  H  H36  1  0.99634000  0.98058000  0.22301000  1.0
  H  H37  1  0.09920000  0.91884000  0.84372000  1.0
  H  H38  1  0.04248000  0.11016000  0.80500000  1.0
  H  H39  1  0.08548000  0.18829000  0.89743000  1.0
  H  H40  1  0.07217000  0.15510000  0.05966000  1.0
  H  H41  1  0.97361000  0.85128000  0.94239000  1.0
  H  H42  1  0.85191000  0.92059000  0.94325000  1.0
  H  H43  1  0.31659000  0.05076000  0.05602000  1.0
  H  H44  1  0.13308000  0.06214000  0.17929000  1.0
  H  H45  1  0.12635000  0.13118000  0.80800000  1.0
  H  H46  1  0.85770000  0.86208000  0.01328000  1.0
  H  H47  1  0.07164000  0.73074000  0.20706000  1.0
  H  H48  1  0.17025000  0.77087000  0.99694000  1.0
  H  H49  1  0.04228000  0.15329000  0.99132000  1.0
  H  H50  1  0.04676000  0.91647000  0.22070000  1.0
  H  H51  1  0.32641000  0.97996000  0.11465000  1.0
  C  C52  1  0.74645000  0.11299000  0.74273000  1.0
  C  C53  1  0.71847000  0.06828000  0.72047000  1.0
  C  C54  1  0.66841000  0.09003000  0.66800000  1.0
  C  C55  1  0.64573000  0.15633000  0.63894000  1.0
  C  C56  1  0.67252000  0.20095000  0.66178000  1.0
  C  C57  1  0.72333000  0.17913000  0.71367000  1.0
  C  C58  1  0.45121000  0.81812000  0.89146000  1.0
  C  C59  1  0.47472000  0.75257000  0.92610000  1.0
  C  C60  1  0.51817000  0.72087000  0.89532000  1.0
  C  C61  1  0.53838000  0.75548000  0.82946000  1.0
  C  C62  1  0.51612000  0.82150000  0.79463000  1.0
  C  C63  1  0.47286000  0.85273000  0.82608000  1.0
  C  C64  1  0.70723000  0.10040000  0.18122000  1.0
  C  C65  1  0.68333000  0.16568000  0.14552000  1.0
  C  C66  1  0.63430000  0.19622000  0.17376000  1.0
  C  C67  1  0.60899000  0.16063000  0.23805000  1.0
  C  C68  1  0.63188000  0.09493000  0.27382000  1.0
  C  C69  1  0.68080000  0.06496000  0.24495000  1.0
  C  C70  1  0.59295000  0.98507000  0.57486000  1.0
  C  C71  1  0.56059000  0.92181000  0.60184000  1.0
  C  C72  1  0.53906000  0.89477000  0.55917000  1.0
  C  C73  1  0.54779000  0.92792000  0.49130000  1.0
  C  C74  1  0.58021000  0.99115000  0.46441000  1.0
  C  C75  1  0.60168000  0.01821000  0.50706000  1.0
  C  C76  1  0.40667000  0.79381000  0.32224000  1.0
  C  C77  1  0.43019000  0.84049000  0.34387000  1.0
  C  C78  1  0.47829000  0.82149000  0.39758000  1.0
  C  C79  1  0.50358000  0.75595000  0.42846000  1.0
  C  C80  1  0.48124000  0.70951000  0.40631000  1.0
  C  C81  1  0.43233000  0.72853000  0.35328000  1.0
  C  C82  1  0.40130000  0.25736000  0.86826000  1.0
  C  C83  1  0.42822000  0.27730000  0.91505000  1.0
  C  C84  1  0.48293000  0.32540000  0.89772000  1.0
  C  C85  1  0.51139000  0.35224000  0.83378000  1.0
  C  C86  1  0.48527000  0.33191000  0.78714000  1.0
  C  C87  1  0.42979000  0.28454000  0.80447000  1.0
  C  C88  1  0.72504000  0.67816000  0.19394000  1.0
  C  C89  1  0.70308000  0.64534000  0.25948000  1.0
  C  C90  1  0.65996000  0.58888000  0.27976000  1.0
  C  C91  1  0.63901000  0.56535000  0.23405000  1.0
  C  C92  1  0.66011000  0.59808000  0.16822000  1.0
  C  C93  1  0.70287000  0.65483000  0.14822000  1.0
  C  C94  1  0.60256000  0.38995000  0.56933000  1.0
  C  C95  1  0.55823000  0.42133000  0.60104000  1.0
  C  C96  1  0.53560000  0.48678000  0.56606000  1.0
  C  C97  1  0.55487000  0.52186000  0.50048000  1.0
  C  C98  1  0.59909000  0.49046000  0.46859000  1.0
  C  C99  1  0.62193000  0.42508000  0.50371000  1.0
  C  C100  1  0.56560000  0.52760000  0.99916000  1.0
  C  C101  1  0.59629000  0.50091000  0.06327000  1.0
  C  C102  1  0.60528000  0.43265000  0.09706000  1.0
  C  C103  1  0.58555000  0.38942000  0.07002000  1.0
  C  C104  1  0.55456000  0.41618000  0.00608000  1.0
  C  C105  1  0.54575000  0.48440000  0.97219000  1.0
  C  C106  1  0.28934000  0.89166000  0.97007000  1.0
  C  C107  1  0.24542000  0.11566000  0.92282000  1.0
  C  C108  1  0.25849000  0.84708000  0.17316000  1.0
  C  C109  1  0.86396000  0.83175000  0.15177000  1.0
  C  C110  1  0.87550000  0.02532000  0.10948000  1.0
  C  C111  1  0.89988000  0.05552000  0.88836000  1.0
  C  C112  1  0.77104000  0.73349000  0.17594000  1.0
  C  C113  1  0.81195000  0.77941000  0.16481000  1.0
  C  C114  1  0.63857000  0.57065000  0.12505000  1.0
  C  C115  1  0.61799000  0.54086000  0.09410000  1.0
  C  C116  1  0.62003000  0.52499000  0.40266000  1.0
  C  C117  1  0.63853000  0.55497000  0.34591000  1.0
  C  C118  1  0.34518000  0.20974000  0.88508000  1.0
  C  C119  1  0.29742000  0.16848000  0.89915000  1.0
  C  C120  1  0.50855000  0.35004000  0.94197000  1.0
  C  C121  1  0.53162000  0.37688000  0.97486000  1.0
  C  C122  1  0.51305000  0.36077000  0.72251000  1.0
  C  C123  1  0.53562000  0.38742000  0.66666667  1.0
  C  C124  1  0.31168000  0.82358000  0.22566000  1.0
  C  C125  1  0.35608000  0.81130000  0.26970000  1.0
  C  C126  1  0.52989000  0.58742000  0.46654000  1.0
  C  C127  1  0.50721000  0.64377000  0.43824000  1.0
  C  C128  1  0.52408000  0.89699000  0.45204000  1.0
  C  C129  1  0.50150000  0.86545000  0.42356000  1.0
  C  C130  1  0.81082000  0.04814000  0.13318000  1.0
  C  C131  1  0.76118000  0.07147000  0.15447000  1.0
  C  C132  1  0.59325000  0.02631000  0.39667000  1.0
  C  C133  1  0.60884000  0.05895000  0.33952000  1.0
  C  C134  1  0.59848000  0.32114000  0.10564000  1.0
  C  C135  1  0.61325000  0.26317000  0.13771000  1.0
  C  C136  1  0.35480000  0.86948000  0.94654000  1.0
  C  C137  1  0.40174000  0.84736000  0.92150000  1.0
  C  C138  1  0.55297000  0.59580000  0.96332000  1.0
  C  C139  1  0.53869000  0.65378000  0.93087000  1.0
  C  C140  1  0.53490000  0.85635000  0.72766000  1.0
  C  C141  1  0.54840000  0.88717000  0.66977000  1.0
  C  C142  1  0.79924000  0.09216000  0.79387000  1.0
  C  C143  1  0.84554000  0.07585000  0.83695000  1.0
  C  C144  1  0.64145000  0.04760000  0.64170000  1.0
  C  C145  1  0.61740000  0.01599000  0.61387000  1.0
  C  C146  1  0.64878000  0.26749000  0.63137000  1.0
  C  C147  1  0.62696000  0.32415000  0.60329000  1.0
  O  O148  1  0.29104000  0.01599000  0.09202000  1.0
  O  O149  1  0.29721000  0.93432000  0.99324000  1.0
  O  O150  1  0.27955000  0.89596000  0.12177000  1.0
  O  O151  1  0.18250000  0.12386000  0.89502000  1.0
  O  O152  1  0.19548000  0.82018000  0.18266000  1.0
  O  O153  1  0.26833000  0.06446000  0.97147000  1.0
  O  O154  1  0.22890000  0.86708000  0.96404000  1.0
  O  O155  1  0.14930000  0.89618000  0.05175000  1.0
  O  O156  1  0.16519000  0.99262000  0.93976000  1.0
  O  O157  1  0.14872000  0.95240000  0.13251000  1.0
  O  O158  1  0.12474000  0.03812000  0.02089000  1.0
  O  O159  1  0.04745000  0.15682000  0.92053000  1.0
  O  O160  1  0.12349000  0.78152000  0.01294000  1.0
  O  O161  1  0.02788000  0.96821000  0.96074000  1.0
  O  O162  1  0.01629000  0.85623000  0.05566000  1.0
  O  O163  1  0.01459000  0.94044000  0.10146000  1.0
  O  O164  1  0.98549000  0.04940000  0.00620000  1.0
  O  O165  1  0.05664000  0.76565000  0.16591000  1.0
  O  O166  1  0.89713000  0.83746000  0.19663000  1.0
  O  O167  1  0.87174000  0.86912000  0.08920000  1.0
  O  O168  1  0.11843000  0.08065000  0.13394000  1.0
  O  O169  1  0.86532000  0.99363000  0.07526000  1.0
  O  O170  1  0.05505000  0.85581000  0.22774000  1.0
  O  O171  1  0.04406000  0.97088000  0.20786000  1.0
  O  O172  1  0.03367000  0.13869000  0.04042000  1.0
  O  O173  1  0.93794000  0.04079000  0.12506000  1.0
  O  O174  1  0.88599000  0.88728000  0.97293000  1.0
  O  O175  1  0.09193000  0.09486000  0.82382000  1.0
  O  O176  1  0.87876000  0.01269000  0.94385000  1.0
  O  O177  1  0.96344000  0.08168000  0.87429000  1.0
  O  O178  1  0.13013000  0.93447000  0.86890000  1.0
  O  O179  1  0.02639000  0.84573000  0.93524000  1.0
