# generated using pymatgen
data_CdH5C6N3Cl2
_symmetry_space_group_name_H-M   'P 1'
_cell_length_a   3.78671000
_cell_length_b   10.87130000
_cell_length_c   11.20190000
_cell_angle_alpha   112.64700000
_cell_angle_beta   89.99950000
_cell_angle_gamma   90.00000000
_symmetry_Int_Tables_number   1
_chemical_formula_structural   CdH5C6N3Cl2
_chemical_formula_sum   'Cd2 H10 C12 N6 Cl4'
_cell_volume   425.58602146
_cell_formula_units_Z   2
loop_
 _symmetry_equiv_pos_site_id
 _symmetry_equiv_pos_as_xyz
  1  'x, y, z'
loop_
 _atom_site_type_symbol
 _atom_site_label
 _atom_site_symmetry_multiplicity
 _atom_site_fract_x
 _atom_site_fract_y
 _atom_site_fract_z
 _atom_site_occupancy
  Cd  Cd0  1  0.71876000  0.51447000  0.34705000  1.0
  Cd  Cd1  1  0.21876000  0.48552000  0.65294000  1.0
  H  H2  1  0.45829000  0.57789000  0.07884000  1.0
  H  H3  1  0.95830000  0.42211000  0.92116000  1.0
  H  H4  1  0.15659000  0.79515000  0.98834000  1.0
  H  H5  1  0.65661000  0.20485000  0.01167000  1.0
  H  H6  1  0.06646000  0.04341000  0.07742000  1.0
  H  H7  1  0.56648000  0.95658000  0.92258000  1.0
  H  H8  1  0.25836000  0.18210000  0.30182000  1.0
  H  H9  1  0.75840000  0.81790000  0.69819000  1.0
  H  H10  1  0.54372000  0.07311000  0.43882000  1.0
  H  H11  1  0.04376000  0.92690000  0.56118000  1.0
  C  C12  1  0.49437000  0.67385000  0.15710000  1.0
  C  C13  1  0.99439000  0.32615000  0.84290000  1.0
  C  C14  1  0.40197000  0.80116000  0.16472000  1.0
  C  C15  1  0.90198000  0.19884000  0.83528000  1.0
  C  C16  1  0.23973000  0.85917000  0.08558000  1.0
  C  C17  1  0.73976000  0.14083000  0.91442000  1.0
  C  C18  1  0.19085000  0.99513000  0.13549000  1.0
  C  C19  1  0.69086000  0.00487000  0.86451000  1.0
  C  C20  1  0.29968000  0.07490000  0.26323000  1.0
  C  C21  1  0.79970000  0.92509000  0.73677000  1.0
  C  C22  1  0.45757000  0.01882000  0.33988000  1.0
  C  C23  1  0.95760000  0.98119000  0.66012000  1.0
  N  N24  1  0.50582000  0.88343000  0.28933000  1.0
  N  N25  1  0.00585000  0.11657000  0.71067000  1.0
  N  N26  1  0.65194000  0.81287000  0.35343000  1.0
  N  N27  1  0.15196000  0.18713000  0.64658000  1.0
  N  N28  1  0.63940000  0.68651000  0.27111000  1.0
  N  N29  1  0.13942000  0.31349000  0.72889000  1.0
  Cl  Cl30  1  0.21176000  0.38036000  0.18942000  1.0
  Cl  Cl31  1  0.71175000  0.61964000  0.81057000  1.0
  Cl  Cl32  1  0.71316000  0.35434000  0.48040000  1.0
  Cl  Cl33  1  0.21315000  0.64566000  0.51959000  1.0
