# generated using pymatgen
data_InH20C9SNO
_symmetry_space_group_name_H-M   'P 1'
_cell_length_a   7.85290000
_cell_length_b   8.32689000
_cell_length_c   18.15390000
_cell_angle_alpha   95.38250000
_cell_angle_beta   90.00000000
_cell_angle_gamma   90.00000000
_symmetry_Int_Tables_number   1
_chemical_formula_structural   InH20C9SNO
_chemical_formula_sum   'In4 H80 C36 S4 N4 O4'
_cell_volume   1181.85350639
_cell_formula_units_Z   4
loop_
 _symmetry_equiv_pos_site_id
 _symmetry_equiv_pos_as_xyz
  1  'x, y, z'
loop_
 _atom_site_type_symbol
 _atom_site_label
 _atom_site_symmetry_multiplicity
 _atom_site_fract_x
 _atom_site_fract_y
 _atom_site_fract_z
 _atom_site_occupancy
  In  In0  1  0.07249000  0.94974000  0.78382000  1.0
  In  In1  1  0.42751000  0.94974000  0.28382000  1.0
  In  In2  1  0.92751000  0.05026000  0.21618000  1.0
  In  In3  1  0.57248000  0.05026000  0.71618000  1.0
  H  H4  1  0.97145000  0.65457000  0.81961000  1.0
  H  H5  1  0.52855000  0.65458000  0.31961000  1.0
  H  H6  1  0.02853000  0.34542000  0.18038000  1.0
  H  H7  1  0.47145000  0.34542000  0.68039000  1.0
  H  H8  1  0.83645000  0.72189000  0.75154000  1.0
  H  H9  1  0.66355000  0.72189000  0.25154000  1.0
  H  H10  1  0.16355000  0.27811000  0.24846000  1.0
  H  H11  1  0.33645000  0.27811000  0.74846000  1.0
  H  H12  1  0.00456000  0.47818000  0.69731000  1.0
  H  H13  1  0.49544000  0.47817000  0.19732000  1.0
  H  H14  1  0.99544000  0.52183000  0.30268000  1.0
  H  H15  1  0.50457000  0.52183000  0.80268000  1.0
  H  H16  1  0.19770000  0.57849000  0.72183000  1.0
  H  H17  1  0.30229000  0.57848000  0.22183000  1.0
  H  H18  1  0.80229000  0.42152000  0.27817000  1.0
  H  H19  1  0.69771000  0.42151000  0.77817000  1.0
  H  H20  1  0.06547000  0.65188000  0.65382000  1.0
  H  H21  1  0.43452000  0.65188000  0.15382000  1.0
  H  H22  1  0.93452000  0.34812000  0.34618000  1.0
  H  H23  1  0.56548000  0.34812000  0.84618000  1.0
  H  H24  1  0.06852000  0.11446000  0.91917000  1.0
  H  H25  1  0.43148000  0.11446000  0.41917000  1.0
  H  H26  1  0.93149000  0.88555000  0.08083000  1.0
  H  H27  1  0.56851000  0.88554000  0.58083000  1.0
  H  H28  1  0.25535000  0.16278000  0.87129000  1.0
  H  H29  1  0.24465000  0.16278000  0.37129000  1.0
  H  H30  1  0.74466000  0.83721000  0.12871000  1.0
  H  H31  1  0.75534000  0.83722000  0.62871000  1.0
  H  H32  1  0.06115000  0.40867000  0.89545000  1.0
  H  H33  1  0.43884000  0.40867000  0.39545000  1.0
  H  H34  1  0.93886000  0.59133000  0.10455000  1.0
  H  H35  1  0.56114000  0.59133000  0.60455000  1.0
  H  H36  1  0.89677000  0.30313000  0.84490000  1.0
  H  H37  1  0.60322000  0.30313000  0.34490000  1.0
  H  H38  1  0.10323000  0.69687000  0.15510000  1.0
  H  H39  1  0.39676000  0.69687000  0.65510000  1.0
  H  H40  1  0.08447000  0.35458000  0.79931000  1.0
  H  H41  1  0.41552000  0.35458000  0.29931000  1.0
  H  H42  1  0.91554000  0.64541000  0.20068000  1.0
  H  H43  1  0.58447000  0.64541000  0.70068000  1.0
  H  H44  1  0.99757000  0.21462000  0.47802000  1.0
  H  H45  1  0.50242000  0.21461000  0.97801000  1.0
  H  H46  1  0.00243000  0.78539000  0.52199000  1.0
  H  H47  1  0.49757000  0.78539000  0.02199000  1.0
  H  H48  1  0.14468000  0.09598000  0.52249000  1.0
  H  H49  1  0.35532000  0.09598000  0.02249000  1.0
  H  H50  1  0.85532000  0.90402000  0.47751000  1.0
  H  H51  1  0.64468000  0.90402000  0.97751000  1.0
  H  H52  1  0.27866000  0.35467000  0.49304000  1.0
  H  H53  1  0.22135000  0.35466000  0.99304000  1.0
  H  H54  1  0.72135000  0.64533000  0.50697000  1.0
  H  H55  1  0.77866000  0.64534000  0.00697000  1.0
  H  H56  1  0.27113000  0.34342000  0.59056000  1.0
  H  H57  1  0.22887000  0.34341000  0.09056000  1.0
  H  H58  1  0.72888000  0.65658000  0.40944000  1.0
  H  H59  1  0.77112000  0.65659000  0.90945000  1.0
  H  H60  1  0.12457000  0.46762000  0.54771000  1.0
  H  H61  1  0.37543000  0.46761000  0.04770000  1.0
  H  H62  1  0.87544000  0.53238000  0.45230000  1.0
  H  H63  1  0.62456000  0.53238000  0.95230000  1.0
  H  H64  1  0.84783000  0.42554000  0.57562000  1.0
  H  H65  1  0.65217000  0.42553000  0.07562000  1.0
  H  H66  1  0.15217000  0.57446000  0.42438000  1.0
  H  H67  1  0.34783000  0.57447000  0.92438000  1.0
  H  H68  1  0.75367000  0.32416000  0.64625000  1.0
  H  H69  1  0.74632000  0.32415000  0.14625000  1.0
  H  H70  1  0.24632000  0.67585000  0.35375000  1.0
  H  H71  1  0.25369000  0.67585000  0.85375000  1.0
  H  H72  1  0.56245000  0.33026000  0.53485000  1.0
  H  H73  1  0.93755000  0.33025000  0.03485000  1.0
  H  H74  1  0.43756000  0.66974000  0.46514000  1.0
  H  H75  1  0.06245000  0.66974000  0.96514000  1.0
  H  H76  1  0.61260000  0.12871000  0.55116000  1.0
  H  H77  1  0.88740000  0.12871000  0.05117000  1.0
  H  H78  1  0.38741000  0.87129000  0.44883000  1.0
  H  H79  1  0.11259000  0.87129000  0.94883000  1.0
  H  H80  1  0.71576000  0.22033000  0.47874000  1.0
  H  H81  1  0.78424000  0.22032000  0.97874000  1.0
  H  H82  1  0.28425000  0.77968000  0.52125000  1.0
  H  H83  1  0.21575000  0.77967000  0.02125000  1.0
  C  C84  1  0.98529000  0.11615000  0.64864000  1.0
  C  C85  1  0.51471000  0.11615000  0.14864000  1.0
  C  C86  1  0.01471000  0.88386000  0.35136000  1.0
  C  C87  1  0.48531000  0.88385000  0.85136000  1.0
  C  C88  1  0.97071000  0.70589000  0.76601000  1.0
  C  C89  1  0.52929000  0.70588000  0.26601000  1.0
  C  C90  1  0.02928000  0.29410000  0.23399000  1.0
  C  C91  1  0.47071000  0.29411000  0.73399000  1.0
  C  C92  1  0.06408000  0.59804000  0.70690000  1.0
  C  C93  1  0.43591000  0.59804000  0.20690000  1.0
  C  C94  1  0.93591000  0.40196000  0.29310000  1.0
  C  C95  1  0.56409000  0.40196000  0.79310000  1.0
  C  C96  1  0.11605000  0.15296000  0.86663000  1.0
  C  C97  1  0.38394000  0.15296000  0.36663000  1.0
  C  C98  1  0.88395000  0.84704000  0.13337000  1.0
  C  C99  1  0.61605000  0.84704000  0.63337000  1.0
  C  C100  1  0.03557000  0.31247000  0.85075000  1.0
  C  C101  1  0.46443000  0.31247000  0.35075000  1.0
  C  C102  1  0.96444000  0.68753000  0.14925000  1.0
  C  C103  1  0.53556000  0.68753000  0.64925000  1.0
  C  C104  1  0.07277000  0.20930000  0.52888000  1.0
  C  C105  1  0.42723000  0.20930000  0.02888000  1.0
  C  C106  1  0.92724000  0.79070000  0.47113000  1.0
  C  C107  1  0.57277000  0.79070000  0.97113000  1.0
  C  C108  1  0.19358000  0.35253000  0.54085000  1.0
  C  C109  1  0.30642000  0.35252000  0.04085000  1.0
  C  C110  1  0.80643000  0.64748000  0.45915000  1.0
  C  C111  1  0.69358000  0.64748000  0.95915000  1.0
  C  C112  1  0.80362000  0.30691000  0.58976000  1.0
  C  C113  1  0.69639000  0.30690000  0.08976000  1.0
  C  C114  1  0.19639000  0.69310000  0.41024000  1.0
  C  C115  1  0.30362000  0.69310000  0.91024000  1.0
  C  C116  1  0.66644000  0.24234000  0.53541000  1.0
  C  C117  1  0.83356000  0.24233000  0.03541000  1.0
  C  C118  1  0.33357000  0.75767000  0.46458000  1.0
  C  C119  1  0.16644000  0.75766000  0.96458000  1.0
  S  S120  1  0.17102000  0.00128000  0.64969000  1.0
  S  S121  1  0.32898000  0.00127000  0.14968000  1.0
  S  S122  1  0.82898000  0.99873000  0.35032000  1.0
  S  S123  1  0.67103000  0.99872000  0.85032000  1.0
  N  N124  1  0.95289000  0.20133000  0.59027000  1.0
  N  N125  1  0.54712000  0.20132000  0.09027000  1.0
  N  N126  1  0.04712000  0.79868000  0.40973000  1.0
  N  N127  1  0.45289000  0.79868000  0.90973000  1.0
  O  O128  1  0.88184000  0.11815000  0.70338000  1.0
  O  O129  1  0.61816000  0.11815000  0.20338000  1.0
  O  O130  1  0.11816000  0.88186000  0.29662000  1.0
  O  O131  1  0.38185000  0.88185000  0.79662000  1.0
