# generated using pymatgen
data_AgH13C23SN3O4F3
_symmetry_space_group_name_H-M   'P 1'
_cell_length_a   9.70033000
_cell_length_b   12.09950000
_cell_length_c   25.74920000
_cell_angle_alpha   89.99960000
_cell_angle_beta   91.15170000
_cell_angle_gamma   89.99960000
_symmetry_Int_Tables_number   1
_chemical_formula_structural   AgH13C23SN3O4F3
_chemical_formula_sum   'Ag4 H52 C92 S4 N12 O16 F12'
_cell_volume   3021.55100322
_cell_formula_units_Z   4
loop_
 _symmetry_equiv_pos_site_id
 _symmetry_equiv_pos_as_xyz
  1  'x, y, z'
loop_
 _atom_site_type_symbol
 _atom_site_label
 _atom_site_symmetry_multiplicity
 _atom_site_fract_x
 _atom_site_fract_y
 _atom_site_fract_z
 _atom_site_occupancy
  Ag  Ag0  1  0.83453000  0.95716000  0.95385000  1.0
  Ag  Ag1  1  0.33454000  0.54284000  0.45385000  1.0
  Ag  Ag2  1  0.66547000  0.45717000  0.54616000  1.0
  Ag  Ag3  1  0.16545000  0.04283000  0.04616000  1.0
  H  H4  1  0.54851000  0.23952000  0.32222000  1.0
  H  H5  1  0.83048000  0.96292000  0.32957000  1.0
  H  H6  1  0.74809000  0.79363000  0.37268000  1.0
  H  H7  1  0.32705000  0.90006000  0.34764000  1.0
  H  H8  1  0.41142000  0.07158000  0.30552000  1.0
  H  H9  1  0.85749000  0.27057000  0.24073000  1.0
  H  H10  1  0.03805000  0.38650000  0.28241000  1.0
  H  H11  1  0.94570000  0.24231000  0.43130000  1.0
  H  H12  1  0.76524000  0.12711000  0.38931000  1.0
  H  H13  1  0.51245000  0.17978000  0.20138000  1.0
  H  H14  1  0.54561000  0.11885000  0.10970000  1.0
  H  H15  1  0.92226000  0.95380000  0.15649000  1.0
  H  H16  1  0.88969000  0.01643000  0.24720000  1.0
  H  H17  1  0.04851000  0.26048000  0.82222000  1.0
  H  H18  1  0.33047000  0.53708000  0.82957000  1.0
  H  H19  1  0.24808000  0.70637000  0.87268000  1.0
  H  H20  1  0.82704000  0.59993000  0.84764000  1.0
  H  H21  1  0.91141000  0.42842000  0.80552000  1.0
  H  H22  1  0.35748000  0.22943000  0.74072000  1.0
  H  H23  1  0.53804000  0.11351000  0.78240000  1.0
  H  H24  1  0.44572000  0.25770000  0.93129000  1.0
  H  H25  1  0.26526000  0.37289000  0.88930000  1.0
  H  H26  1  0.01244000  0.32023000  0.70137000  1.0
  H  H27  1  0.04561000  0.38116000  0.60970000  1.0
  H  H28  1  0.42226000  0.54620000  0.65649000  1.0
  H  H29  1  0.38969000  0.48356000  0.74719000  1.0
  H  H30  1  0.95149000  0.73952000  0.17778000  1.0
  H  H31  1  0.66953000  0.46292000  0.17044000  1.0
  H  H32  1  0.75190000  0.29364000  0.12733000  1.0
  H  H33  1  0.17295000  0.40007000  0.15235000  1.0
  H  H34  1  0.08859000  0.57159000  0.19448000  1.0
  H  H35  1  0.64252000  0.77057000  0.25927000  1.0
  H  H36  1  0.46196000  0.88649000  0.21759000  1.0
  H  H37  1  0.55431000  0.74228000  0.06871000  1.0
  H  H38  1  0.73476000  0.62709000  0.11071000  1.0
  H  H39  1  0.98757000  0.67977000  0.29863000  1.0
  H  H40  1  0.95441000  0.61883000  0.39030000  1.0
  H  H41  1  0.57776000  0.45380000  0.34352000  1.0
  H  H42  1  0.61033000  0.51644000  0.25281000  1.0
  H  H43  1  0.45149000  0.76048000  0.67778000  1.0
  H  H44  1  0.16953000  0.03709000  0.67044000  1.0
  H  H45  1  0.25191000  0.20638000  0.62733000  1.0
  H  H46  1  0.67296000  0.09990000  0.65234000  1.0
  H  H47  1  0.58858000  0.92839000  0.69447000  1.0
  H  H48  1  0.14251000  0.72942000  0.75927000  1.0
  H  H49  1  0.96195000  0.61350000  0.71758000  1.0
  H  H50  1  0.05430000  0.75773000  0.56871000  1.0
  H  H51  1  0.23476000  0.87291000  0.61071000  1.0
  H  H52  1  0.48756000  0.82023000  0.79863000  1.0
  H  H53  1  0.45439000  0.88117000  0.89031000  1.0
  H  H54  1  0.07774000  0.04621000  0.84351000  1.0
  H  H55  1  0.11032000  0.98357000  0.75281000  1.0
  C  C56  1  0.67238000  0.13490000  0.28661000  1.0
  C  C57  1  0.62580000  0.02872000  0.31421000  1.0
  C  C58  1  0.71998000  0.94950000  0.33303000  1.0
  C  C59  1  0.67472000  0.85411000  0.35743000  1.0
  C  C60  1  0.53242000  0.83567000  0.36249000  1.0
  C  C61  1  0.43713000  0.91373000  0.34304000  1.0
  C  C62  1  0.48438000  0.00926000  0.31930000  1.0
  C  C63  1  0.48474000  0.73959000  0.38812000  1.0
  C  C64  1  0.79928000  0.18998000  0.31201000  1.0
  C  C65  1  0.87813000  0.26278000  0.28230000  1.0
  C  C66  1  0.97949000  0.32815000  0.30545000  1.0
  C  C67  1  0.00329000  0.32133000  0.35946000  1.0
  C  C68  1  0.92740000  0.24699000  0.38949000  1.0
  C  C69  1  0.82622000  0.18214000  0.36555000  1.0
  C  C70  1  0.09650000  0.39667000  0.38357000  1.0
  C  C71  1  0.69769000  0.10180000  0.23017000  1.0
  C  C72  1  0.60178000  0.13061000  0.19113000  1.0
  C  C73  1  0.62082000  0.09737000  0.14003000  1.0
  C  C74  1  0.73667000  0.03338000  0.12770000  1.0
  C  C75  1  0.83395000  0.00431000  0.16663000  1.0
  C  C76  1  0.81367000  0.03900000  0.21730000  1.0
  C  C77  1  0.75463000  0.99722000  0.07584000  1.0
  C  C78  1  0.04006000  0.33978000  0.96497000  1.0
  C  C79  1  0.17237000  0.36510000  0.78661000  1.0
  C  C80  1  0.12579000  0.47128000  0.81421000  1.0
  C  C81  1  0.21997000  0.55050000  0.83303000  1.0
  C  C82  1  0.17471000  0.64589000  0.85743000  1.0
  C  C83  1  0.03241000  0.66433000  0.86250000  1.0
  C  C84  1  0.93712000  0.58626000  0.84304000  1.0
  C  C85  1  0.98437000  0.49074000  0.81929000  1.0
  C  C86  1  0.98473000  0.76041000  0.88812000  1.0
  C  C87  1  0.29927000  0.31003000  0.81200000  1.0
  C  C88  1  0.37813000  0.23722000  0.78229000  1.0
  C  C89  1  0.47950000  0.17185000  0.80544000  1.0
  C  C90  1  0.50330000  0.17868000  0.85945000  1.0
  C  C91  1  0.42742000  0.25302000  0.88948000  1.0
  C  C92  1  0.32622000  0.31787000  0.86554000  1.0
  C  C93  1  0.59650000  0.10333000  0.88356000  1.0
  C  C94  1  0.19767000  0.39821000  0.73016000  1.0
  C  C95  1  0.10177000  0.36940000  0.69112000  1.0
  C  C96  1  0.12081000  0.40265000  0.64002000  1.0
  C  C97  1  0.23667000  0.46663000  0.62769000  1.0
  C  C98  1  0.33394000  0.49570000  0.66666667  1.0
  C  C99  1  0.31366000  0.46100000  0.71729000  1.0
  C  C100  1  0.25463000  0.50279000  0.57583000  1.0
  C  C101  1  0.54007000  0.16022000  0.46498000  1.0
  C  C102  1  0.82764000  0.63490000  0.21339000  1.0
  C  C103  1  0.87420000  0.52872000  0.18579000  1.0
  C  C104  1  0.78002000  0.44950000  0.16697000  1.0
  C  C105  1  0.82528000  0.35412000  0.14257000  1.0
  C  C106  1  0.96758000  0.33568000  0.13750000  1.0
  C  C107  1  0.06287000  0.41374000  0.15695000  1.0
  C  C108  1  0.01562000  0.50926000  0.18070000  1.0
  C  C109  1  0.01525000  0.23959000  0.11188000  1.0
  C  C110  1  0.70073000  0.68998000  0.18799000  1.0
  C  C111  1  0.62187000  0.76278000  0.21771000  1.0
  C  C112  1  0.52050000  0.82815000  0.19455000  1.0
  C  C113  1  0.49671000  0.82132000  0.14054000  1.0
  C  C114  1  0.57260000  0.74697000  0.11052000  1.0
  C  C115  1  0.67379000  0.68213000  0.13446000  1.0
  C  C116  1  0.40351000  0.89666000  0.11643000  1.0
  C  C117  1  0.80233000  0.60179000  0.26984000  1.0
  C  C118  1  0.89824000  0.63060000  0.30888000  1.0
  C  C119  1  0.87920000  0.59735000  0.35998000  1.0
  C  C120  1  0.76334000  0.53337000  0.37231000  1.0
  C  C121  1  0.66607000  0.50430000  0.33337000  1.0
  C  C122  1  0.68636000  0.53900000  0.28271000  1.0
  C  C123  1  0.74538000  0.49721000  0.42417000  1.0
  C  C124  1  0.45990000  0.83978000  0.53502000  1.0
  C  C125  1  0.32763000  0.86510000  0.71339000  1.0
  C  C126  1  0.37420000  0.97128000  0.68579000  1.0
  C  C127  1  0.28003000  0.05050000  0.66697000  1.0
  C  C128  1  0.32529000  0.14589000  0.64257000  1.0
  C  C129  1  0.46760000  0.16432000  0.63750000  1.0
  C  C130  1  0.56288000  0.08624000  0.65695000  1.0
  C  C131  1  0.51562000  0.99073000  0.68069000  1.0
  C  C132  1  0.51527000  0.26041000  0.61188000  1.0
  C  C133  1  0.20072000  0.81003000  0.68799000  1.0
  C  C134  1  0.12186000  0.73722000  0.71771000  1.0
  C  C135  1  0.02050000  0.67185000  0.69455000  1.0
  C  C136  1  0.99670000  0.67869000  0.64053000  1.0
  C  C137  1  0.07259000  0.75304000  0.61051000  1.0
  C  C138  1  0.17378000  0.81788000  0.63446000  1.0
  C  C139  1  0.90350000  0.60335000  0.61642000  1.0
  C  C140  1  0.30232000  0.89821000  0.76983000  1.0
  C  C141  1  0.39822000  0.86940000  0.80888000  1.0
  C  C142  1  0.37918000  0.90265000  0.85997000  1.0
  C  C143  1  0.26332000  0.96664000  0.87231000  1.0
  C  C144  1  0.16605000  0.99571000  0.83337000  1.0
  C  C145  1  0.18634000  0.96101000  0.78271000  1.0
  C  C146  1  0.24537000  0.00279000  0.92417000  1.0
  C  C147  1  0.95992000  0.66020000  0.03503000  1.0
  S  S148  1  0.93638000  0.23986000  0.92496000  1.0
  S  S149  1  0.43639000  0.26013000  0.42497000  1.0
  S  S150  1  0.56361000  0.73987000  0.57503000  1.0
  S  S151  1  0.06362000  0.76012000  0.07504000  1.0
  N  N152  1  0.76720000  0.96756000  0.03316000  1.0
  N  N153  1  0.16575000  0.46507000  0.40247000  1.0
  N  N154  1  0.44460000  0.66119000  0.40934000  1.0
  N  N155  1  0.26721000  0.53246000  0.53315000  1.0
  N  N156  1  0.66574000  0.03494000  0.90246000  1.0
  N  N157  1  0.94458000  0.83879000  0.90934000  1.0
  N  N158  1  0.73279000  0.46754000  0.46685000  1.0
  N  N159  1  0.33426000  0.96506000  0.09752000  1.0
  N  N160  1  0.05539000  0.16120000  0.09066000  1.0
  N  N161  1  0.23279000  0.03245000  0.96685000  1.0
  N  N162  1  0.83425000  0.53495000  0.59752000  1.0
  N  N163  1  0.55541000  0.33880000  0.59066000  1.0
  O  O164  1  0.56486000  0.21530000  0.28577000  1.0
  O  O165  1  0.03065000  0.20934000  0.88315000  1.0
  O  O166  1  0.91448000  0.15130000  0.96248000  1.0
  O  O167  1  0.81590000  0.30236000  0.90820000  1.0
  O  O168  1  0.06487000  0.28470000  0.78577000  1.0
  O  O169  1  0.53065000  0.29067000  0.38316000  1.0
  O  O170  1  0.41448000  0.34870000  0.46248000  1.0
  O  O171  1  0.31592000  0.19764000  0.40821000  1.0
  O  O172  1  0.93514000  0.71530000  0.21423000  1.0
  O  O173  1  0.46936000  0.70935000  0.61685000  1.0
  O  O174  1  0.58550000  0.65130000  0.53752000  1.0
  O  O175  1  0.68409000  0.80237000  0.59178000  1.0
  O  O176  1  0.43513000  0.78470000  0.71423000  1.0
  O  O177  1  0.96936000  0.79066000  0.11685000  1.0
  O  O178  1  0.08551000  0.84869000  0.03752000  1.0
  O  O179  1  0.18410000  0.69764000  0.09179000  1.0
  F  F180  1  0.16103000  0.29453000  0.98238000  1.0
  F  F181  1  0.07200000  0.43137000  0.93696000  1.0
  F  F182  1  0.96823000  0.37241000  0.00688000  1.0
  F  F183  1  0.66104000  0.20548000  0.48239000  1.0
  F  F184  1  0.57204000  0.06863000  0.43696000  1.0
  F  F185  1  0.46825000  0.12758000  0.50688000  1.0
  F  F186  1  0.33891000  0.79453000  0.51763000  1.0
  F  F187  1  0.42800000  0.93139000  0.56304000  1.0
  F  F188  1  0.53170000  0.87238000  0.49310000  1.0
  F  F189  1  0.83894000  0.70545000  0.01763000  1.0
  F  F190  1  0.92800000  0.56861000  0.06305000  1.0
  F  F191  1  0.03173000  0.62757000  0.99312000  1.0
