# generated using pymatgen
data_Zn5H41C35N21O
_symmetry_space_group_name_H-M   'P 1'
_cell_length_a   9.59730000
_cell_length_b   24.33600000
_cell_length_c   24.77620000
_cell_angle_alpha   91.68560000
_cell_angle_beta   90.00000000
_cell_angle_gamma   89.99990000
_symmetry_Int_Tables_number   1
_chemical_formula_structural   Zn5H41C35N21O
_chemical_formula_sum   'Zn20 H164 C140 N84 O4'
_cell_volume   5784.22260963
_cell_formula_units_Z   4
loop_
 _symmetry_equiv_pos_site_id
 _symmetry_equiv_pos_as_xyz
  1  'x, y, z'
loop_
 _atom_site_type_symbol
 _atom_site_label
 _atom_site_symmetry_multiplicity
 _atom_site_fract_x
 _atom_site_fract_y
 _atom_site_fract_z
 _atom_site_occupancy
  Zn  Zn0  1  0.96378000  0.76589000  0.68110000  1.0
  Zn  Zn1  1  0.46378000  0.73411000  0.81890000  1.0
  Zn  Zn2  1  0.03622000  0.23411000  0.31890000  1.0
  Zn  Zn3  1  0.53622000  0.26589000  0.18110000  1.0
  Zn  Zn4  1  0.74363000  0.98711000  0.72263000  1.0
  Zn  Zn5  1  0.24363000  0.51289000  0.77737000  1.0
  Zn  Zn6  1  0.25637000  0.01289000  0.27737000  1.0
  Zn  Zn7  1  0.75637000  0.48711000  0.22263000  1.0
  Zn  Zn8  1  0.23976000  0.96683000  0.86345000  1.0
  Zn  Zn9  1  0.73977000  0.53317000  0.63655000  1.0
  Zn  Zn10  1  0.76024000  0.03317000  0.13655000  1.0
  Zn  Zn11  1  0.26024000  0.46683000  0.36345000  1.0
  Zn  Zn12  1  0.32608000  0.65857000  0.51796000  1.0
  Zn  Zn13  1  0.82608000  0.84143000  0.98204000  1.0
  Zn  Zn14  1  0.67392000  0.34143000  0.48204000  1.0
  Zn  Zn15  1  0.17392000  0.15857000  0.01796000  1.0
  Zn  Zn16  1  0.44473000  0.78278000  0.31624000  1.0
  Zn  Zn17  1  0.94473000  0.71722000  0.18376000  1.0
  Zn  Zn18  1  0.55527000  0.21722000  0.68376000  1.0
  Zn  Zn19  1  0.05527000  0.28278000  0.81624000  1.0
  H  H20  1  0.17363000  0.71175000  0.76491000  1.0
  H  H21  1  0.67363000  0.78825000  0.73509000  1.0
  H  H22  1  0.82637000  0.28825000  0.23509000  1.0
  H  H23  1  0.32637000  0.21175000  0.26491000  1.0
  H  H24  1  0.20768000  0.86049000  0.68291000  1.0
  H  H25  1  0.70768000  0.63951000  0.81709000  1.0
  H  H26  1  0.79233000  0.13951000  0.31709000  1.0
  H  H27  1  0.29233000  0.36049000  0.18291000  1.0
  H  H28  1  0.44253000  0.84686000  0.74664000  1.0
  H  H29  1  0.94253000  0.65314000  0.75336000  1.0
  H  H30  1  0.55747000  0.15314000  0.25336000  1.0
  H  H31  1  0.05747000  0.34686000  0.24664000  1.0
  H  H32  1  0.94800000  0.88915000  0.72513000  1.0
  H  H33  1  0.44800000  0.61085000  0.77487000  1.0
  H  H34  1  0.05201000  0.11085000  0.27487000  1.0
  H  H35  1  0.55200000  0.38915000  0.22513000  1.0
  H  H36  1  0.73393000  0.81175000  0.59552000  1.0
  H  H37  1  0.23393000  0.68825000  0.90448000  1.0
  H  H38  1  0.26607000  0.18825000  0.40448000  1.0
  H  H39  1  0.76607000  0.31175000  0.09552000  1.0
  H  H40  1  0.62882000  0.91722000  0.61256000  1.0
  H  H41  1  0.12882000  0.58278000  0.88744000  1.0
  H  H42  1  0.37118000  0.08278000  0.38744000  1.0
  H  H43  1  0.87118000  0.41722000  0.11256000  1.0
  H  H44  1  0.43507000  0.01341000  0.77091000  1.0
  H  H45  1  0.93507000  0.48659000  0.72909000  1.0
  H  H46  1  0.56493000  0.98659000  0.22909000  1.0
  H  H47  1  0.06493000  0.51341000  0.27091000  1.0
  H  H48  1  0.73333000  0.89494000  0.81361000  1.0
  H  H49  1  0.23333000  0.60506000  0.68639000  1.0
  H  H50  1  0.26667000  0.10506000  0.18639000  1.0
  H  H51  1  0.76667000  0.39494000  0.31361000  1.0
  H  H52  1  0.49951000  0.88498000  0.87846000  1.0
  H  H53  1  0.99951000  0.61502000  0.62154000  1.0
  H  H54  1  0.50049000  0.11502000  0.12154000  1.0
  H  H55  1  0.00049000  0.38498000  0.37846000  1.0
  H  H56  1  0.94988000  0.94142000  0.81364000  1.0
  H  H57  1  0.44989000  0.55858000  0.68636000  1.0
  H  H58  1  0.05011000  0.05858000  0.18636000  1.0
  H  H59  1  0.55012000  0.44142000  0.31364000  1.0
  H  H60  1  0.21102000  0.07701000  0.78840000  1.0
  H  H61  1  0.71102000  0.42299000  0.71160000  1.0
  H  H62  1  0.78897000  0.92299000  0.21160000  1.0
  H  H63  1  0.28898000  0.57701000  0.28840000  1.0
  H  H64  1  0.98031000  0.08185000  0.71919000  1.0
  H  H65  1  0.48031000  0.41815000  0.78081000  1.0
  H  H66  1  0.01968000  0.91815000  0.28081000  1.0
  H  H67  1  0.51968000  0.58185000  0.21919000  1.0
  H  H68  1  0.53227000  0.56781000  0.54671000  1.0
  H  H69  1  0.03227000  0.93220000  0.95329000  1.0
  H  H70  1  0.46773000  0.43220000  0.45329000  1.0
  H  H71  1  0.96773000  0.06780000  0.04671000  1.0
  H  H72  1  0.47698000  0.72067000  0.62852000  1.0
  H  H73  1  0.97698000  0.77933000  0.87148000  1.0
  H  H74  1  0.52302000  0.27933000  0.37148000  1.0
  H  H75  1  0.02302000  0.22067000  0.12852000  1.0
  H  H76  1  0.68357000  0.66166000  0.67957000  1.0
  H  H77  1  0.18357000  0.83834000  0.82043000  1.0
  H  H78  1  0.31643000  0.33834000  0.32043000  1.0
  H  H79  1  0.81643000  0.16166000  0.17957000  1.0
  H  H80  1  0.36108000  0.58403000  0.40847000  1.0
  H  H81  1  0.86108000  0.91597000  0.09153000  1.0
  H  H82  1  0.63892000  0.41597000  0.59153000  1.0
  H  H83  1  0.13892000  0.08403000  0.90847000  1.0
  H  H84  1  0.11939000  0.46342000  0.48277000  1.0
  H  H85  1  0.61939000  0.03658000  0.01723000  1.0
  H  H86  1  0.88061000  0.53658000  0.51723000  1.0
  H  H87  1  0.38061000  0.96342000  0.98277000  1.0
  H  H88  1  0.15677000  0.55211000  0.55494000  1.0
  H  H89  1  0.65677000  0.94789000  0.94506000  1.0
  H  H90  1  0.84323000  0.44789000  0.44506000  1.0
  H  H91  1  0.34323000  0.05211000  0.05494000  1.0
  H  H92  1  0.22968000  0.72518000  0.62394000  1.0
  H  H93  1  0.72969000  0.77482000  0.87606000  1.0
  H  H94  1  0.77031000  0.27482000  0.37606000  1.0
  H  H95  1  0.27032000  0.22518000  0.12394000  1.0
  H  H96  1  0.99241000  0.66119000  0.49368000  1.0
  H  H97  1  0.49241000  0.83881000  0.00632000  1.0
  H  H98  1  0.00759000  0.33881000  0.50632000  1.0
  H  H99  1  0.50759000  0.16119000  0.99368000  1.0
  H  H100  1  0.81432000  0.70408000  0.57301000  1.0
  H  H101  1  0.31432000  0.79592000  0.92699000  1.0
  H  H102  1  0.18568000  0.29592000  0.42699000  1.0
  H  H103  1  0.68568000  0.20408000  0.07301000  1.0
  H  H104  1  0.29586000  0.69249000  0.39034000  1.0
  H  H105  1  0.79587000  0.80751000  0.10966000  1.0
  H  H106  1  0.70413000  0.30751000  0.60966000  1.0
  H  H107  1  0.20413000  0.19249000  0.89034000  1.0
  H  H108  1  0.58471000  0.73709000  0.51232000  1.0
  H  H109  1  0.08470000  0.76291000  0.98768000  1.0
  H  H110  1  0.41530000  0.26291000  0.48768000  1.0
  H  H111  1  0.91529000  0.23709000  0.01232000  1.0
  H  H112  1  0.64465000  0.79441000  0.41950000  1.0
  H  H113  1  0.14465000  0.70559000  0.08050000  1.0
  H  H114  1  0.35535000  0.20559000  0.58050000  1.0
  H  H115  1  0.85535000  0.29441000  0.91950000  1.0
  H  H116  1  0.13602000  0.79142000  0.26602000  1.0
  H  H117  1  0.63602000  0.70858000  0.23398000  1.0
  H  H118  1  0.86398000  0.20858000  0.73398000  1.0
  H  H119  1  0.36398000  0.29142000  0.76602000  1.0
  H  H120  1  0.20036000  0.63372000  0.19559000  1.0
  H  H121  1  0.70036000  0.86628000  0.30441000  1.0
  H  H122  1  0.79964000  0.36628000  0.80441000  1.0
  H  H123  1  0.29964000  0.13372000  0.69559000  1.0
  H  H124  1  0.42914000  0.66289000  0.25884000  1.0
  H  H125  1  0.92914000  0.83711000  0.24116000  1.0
  H  H126  1  0.57086000  0.33711000  0.74116000  1.0
  H  H127  1  0.07086000  0.16289000  0.75884000  1.0
  H  H128  1  0.59957000  0.10465000  0.74888000  1.0
  H  H129  1  0.09958000  0.39535000  0.75112000  1.0
  H  H130  1  0.40042000  0.89535000  0.25112000  1.0
  H  H131  1  0.90042000  0.60465000  0.24888000  1.0
  H  H132  1  0.66863000  0.14068000  0.58578000  1.0
  H  H133  1  0.16863000  0.35932000  0.91422000  1.0
  H  H134  1  0.33137000  0.85932000  0.41422000  1.0
  H  H135  1  0.83137000  0.64068000  0.08578000  1.0
  H  H136  1  0.74152000  0.03174000  0.60254000  1.0
  H  H137  1  0.24152000  0.46826000  0.89745000  1.0
  H  H138  1  0.25848000  0.96826000  0.39745000  1.0
  H  H139  1  0.75848000  0.53174000  0.10254000  1.0
  H  H140  1  0.47755000  0.06674000  0.89503000  1.0
  H  H141  1  0.97755000  0.43326000  0.60498000  1.0
  H  H142  1  0.52245000  0.93326000  0.10497000  1.0
  H  H143  1  0.02245000  0.56674000  0.39502000  1.0
  H  H144  1  0.75045000  0.14870000  0.93841000  1.0
  H  H145  1  0.25045000  0.35129000  0.56159000  1.0
  H  H146  1  0.24955000  0.85130000  0.06159000  1.0
  H  H147  1  0.74955000  0.64870000  0.43841000  1.0
  H  H148  1  0.66151000  0.08519000  0.94218000  1.0
  H  H149  1  0.16151000  0.41481000  0.55783000  1.0
  H  H150  1  0.33849000  0.91481000  0.05783000  1.0
  H  H151  1  0.83849000  0.58519000  0.44217000  1.0
  H  H152  1  0.90278000  0.06779000  0.91259000  1.0
  H  H153  1  0.40277000  0.43220000  0.58741000  1.0
  H  H154  1  0.09723000  0.93221000  0.08741000  1.0
  H  H155  1  0.59723000  0.56779000  0.41259000  1.0
  H  H156  1  0.88530000  0.11224000  0.85744000  1.0
  H  H157  1  0.38530000  0.38776000  0.64257000  1.0
  H  H158  1  0.11470000  0.88776000  0.14256000  1.0
  H  H159  1  0.61470000  0.61224000  0.35743000  1.0
  H  H160  1  0.78827000  0.04997000  0.85853000  1.0
  H  H161  1  0.28826000  0.45002000  0.64148000  1.0
  H  H162  1  0.21173000  0.95003000  0.14147000  1.0
  H  H163  1  0.71173000  0.54997000  0.35853000  1.0
  H  H164  1  0.56380000  0.18246000  0.81282000  1.0
  H  H165  1  0.06380000  0.31753000  0.68718000  1.0
  H  H166  1  0.43620000  0.81753000  0.18718000  1.0
  H  H167  1  0.93620000  0.68247000  0.31282000  1.0
  H  H168  1  0.73198000  0.18963000  0.84249000  1.0
  H  H169  1  0.23198000  0.31036000  0.65751000  1.0
  H  H170  1  0.26802000  0.81037000  0.15751000  1.0
  H  H171  1  0.76802000  0.68963000  0.34249000  1.0
  H  H172  1  0.58885000  0.27292000  0.86296000  1.0
  H  H173  1  0.08884000  0.22707000  0.63704000  1.0
  H  H174  1  0.41115000  0.72708000  0.13704000  1.0
  H  H175  1  0.91116000  0.77292000  0.36296000  1.0
  H  H176  1  0.61994000  0.23815000  0.92404000  1.0
  H  H177  1  0.11994000  0.26185000  0.57596000  1.0
  H  H178  1  0.38006000  0.76185000  0.07596000  1.0
  H  H179  1  0.88006000  0.73815000  0.42404000  1.0
  H  H180  1  0.45511000  0.23194000  0.89132000  1.0
  H  H181  1  0.95510000  0.26806000  0.60868000  1.0
  H  H182  1  0.54489000  0.76806000  0.10868000  1.0
  H  H183  1  0.04489000  0.73194000  0.39132000  1.0
  C  C184  1  0.21502000  0.75031000  0.75083000  1.0
  C  C185  1  0.71502000  0.74969000  0.74917000  1.0
  C  C186  1  0.78498000  0.24969000  0.24917000  1.0
  C  C187  1  0.28498000  0.25031000  0.25083000  1.0
  C  C188  1  0.23553000  0.82729000  0.70911000  1.0
  C  C189  1  0.73553000  0.67271000  0.79089000  1.0
  C  C190  1  0.76447000  0.17271000  0.29089000  1.0
  C  C191  1  0.26448000  0.32729000  0.20911000  1.0
  C  C192  1  0.35281000  0.82027000  0.74040000  1.0
  C  C193  1  0.85281000  0.67973000  0.75960000  1.0
  C  C194  1  0.64719000  0.17973000  0.25960000  1.0
  C  C195  1  0.14719000  0.32027000  0.24040000  1.0
  C  C196  1  0.87474000  0.88244000  0.69218000  1.0
  C  C197  1  0.37475000  0.61756000  0.80782000  1.0
  C  C198  1  0.12526000  0.11756000  0.30782000  1.0
  C  C199  1  0.62526000  0.38244000  0.19218000  1.0
  C  C200  1  0.76230000  0.84335000  0.62532000  1.0
  C  C201  1  0.26230000  0.65665000  0.87468000  1.0
  C  C202  1  0.23771000  0.15665000  0.37468000  1.0
  C  C203  1  0.73770000  0.34335000  0.12532000  1.0
  C  C204  1  0.71070000  0.89584000  0.63363000  1.0
  C  C205  1  0.21070000  0.60417000  0.86637000  1.0
  C  C206  1  0.28930000  0.10417000  0.36637000  1.0
  C  C207  1  0.78930000  0.39583000  0.13363000  1.0
  C  C208  1  0.48523000  0.97987000  0.79134000  1.0
  C  C209  1  0.98523000  0.52014000  0.70866000  1.0
  C  C210  1  0.51477000  0.02014000  0.20865000  1.0
  C  C211  1  0.01477000  0.47987000  0.29134000  1.0
  C  C212  1  0.63741000  0.91856000  0.81435000  1.0
  C  C213  1  0.13742000  0.58144000  0.68565000  1.0
  C  C214  1  0.36258000  0.08144000  0.18565000  1.0
  C  C215  1  0.86258000  0.41856000  0.31435000  1.0
  C  C216  1  0.52163000  0.91350000  0.84673000  1.0
  C  C217  1  0.02163000  0.58650000  0.65327000  1.0
  C  C218  1  0.47837000  0.08650000  0.15327000  1.0
  C  C219  1  0.97837000  0.41350000  0.34673000  1.0
  C  C220  1  0.98977000  0.97886000  0.79659000  1.0
  C  C221  1  0.48977000  0.52114000  0.70341000  1.0
  C  C222  1  0.01023000  0.02114000  0.20341000  1.0
  C  C223  1  0.51023000  0.47886000  0.29659000  1.0
  C  C224  1  0.12357000  0.04920000  0.78228000  1.0
  C  C225  1  0.62357000  0.45081000  0.71772000  1.0
  C  C226  1  0.87643000  0.95081000  0.21772000  1.0
  C  C227  1  0.37643000  0.54920000  0.28228000  1.0
  C  C228  1  0.00850000  0.05197000  0.74898000  1.0
  C  C229  1  0.50850000  0.44803000  0.75102000  1.0
  C  C230  1  0.99149000  0.94803000  0.25102000  1.0
  C  C231  1  0.49149000  0.55197000  0.24898000  1.0
  C  C232  1  0.54597000  0.60170000  0.57571000  1.0
  C  C233  1  0.04597000  0.89830000  0.92429000  1.0
  C  C234  1  0.45403000  0.39830000  0.42429000  1.0
  C  C235  1  0.95403000  0.10170000  0.07571000  1.0
  C  C236  1  0.51836000  0.68007000  0.61875000  1.0
  C  C237  1  0.01836000  0.81993000  0.88125000  1.0
  C  C238  1  0.48163000  0.31993000  0.38124000  1.0
  C  C239  1  0.98163000  0.18007000  0.11875000  1.0
  C  C240  1  0.62151000  0.65098000  0.64425000  1.0
  C  C241  1  0.12151000  0.84902000  0.85575000  1.0
  C  C242  1  0.37849000  0.34903000  0.35575000  1.0
  C  C243  1  0.87849000  0.15098000  0.14425000  1.0
  C  C244  1  0.30302000  0.56284000  0.43910000  1.0
  C  C245  1  0.80302000  0.93716000  0.06090000  1.0
  C  C246  1  0.69698000  0.43716000  0.56090000  1.0
  C  C247  1  0.19698000  0.06284000  0.93910000  1.0
  C  C248  1  0.17724000  0.50131000  0.47843000  1.0
  C  C249  1  0.67724000  0.99869000  0.02157000  1.0
  C  C250  1  0.82276000  0.49869000  0.52157000  1.0
  C  C251  1  0.32276000  0.00131000  0.97843000  1.0
  C  C252  1  0.19450000  0.54545000  0.51396000  1.0
  C  C253  1  0.69450000  0.95454000  0.98604000  1.0
  C  C254  1  0.80550000  0.45455000  0.48604000  1.0
  C  C255  1  0.30550000  0.04546000  0.01396000  1.0
  C  C256  1  0.14106000  0.71392000  0.59881000  1.0
  C  C257  1  0.64106000  0.78609000  0.90119000  1.0
  C  C258  1  0.85894000  0.28609000  0.40119000  1.0
  C  C259  1  0.35894000  0.21392000  0.09881000  1.0
  C  C260  1  0.01547000  0.68113000  0.53237000  1.0
  C  C261  1  0.51547000  0.81887000  0.96763000  1.0
  C  C262  1  0.98453000  0.31887000  0.46763000  1.0
  C  C263  1  0.48453000  0.18113000  0.03237000  1.0
  C  C264  1  0.92728000  0.70298000  0.57141000  1.0
  C  C265  1  0.42728000  0.79702000  0.92859000  1.0
  C  C266  1  0.07272000  0.29702000  0.42859000  1.0
  C  C267  1  0.57272000  0.20298000  0.07141000  1.0
  C  C268  1  0.38207000  0.71282000  0.41130000  1.0
  C  C269  1  0.88207000  0.78718000  0.08870000  1.0
  C  C270  1  0.61793000  0.28718000  0.58870000  1.0
  C  C271  1  0.11793000  0.21282000  0.91130000  1.0
  C  C272  1  0.53346000  0.73654000  0.47327000  1.0
  C  C273  1  0.03346000  0.76346000  0.02673000  1.0
  C  C274  1  0.46654000  0.26346000  0.52673000  1.0
  C  C275  1  0.96654000  0.23654000  0.97327000  1.0
  C  C276  1  0.56312000  0.76483000  0.42733000  1.0
  C  C277  1  0.06312000  0.73517000  0.07267000  1.0
  C  C278  1  0.43688000  0.23517000  0.57267000  1.0
  C  C279  1  0.93688000  0.26483000  0.92733000  1.0
  C  C280  1  0.18522000  0.75258000  0.25482000  1.0
  C  C281  1  0.68522000  0.74742000  0.24518000  1.0
  C  C282  1  0.81478000  0.24743000  0.74518000  1.0
  C  C283  1  0.31478000  0.25257000  0.75482000  1.0
  C  C284  1  0.22202000  0.67129000  0.21873000  1.0
  C  C285  1  0.72202000  0.82871000  0.28127000  1.0
  C  C286  1  0.77798000  0.32871000  0.78127000  1.0
  C  C287  1  0.27798000  0.17129000  0.71873000  1.0
  C  C288  1  0.33589000  0.68595000  0.24976000  1.0
  C  C289  1  0.83589000  0.81405000  0.25024000  1.0
  C  C290  1  0.66411000  0.31405000  0.75024000  1.0
  C  C291  1  0.16411000  0.18595000  0.74976000  1.0
  C  C292  1  0.62899000  0.09962000  0.70669000  1.0
  C  C293  1  0.12899000  0.40039000  0.79331000  1.0
  C  C294  1  0.37101000  0.90039000  0.29331000  1.0
  C  C295  1  0.87101000  0.59962000  0.20669000  1.0
  C  C296  1  0.66565000  0.11700000  0.62217000  1.0
  C  C297  1  0.16565000  0.38300000  0.87783000  1.0
  C  C298  1  0.33435000  0.88300000  0.37783000  1.0
  C  C299  1  0.83435000  0.61700000  0.12217000  1.0
  C  C300  1  0.70117000  0.06305000  0.63044000  1.0
  C  C301  1  0.20117000  0.43695000  0.86956000  1.0
  C  C302  1  0.29883000  0.93695000  0.36956000  1.0
  C  C303  1  0.79883000  0.56305000  0.13044000  1.0
  C  C304  1  0.48038000  0.10499000  0.87164000  1.0
  C  C305  1  0.98038000  0.39501000  0.62836000  1.0
  C  C306  1  0.51962000  0.89501000  0.12836000  1.0
  C  C307  1  0.01962000  0.60499000  0.37164000  1.0
  C  C308  1  0.71006000  0.11359000  0.91406000  1.0
  C  C309  1  0.21006000  0.38640000  0.58595000  1.0
  C  C310  1  0.28994000  0.88641000  0.08594000  1.0
  C  C311  1  0.78994000  0.61359000  0.41406000  1.0
  C  C312  1  0.82822000  0.08441000  0.88366000  1.0
  C  C313  1  0.32822000  0.41559000  0.61634000  1.0
  C  C314  1  0.17178000  0.91559000  0.11634000  1.0
  C  C315  1  0.67178000  0.58441000  0.38366000  1.0
  C  C316  1  0.62034000  0.18543000  0.85133000  1.0
  C  C317  1  0.12034000  0.31456000  0.64867000  1.0
  C  C318  1  0.37966000  0.81457000  0.14867000  1.0
  C  C319  1  0.87966000  0.68543000  0.35133000  1.0
  C  C320  1  0.56790000  0.23502000  0.88458000  1.0
  C  C321  1  0.06789000  0.26497000  0.61542000  1.0
  C  C322  1  0.43210000  0.76498000  0.11542000  1.0
  C  C323  1  0.93210000  0.73502000  0.38458000  1.0
  N  N324  1  0.14840000  0.78278000  0.71608000  1.0
  N  N325  1  0.64840000  0.71722000  0.78392000  1.0
  N  N326  1  0.85160000  0.21722000  0.28392000  1.0
  N  N327  1  0.35160000  0.28278000  0.21608000  1.0
  N  N328  1  0.33897000  0.77124000  0.76668000  1.0
  N  N329  1  0.83897000  0.72876000  0.73332000  1.0
  N  N330  1  0.66103000  0.22876000  0.23331000  1.0
  N  N331  1  0.16103000  0.27124000  0.26669000  1.0
  N  N332  1  0.86621000  0.83519000  0.66280000  1.0
  N  N333  1  0.36621000  0.66481000  0.83721000  1.0
  N  N334  1  0.13379000  0.16481000  0.33721000  1.0
  N  N335  1  0.63379000  0.33519000  0.16279000  1.0
  N  N336  1  0.78295000  0.92042000  0.67603000  1.0
  N  N337  1  0.28295000  0.57958000  0.82397000  1.0
  N  N338  1  0.21705000  0.07958000  0.32397000  1.0
  N  N339  1  0.71705000  0.42042000  0.17603000  1.0
  N  N340  1  0.61358000  0.96088000  0.77940000  1.0
  N  N341  1  0.11358000  0.53912000  0.72060000  1.0
  N  N342  1  0.38642000  0.03912000  0.22060000  1.0
  N  N343  1  0.88642000  0.46088000  0.27940000  1.0
  N  N344  1  0.42567000  0.95247000  0.83177000  1.0
  N  N345  1  0.92567000  0.54753000  0.66823000  1.0
  N  N346  1  0.57433000  0.04753000  0.16823000  1.0
  N  N347  1  0.07433000  0.45247000  0.33177000  1.0
  N  N348  1  0.92416000  0.00729000  0.75841000  1.0
  N  N349  1  0.42416000  0.49271000  0.74159000  1.0
  N  N350  1  0.07584000  0.99271000  0.24159000  1.0
  N  N351  1  0.57584000  0.50729000  0.25841000  1.0
  N  N352  1  0.11062000  0.00245000  0.81218000  1.0
  N  N353  1  0.61063000  0.49755000  0.68782000  1.0
  N  N354  1  0.88937000  0.99755000  0.18782000  1.0
  N  N355  1  0.38938000  0.50245000  0.31218000  1.0
  N  N356  1  0.63856000  0.60144000  0.61648000  1.0
  N  N357  1  0.13856000  0.89856000  0.88352000  1.0
  N  N358  1  0.36144000  0.39856000  0.38352000  1.0
  N  N359  1  0.86144000  0.10144000  0.11648000  1.0
  N  N360  1  0.47056000  0.64834000  0.57533000  1.0
  N  N361  1  0.97056000  0.85166000  0.92467000  1.0
  N  N362  1  0.52944000  0.35166000  0.42467000  1.0
  N  N363  1  0.02944000  0.14834000  0.07533000  1.0
  N  N364  1  0.24650000  0.51269000  0.43118000  1.0
  N  N365  1  0.74650000  0.98731000  0.06882000  1.0
  N  N366  1  0.75350000  0.48731000  0.56882000  1.0
  N  N367  1  0.25350000  0.01269000  0.93118000  1.0
  N  N368  1  0.27451000  0.58431000  0.48855000  1.0
  N  N369  1  0.77451000  0.91569000  0.01145000  1.0
  N  N370  1  0.72549000  0.41569000  0.51145000  1.0
  N  N371  1  0.22549000  0.08431000  0.98855000  1.0
  N  N372  1  0.15088000  0.68828000  0.55016000  1.0
  N  N373  1  0.65089000  0.81172000  0.94984000  1.0
  N  N374  1  0.84912000  0.31172000  0.44984000  1.0
  N  N375  1  0.34912000  0.18828000  0.05016000  1.0
  N  N376  1  0.00816000  0.72368000  0.61343000  1.0
  N  N377  1  0.50817000  0.77632000  0.88657000  1.0
  N  N378  1  0.99184000  0.27632000  0.38657000  1.0
  N  N379  1  0.49184000  0.22368000  0.11343000  1.0
  N  N380  1  0.41845000  0.70374000  0.46281000  1.0
  N  N381  1  0.91845000  0.79626000  0.03719000  1.0
  N  N382  1  0.58155000  0.29626000  0.53719000  1.0
  N  N383  1  0.08155000  0.20374000  0.96281000  1.0
  N  N384  1  0.46697000  0.74951000  0.38826000  1.0
  N  N385  1  0.96697000  0.75050000  0.11174000  1.0
  N  N386  1  0.53303000  0.25050000  0.61174000  1.0
  N  N387  1  0.03303000  0.24951000  0.88826000  1.0
  N  N388  1  0.31192000  0.73758000  0.27241000  1.0
  N  N389  1  0.81192000  0.76242000  0.22759000  1.0
  N  N390  1  0.68808000  0.26242000  0.72759000  1.0
  N  N391  1  0.18808000  0.23758000  0.77241000  1.0
  N  N392  1  0.12690000  0.71381000  0.22216000  1.0
  N  N393  1  0.62690000  0.78619000  0.27785000  1.0
  N  N394  1  0.87310000  0.28619000  0.77784000  1.0
  N  N395  1  0.37310000  0.21381000  0.72216000  1.0
  N  N396  1  0.62008000  0.13991000  0.67072000  1.0
  N  N397  1  0.12008000  0.36010000  0.82928000  1.0
  N  N398  1  0.37992000  0.86010000  0.32928000  1.0
  N  N399  1  0.87992000  0.63991000  0.17072000  1.0
  N  N400  1  0.67758000  0.05229000  0.68415000  1.0
  N  N401  1  0.17758000  0.44771000  0.81585000  1.0
  N  N402  1  0.32242000  0.94771000  0.31585000  1.0
  N  N403  1  0.82242000  0.55229000  0.18415000  1.0
  N  N404  1  0.60007000  0.13360000  0.87881000  1.0
  N  N405  1  0.10007000  0.36640000  0.62120000  1.0
  N  N406  1  0.39993000  0.86640000  0.12119000  1.0
  N  N407  1  0.89993000  0.63360000  0.37881000  1.0
  O  O408  1  0.38223000  0.11884000  0.84234000  1.0
  O  O409  1  0.88223000  0.38115000  0.65766000  1.0
  O  O410  1  0.61777000  0.88116000  0.15766000  1.0
  O  O411  1  0.11777000  0.61884000  0.34234000  1.0
