# generated using pymatgen
data_ZnH41C40N3O5F6
_symmetry_space_group_name_H-M   'P 1'
_cell_length_a   11.79440000
_cell_length_b   13.80843025
_cell_length_c   16.78736269
_cell_angle_alpha   95.51909058
_cell_angle_beta   110.56229299
_cell_angle_gamma   115.26918094
_symmetry_Int_Tables_number   1
_chemical_formula_structural   ZnH41C40N3O5F6
_chemical_formula_sum   'Zn2 H82 C80 N6 O10 F12'
_cell_volume   2214.95227794
_cell_formula_units_Z   2
loop_
 _symmetry_equiv_pos_site_id
 _symmetry_equiv_pos_as_xyz
  1  'x, y, z'
loop_
 _atom_site_type_symbol
 _atom_site_label
 _atom_site_symmetry_multiplicity
 _atom_site_fract_x
 _atom_site_fract_y
 _atom_site_fract_z
 _atom_site_occupancy
  Zn  Zn0  1  0.89653000  0.49992000  0.49996000  1.0
  Zn  Zn1  1  0.79895000  0.00003000  0.00001000  1.0
  H  H2  1  0.43202000  0.99281000  0.38636000  1.0
  H  H3  1  0.05298000  0.00728000  0.61370000  1.0
  H  H4  1  0.68767000  0.42019000  0.17515000  1.0
  H  H5  1  0.09244000  0.57993000  0.82486000  1.0
  H  H6  1  0.76304000  0.48633000  0.10786000  1.0
  H  H7  1  0.16890000  0.51372000  0.89211000  1.0
  H  H8  1  0.85563000  0.36523000  0.10139000  1.0
  H  H9  1  0.38902000  0.63471000  0.89855000  1.0
  H  H10  1  0.78032000  0.29497000  0.16712000  1.0
  H  H11  1  0.31827000  0.70500000  0.83282000  1.0
  H  H12  1  0.06245000  0.41304000  0.24486000  1.0
  H  H13  1  0.40449000  0.58679000  0.75505000  1.0
  H  H14  1  0.25997000  0.64086000  0.32944000  1.0
  H  H15  1  0.28963000  0.35898000  0.67055000  1.0
  H  H16  1  0.16546000  0.63823000  0.39247000  1.0
  H  H17  1  0.13477000  0.36167000  0.60753000  1.0
  H  H18  1  0.19647000  0.73604000  0.32975000  1.0
  H  H19  1  0.13067000  0.26386000  0.67026000  1.0
  H  H20  1  0.14539000  0.59091000  0.16306000  1.0
  H  H21  1  0.39134000  0.40899000  0.83701000  1.0
  H  H22  1  0.07579000  0.68115000  0.16804000  1.0
  H  H23  1  0.22651000  0.31882000  0.83201000  1.0
  H  H24  1  0.96460000  0.53966000  0.10226000  1.0
  H  H25  1  0.32254000  0.46033000  0.89773000  1.0
  H  H26  1  0.89685000  0.69870000  0.20215000  1.0
  H  H27  1  0.99593000  0.30140000  0.79784000  1.0
  H  H28  1  0.97287000  0.72995000  0.32023000  1.0
  H  H29  1  0.92265000  0.27014000  0.67976000  1.0
  H  H30  1  0.79048000  0.64641000  0.25769000  1.0
  H  H31  1  0.88642000  0.35380000  0.74230000  1.0
  H  H32  1  0.55964000  0.97785000  0.71102000  1.0
  H  H33  1  0.87076000  0.02226000  0.28899000  1.0
  H  H34  1  0.43945000  0.01808000  0.65107000  1.0
  H  H35  1  0.77034000  0.98202000  0.34897000  1.0
  H  H36  1  0.74674000  0.16024000  0.74014000  1.0
  H  H37  1  0.84646000  0.83985000  0.25985000  1.0
  H  H38  1  0.62557000  0.20001000  0.68050000  1.0
  H  H39  1  0.74517000  0.80008000  0.31950000  1.0
  H  H40  1  0.72904000  0.31794000  0.83784000  1.0
  H  H41  1  0.57344000  0.68218000  0.16219000  1.0
  H  H42  1  0.39975000  0.17586000  0.88592000  1.0
  H  H43  1  0.33808000  0.82423000  0.11418000  1.0
  H  H44  1  0.54778000  0.30784000  0.91297000  1.0
  H  H45  1  0.32715000  0.69225000  0.08714000  1.0
  H  H46  1  0.56916000  0.19998000  0.95398000  1.0
  H  H47  1  0.41533000  0.80009000  0.04612000  1.0
  H  H48  1  0.42284000  0.16946000  0.67059000  1.0
  H  H49  1  0.58281000  0.83048000  0.32947000  1.0
  H  H50  1  0.46185000  0.28920000  0.74791000  1.0
  H  H51  1  0.42489000  0.71077000  0.25210000  1.0
  H  H52  1  0.31774000  0.15738000  0.72695000  1.0
  H  H53  1  0.43343000  0.84256000  0.27314000  1.0
  H  H54  1  0.26647000  0.95481000  0.72132000  1.0
  H  H55  1  0.59021000  0.04514000  0.27876000  1.0
  H  H56  1  0.33172000  0.97298000  0.83807000  1.0
  H  H57  1  0.52055000  0.02700000  0.16202000  1.0
  H  H58  1  0.34949000  0.87944000  0.77001000  1.0
  H  H59  1  0.69984000  0.12063000  0.23008000  1.0
  H  H60  1  0.66104000  0.34559000  0.32360000  1.0
  H  H61  1  0.99216000  0.65431000  0.67636000  1.0
  H  H62  1  0.43386000  0.16703000  0.26243000  1.0
  H  H63  1  0.00483000  0.83297000  0.73759000  1.0
  H  H64  1  0.47367000  0.19686000  0.53077000  1.0
  H  H65  1  0.74620000  0.80305000  0.46932000  1.0
  H  H66  1  0.70060000  0.37252000  0.58032000  1.0
  H  H67  1  0.74768000  0.62724000  0.41971000  1.0
  H  H68  1  0.22419000  0.21407000  0.30670000  1.0
  H  H69  1  0.70329000  0.78595000  0.69320000  1.0
  H  H70  1  0.03733000  0.18663000  0.16274000  1.0
  H  H71  1  0.68770000  0.81347000  0.83711000  1.0
  H  H72  1  0.95299000  0.86626000  0.06184000  1.0
  H  H73  1  0.02478000  0.13366000  0.93808000  1.0
  H  H74  1  0.13598000  0.87853000  0.20312000  1.0
  H  H75  1  0.05408000  0.12145000  0.79677000  1.0
  H  H76  1  0.22103000  0.18742000  0.43308000  1.0
  H  H77  1  0.60059000  0.81254000  0.56685000  1.0
  H  H78  1  0.11378000  0.14822000  0.53707000  1.0
  H  H79  1  0.42861000  0.85188000  0.46297000  1.0
  H  H80  1  0.11457000  0.84743000  0.52968000  1.0
  H  H81  1  0.73750000  0.15264000  0.47039000  1.0
  H  H82  1  0.22595000  0.87592000  0.42547000  1.0
  H  H83  1  0.92456000  0.12397000  0.57443000  1.0
  C  C84  1  0.97063000  0.37710000  0.38686000  1.0
  C  C85  1  0.20664000  0.62285000  0.61309000  1.0
  C  C86  1  0.95773000  0.43833000  0.32642000  1.0
  C  C87  1  0.19294000  0.56154000  0.67349000  1.0
  C  C88  1  0.90242000  0.51231000  0.32776000  1.0
  C  C89  1  0.06237000  0.48766000  0.67220000  1.0
  C  C90  1  0.02864000  0.29802000  0.37652000  1.0
  C  C91  1  0.35412000  0.70194000  0.62353000  1.0
  C  C92  1  0.90351000  0.56049000  0.25031000  1.0
  C  C93  1  0.09270000  0.43951000  0.74966000  1.0
  C  C94  1  0.78493000  0.45795000  0.16757000  1.0
  C  C95  1  0.15947000  0.54210000  0.83240000  1.0
  C  C96  1  0.84486000  0.37802000  0.16321000  1.0
  C  C97  1  0.30366000  0.62194000  0.83673000  1.0
  C  C98  1  0.98909000  0.44140000  0.24570000  1.0
  C  C99  1  0.30195000  0.55848000  0.75422000  1.0
  C  C100  1  0.03763000  0.56656000  0.24728000  1.0
  C  C101  1  0.22375000  0.43336000  0.75269000  1.0
  C  C102  1  0.17187000  0.64972000  0.33004000  1.0
  C  C103  1  0.19208000  0.35016000  0.66995000  1.0
  C  C104  1  0.05549000  0.59507000  0.16516000  1.0
  C  C105  1  0.29517000  0.40486000  0.83487000  1.0
  C  C106  1  0.89078000  0.66484000  0.25782000  1.0
  C  C107  1  0.96809000  0.33528000  0.74218000  1.0
  C  C108  1  0.86099000  0.22156000  0.96447000  1.0
  C  C109  1  0.67500000  0.77853000  0.03552000  1.0
  C  C110  1  0.73118000  0.17817000  0.89326000  1.0
  C  C111  1  0.65979000  0.82195000  0.10673000  1.0
  C  C112  1  0.61732000  0.06659000  0.87214000  1.0
  C  C113  1  0.67860000  0.93354000  0.12789000  1.0
  C  C114  1  0.98326000  0.33922000  0.98445000  1.0
  C  C115  1  0.65950000  0.66079000  0.01558000  1.0
  C  C116  1  0.49106000  0.05371000  0.79327000  1.0
  C  C117  1  0.64411000  0.94638000  0.20679000  1.0
  C  C118  1  0.53033000  0.04306000  0.71428000  1.0
  C  C119  1  0.77303000  0.95706000  0.28576000  1.0
  C  C120  1  0.65165000  0.16143000  0.73352000  1.0
  C  C121  1  0.75680000  0.83867000  0.26649000  1.0
  C  C122  1  0.67192000  0.22689000  0.82281000  1.0
  C  C123  1  0.62236000  0.77322000  0.17722000  1.0
  C  C124  1  0.51899000  0.17716000  0.81177000  1.0
  C  C125  1  0.53017000  0.82292000  0.18831000  1.0
  C  C126  1  0.50888000  0.21708000  0.89617000  1.0
  C  C127  1  0.39576000  0.78301000  0.10393000  1.0
  C  C128  1  0.42542000  0.19889000  0.73458000  1.0
  C  C129  1  0.49203000  0.80110000  0.26548000  1.0
  C  C130  1  0.35165000  0.96010000  0.77976000  1.0
  C  C131  1  0.61168000  0.03991000  0.22033000  1.0
  C  C132  1  0.61444000  0.30954000  0.36668000  1.0
  C  C133  1  0.93855000  0.69041000  0.63330000  1.0
  C  C134  1  0.48840333  0.21073000  0.33333333  1.0
  C  C135  1  0.94474000  0.78927000  0.66671000  1.0
  C  C136  1  0.43343000  0.16782000  0.39168000  1.0
  C  C137  1  0.87420000  0.83215000  0.60835000  1.0
  C  C138  1  0.50986000  0.22688000  0.48197000  1.0
  C  C139  1  0.80124000  0.77302000  0.51808000  1.0
  C  C140  1  0.63586000  0.32534000  0.51026000  1.0
  C  C141  1  0.80036000  0.67449000  0.48977000  1.0
  C  C142  1  0.30057000  0.05375000  0.35538000  1.0
  C  C143  1  0.89149000  0.94621000  0.64456000  1.0
  C  C144  1  0.19238000  0.04596000  0.26740000  1.0
  C  C145  1  0.87888000  0.95401000  0.73247000  1.0
  C  C146  1  0.16560000  0.13424000  0.25523000  1.0
  C  C147  1  0.77595000  0.86581000  0.74465000  1.0
  C  C148  1  0.06260000  0.12065000  0.17504000  1.0
  C  C149  1  0.76665000  0.87944000  0.82482000  1.0
  C  C150  1  0.01534000  0.94147000  0.11832000  1.0
  C  C151  1  0.95537000  0.05851000  0.88156000  1.0
  C  C152  1  0.11601000  0.94803000  0.19671000  1.0
  C  C153  1  0.97102000  0.05194000  0.80317000  1.0
  C  C154  1  0.23286000  0.03381000  0.42007000  1.0
  C  C155  1  0.77902000  0.96609000  0.57981000  1.0
  C  C156  1  0.19942000  0.11052000  0.45196000  1.0
  C  C157  1  0.63699000  0.88944000  0.54797000  1.0
  C  C158  1  0.13875000  0.08885000  0.51030000  1.0
  C  C159  1  0.53969000  0.91119000  0.48969000  1.0
  C  C160  1  0.13969000  0.92209000  0.50677000  1.0
  C  C161  1  0.71089000  0.07793000  0.49323000  1.0
  C  C162  1  0.20181000  0.93780000  0.44854000  1.0
  C  C163  1  0.81550000  0.06212000  0.55137000  1.0
  N  N164  1  0.68717000  0.36630000  0.45373000  1.0
  N  N165  1  0.86729000  0.63356000  0.54628000  1.0
  N  N166  1  0.98760000  0.02543000  0.10768000  1.0
  N  N167  1  0.85431000  0.97459000  0.89222000  1.0
  N  N168  1  0.10877000  0.99640000  0.53756000  1.0
  N  N169  1  0.57489000  0.00367000  0.46248000  1.0
  O  O170  1  0.94254000  0.37898000  0.45369000  1.0
  O  O171  1  0.10992000  0.62104000  0.54628000  1.0
  O  O172  1  0.85297000  0.53450000  0.37825000  1.0
  O  O173  1  0.94024000  0.46549000  0.62170000  1.0
  O  O174  1  0.89964000  0.17190000  0.02033000  1.0
  O  O175  1  0.70757000  0.82817000  0.97968000  1.0
  O  O176  1  0.61472000  0.98839000  0.90540000  1.0
  O  O177  1  0.72091000  0.01174000  0.09462000  1.0
  O  O178  1  0.33592000  0.97067000  0.33794000  1.0
  O  O179  1  0.02733000  0.02934000  0.66210000  1.0
  F  F180  1  0.17148000  0.35574000  0.40736000  1.0
  F  F181  1  0.40847000  0.64427000  0.59269000  1.0
  F  F182  1  0.97541000  0.23737000  0.29041000  1.0
  F  F183  1  0.44748000  0.76246000  0.70969000  1.0
  F  F184  1  0.00061000  0.22309000  0.42358000  1.0
  F  F185  1  0.35409000  0.77699000  0.57658000  1.0
  F  F186  1  0.07099000  0.33129000  0.95054000  1.0
  F  F187  1  0.78899000  0.66858000  0.04954000  1.0
  F  F188  1  0.06319000  0.38805000  0.07356000  1.0
  F  F189  1  0.60156000  0.61192000  0.92648000  1.0
  F  F190  1  0.94726000  0.41360000  0.95117000  1.0
  F  F191  1  0.58234000  0.58648000  0.04886000  1.0
