# generated using pymatgen
data_CdH12C16(NO2)2
_symmetry_space_group_name_H-M   'P 1'
_cell_length_a   12.27090000
_cell_length_b   13.32790000
_cell_length_c   13.98740000
_cell_angle_alpha   90.00010000
_cell_angle_beta   89.99990000
_cell_angle_gamma   90.00000000
_symmetry_Int_Tables_number   1
_chemical_formula_structural   CdH12C16(NO2)2
_chemical_formula_sum   'Cd4 H48 C64 N8 O16'
_cell_volume   2287.57392240
_cell_formula_units_Z   4
loop_
 _symmetry_equiv_pos_site_id
 _symmetry_equiv_pos_as_xyz
  1  'x, y, z'
loop_
 _atom_site_type_symbol
 _atom_site_label
 _atom_site_symmetry_multiplicity
 _atom_site_fract_x
 _atom_site_fract_y
 _atom_site_fract_z
 _atom_site_occupancy
  Cd  Cd0  1  0.27931000  0.25000000  0.00000000  1.0
  Cd  Cd1  1  0.77931000  0.75000000  0.50000000  1.0
  Cd  Cd2  1  0.22069000  0.25000000  0.50000000  1.0
  Cd  Cd3  1  0.72069000  0.75000000  0.00000000  1.0
  H  H4  1  0.03042000  0.52076000  0.08013000  1.0
  H  H5  1  0.15787000  0.44509000  0.25667000  1.0
  H  H6  1  0.93520000  0.62722000  0.16440000  1.0
  H  H7  1  0.83189000  0.73499000  0.27794000  1.0
  H  H8  1  0.00076000  0.62464000  0.51173000  1.0
  H  H9  1  0.11698000  0.51496000  0.40759000  1.0
  H  H10  1  0.03042000  0.97924000  0.91987000  1.0
  H  H11  1  0.15787000  0.05491000  0.74333000  1.0
  H  H12  1  0.93520000  0.87278000  0.83560000  1.0
  H  H13  1  0.83189000  0.76501000  0.72206000  1.0
  H  H14  1  0.00076000  0.87536000  0.48827000  1.0
  H  H15  1  0.11699000  0.98504000  0.59241000  1.0
  H  H16  1  0.53042000  0.02076000  0.41987000  1.0
  H  H17  1  0.65787000  0.94509000  0.24333000  1.0
  H  H18  1  0.43520000  0.12722000  0.33560000  1.0
  H  H19  1  0.33189000  0.23499000  0.22206000  1.0
  H  H20  1  0.50076000  0.12464000  0.98827000  1.0
  H  H21  1  0.61699000  0.01496000  0.09241000  1.0
  H  H22  1  0.53042000  0.47924000  0.58013000  1.0
  H  H23  1  0.65787000  0.55491000  0.75667000  1.0
  H  H24  1  0.43520000  0.37278000  0.66440000  1.0
  H  H25  1  0.33190000  0.26501000  0.77794000  1.0
  H  H26  1  0.50076000  0.37536000  0.01173000  1.0
  H  H27  1  0.61699000  0.48504000  0.90759000  1.0
  H  H28  1  0.46958000  0.97924000  0.58013000  1.0
  H  H29  1  0.34213000  0.05491000  0.75667000  1.0
  H  H30  1  0.56480000  0.87278000  0.66440000  1.0
  H  H31  1  0.66811000  0.76501000  0.77794000  1.0
  H  H32  1  0.49924000  0.87536000  0.01173000  1.0
  H  H33  1  0.38301000  0.98504000  0.90759000  1.0
  H  H34  1  0.46958000  0.52076000  0.41987000  1.0
  H  H35  1  0.34213000  0.44509000  0.24333000  1.0
  H  H36  1  0.56480000  0.62722000  0.33560000  1.0
  H  H37  1  0.66811000  0.73499000  0.22206000  1.0
  H  H38  1  0.49924000  0.62464000  0.98827000  1.0
  H  H39  1  0.38302000  0.51496000  0.09241000  1.0
  H  H40  1  0.96958000  0.47924000  0.91987000  1.0
  H  H41  1  0.84213000  0.55491000  0.74333000  1.0
  H  H42  1  0.06480000  0.37278000  0.83560000  1.0
  H  H43  1  0.16811000  0.26501000  0.72206000  1.0
  H  H44  1  0.99924000  0.37536000  0.48827000  1.0
  H  H45  1  0.88301000  0.48504000  0.59241000  1.0
  H  H46  1  0.96958000  0.02076000  0.08013000  1.0
  H  H47  1  0.84213000  0.94509000  0.25667000  1.0
  H  H48  1  0.06480000  0.12722000  0.16440000  1.0
  H  H49  1  0.16811000  0.23499000  0.27794000  1.0
  H  H50  1  0.99924000  0.12464000  0.51173000  1.0
  H  H51  1  0.88301000  0.01496000  0.40759000  1.0
  C  C52  1  0.15657000  0.40305000  0.07300000  1.0
  C  C53  1  0.08902000  0.47884000  0.12327000  1.0
  C  C54  1  0.09853000  0.49148000  0.21850000  1.0
  C  C55  1  0.03473000  0.56000000  0.27717000  1.0
  C  C56  1  0.95370000  0.62429000  0.24065000  1.0
  C  C57  1  0.89456000  0.68357000  0.30347000  1.0
  C  C58  1  0.98958000  0.62277000  0.43432000  1.0
  C  C59  1  0.05343000  0.56197000  0.37646000  1.0
  C  C60  1  0.15656000  0.09695000  0.92700000  1.0
  C  C61  1  0.08901000  0.02115000  0.87673000  1.0
  C  C62  1  0.09853000  0.00852000  0.78150000  1.0
  C  C63  1  0.03473000  0.94000000  0.72283000  1.0
  C  C64  1  0.95370000  0.87571000  0.75935000  1.0
  C  C65  1  0.89456000  0.81643000  0.69653000  1.0
  C  C66  1  0.98958000  0.87723000  0.56568000  1.0
  C  C67  1  0.05343000  0.93803000  0.62354000  1.0
  C  C68  1  0.65657000  0.90305000  0.42700000  1.0
  C  C69  1  0.58901000  0.97884000  0.37673000  1.0
  C  C70  1  0.59853000  0.99147000  0.28150000  1.0
  C  C71  1  0.53473000  0.06000000  0.22283000  1.0
  C  C72  1  0.45370000  0.12429000  0.25935000  1.0
  C  C73  1  0.39456000  0.18357000  0.19653000  1.0
  C  C74  1  0.48958000  0.12277000  0.06568000  1.0
  C  C75  1  0.55343000  0.06196000  0.12354000  1.0
  C  C76  1  0.65657000  0.59695000  0.57300000  1.0
  C  C77  1  0.58901000  0.52116000  0.62327000  1.0
  C  C78  1  0.59853000  0.50853000  0.71850000  1.0
  C  C79  1  0.53473000  0.44000000  0.77717000  1.0
  C  C80  1  0.45370000  0.37571000  0.74065000  1.0
  C  C81  1  0.39456000  0.31643000  0.80347000  1.0
  C  C82  1  0.48958000  0.37723000  0.93432000  1.0
  C  C83  1  0.55343000  0.43804000  0.87646000  1.0
  C  C84  1  0.34343000  0.09695000  0.57300000  1.0
  C  C85  1  0.41099000  0.02116000  0.62327000  1.0
  C  C86  1  0.40147000  0.00852000  0.71851000  1.0
  C  C87  1  0.46527000  0.94000000  0.77717000  1.0
  C  C88  1  0.54630000  0.87571000  0.74065000  1.0
  C  C89  1  0.60544000  0.81643000  0.80347000  1.0
  C  C90  1  0.51042000  0.87723000  0.93432000  1.0
  C  C91  1  0.44657000  0.93803000  0.87646000  1.0
  C  C92  1  0.34343000  0.40305000  0.42700000  1.0
  C  C93  1  0.41098000  0.47885000  0.37673000  1.0
  C  C94  1  0.40147000  0.49148000  0.28149000  1.0
  C  C95  1  0.46527000  0.56000000  0.22283000  1.0
  C  C96  1  0.54630000  0.62429000  0.25935000  1.0
  C  C97  1  0.60544000  0.68357000  0.19653000  1.0
  C  C98  1  0.51042000  0.62277000  0.06568000  1.0
  C  C99  1  0.44657000  0.56196000  0.12354000  1.0
  C  C100  1  0.84343000  0.59695000  0.92700000  1.0
  C  C101  1  0.91098000  0.52116000  0.87673000  1.0
  C  C102  1  0.90147000  0.50852000  0.78150000  1.0
  C  C103  1  0.96527000  0.44000000  0.72283000  1.0
  C  C104  1  0.04630000  0.37571000  0.75935000  1.0
  C  C105  1  0.10544000  0.31643000  0.69653000  1.0
  C  C106  1  0.01042000  0.37723000  0.56568000  1.0
  C  C107  1  0.94657000  0.43803000  0.62354000  1.0
  C  C108  1  0.84343000  0.90305000  0.07300000  1.0
  C  C109  1  0.91098000  0.97884000  0.12327000  1.0
  C  C110  1  0.90147000  0.99148000  0.21850000  1.0
  C  C111  1  0.96527000  0.06000000  0.27717000  1.0
  C  C112  1  0.04630000  0.12429000  0.24065000  1.0
  C  C113  1  0.10544000  0.18357000  0.30347000  1.0
  C  C114  1  0.01042000  0.12277000  0.43432000  1.0
  C  C115  1  0.94657000  0.06196000  0.37646000  1.0
  N  N116  1  0.91033000  0.68181000  0.39899000  1.0
  N  N117  1  0.91033000  0.81819000  0.60101000  1.0
  N  N118  1  0.41033000  0.18181000  0.10101000  1.0
  N  N119  1  0.41034000  0.31819000  0.89899000  1.0
  N  N120  1  0.58967000  0.81819000  0.89899000  1.0
  N  N121  1  0.58967000  0.68181000  0.10101000  1.0
  N  N122  1  0.08967000  0.31819000  0.60101000  1.0
  N  N123  1  0.08967000  0.18181000  0.39899000  1.0
  O  O124  1  0.23191000  0.35772000  0.12061000  1.0
  O  O125  1  0.13786000  0.38427000  0.98531000  1.0
  O  O126  1  0.23191000  0.14228000  0.87938000  1.0
  O  O127  1  0.13786000  0.11573000  0.01469000  1.0
  O  O128  1  0.73191000  0.85772000  0.37938000  1.0
  O  O129  1  0.63786000  0.88427000  0.51469000  1.0
  O  O130  1  0.73191000  0.64228000  0.62062000  1.0
  O  O131  1  0.63786000  0.61573000  0.48531000  1.0
  O  O132  1  0.26809000  0.14228000  0.62062000  1.0
  O  O133  1  0.36214000  0.11573000  0.48531000  1.0
  O  O134  1  0.26809000  0.35772000  0.37938000  1.0
  O  O135  1  0.36214000  0.38427000  0.51469000  1.0
  O  O136  1  0.76809000  0.64228000  0.87939000  1.0
  O  O137  1  0.86214000  0.61573000  0.01469000  1.0
  O  O138  1  0.76809000  0.85772000  0.12062000  1.0
  O  O139  1  0.86214000  0.88427000  0.98531000  1.0
