# generated using pymatgen
data_CoH14C14(NO)4
_symmetry_space_group_name_H-M   'P 1'
_cell_length_a   7.42071000
_cell_length_b   9.96047000
_cell_length_c   10.10660000
_cell_angle_alpha   89.99870000
_cell_angle_beta   71.96500000
_cell_angle_gamma   89.99850000
_symmetry_Int_Tables_number   1
_chemical_formula_structural   CoH14C14(NO)4
_chemical_formula_sum   'Co2 H28 C28 N8 O8'
_cell_volume   710.31404995
_cell_formula_units_Z   2
loop_
 _symmetry_equiv_pos_site_id
 _symmetry_equiv_pos_as_xyz
  1  'x, y, z'
loop_
 _atom_site_type_symbol
 _atom_site_label
 _atom_site_symmetry_multiplicity
 _atom_site_fract_x
 _atom_site_fract_y
 _atom_site_fract_z
 _atom_site_occupancy
  Co  Co0  1  1.00000000  0.50000000  0.50000000  1.0
  Co  Co1  1  0.00000000  0.00000000  0.00000000  1.0
  H  H2  1  0.19901000  0.34244000  0.57086000  1.0
  H  H3  1  0.80100000  0.84244000  0.92913000  1.0
  H  H4  1  0.80099000  0.65756000  0.42913000  1.0
  H  H5  1  0.19901000  0.15756000  0.07087000  1.0
  H  H6  1  0.97697000  0.28167000  0.60403000  1.0
  H  H7  1  0.02303000  0.78167000  0.89599000  1.0
  H  H8  1  0.02303000  0.71833000  0.39598000  1.0
  H  H9  1  0.97697000  0.21833000  0.10402000  1.0
  H  H10  1  0.91082000  0.35681000  0.29657000  1.0
  H  H11  1  0.08919000  0.85681000  0.20343000  1.0
  H  H12  1  0.08918000  0.64319000  0.70343000  1.0
  H  H13  1  0.91081000  0.14318000  0.79657000  1.0
  H  H14  1  0.10703000  0.44459000  0.21691000  1.0
  H  H15  1  0.89299000  0.94460000  0.28310000  1.0
  H  H16  1  0.89297000  0.55541000  0.78310000  1.0
  H  H17  1  0.10702000  0.05540000  0.71690000  1.0
  H  H18  1  0.90633000  0.13154000  0.42773000  1.0
  H  H19  1  0.09367000  0.63155000  0.07228000  1.0
  H  H20  1  0.09367000  0.86845000  0.57227000  1.0
  H  H21  1  0.90633000  0.36845000  0.92773000  1.0
  H  H22  1  0.46040000  0.29507000  0.38384000  1.0
  H  H23  1  0.53957000  0.79505000  0.11616000  1.0
  H  H24  1  0.53959000  0.70494000  0.61616000  1.0
  H  H25  1  0.46041000  0.20494000  0.88384000  1.0
  H  H26  1  0.59937000  0.46986000  0.37918000  1.0
  H  H27  1  0.40065000  0.96987000  0.12082000  1.0
  H  H28  1  0.40063000  0.53015000  0.62083000  1.0
  H  H29  1  0.59937000  0.03013000  0.87917000  1.0
  C  C30  1  0.05909000  0.13190000  0.37637000  1.0
  C  C31  1  0.94090000  0.63191000  0.12364000  1.0
  C  C32  1  0.94092000  0.86809000  0.62363000  1.0
  C  C33  1  0.05909000  0.36809000  0.87636000  1.0
  C  C34  1  0.17472000  0.22386000  0.41699000  1.0
  C  C35  1  0.82526000  0.72387000  0.08301000  1.0
  C  C36  1  0.82528000  0.77614000  0.58301000  1.0
  C  C37  1  0.17473000  0.27613000  0.91698000  1.0
  C  C38  1  0.37062000  0.22407000  0.35206000  1.0
  C  C39  1  0.62937000  0.72407000  0.14794000  1.0
  C  C40  1  0.62938000  0.77593000  0.64794000  1.0
  C  C41  1  0.37063000  0.27592000  0.85205000  1.0
  C  C42  1  0.66431000  0.13438000  0.18182000  1.0
  C  C43  1  0.33569000  0.63436000  0.31818000  1.0
  C  C44  1  0.33570000  0.86563000  0.81819000  1.0
  C  C45  1  0.66431000  0.36564000  0.68182000  1.0
  C  C46  1  0.14147000  0.03906000  0.27038000  1.0
  C  C47  1  0.85855000  0.53906000  0.22963000  1.0
  C  C48  1  0.85855000  0.96094000  0.72962000  1.0
  C  C49  1  0.14145000  0.46094000  0.77037000  1.0
  C  C50  1  0.45293000  0.13197000  0.24629000  1.0
  C  C51  1  0.54708000  0.63197000  0.25370000  1.0
  C  C52  1  0.54708000  0.86803000  0.75371000  1.0
  C  C53  1  0.45292000  0.36803000  0.74629000  1.0
  C  C54  1  0.66156000  0.53999000  0.29509000  1.0
  C  C55  1  0.33844000  0.03999000  0.20492000  1.0
  C  C56  1  0.33843000  0.46001000  0.70492000  1.0
  C  C57  1  0.66157000  0.96001000  0.79508000  1.0
  N  N58  1  0.09685000  0.31681000  0.52648000  1.0
  N  N59  1  0.90314000  0.81682000  0.97352000  1.0
  N  N60  1  0.90315000  0.68319000  0.47352000  1.0
  N  N61  1  0.09686000  0.18318000  0.02648000  1.0
  N  N62  1  0.02959000  0.95053000  0.21983000  1.0
  N  N63  1  0.97042000  0.45053000  0.28017000  1.0
  N  N64  1  0.97042000  0.04947000  0.78016000  1.0
  N  N65  1  0.02957000  0.54948000  0.71983000  1.0
  O  O66  1  0.75853000  0.22077000  0.22455000  1.0
  O  O67  1  0.24146000  0.72075000  0.27543000  1.0
  O  O68  1  0.24148000  0.77923000  0.77546000  1.0
  O  O69  1  0.75853000  0.27925000  0.72456000  1.0
  O  O70  1  0.73563000  0.04554000  0.08695000  1.0
  O  O71  1  0.26437000  0.54553000  0.41305000  1.0
  O  O72  1  0.26438000  0.95446000  0.91305000  1.0
  O  O73  1  0.73562000  0.45448000  0.58696000  1.0
