# generated using pymatgen
data_Ag2H12C16S(N2O3)2
_symmetry_space_group_name_H-M   'P 1'
_cell_length_a   8.05502000
_cell_length_b   10.13620000
_cell_length_c   12.07250000
_cell_angle_alpha   105.27900000
_cell_angle_beta   90.00000000
_cell_angle_gamma   90.00000000
_symmetry_Int_Tables_number   1
_chemical_formula_structural   Ag2H12C16S(N2O3)2
_chemical_formula_sum   'Ag4 H24 C32 S2 N8 O12'
_cell_volume   950.84692964
_cell_formula_units_Z   2
loop_
 _symmetry_equiv_pos_site_id
 _symmetry_equiv_pos_as_xyz
  1  'x, y, z'
loop_
 _atom_site_type_symbol
 _atom_site_label
 _atom_site_symmetry_multiplicity
 _atom_site_fract_x
 _atom_site_fract_y
 _atom_site_fract_z
 _atom_site_occupancy
  Ag  Ag0  1  0.16694000  0.47686000  0.63391000  1.0
  Ag  Ag1  1  0.66694000  0.52314000  0.36609000  1.0
  Ag  Ag2  1  0.32581000  0.54036000  0.15844000  1.0
  Ag  Ag3  1  0.82581000  0.45964000  0.84156000  1.0
  H  H4  1  0.35796000  0.98103000  0.71640000  1.0
  H  H5  1  0.85796000  0.01897000  0.28360000  1.0
  H  H6  1  0.48475000  0.85313000  0.84445000  1.0
  H  H7  1  0.98475000  0.14687000  0.15555000  1.0
  H  H8  1  0.60417000  0.97589000  0.03149000  1.0
  H  H9  1  0.10417000  0.02411000  0.96851000  1.0
  H  H10  1  0.47535000  0.36125000  0.96685000  1.0
  H  H11  1  0.97535000  0.63875000  0.03315000  1.0
  H  H12  1  0.72967000  0.31938000  0.10600000  1.0
  H  H13  1  0.22967000  0.68062000  0.89400000  1.0
  H  H14  1  0.68330000  0.18417000  0.16879000  1.0
  H  H15  1  0.18330000  0.81583000  0.83121000  1.0
  H  H16  1  0.25776000  0.31441000  0.31793000  1.0
  H  H17  1  0.75776000  0.68559000  0.68207000  1.0
  H  H18  1  0.29870000  0.18457000  0.19032000  1.0
  H  H19  1  0.79870000  0.81543000  0.80968000  1.0
  H  H20  1  0.39126000  0.97054000  0.22027000  1.0
  H  H21  1  0.89126000  0.02946000  0.77973000  1.0
  H  H22  1  0.52504000  0.83784000  0.34120000  1.0
  H  H23  1  0.02504000  0.16217000  0.65880000  1.0
  H  H24  1  0.65586000  0.95556000  0.52694000  1.0
  H  H25  1  0.15586000  0.04444000  0.47306000  1.0
  H  H26  1  0.50608000  0.34544000  0.47505000  1.0
  H  H27  1  0.00608000  0.65456000  0.52495000  1.0
  C  C28  1  0.33910000  0.25770000  0.76454000  1.0
  C  C29  1  0.83910000  0.74230000  0.23546000  1.0
  C  C30  1  0.40552000  0.17963000  0.83585000  1.0
  C  C31  1  0.90552000  0.82037000  0.16416000  1.0
  C  C32  1  0.40898000  0.03576000  0.79934000  1.0
  C  C33  1  0.90898000  0.96424000  0.20066000  1.0
  C  C34  1  0.48037000  0.96431000  0.87103000  1.0
  C  C35  1  0.98037000  0.03569000  0.12897000  1.0
  C  C36  1  0.54803000  0.03423000  0.97698000  1.0
  C  C37  1  0.04803000  0.96577000  0.02302000  1.0
  C  C38  1  0.54747000  0.17746000  0.01253000  1.0
  C  C39  1  0.04747000  0.82254000  0.98747000  1.0
  C  C40  1  0.47489000  0.24990000  0.94146000  1.0
  C  C41  1  0.97489000  0.75010000  0.05854000  1.0
  C  C42  1  0.62958000  0.25337000  0.12238000  1.0
  C  C43  1  0.12958000  0.74663000  0.87762000  1.0
  C  C44  1  0.35549000  0.24942000  0.26834000  1.0
  C  C45  1  0.85549000  0.75058000  0.73166000  1.0
  C  C46  1  0.44078000  0.16763000  0.33872000  1.0
  C  C47  1  0.94078000  0.83237000  0.66128000  1.0
  C  C48  1  0.44748000  0.02442000  0.30206000  1.0
  C  C49  1  0.94748000  0.97558000  0.69794000  1.0
  C  C50  1  0.52336000  0.94896000  0.36998000  1.0
  C  C51  1  0.02336000  0.05104000  0.63002000  1.0
  C  C52  1  0.59696000  0.01452000  0.47428000  1.0
  C  C53  1  0.09696000  0.98548000  0.52572000  1.0
  C  C54  1  0.59153000  0.15848000  0.51065000  1.0
  C  C55  1  0.09153000  0.84152000  0.48935000  1.0
  C  C56  1  0.51230000  0.23432000  0.44404000  1.0
  C  C57  1  0.01230000  0.76568000  0.55596000  1.0
  C  C58  1  0.66470000  0.23179000  0.61600000  1.0
  C  C59  1  0.16470000  0.76821000  0.38400000  1.0
  S  S60  1  0.49238000  0.36900000  0.22301000  1.0
  S  S61  1  0.99238000  0.63100000  0.77699000  1.0
  N  N62  1  0.29002000  0.32320000  0.70530000  1.0
  N  N63  1  0.79002000  0.67680000  0.29470000  1.0
  N  N64  1  0.72199000  0.29556000  0.70223000  1.0
  N  N65  1  0.22199000  0.70444000  0.29778000  1.0
  N  N66  1  0.93694000  0.34256000  0.42990000  1.0
  N  N67  1  0.43694000  0.65744000  0.57010000  1.0
  N  N68  1  0.06234000  0.36061000  0.01135000  1.0
  N  N69  1  0.56234000  0.63939000  0.98865000  1.0
  O  O70  1  0.06690000  0.29779000  0.46785000  1.0
  O  O71  1  0.56690000  0.70221000  0.53215000  1.0
  O  O72  1  0.87256000  0.27882000  0.33689000  1.0
  O  O73  1  0.37256000  0.72118000  0.66311000  1.0
  O  O74  1  0.87303000  0.45571000  0.48886000  1.0
  O  O75  1  0.37303000  0.54429000  0.51114000  1.0
  O  O76  1  0.14047000  0.46061000  0.98853000  1.0
  O  O77  1  0.64047000  0.53939000  0.01147000  1.0
  O  O78  1  0.94430000  0.30324000  0.94621000  1.0
  O  O79  1  0.44430000  0.69676000  0.05379000  1.0
  O  O80  1  0.10211000  0.32108000  0.09801000  1.0
  O  O81  1  0.60211000  0.67892000  0.90199000  1.0
