# generated using pymatgen
data_Zn5H4C4(N9O2)2
_symmetry_space_group_name_H-M   'P 1'
_cell_length_a   8.47833000
_cell_length_b   9.11574000
_cell_length_c   14.25270000
_cell_angle_alpha   71.49330000
_cell_angle_beta   72.69180000
_cell_angle_gamma   62.28680000
_symmetry_Int_Tables_number   1
_chemical_formula_structural   Zn5H4C4(N9O2)2
_chemical_formula_sum   'Zn10 H8 C8 N36 O8'
_cell_volume   909.88586838
_cell_formula_units_Z   2
loop_
 _symmetry_equiv_pos_site_id
 _symmetry_equiv_pos_as_xyz
  1  'x, y, z'
loop_
 _atom_site_type_symbol
 _atom_site_label
 _atom_site_symmetry_multiplicity
 _atom_site_fract_x
 _atom_site_fract_y
 _atom_site_fract_z
 _atom_site_occupancy
  Zn  Zn0  1  0.15570000  0.92132000  0.63181000  1.0
  Zn  Zn1  1  0.70872000  0.57879000  0.86809000  1.0
  Zn  Zn2  1  0.84430000  0.07868000  0.36819000  1.0
  Zn  Zn3  1  0.29128000  0.42121000  0.13191000  1.0
  Zn  Zn4  1  0.77387000  0.28298000  0.52797000  1.0
  Zn  Zn5  1  0.58474000  0.21699000  0.97207000  1.0
  Zn  Zn6  1  0.22613000  0.71702000  0.47203000  1.0
  Zn  Zn7  1  0.41526000  0.78301000  0.02793000  1.0
  Zn  Zn8  1  0.87530000  0.25004000  0.74997000  1.0
  Zn  Zn9  1  0.12470000  0.74996000  0.25003000  1.0
  H  H10  1  0.05741000  0.24830000  0.57459000  1.0
  H  H11  1  0.88008000  0.25193000  0.92531000  1.0
  H  H12  1  0.94259000  0.75170000  0.42541000  1.0
  H  H13  1  0.11992000  0.74807000  0.07469000  1.0
  H  H14  1  0.16813000  0.01439000  0.43962000  1.0
  H  H15  1  0.62217000  0.48569000  0.06029000  1.0
  H  H16  1  0.83186000  0.98562000  0.56038000  1.0
  H  H17  1  0.37783000  0.51431000  0.93971000  1.0
  C  C18  1  0.34183000  0.81465000  0.81878000  1.0
  C  C19  1  0.97545000  0.68532000  0.68126000  1.0
  C  C20  1  0.65816000  0.18535000  0.18122000  1.0
  C  C21  1  0.02455000  0.31468000  0.31874000  1.0
  C  C22  1  0.49295000  0.60122000  0.72565000  1.0
  C  C23  1  0.81993000  0.89884000  0.77432000  1.0
  C  C24  1  0.50705000  0.39878000  0.27435000  1.0
  C  C25  1  0.18007000  0.10115000  0.22568000  1.0
  N  N26  1  0.47632000  0.66006000  0.80661000  1.0
  N  N27  1  0.94317000  0.83994000  0.69339000  1.0
  N  N28  1  0.52368000  0.33995000  0.19339000  1.0
  N  N29  1  0.05683000  0.16006000  0.30661000  1.0
  N  N30  1  0.22521000  0.93130000  0.75663000  1.0
  N  N31  1  0.91321000  0.56873000  0.74338000  1.0
  N  N32  1  0.77479000  0.06871000  0.24337000  1.0
  N  N33  1  0.08679000  0.43127000  0.25662000  1.0
  N  N34  1  0.11975000  0.06157000  0.80362000  1.0
  N  N35  1  0.98497000  0.43848000  0.69637000  1.0
  N  N36  1  0.88025000  0.93843000  0.19638000  1.0
  N  N37  1  0.01503000  0.56152000  0.30363000  1.0
  N  N38  1  0.16499000  0.03130000  0.88940000  1.0
  N  N39  1  0.08577000  0.46874000  0.61061000  1.0
  N  N40  1  0.83501000  0.96870000  0.11060000  1.0
  N  N41  1  0.91423000  0.53126000  0.38939000  1.0
  N  N42  1  0.30399000  0.87752000  0.90154000  1.0
  N  N43  1  0.08322000  0.62247000  0.59849000  1.0
  N  N44  1  0.69601000  0.12248000  0.09846000  1.0
  N  N45  1  0.91678000  0.37753000  0.40151000  1.0
  N  N46  1  0.38424000  0.67812000  0.65512000  1.0
  N  N47  1  0.71750000  0.82196000  0.84483000  1.0
  N  N48  1  0.61577000  0.32188000  0.34488000  1.0
  N  N49  1  0.28250000  0.17804000  0.15517000  1.0
  N  N50  1  0.45208000  0.57952000  0.58832000  1.0
  N  N51  1  0.61990000  0.92056000  0.91162000  1.0
  N  N52  1  0.54792000  0.42048000  0.41168000  1.0
  N  N53  1  0.38010000  0.07944000  0.08839000  1.0
  N  N54  1  0.59458000  0.44689000  0.61627000  1.0
  N  N55  1  0.65772000  0.05319000  0.88370000  1.0
  N  N56  1  0.40542000  0.55311000  0.38373000  1.0
  N  N57  1  0.34228000  0.94681000  0.11630000  1.0
  N  N58  1  0.62568000  0.45357000  0.70200000  1.0
  N  N59  1  0.78130000  0.04651000  0.79797000  1.0
  N  N60  1  0.37432000  0.54643000  0.29800000  1.0
  N  N61  1  0.21870000  0.95349000  0.20203000  1.0
  O  O62  1  0.98436000  0.18296000  0.60924000  1.0
  O  O63  1  0.77636000  0.31720000  0.89065000  1.0
  O  O64  1  0.01564000  0.81704000  0.39076000  1.0
  O  O65  1  0.22364000  0.68280000  0.10935000  1.0
  O  O66  1  0.23836000  0.91620000  0.48598000  1.0
  O  O67  1  0.64063000  0.58385000  0.01392000  1.0
  O  O68  1  0.76164000  0.08380000  0.51402000  1.0
  O  O69  1  0.35937000  0.41615000  0.98608000  1.0
