# generated using pymatgen
data_ZnH8C13(N3O)2
_symmetry_space_group_name_H-M   'P 1'
_cell_length_a   11.20080000
_cell_length_b   15.69860000
_cell_length_c   16.07490000
_cell_angle_alpha   115.02500000
_cell_angle_beta   102.63400000
_cell_angle_gamma   102.71800000
_symmetry_Int_Tables_number   1
_chemical_formula_structural   ZnH8C13(N3O)2
_chemical_formula_sum   'Zn6 H48 C78 N36 O12'
_cell_volume   2337.71162889
_cell_formula_units_Z   6
loop_
 _symmetry_equiv_pos_site_id
 _symmetry_equiv_pos_as_xyz
  1  'x, y, z'
loop_
 _atom_site_type_symbol
 _atom_site_label
 _atom_site_symmetry_multiplicity
 _atom_site_fract_x
 _atom_site_fract_y
 _atom_site_fract_z
 _atom_site_occupancy
  Zn  Zn0  1  0.24254000  0.57272000  0.39045000  1.0
  Zn  Zn1  1  0.75746000  0.42728000  0.60956000  1.0
  Zn  Zn2  1  0.40648000  0.88757000  0.79288000  1.0
  Zn  Zn3  1  0.59352000  0.11244000  0.20712000  1.0
  Zn  Zn4  1  0.80582000  0.29737000  0.92105000  1.0
  Zn  Zn5  1  0.19419000  0.70263000  0.07895000  1.0
  H  H6  1  0.76496000  0.78669000  0.65962000  1.0
  H  H7  1  0.23506000  0.21332000  0.34040000  1.0
  H  H8  1  0.93010000  0.72335000  0.60015000  1.0
  H  H9  1  0.06991000  0.27665000  0.39987000  1.0
  H  H10  1  0.61963000  0.45940000  0.35371000  1.0
  H  H11  1  0.38037000  0.54062000  0.64630000  1.0
  H  H12  1  0.45768000  0.52088000  0.41390000  1.0
  H  H13  1  0.54233000  0.47914000  0.58611000  1.0
  H  H14  1  0.08270000  0.67023000  0.52529000  1.0
  H  H15  1  0.91730000  0.32977000  0.47471000  1.0
  H  H16  1  0.96567000  0.39489000  0.26542000  1.0
  H  H17  1  0.03432000  0.60511000  0.73458000  1.0
  H  H18  1  0.69977000  0.95818000  0.92465000  1.0
  H  H19  1  0.30022000  0.04182000  0.07534000  1.0
  H  H20  1  0.87749000  0.89104000  0.91686000  1.0
  H  H21  1  0.12251000  0.10896000  0.08314000  1.0
  H  H22  1  0.97834000  0.01913000  0.73938000  1.0
  H  H23  1  0.02166000  0.98087000  0.26062000  1.0
  H  H24  1  0.80570000  0.09174000  0.75294000  1.0
  H  H25  1  0.19430000  0.90825000  0.24704000  1.0
  H  H26  1  0.16573000  0.97432000  0.75010000  1.0
  H  H27  1  0.83427000  0.02568000  0.24990000  1.0
  H  H28  1  0.22902000  0.78980000  0.87118000  1.0
  H  H29  1  0.77097000  0.21019000  0.12881000  1.0
  H  H30  1  0.24731000  0.48931000  0.07117000  1.0
  H  H31  1  0.75268000  0.51067000  0.92881000  1.0
  H  H32  1  0.41435000  0.42462000  0.01873000  1.0
  H  H33  1  0.58564000  0.57536000  0.98126000  1.0
  H  H34  1  0.70675000  0.64608000  0.30288000  1.0
  H  H35  1  0.29325000  0.35391000  0.69710000  1.0
  H  H36  1  0.53992000  0.71193000  0.35351000  1.0
  H  H37  1  0.46008000  0.28806000  0.64648000  1.0
  H  H38  1  0.56360000  0.34043000  0.98655000  1.0
  H  H39  1  0.43641000  0.65956000  0.01343000  1.0
  H  H40  1  0.96878000  0.50429000  0.12708000  1.0
  H  H41  1  0.03122000  0.49571000  0.87291000  1.0
  H  H42  1  0.13785000  0.16763000  0.89902000  1.0
  H  H43  1  0.86215000  0.83239000  0.10098000  1.0
  H  H44  1  0.34834000  0.14553000  0.95482000  1.0
  H  H45  1  0.65166000  0.85448000  0.04518000  1.0
  H  H46  1  0.41805000  0.36749000  0.25097000  1.0
  H  H47  1  0.58196000  0.63251000  0.74903000  1.0
  H  H48  1  0.76041000  0.40667000  0.30334000  1.0
  H  H49  1  0.23959000  0.59334000  0.69667000  1.0
  H  H50  1  0.03927000  0.82684000  0.90396000  1.0
  H  H51  1  0.96072000  0.17316000  0.09603000  1.0
  H  H52  1  0.85507000  0.61091000  0.22224000  1.0
  H  H53  1  0.14492000  0.38909000  0.77775000  1.0
  C  C54  1  0.73427000  0.71492000  0.59277000  1.0
  C  C55  1  0.26574000  0.28508000  0.40725000  1.0
  C  C56  1  0.82645000  0.67892000  0.55897000  1.0
  C  C57  1  0.17356000  0.32109000  0.44106000  1.0
  C  C58  1  0.78736000  0.58655000  0.47183000  1.0
  C  C59  1  0.21266000  0.41346000  0.52819000  1.0
  C  C60  1  0.65303000  0.53085000  0.42153000  1.0
  C  C61  1  0.34698000  0.46916000  0.57849000  1.0
  C  C62  1  0.56058000  0.56657000  0.45542000  1.0
  C  C63  1  0.43943000  0.43344000  0.54459000  1.0
  C  C64  1  0.59974000  0.65950000  0.54078000  1.0
  C  C65  1  0.40027000  0.34051000  0.45924000  1.0
  C  C66  1  0.50472000  0.69977000  0.57683000  1.0
  C  C67  1  0.49528000  0.30024000  0.42318000  1.0
  C  C68  1  0.88329000  0.55193000  0.43286000  1.0
  C  C69  1  0.11672000  0.44807000  0.56716000  1.0
  C  C70  1  0.01716000  0.59830000  0.46307000  1.0
  C  C71  1  0.98284000  0.40170000  0.53694000  1.0
  C  C72  1  0.96187000  0.45548000  0.32935000  1.0
  C  C73  1  0.03813000  0.54453000  0.67066000  1.0
  C  C74  1  0.76220000  0.97295000  0.88531000  1.0
  C  C75  1  0.23780000  0.02705000  0.11468000  1.0
  C  C76  1  0.86267000  0.93446000  0.88011000  1.0
  C  C77  1  0.13733000  0.06554000  0.11989000  1.0
  C  C78  1  0.94354000  0.95116000  0.82864000  1.0
  C  C79  1  0.05647000  0.04885000  0.17136000  1.0
  C  C80  1  0.91954000  0.00729000  0.78199000  1.0
  C  C81  1  0.08046000  0.99271000  0.21801000  1.0
  C  C82  1  0.82125000  0.04757000  0.78876000  1.0
  C  C83  1  0.17875000  0.95243000  0.21123000  1.0
  C  C84  1  0.74146000  0.03079000  0.84068000  1.0
  C  C85  1  0.25854000  0.96921000  0.15931000  1.0
  C  C86  1  0.63849000  0.07403000  0.84647000  1.0
  C  C87  1  0.36151000  0.92597000  0.15352000  1.0
  C  C88  1  0.05075000  0.91316000  0.82324000  1.0
  C  C89  1  0.94925000  0.08684000  0.17676000  1.0
  C  C90  1  0.14759000  0.92899000  0.78457000  1.0
  C  C91  1  0.85241000  0.07101000  0.21543000  1.0
  C  C92  1  0.18492000  0.83377000  0.84645000  1.0
  C  C93  1  0.81508000  0.16623000  0.15354000  1.0
  C  C94  1  0.34870000  0.52522000  0.12108000  1.0
  C  C95  1  0.65129000  0.47477000  0.87891000  1.0
  C  C96  1  0.44300000  0.48806000  0.09213000  1.0
  C  C97  1  0.55699000  0.51193000  0.90786000  1.0
  C  C98  1  0.57431000  0.53126000  0.15564000  1.0
  C  C99  1  0.42568000  0.46872000  0.84434000  1.0
  C  C100  1  0.60699000  0.61216000  0.25033000  1.0
  C  C101  1  0.39301000  0.38782000  0.74965000  1.0
  C  C102  1  0.51241000  0.64916000  0.27981000  1.0
  C  C103  1  0.48759000  0.35083000  0.72017000  1.0
  C  C104  1  0.38232000  0.60686000  0.21521000  1.0
  C  C105  1  0.61768000  0.39312000  0.78478000  1.0
  C  C106  1  0.67057000  0.49141000  0.12097000  1.0
  C  C107  1  0.32943000  0.50858000  0.87902000  1.0
  C  C108  1  0.65300000  0.40229000  0.04020000  1.0
  C  C109  1  0.34700000  0.59770000  0.95979000  1.0
  C  C110  1  0.86399000  0.48447000  0.10918000  1.0
  C  C111  1  0.13601000  0.51552000  0.89082000  1.0
  C  C112  1  0.28275000  0.64751000  0.24455000  1.0
  C  C113  1  0.71725000  0.35247000  0.75544000  1.0
  C  C114  1  0.19973000  0.21094000  0.97629000  1.0
  C  C115  1  0.80027000  0.78908000  0.02371000  1.0
  C  C116  1  0.31779000  0.19866000  0.00764000  1.0
  C  C117  1  0.68221000  0.80136000  0.99236000  1.0
  C  C118  1  0.39725000  0.25514000  0.10703000  1.0
  C  C119  1  0.60276000  0.74487000  0.89298000  1.0
  C  C120  1  0.35687000  0.32279000  0.17383000  1.0
  C  C121  1  0.64313000  0.67721000  0.82618000  1.0
  C  C122  1  0.23659000  0.33269000  0.14361000  1.0
  C  C123  1  0.76341000  0.66731000  0.85640000  1.0
  C  C124  1  0.15664000  0.27587000  0.04386000  1.0
  C  C125  1  0.84336000  0.72414000  0.95616000  1.0
  C  C126  1  0.02040000  0.27501000  0.00924000  1.0
  C  C127  1  0.97960000  0.72500000  0.99076000  1.0
  C  C128  1  0.19802000  0.40906000  0.21551000  1.0
  C  C129  1  0.80198000  0.59094000  0.78451000  1.0
  C  C130  1  0.51996000  0.23978000  0.14584000  1.0
  C  C131  1  0.48003000  0.76022000  0.85415000  1.0
  N  N132  1  0.37357000  0.66581000  0.52748000  1.0
  N  N133  1  0.62644000  0.33420000  0.47252000  1.0
  N  N134  1  0.32365000  0.72465000  0.58708000  1.0
  N  N135  1  0.67636000  0.27535000  0.41292000  1.0
  N  N136  1  0.42194000  0.79108000  0.66882000  1.0
  N  N137  1  0.57806000  0.20893000  0.33118000  1.0
  N  N138  1  0.53576000  0.77862000  0.66615000  1.0
  N  N139  1  0.46424000  0.22138000  0.33385000  1.0
  N  N140  1  0.06427000  0.53777000  0.39803000  1.0
  N  N141  1  0.93573000  0.46223000  0.60197000  1.0
  N  N142  1  0.85187000  0.46140000  0.34818000  1.0
  N  N143  1  0.14813000  0.53861000  0.65183000  1.0
  N  N144  1  0.51247000  0.02622000  0.82897000  1.0
  N  N145  1  0.48753000  0.97379000  0.17102000  1.0
  N  N146  1  0.44968000  0.09244000  0.83656000  1.0
  N  N147  1  0.55032000  0.90757000  0.16343000  1.0
  N  N148  1  0.53331000  0.17741000  0.85844000  1.0
  N  N149  1  0.46670000  0.82259000  0.14155000  1.0
  N  N150  1  0.65253000  0.16860000  0.86562000  1.0
  N  N151  1  0.34747000  0.83140000  0.13437000  1.0
  N  N152  1  0.23001000  0.87924000  0.79967000  1.0
  N  N153  1  0.76998000  0.12076000  0.20033000  1.0
  N  N154  1  0.07783000  0.85228000  0.86126000  1.0
  N  N155  1  0.92216000  0.14772000  0.13874000  1.0
  N  N156  1  0.24938000  0.65740000  0.32288000  1.0
  N  N157  1  0.75062000  0.34259000  0.67711000  1.0
  N  N158  1  0.15484000  0.69880000  0.32286000  1.0
  N  N159  1  0.84517000  0.30120000  0.67714000  1.0
  N  N160  1  0.13124000  0.71376000  0.24819000  1.0
  N  N161  1  0.86878000  0.28624000  0.75181000  1.0
  N  N162  1  0.20937000  0.68161000  0.19701000  1.0
  N  N163  1  0.79065000  0.31838000  0.80299000  1.0
  N  N164  1  0.77312000  0.39930000  0.03372000  1.0
  N  N165  1  0.22689000  0.60069000  0.96628000  1.0
  N  N166  1  0.80554000  0.54124000  0.16307000  1.0
  N  N167  1  0.19445000  0.45876000  0.83692000  1.0
  O  O168  1  0.10313000  0.43124000  0.18541000  1.0
  O  O169  1  0.89685000  0.56875000  0.81461000  1.0
  O  O170  1  0.27123000  0.45103000  0.30739000  1.0
  O  O171  1  0.72876000  0.54897000  0.69262000  1.0
  O  O172  1  0.99600000  0.31783000  0.95820000  1.0
  O  O173  1  0.00401000  0.68218000  0.04181000  1.0
  O  O174  1  0.93294000  0.22472000  0.02519000  1.0
  O  O175  1  0.06705000  0.77527000  0.97480000  1.0
  O  O176  1  0.51275000  0.14676000  0.10844000  1.0
  O  O177  1  0.48724000  0.85324000  0.89156000  1.0
  O  O178  1  0.61773000  0.31340000  0.21340000  1.0
  O  O179  1  0.38227000  0.68659000  0.78660000  1.0
