# generated using pymatgen
data_CoH7C9N2O5
_symmetry_space_group_name_H-M   'P 1'
_cell_length_a   5.96905000
_cell_length_b   7.82323000
_cell_length_c   26.83130000
_cell_angle_alpha   90.91480000
_cell_angle_beta   89.99420000
_cell_angle_gamma   89.99620000
_symmetry_Int_Tables_number   1
_chemical_formula_structural   CoH7C9N2O5
_chemical_formula_sum   'Co4 H28 C36 N8 O20'
_cell_volume   1252.78824378
_cell_formula_units_Z   4
loop_
 _symmetry_equiv_pos_site_id
 _symmetry_equiv_pos_as_xyz
  1  'x, y, z'
loop_
 _atom_site_type_symbol
 _atom_site_label
 _atom_site_symmetry_multiplicity
 _atom_site_fract_x
 _atom_site_fract_y
 _atom_site_fract_z
 _atom_site_occupancy
  Co  Co0  1  0.03947000  0.25385000  0.71892000  1.0
  Co  Co1  1  0.95850000  0.25770000  0.28104000  1.0
  Co  Co2  1  0.53950000  0.74600000  0.78109000  1.0
  Co  Co3  1  0.45843000  0.74231000  0.21893000  1.0
  H  H4  1  0.98548000  0.40538000  0.84524000  1.0
  H  H5  1  0.16028000  0.13821000  0.86319000  1.0
  H  H6  1  0.39471000  0.26149000  0.84509000  1.0
  H  H7  1  0.93415000  0.38271000  0.61791000  1.0
  H  H8  1  0.13210000  0.39146000  0.53544000  1.0
  H  H9  1  0.69410000  0.14530000  0.60614000  1.0
  H  H10  1  0.46847000  0.13930000  0.68439000  1.0
  H  H11  1  0.01210000  0.39535000  0.15474000  1.0
  H  H12  1  0.84262000  0.12409000  0.13693000  1.0
  H  H13  1  0.60581000  0.24785000  0.15430000  1.0
  H  H14  1  0.07025000  0.38294000  0.38317000  1.0
  H  H15  1  0.87901000  0.38683000  0.46649000  1.0
  H  H16  1  0.30361000  0.15987000  0.39349000  1.0
  H  H17  1  0.52254000  0.15813000  0.31433000  1.0
  H  H18  1  0.48544000  0.59462000  0.65476000  1.0
  H  H19  1  0.66032000  0.86175000  0.63682000  1.0
  H  H20  1  0.89470000  0.73834000  0.65489000  1.0
  H  H21  1  0.43400000  0.61733000  0.88208000  1.0
  H  H22  1  0.63167000  0.60869000  0.96456000  1.0
  H  H23  1  0.19396000  0.85453000  0.89388000  1.0
  H  H24  1  0.96867000  0.86030000  0.81560000  1.0
  H  H25  1  0.51231000  0.60475000  0.34525000  1.0
  H  H26  1  0.34276000  0.87605000  0.36304000  1.0
  H  H27  1  0.10594000  0.75224000  0.34570000  1.0
  H  H28  1  0.56999000  0.61721000  0.11681000  1.0
  H  H29  1  0.37868000  0.61320000  0.03351000  1.0
  H  H30  1  0.80325000  0.84019000  0.10655000  1.0
  H  H31  1  0.02225000  0.84201000  0.18568000  1.0
  C  C32  1  0.20627000  0.47369000  0.78457000  1.0
  C  C33  1  0.06907000  0.34181000  0.81318000  1.0
  C  C34  1  0.23504000  0.20624000  0.83184000  1.0
  C  C35  1  0.29193000  0.07325000  0.79172000  1.0
  C  C36  1  0.10085000  0.32901000  0.61292000  1.0
  C  C37  1  0.21161000  0.33443000  0.56766000  1.0
  C  C38  1  0.42929000  0.26643000  0.56408000  1.0
  C  C39  1  0.52528000  0.19774000  0.60690000  1.0
  C  C40  1  0.40166000  0.19437000  0.65064000  1.0
  C  C41  1  0.78989000  0.46871000  0.21525000  1.0
  C  C42  1  0.92899000  0.33464000  0.18674000  1.0
  C  C43  1  0.76554000  0.19550000  0.16801000  1.0
  C  C44  1  0.70844000  0.06734000  0.20821000  1.0
  C  C45  1  0.90221000  0.33192000  0.38782000  1.0
  C  C46  1  0.79493000  0.33514000  0.43357000  1.0
  C  C47  1  0.57522000  0.27111000  0.43670000  1.0
  C  C48  1  0.47394000  0.20927000  0.39298000  1.0
  C  C49  1  0.59409000  0.20795000  0.34875000  1.0
  C  C50  1  0.70625000  0.52619000  0.71541000  1.0
  C  C51  1  0.56908000  0.65813000  0.68682000  1.0
  C  C52  1  0.73507000  0.79368000  0.66816000  1.0
  C  C53  1  0.79200000  0.92662000  0.70828000  1.0
  C  C54  1  0.60069000  0.67101000  0.88707000  1.0
  C  C55  1  0.71128000  0.66566000  0.93236000  1.0
  C  C56  1  0.92895000  0.73364000  0.93595000  1.0
  C  C57  1  0.02511000  0.80216000  0.89311000  1.0
  C  C58  1  0.90168000  0.80543000  0.84935000  1.0
  C  C59  1  0.28995000  0.53132000  0.28476000  1.0
  C  C60  1  0.42907000  0.66542000  0.31324000  1.0
  C  C61  1  0.26568000  0.80460000  0.33198000  1.0
  C  C62  1  0.20849000  0.93271000  0.29178000  1.0
  C  C63  1  0.40196000  0.66818000  0.11218000  1.0
  C  C64  1  0.29464000  0.66495000  0.06643000  1.0
  C  C65  1  0.07493000  0.72901000  0.06333000  1.0
  C  C66  1  0.97362000  0.79084000  0.10706000  1.0
  C  C67  1  0.09384000  0.79214000  0.15128000  1.0
  N  N68  1  0.19271000  0.25842000  0.65392000  1.0
  N  N69  1  0.56024000  0.26442000  0.52049000  1.0
  N  N70  1  0.80551000  0.26701000  0.34596000  1.0
  N  N71  1  0.44588000  0.26688000  0.48044000  1.0
  N  N72  1  0.69268000  0.74146000  0.84607000  1.0
  N  N73  1  0.05986000  0.73566000  0.97954000  1.0
  N  N74  1  0.30530000  0.73311000  0.15406000  1.0
  N  N75  1  0.94553000  0.73326000  0.01959000  1.0
  O  O76  1  0.21516000  0.44336000  0.73767000  1.0
  O  O77  1  0.91050000  0.26463000  0.78192000  1.0
  O  O78  1  0.25539000  0.09411000  0.74543000  1.0
  O  O79  1  0.38146000  0.93929000  0.80938000  1.0
  O  O80  1  0.31028000  0.59281000  0.80752000  1.0
  O  O81  1  0.78071000  0.44361000  0.26215000  1.0
  O  O82  1  0.08816000  0.26226000  0.21815000  1.0
  O  O83  1  0.74456000  0.09358000  0.25451000  1.0
  O  O84  1  0.61898000  0.93132000  0.19061000  1.0
  O  O85  1  0.68498000  0.58470000  0.19224000  1.0
  O  O86  1  0.71522000  0.55651000  0.76231000  1.0
  O  O87  1  0.41053000  0.73532000  0.71808000  1.0
  O  O88  1  0.75547000  0.90571000  0.75458000  1.0
  O  O89  1  0.88152000  0.06058000  0.69062000  1.0
  O  O90  1  0.81025000  0.40706000  0.69247000  1.0
  O  O91  1  0.28064000  0.55643000  0.23784000  1.0
  O  O92  1  0.58820000  0.73776000  0.28182000  1.0
  O  O93  1  0.24447000  0.90641000  0.24547000  1.0
  O  O94  1  0.11911000  0.06878000  0.30938000  1.0
  O  O95  1  0.18510000  0.41530000  0.30776000  1.0
