# generated using pymatgen
data_ZnH13C11BrN5ClO
_symmetry_space_group_name_H-M   'P 1'
_cell_length_a   7.94810000
_cell_length_b   8.75868000
_cell_length_c   21.11300000
_cell_angle_alpha   90.00000000
_cell_angle_beta   92.17600000
_cell_angle_gamma   90.00000000
_symmetry_Int_Tables_number   1
_chemical_formula_structural   ZnH13C11BrN5ClO
_chemical_formula_sum   'Zn4 H52 C44 Br4 N20 Cl4 O4'
_cell_volume   1468.71878961
_cell_formula_units_Z   4
loop_
 _symmetry_equiv_pos_site_id
 _symmetry_equiv_pos_as_xyz
  1  'x, y, z'
loop_
 _atom_site_type_symbol
 _atom_site_label
 _atom_site_symmetry_multiplicity
 _atom_site_fract_x
 _atom_site_fract_y
 _atom_site_fract_z
 _atom_site_occupancy
  Zn  Zn0  1  0.30642000  0.78551000  0.21591000  1.0
  Zn  Zn1  1  0.69358000  0.78551000  0.28409000  1.0
  Zn  Zn2  1  0.69359000  0.21449000  0.78409000  1.0
  Zn  Zn3  1  0.30642000  0.21449000  0.71591000  1.0
  H  H4  1  0.08873000  0.11706000  0.47692000  1.0
  H  H5  1  0.91127000  0.11706000  0.02308000  1.0
  H  H6  1  0.91127000  0.88294000  0.52308000  1.0
  H  H7  1  0.08873000  0.88294000  0.97692000  1.0
  H  H8  1  0.12818000  0.34985000  0.29885000  1.0
  H  H9  1  0.87181000  0.34985000  0.20115000  1.0
  H  H10  1  0.87182000  0.65015000  0.70115000  1.0
  H  H11  1  0.12818000  0.65015000  0.79885000  1.0
  H  H12  1  0.22752000  0.23873000  0.21276000  1.0
  H  H13  1  0.77248000  0.23873000  0.28724000  1.0
  H  H14  1  0.77248000  0.76127000  0.78724000  1.0
  H  H15  1  0.22752000  0.76127000  0.71276000  1.0
  H  H16  1  0.27976000  0.15939000  0.11604000  1.0
  H  H17  1  0.72023000  0.15939000  0.38396000  1.0
  H  H18  1  0.72024000  0.84061000  0.88396000  1.0
  H  H19  1  0.27977000  0.84061000  0.61604000  1.0
  H  H20  1  0.48178000  0.08302000  0.13640000  1.0
  H  H21  1  0.51821000  0.08302000  0.36360000  1.0
  H  H22  1  0.51822000  0.91698000  0.86360000  1.0
  H  H23  1  0.48179000  0.91698000  0.63640000  1.0
  H  H24  1  0.36497000  0.94814000  0.04247000  1.0
  H  H25  1  0.63503000  0.94814000  0.45753000  1.0
  H  H26  1  0.63503000  0.05186000  0.95753000  1.0
  H  H27  1  0.36497000  0.05186000  0.54247000  1.0
  H  H28  1  0.17550000  0.90801000  0.08166000  1.0
  H  H29  1  0.82449000  0.90801000  0.41834000  1.0
  H  H30  1  0.82449000  0.09199000  0.91835000  1.0
  H  H31  1  0.17551000  0.09199000  0.58166000  1.0
  H  H32  1  0.20293000  0.64053000  0.06935000  1.0
  H  H33  1  0.79707000  0.64053000  0.43065000  1.0
  H  H34  1  0.79707000  0.35948000  0.93065000  1.0
  H  H35  1  0.20293000  0.35948000  0.56935000  1.0
  H  H36  1  0.38356000  0.67910000  0.02542000  1.0
  H  H37  1  0.61645000  0.67909000  0.47458000  1.0
  H  H38  1  0.61644000  0.32091000  0.97458000  1.0
  H  H39  1  0.38356000  0.32090000  0.52542000  1.0
  H  H40  1  0.55603000  0.51370000  0.10501000  1.0
  H  H41  1  0.44397000  0.51370000  0.39499000  1.0
  H  H42  1  0.44397000  0.48631000  0.89499000  1.0
  H  H43  1  0.55604000  0.48630000  0.60501000  1.0
  H  H44  1  0.39897000  0.41393000  0.05945000  1.0
  H  H45  1  0.60103000  0.41393000  0.44055000  1.0
  H  H46  1  0.60103000  0.58607000  0.94055000  1.0
  H  H47  1  0.39897000  0.58607000  0.55945000  1.0
  H  H48  1  0.36289000  0.46137000  0.13937000  1.0
  H  H49  1  0.63711000  0.46137000  0.36063000  1.0
  H  H50  1  0.63711000  0.53863000  0.86063000  1.0
  H  H51  1  0.36289000  0.53863000  0.63937000  1.0
  H  H52  1  0.50872000  0.78869000  0.12293000  1.0
  H  H53  1  0.49127000  0.78869000  0.37707000  1.0
  H  H54  1  0.49128000  0.21131000  0.87707000  1.0
  H  H55  1  0.50873000  0.21131000  0.62293000  1.0
  C  C56  1  0.19633000  0.11054000  0.29827000  1.0
  C  C57  1  0.80367000  0.11053000  0.20173000  1.0
  C  C58  1  0.80367000  0.88946000  0.70173000  1.0
  C  C59  1  0.19633000  0.88947000  0.79827000  1.0
  C  C60  1  0.21859000  0.97140000  0.33415000  1.0
  C  C61  1  0.78140000  0.97140000  0.16585000  1.0
  C  C62  1  0.78141000  0.02860000  0.66585000  1.0
  C  C63  1  0.21860000  0.02860000  0.83415000  1.0
  C  C64  1  0.17666000  0.98223000  0.39952000  1.0
  C  C65  1  0.82334000  0.98222000  0.10048000  1.0
  C  C66  1  0.82334000  0.01777000  0.60048000  1.0
  C  C67  1  0.17667000  0.01778000  0.89952000  1.0
  C  C68  1  0.11995000  0.11459000  0.42723000  1.0
  C  C69  1  0.88005000  0.11459000  0.07277000  1.0
  C  C70  1  0.88005000  0.88541000  0.57277000  1.0
  C  C71  1  0.11995000  0.88541000  0.92723000  1.0
  C  C72  1  0.10188000  0.24764000  0.39041000  1.0
  C  C73  1  0.89813000  0.24764000  0.10959000  1.0
  C  C74  1  0.89812000  0.75236000  0.60959000  1.0
  C  C75  1  0.10187000  0.75236000  0.89041000  1.0
  C  C76  1  0.13938000  0.24568000  0.32703000  1.0
  C  C77  1  0.86061000  0.24567000  0.17297000  1.0
  C  C78  1  0.86062000  0.75432000  0.67297000  1.0
  C  C79  1  0.13938000  0.75432000  0.82703000  1.0
  C  C80  1  0.23990000  0.12336000  0.23295000  1.0
  C  C81  1  0.76010000  0.12336000  0.26705000  1.0
  C  C82  1  0.76010000  0.87664000  0.76705000  1.0
  C  C83  1  0.23990000  0.87664000  0.73295000  1.0
  C  C84  1  0.34604000  0.05664000  0.13380000  1.0
  C  C85  1  0.65395000  0.05664000  0.36620000  1.0
  C  C86  1  0.65396000  0.94336000  0.86620000  1.0
  C  C87  1  0.34604000  0.94336000  0.63380000  1.0
  C  C88  1  0.31235000  0.92338000  0.08902000  1.0
  C  C89  1  0.68765000  0.92338000  0.41098000  1.0
  C  C90  1  0.68765000  0.07662000  0.91098000  1.0
  C  C91  1  0.31236000  0.07662000  0.58902000  1.0
  C  C92  1  0.34072000  0.65102000  0.07329000  1.0
  C  C93  1  0.65928000  0.65102000  0.42671000  1.0
  C  C94  1  0.65928000  0.34898000  0.92671000  1.0
  C  C95  1  0.34073000  0.34898000  0.57329000  1.0
  C  C96  1  0.41951000  0.50201000  0.09595000  1.0
  C  C97  1  0.58049000  0.50201000  0.40404000  1.0
  C  C98  1  0.58049000  0.49799000  0.90405000  1.0
  C  C99  1  0.41951000  0.49799000  0.59595000  1.0
  Br  Br100  1  0.20271000  0.80218000  0.44976000  1.0
  Br  Br101  1  0.79728000  0.80218000  0.05025000  1.0
  Br  Br102  1  0.79728000  0.19782000  0.55025000  1.0
  Br  Br103  1  0.20272000  0.19782000  0.94975000  1.0
  N  N104  1  0.29510000  0.01566000  0.19723000  1.0
  N  N105  1  0.70489000  0.01566000  0.30277000  1.0
  N  N106  1  0.70490000  0.98434000  0.80277000  1.0
  N  N107  1  0.29510000  0.98434000  0.69723000  1.0
  N  N108  1  0.37980000  0.78022000  0.11635000  1.0
  N  N109  1  0.62020000  0.78022000  0.38365000  1.0
  N  N110  1  0.62020000  0.21978000  0.88365000  1.0
  N  N111  1  0.37980000  0.21978000  0.61635000  1.0
  N  N112  1  0.50000000  0.65067000  0.25000000  1.0
  N  N113  1  0.50000000  0.34933000  0.75000000  1.0
  N  N114  1  0.50000000  0.51283000  0.25000000  1.0
  N  N115  1  0.50000000  0.48717000  0.75000000  1.0
  N  N116  1  0.50000000  0.38028000  0.25000000  1.0
  N  N117  1  0.50000000  0.61972000  0.75000000  1.0
  N  N118  1  0.10197000  0.64447000  0.21065000  1.0
  N  N119  1  0.89803000  0.64447000  0.28935000  1.0
  N  N120  1  0.89803000  0.35553000  0.78935000  1.0
  N  N121  1  0.10197000  0.35552000  0.71065000  1.0
  N  N122  1  0.00000000  0.64749000  0.25000000  1.0
  N  N123  1  0.00000000  0.35251000  0.75000000  1.0
  Cl  Cl124  1  0.03672000  0.41458000  0.42610000  1.0
  Cl  Cl125  1  0.96328000  0.41458000  0.07390000  1.0
  Cl  Cl126  1  0.96328000  0.58542000  0.57390000  1.0
  Cl  Cl127  1  0.03672000  0.58542000  0.92610000  1.0
  O  O128  1  0.27716000  0.84585000  0.31171000  1.0
  O  O129  1  0.72284000  0.84584000  0.18829000  1.0
  O  O130  1  0.72284000  0.15415000  0.68829000  1.0
  O  O131  1  0.27717000  0.15415000  0.81171000  1.0
