# generated using pymatgen
data_CdH19C32N5O6
_symmetry_space_group_name_H-M   'P 1'
_cell_length_a   9.45786000
_cell_length_b   13.63470000
_cell_length_c   24.99660000
_cell_angle_alpha   90.00020000
_cell_angle_beta   90.00010000
_cell_angle_gamma   97.22480000
_symmetry_Int_Tables_number   1
_chemical_formula_structural   CdH19C32N5O6
_chemical_formula_sum   'Cd4 H76 C128 N20 O24'
_cell_volume   3197.84570039
_cell_formula_units_Z   4
loop_
 _symmetry_equiv_pos_site_id
 _symmetry_equiv_pos_as_xyz
  1  'x, y, z'
loop_
 _atom_site_type_symbol
 _atom_site_label
 _atom_site_symmetry_multiplicity
 _atom_site_fract_x
 _atom_site_fract_y
 _atom_site_fract_z
 _atom_site_occupancy
  Cd  Cd0  1  0.54677000  0.24027000  0.16658000  1.0
  Cd  Cd1  1  0.45322000  0.25973000  0.66658000  1.0
  Cd  Cd2  1  0.45323000  0.75973000  0.83342000  1.0
  Cd  Cd3  1  0.54678000  0.74027000  0.33342000  1.0
  H  H4  1  0.07404000  0.36287000  0.12438000  1.0
  H  H5  1  0.92596000  0.13713000  0.62438000  1.0
  H  H6  1  0.92596000  0.63713000  0.87562000  1.0
  H  H7  1  0.07404000  0.86287000  0.37562000  1.0
  H  H8  1  0.93588000  0.33325000  0.28827000  1.0
  H  H9  1  0.06412000  0.16675000  0.78827000  1.0
  H  H10  1  0.06411000  0.66675000  0.71173000  1.0
  H  H11  1  0.93588000  0.83325000  0.21173000  1.0
  H  H12  1  0.38064000  0.41544000  0.25158000  1.0
  H  H13  1  0.61936000  0.08456000  0.75158000  1.0
  H  H14  1  0.61936000  0.58456000  0.74842000  1.0
  H  H15  1  0.38064000  0.91544000  0.24842000  1.0
  H  H16  1  0.62781000  0.20441000  0.29131000  1.0
  H  H17  1  0.37219000  0.29559000  0.79131000  1.0
  H  H18  1  0.37219000  0.79559000  0.70869000  1.0
  H  H19  1  0.62781000  0.70441000  0.20869000  1.0
  H  H20  1  0.51660000  0.15811000  0.38040000  1.0
  H  H21  1  0.48341000  0.34189000  0.88040000  1.0
  H  H22  1  0.48340000  0.84188000  0.61960000  1.0
  H  H23  1  0.51659000  0.65811000  0.11960000  1.0
  H  H24  1  0.25032000  0.11465000  0.38566000  1.0
  H  H25  1  0.74968000  0.38535000  0.88566000  1.0
  H  H26  1  0.74968000  0.88534000  0.61434000  1.0
  H  H27  1  0.25032000  0.61465000  0.11434000  1.0
  H  H28  1  0.01679000  0.08666000  0.33764000  1.0
  H  H29  1  0.98321000  0.41334000  0.83764000  1.0
  H  H30  1  0.98321000  0.91334000  0.66236000  1.0
  H  H31  1  0.01679000  0.58666000  0.16236000  1.0
  H  H32  1  0.88252000  0.07380000  0.25221000  1.0
  H  H33  1  0.11749000  0.42620000  0.75221000  1.0
  H  H34  1  0.11748000  0.92620000  0.74779000  1.0
  H  H35  1  0.88252000  0.57380000  0.24779000  1.0
  H  H36  1  0.88177000  0.08769000  0.15253000  1.0
  H  H37  1  0.11823000  0.41231000  0.65253000  1.0
  H  H38  1  0.11823000  0.91231000  0.84747000  1.0
  H  H39  1  0.88177000  0.58769000  0.34747000  1.0
  H  H40  1  0.01677000  0.13024000  0.06783000  1.0
  H  H41  1  0.98323000  0.36976000  0.56783000  1.0
  H  H42  1  0.98323000  0.86976000  0.93217000  1.0
  H  H43  1  0.01677000  0.63024000  0.43217000  1.0
  H  H44  1  0.28026000  0.18634000  0.07380000  1.0
  H  H45  1  0.71973000  0.31366000  0.57380000  1.0
  H  H46  1  0.71974000  0.81366000  0.92620000  1.0
  H  H47  1  0.28026000  0.68634000  0.42620000  1.0
  H  H48  1  0.59774000  0.02941000  0.22925000  1.0
  H  H49  1  0.40226000  0.47059000  0.72925000  1.0
  H  H50  1  0.40226000  0.97059000  0.77075000  1.0
  H  H51  1  0.59775000  0.52941000  0.27075000  1.0
  H  H52  1  0.69628000  0.87164000  0.21080000  1.0
  H  H53  1  0.30372000  0.62837000  0.71080000  1.0
  H  H54  1  0.30373000  0.12837000  0.78920000  1.0
  H  H55  1  0.69628000  0.37164000  0.28920000  1.0
  H  H56  1  0.75767000  0.83258000  0.11533000  1.0
  H  H57  1  0.24233000  0.66742000  0.61533000  1.0
  H  H58  1  0.24233000  0.16742000  0.88467000  1.0
  H  H59  1  0.75767000  0.33258000  0.38467000  1.0
  H  H60  1  0.77003000  0.88412000  0.01914000  1.0
  H  H61  1  0.22997000  0.61587000  0.51913000  1.0
  H  H62  1  0.22997000  0.11588000  0.98087000  1.0
  H  H63  1  0.77003000  0.38413000  0.48087000  1.0
  H  H64  1  0.73789000  0.01024000  0.94947000  1.0
  H  H65  1  0.26211000  0.48976000  0.44947000  1.0
  H  H66  1  0.26212000  0.98976000  0.05053000  1.0
  H  H67  1  0.73788000  0.51024000  0.55053000  1.0
  H  H68  1  0.66621000  0.17337000  0.92497000  1.0
  H  H69  1  0.33379000  0.32663000  0.42497000  1.0
  H  H70  1  0.33379000  0.82664000  0.07503000  1.0
  H  H71  1  0.66621000  0.67336000  0.57503000  1.0
  H  H72  1  0.57377000  0.33098000  0.95505000  1.0
  H  H73  1  0.42622000  0.16901000  0.45505000  1.0
  H  H74  1  0.42623000  0.66902000  0.04495000  1.0
  H  H75  1  0.57377000  0.83098000  0.54495000  1.0
  H  H76  1  0.50469000  0.34797000  0.05093000  1.0
  H  H77  1  0.49531000  0.15203000  0.55093000  1.0
  H  H78  1  0.49531000  0.65203000  0.94907000  1.0
  H  H79  1  0.50469000  0.84797000  0.44907000  1.0
  C  C80  1  0.24012000  0.39161000  0.18351000  1.0
  C  C81  1  0.75987000  0.10839000  0.68351000  1.0
  C  C82  1  0.75988000  0.60839000  0.81649000  1.0
  C  C83  1  0.24013000  0.89161000  0.31648000  1.0
  C  C84  1  0.09871000  0.36674000  0.16697000  1.0
  C  C85  1  0.90129000  0.13326000  0.66697000  1.0
  C  C86  1  0.90129000  0.63326000  0.83304000  1.0
  C  C87  1  0.09871000  0.86674000  0.33303000  1.0
  C  C88  1  0.98909000  0.34322000  0.20425000  1.0
  C  C89  1  0.01091000  0.15679000  0.70425000  1.0
  C  C90  1  0.01091000  0.65679000  0.79575000  1.0
  C  C91  1  0.98909000  0.84322000  0.29575000  1.0
  C  C92  1  0.01962000  0.35036000  0.25879000  1.0
  C  C93  1  0.98037000  0.14964000  0.75879000  1.0
  C  C94  1  0.98038000  0.64964000  0.74121000  1.0
  C  C95  1  0.01963000  0.85036000  0.24121000  1.0
  C  C96  1  0.15968000  0.37952000  0.27482000  1.0
  C  C97  1  0.84031000  0.12048000  0.77482000  1.0
  C  C98  1  0.84032000  0.62049000  0.72518000  1.0
  C  C99  1  0.15968000  0.87952000  0.22518000  1.0
  C  C100  1  0.27110000  0.39797000  0.23812000  1.0
  C  C101  1  0.72890000  0.10203000  0.73812000  1.0
  C  C102  1  0.72889000  0.60203000  0.76188000  1.0
  C  C103  1  0.27111000  0.89797000  0.26188000  1.0
  C  C104  1  0.35952000  0.40700000  0.14238000  1.0
  C  C105  1  0.64048000  0.09300000  0.64238000  1.0
  C  C106  1  0.64048000  0.59300000  0.85762000  1.0
  C  C107  1  0.35952000  0.90700000  0.35761000  1.0
  C  C108  1  0.83974000  0.30768000  0.18585000  1.0
  C  C109  1  0.16025000  0.19232000  0.68585000  1.0
  C  C110  1  0.16026000  0.69232000  0.81415000  1.0
  C  C111  1  0.83975000  0.80768000  0.31415000  1.0
  C  C112  1  0.51316000  0.18354000  0.29540000  1.0
  C  C113  1  0.48684000  0.31646000  0.79540000  1.0
  C  C114  1  0.48684000  0.81646000  0.70460000  1.0
  C  C115  1  0.51316000  0.68354000  0.20460000  1.0
  C  C116  1  0.44950000  0.15918000  0.34512000  1.0
  C  C117  1  0.55051000  0.34082000  0.84512000  1.0
  C  C118  1  0.55050000  0.84082000  0.65488000  1.0
  C  C119  1  0.44949000  0.65918000  0.15488000  1.0
  C  C120  1  0.30328000  0.13527000  0.34782000  1.0
  C  C121  1  0.69672000  0.36474000  0.84782000  1.0
  C  C122  1  0.69672000  0.86473000  0.65218000  1.0
  C  C123  1  0.30328000  0.63527000  0.15218000  1.0
  C  C124  1  0.22196000  0.13242000  0.30030000  1.0
  C  C125  1  0.77804000  0.36759000  0.80031000  1.0
  C  C126  1  0.77804000  0.86758000  0.69969000  1.0
  C  C127  1  0.22196000  0.63242000  0.19969000  1.0
  C  C128  1  0.07097000  0.10408000  0.29968000  1.0
  C  C129  1  0.92903000  0.39592000  0.79968000  1.0
  C  C130  1  0.92903000  0.89592000  0.70032000  1.0
  C  C131  1  0.07097000  0.60408000  0.20032000  1.0
  C  C132  1  0.99728000  0.09631000  0.25263000  1.0
  C  C133  1  0.00272000  0.40368000  0.75264000  1.0
  C  C134  1  0.00272000  0.90369000  0.74736000  1.0
  C  C135  1  0.99728000  0.59631000  0.24736000  1.0
  C  C136  1  0.06855000  0.11728000  0.20261000  1.0
  C  C137  1  0.93145000  0.38272000  0.70261000  1.0
  C  C138  1  0.93145000  0.88272000  0.79739000  1.0
  C  C139  1  0.06855000  0.61728000  0.29739000  1.0
  C  C140  1  0.99620000  0.11002000  0.15314000  1.0
  C  C141  1  0.00380000  0.38998000  0.65314000  1.0
  C  C142  1  0.00380000  0.88998000  0.84686000  1.0
  C  C143  1  0.99620000  0.61002000  0.34686000  1.0
  C  C144  1  0.07074000  0.13368000  0.10642000  1.0
  C  C145  1  0.92925000  0.36632000  0.60642000  1.0
  C  C146  1  0.92925000  0.86632000  0.89358000  1.0
  C  C147  1  0.07075000  0.63368000  0.39358000  1.0
  C  C148  1  0.21788000  0.16495000  0.10960000  1.0
  C  C149  1  0.78212000  0.33505000  0.60960000  1.0
  C  C150  1  0.78212000  0.83505000  0.89040000  1.0
  C  C151  1  0.21788000  0.66495000  0.39040000  1.0
  C  C152  1  0.21787000  0.14841000  0.20161000  1.0
  C  C153  1  0.78213000  0.35160000  0.70161000  1.0
  C  C154  1  0.78213000  0.85159000  0.79839000  1.0
  C  C155  1  0.21787000  0.64840000  0.29839000  1.0
  C  C156  1  0.29614000  0.15553000  0.25151000  1.0
  C  C157  1  0.70386000  0.34448000  0.75151000  1.0
  C  C158  1  0.70386000  0.84447000  0.74849000  1.0
  C  C159  1  0.29614000  0.65553000  0.24849000  1.0
  C  C160  1  0.62482000  0.01028000  0.18839000  1.0
  C  C161  1  0.37518000  0.48973000  0.68839000  1.0
  C  C162  1  0.37518000  0.98972000  0.81161000  1.0
  C  C163  1  0.62482000  0.51028000  0.31161000  1.0
  C  C164  1  0.67900000  0.92094000  0.17765000  1.0
  C  C165  1  0.32101000  0.57906000  0.67764000  1.0
  C  C166  1  0.32101000  0.07906000  0.82235000  1.0
  C  C167  1  0.67900000  0.42094000  0.32236000  1.0
  C  C168  1  0.71251000  0.90015000  0.12534000  1.0
  C  C169  1  0.28749000  0.59985000  0.62534000  1.0
  C  C170  1  0.28749000  0.09985000  0.87466000  1.0
  C  C171  1  0.71252000  0.40015000  0.37466000  1.0
  C  C172  1  0.69145000  0.96792000  0.08417000  1.0
  C  C173  1  0.30855000  0.53208000  0.58417000  1.0
  C  C174  1  0.30855000  0.03208000  0.91583000  1.0
  C  C175  1  0.69146000  0.46792000  0.41583000  1.0
  C  C176  1  0.72721000  0.95240000  0.02940000  1.0
  C  C177  1  0.27279000  0.54760000  0.52940000  1.0
  C  C178  1  0.27279000  0.04760000  0.97060000  1.0
  C  C179  1  0.72721000  0.45240000  0.47060000  1.0
  C  C180  1  0.70965000  0.02140000  0.99113000  1.0
  C  C181  1  0.29034000  0.47860000  0.49113000  1.0
  C  C182  1  0.29035000  0.97860000  0.00887000  1.0
  C  C183  1  0.70965000  0.52140000  0.50887000  1.0
  C  C184  1  0.65438000  0.11134000  0.00473000  1.0
  C  C185  1  0.34562000  0.38866000  0.50473000  1.0
  C  C186  1  0.34562000  0.88866000  0.99527000  1.0
  C  C187  1  0.65438000  0.61134000  0.49527000  1.0
  C  C188  1  0.63755000  0.18548000  0.96652000  1.0
  C  C189  1  0.36244000  0.31452000  0.46651000  1.0
  C  C190  1  0.36245000  0.81452000  0.03349000  1.0
  C  C191  1  0.63755000  0.68548000  0.53349000  1.0
  C  C192  1  0.58556000  0.27100000  0.98276000  1.0
  C  C193  1  0.41444000  0.22900000  0.48276000  1.0
  C  C194  1  0.41444000  0.72900000  0.01724000  1.0
  C  C195  1  0.58556000  0.77100000  0.51724000  1.0
  C  C196  1  0.54799000  0.28191000  0.03668000  1.0
  C  C197  1  0.45200000  0.21809000  0.53668000  1.0
  C  C198  1  0.45201000  0.71809000  0.96332000  1.0
  C  C199  1  0.54799000  0.78191000  0.46332000  1.0
  C  C200  1  0.61574000  0.12909000  0.05850000  1.0
  C  C201  1  0.38425000  0.37091000  0.55850000  1.0
  C  C202  1  0.38426000  0.87091000  0.94150000  1.0
  C  C203  1  0.61575000  0.62909000  0.44150000  1.0
  C  C204  1  0.63594000  0.05636000  0.09914000  1.0
  C  C205  1  0.36406000  0.44364000  0.59914000  1.0
  C  C206  1  0.36406000  0.94364000  0.90086000  1.0
  C  C207  1  0.63594000  0.55636000  0.40086000  1.0
  N  N208  1  0.19036000  0.38835000  0.33211000  1.0
  N  N209  1  0.80964000  0.11165000  0.83211000  1.0
  N  N210  1  0.80964000  0.61165000  0.66789000  1.0
  N  N211  1  0.19036000  0.88835000  0.16789000  1.0
  N  N212  1  0.43885000  0.18249000  0.25016000  1.0
  N  N213  1  0.56115000  0.31751000  0.75016000  1.0
  N  N214  1  0.56115000  0.81751000  0.74984000  1.0
  N  N215  1  0.43885000  0.68249000  0.24984000  1.0
  N  N216  1  0.28922000  0.17184000  0.15554000  1.0
  N  N217  1  0.71078000  0.32817000  0.65554000  1.0
  N  N218  1  0.71078000  0.82816000  0.84446000  1.0
  N  N219  1  0.28922000  0.67184000  0.34446000  1.0
  N  N220  1  0.60517000  0.07587000  0.15068000  1.0
  N  N221  1  0.39482000  0.42413000  0.65068000  1.0
  N  N222  1  0.39482000  0.92413000  0.84932000  1.0
  N  N223  1  0.60518000  0.57587000  0.34932000  1.0
  N  N224  1  0.56218000  0.21267000  0.07308000  1.0
  N  N225  1  0.43782000  0.28733000  0.57308000  1.0
  N  N226  1  0.43782000  0.78733000  0.92692000  1.0
  N  N227  1  0.56218000  0.71267000  0.42692000  1.0
  O  O228  1  0.48470000  0.39507000  0.15989000  1.0
  O  O229  1  0.51530000  0.10493000  0.65989000  1.0
  O  O230  1  0.51530000  0.60493000  0.84011000  1.0
  O  O231  1  0.48470000  0.89507000  0.34011000  1.0
  O  O232  1  0.32818000  0.42896000  0.09564000  1.0
  O  O233  1  0.67181000  0.07104000  0.59564000  1.0
  O  O234  1  0.67182000  0.57104000  0.90436000  1.0
  O  O235  1  0.32819000  0.92896000  0.40436000  1.0
  O  O236  1  0.74582000  0.28453000  0.22266000  1.0
  O  O237  1  0.25418000  0.21547000  0.72266000  1.0
  O  O238  1  0.25418000  0.71547000  0.77734000  1.0
  O  O239  1  0.74582000  0.78453000  0.27734000  1.0
  O  O240  1  0.81423000  0.30045000  0.13660000  1.0
  O  O241  1  0.18577000  0.19955000  0.63660000  1.0
  O  O242  1  0.18577000  0.69955000  0.86340000  1.0
  O  O243  1  0.81423000  0.80045000  0.36340000  1.0
  O  O244  1  0.31300000  0.42328000  0.34598000  1.0
  O  O245  1  0.68700000  0.07671000  0.84598000  1.0
  O  O246  1  0.68700000  0.57671000  0.65402000  1.0
  O  O247  1  0.31300000  0.92329000  0.15402000  1.0
  O  O248  1  0.09323000  0.36077000  0.36443000  1.0
  O  O249  1  0.90677000  0.13923000  0.86443000  1.0
  O  O250  1  0.90677000  0.63922000  0.63557000  1.0
  O  O251  1  0.09323000  0.86077000  0.13557000  1.0
