# generated using pymatgen
data_TlH4C7N3O
_symmetry_space_group_name_H-M   'P 1'
_cell_length_a   4.15201000
_cell_length_b   12.00140000
_cell_length_c   17.01050000
_cell_angle_alpha   89.99960000
_cell_angle_beta   85.09090000
_cell_angle_gamma   89.99980000
_symmetry_Int_Tables_number   1
_chemical_formula_structural   TlH4C7N3O
_chemical_formula_sum   'Tl4 H16 C28 N12 O4'
_cell_volume   844.52271803
_cell_formula_units_Z   4
loop_
 _symmetry_equiv_pos_site_id
 _symmetry_equiv_pos_as_xyz
  1  'x, y, z'
loop_
 _atom_site_type_symbol
 _atom_site_label
 _atom_site_symmetry_multiplicity
 _atom_site_fract_x
 _atom_site_fract_y
 _atom_site_fract_z
 _atom_site_occupancy
  Tl  Tl0  1  0.39961000  0.46481000  0.38814000  1.0
  Tl  Tl1  1  0.10038000  0.96482000  0.11186000  1.0
  Tl  Tl2  1  0.60038000  0.53519000  0.61186000  1.0
  Tl  Tl3  1  0.89962000  0.03518000  0.88814000  1.0
  H  H4  1  0.53752000  0.95319000  0.42291000  1.0
  H  H5  1  0.96247000  0.45319000  0.07709000  1.0
  H  H6  1  0.46247000  0.04681000  0.57709000  1.0
  H  H7  1  0.03752000  0.54681000  0.92291000  1.0
  H  H8  1  0.33726000  0.02046000  0.30017000  1.0
  H  H9  1  0.16273000  0.52046000  0.19983000  1.0
  H  H10  1  0.66273000  0.97954000  0.69983000  1.0
  H  H11  1  0.83726000  0.47954000  0.80017000  1.0
  H  H12  1  0.65366000  0.73547000  0.17757000  1.0
  H  H13  1  0.84634000  0.23547000  0.32243000  1.0
  H  H14  1  0.34632000  0.26453000  0.82243000  1.0
  H  H15  1  0.15367000  0.76453000  0.67757000  1.0
  H  H16  1  0.87653000  0.65617000  0.29682000  1.0
  H  H17  1  0.62347000  0.15616000  0.20317000  1.0
  H  H18  1  0.12347000  0.34384000  0.70318000  1.0
  H  H19  1  0.37653000  0.84384000  0.79683000  1.0
  C  C20  1  0.84188000  0.75456000  0.44390000  1.0
  C  C21  1  0.65813000  0.25455000  0.05610000  1.0
  C  C22  1  0.15812000  0.24545000  0.55610000  1.0
  C  C23  1  0.34189000  0.74544000  0.94390000  1.0
  C  C24  1  0.77047000  0.81105000  0.51701000  1.0
  C  C25  1  0.72953000  0.31106000  0.98299000  1.0
  C  C26  1  0.22953000  0.18894000  0.48299000  1.0
  C  C27  1  0.27048000  0.68894000  0.01701000  1.0
  C  C28  1  0.72400000  0.79711000  0.37142000  1.0
  C  C29  1  0.77601000  0.29711000  0.12858000  1.0
  C  C30  1  0.27601000  0.20289000  0.62858000  1.0
  C  C31  1  0.22400000  0.70289000  0.87142000  1.0
  C  C32  1  0.56990000  0.90126000  0.37034000  1.0
  C  C33  1  0.93010000  0.40126000  0.12966000  1.0
  C  C34  1  0.43010000  0.09874000  0.62966000  1.0
  C  C35  1  0.06990000  0.59874000  0.87034000  1.0
  C  C36  1  0.45745000  0.93951000  0.30063000  1.0
  C  C37  1  0.04254000  0.43950000  0.19937000  1.0
  C  C38  1  0.54254000  0.06049000  0.69937000  1.0
  C  C39  1  0.95746000  0.56049000  0.80063000  1.0
  C  C40  1  0.63409000  0.78126000  0.23333000  1.0
  C  C41  1  0.86591000  0.28125000  0.26667000  1.0
  C  C42  1  0.36590000  0.21874000  0.76667000  1.0
  C  C43  1  0.13410000  0.71874000  0.73333000  1.0
  C  C44  1  0.75583000  0.73676000  0.30005000  1.0
  C  C45  1  0.74417000  0.23676000  0.19995000  1.0
  C  C46  1  0.24416000  0.26324000  0.69995000  1.0
  C  C47  1  0.25584000  0.76324000  0.80005000  1.0
  N  N48  1  0.01801000  0.66189000  0.44301000  1.0
  N  N49  1  0.48198000  0.16189000  0.05699000  1.0
  N  N50  1  0.98199000  0.33812000  0.55699000  1.0
  N  N51  1  0.51802000  0.83811000  0.94302000  1.0
  N  N52  1  0.72002000  0.85289000  0.57900000  1.0
  N  N53  1  0.77997000  0.35289000  0.92100000  1.0
  N  N54  1  0.27998000  0.14711000  0.42100000  1.0
  N  N55  1  0.22003000  0.64710000  0.07900000  1.0
  N  N56  1  0.48708000  0.88161000  0.23266000  1.0
  N  N57  1  0.01292000  0.38160000  0.26734000  1.0
  N  N58  1  0.51291000  0.11840000  0.76734000  1.0
  N  N59  1  0.98709000  0.61840000  0.73266000  1.0
  O  O60  1  0.11295000  0.62651000  0.50982000  1.0
  O  O61  1  0.38704000  0.12651000  0.99017000  1.0
  O  O62  1  0.88705000  0.37350000  0.49018000  1.0
  O  O63  1  0.61296000  0.87349000  0.00983000  1.0
