# generated using pymatgen
data_Gd2H10C14N4O15
_symmetry_space_group_name_H-M   'P 1'
_cell_length_a   10.96630000
_cell_length_b   11.79840000
_cell_length_c   19.01380000
_cell_angle_alpha   90.00000000
_cell_angle_beta   89.99990000
_cell_angle_gamma   90.00000000
_symmetry_Int_Tables_number   1
_chemical_formula_structural   Gd2H10C14N4O15
_chemical_formula_sum   'Gd8 H40 C56 N16 O60'
_cell_volume   2460.09659463
_cell_formula_units_Z   4
loop_
 _symmetry_equiv_pos_site_id
 _symmetry_equiv_pos_as_xyz
  1  'x, y, z'
loop_
 _atom_site_type_symbol
 _atom_site_label
 _atom_site_symmetry_multiplicity
 _atom_site_fract_x
 _atom_site_fract_y
 _atom_site_fract_z
 _atom_site_occupancy
  Gd  Gd0  1  0.36008000  0.83900000  0.42781000  1.0
  Gd  Gd1  1  0.63992000  0.16100000  0.92781000  1.0
  Gd  Gd2  1  0.86009000  0.66100000  0.92781000  1.0
  Gd  Gd3  1  0.13992000  0.33900000  0.42781000  1.0
  Gd  Gd4  1  0.88279000  0.02373000  0.20714000  1.0
  Gd  Gd5  1  0.11720000  0.97627000  0.70714000  1.0
  Gd  Gd6  1  0.38279000  0.47627000  0.70714000  1.0
  Gd  Gd7  1  0.61720000  0.52373000  0.20714000  1.0
  H  H8  1  0.13959000  0.99658000  0.32807000  1.0
  H  H9  1  0.86042000  0.00342000  0.82807000  1.0
  H  H10  1  0.63959000  0.50342000  0.82807000  1.0
  H  H11  1  0.36042000  0.49658000  0.32807000  1.0
  H  H12  1  0.29185000  0.74856000  0.14329000  1.0
  H  H13  1  0.70815000  0.25144000  0.64329000  1.0
  H  H14  1  0.79185000  0.75144000  0.64329000  1.0
  H  H15  1  0.20815000  0.24856000  0.14329000  1.0
  H  H16  1  0.64393000  0.88418000  0.32351000  1.0
  H  H17  1  0.35608000  0.11582000  0.82351000  1.0
  H  H18  1  0.14393000  0.61582000  0.82351000  1.0
  H  H19  1  0.85608000  0.38417000  0.32351000  1.0
  H  H20  1  0.48901000  0.27026000  0.32332000  1.0
  H  H21  1  0.51099000  0.72974000  0.82332000  1.0
  H  H22  1  0.98901000  0.22974000  0.82332000  1.0
  H  H23  1  0.01099000  0.77026000  0.32332000  1.0
  H  H24  1  0.58538000  0.89566000  0.49148000  1.0
  H  H25  1  0.41463000  0.10434000  0.99148000  1.0
  H  H26  1  0.08538000  0.60434000  0.99148000  1.0
  H  H27  1  0.91463000  0.39566000  0.49148000  1.0
  H  H28  1  0.59047000  0.76441000  0.49505000  1.0
  H  H29  1  0.40953000  0.23559000  0.99505000  1.0
  H  H30  1  0.09047000  0.73559000  0.99505000  1.0
  H  H31  1  0.90953000  0.26441000  0.49505000  1.0
  H  H32  1  0.40906000  0.64239000  0.53410000  1.0
  H  H33  1  0.59094000  0.35761000  0.03410000  1.0
  H  H34  1  0.90906000  0.85761000  0.03410000  1.0
  H  H35  1  0.09094000  0.14239000  0.53410000  1.0
  H  H36  1  0.32532000  0.60258000  0.46862000  1.0
  H  H37  1  0.67469000  0.39742000  0.96862000  1.0
  H  H38  1  0.82532000  0.89742000  0.96862000  1.0
  H  H39  1  0.17469000  0.10258000  0.46862000  1.0
  H  H40  1  0.96314000  0.12189000  0.34441000  1.0
  H  H41  1  0.03687000  0.87811000  0.84441000  1.0
  H  H42  1  0.46313000  0.37811000  0.84441000  1.0
  H  H43  1  0.53686000  0.62189000  0.34441000  1.0
  H  H44  1  0.88434000  0.01792000  0.37499000  1.0
  H  H45  1  0.11566000  0.98208000  0.87498000  1.0
  H  H46  1  0.38434000  0.48208000  0.87499000  1.0
  H  H47  1  0.61566000  0.51792000  0.37498000  1.0
  C  C48  1  0.17306000  0.94016000  0.28700000  1.0
  C  C49  1  0.82694000  0.05985000  0.78700000  1.0
  C  C50  1  0.67306000  0.55984000  0.78700000  1.0
  C  C51  1  0.32694000  0.44015000  0.28700000  1.0
  C  C52  1  0.14905000  0.86375000  0.17732000  1.0
  C  C53  1  0.85095000  0.13625000  0.67731000  1.0
  C  C54  1  0.64905000  0.63625000  0.67732000  1.0
  C  C55  1  0.35095000  0.36375000  0.17731000  1.0
  C  C56  1  0.25731000  0.80299000  0.18495000  1.0
  C  C57  1  0.74269000  0.19701000  0.68495000  1.0
  C  C58  1  0.75731000  0.69701000  0.68495000  1.0
  C  C59  1  0.24269000  0.30299000  0.18495000  1.0
  C  C60  1  0.31531000  0.81065000  0.24968000  1.0
  C  C61  1  0.68470000  0.18936000  0.74968000  1.0
  C  C62  1  0.81531000  0.68935000  0.74968000  1.0
  C  C63  1  0.18470000  0.31064000  0.24968000  1.0
  C  C64  1  0.41879000  0.73166000  0.26874000  1.0
  C  C65  1  0.58120000  0.26835000  0.76874000  1.0
  C  C66  1  0.91879000  0.76834000  0.76874000  1.0
  C  C67  1  0.08121000  0.23165000  0.26874000  1.0
  C  C68  1  0.07393000  0.85388000  0.11110000  1.0
  C  C69  1  0.92607000  0.14612000  0.61110000  1.0
  C  C70  1  0.57393000  0.64612000  0.61110000  1.0
  C  C71  1  0.42607000  0.35388000  0.11110000  1.0
  C  C72  1  0.60943000  0.97070000  0.32305000  1.0
  C  C73  1  0.39057000  0.02930000  0.82305000  1.0
  C  C74  1  0.10943000  0.52930000  0.82305000  1.0
  C  C75  1  0.89057000  0.47070000  0.32305000  1.0
  C  C76  1  0.63114000  0.15591000  0.28873000  1.0
  C  C77  1  0.36886000  0.84409000  0.78873000  1.0
  C  C78  1  0.13114000  0.34409000  0.78873000  1.0
  C  C79  1  0.86886000  0.65591000  0.28873000  1.0
  C  C80  1  0.52308000  0.18391000  0.32273000  1.0
  C  C81  1  0.47692000  0.81609000  0.82273000  1.0
  C  C82  1  0.02308000  0.31609000  0.82273000  1.0
  C  C83  1  0.97692000  0.68391000  0.32273000  1.0
  C  C84  1  0.46074000  0.09634000  0.35590000  1.0
  C  C85  1  0.53926000  0.90366000  0.85590000  1.0
  C  C86  1  0.96074000  0.40366000  0.85590000  1.0
  C  C87  1  0.03926000  0.59634000  0.35590000  1.0
  C  C88  1  0.33859000  0.11608000  0.38993000  1.0
  C  C89  1  0.66142000  0.88391000  0.88993000  1.0
  C  C90  1  0.83859000  0.38392000  0.88993000  1.0
  C  C91  1  0.16142000  0.61609000  0.38993000  1.0
  C  C92  1  0.70572000  0.24488000  0.25050000  1.0
  C  C93  1  0.29428000  0.75512000  0.75050000  1.0
  C  C94  1  0.20573000  0.25512000  0.75051000  1.0
  C  C95  1  0.79428000  0.74488000  0.25051000  1.0
  C  C96  1  0.70031000  0.06581000  0.08111000  1.0
  C  C97  1  0.29969000  0.93419000  0.58111000  1.0
  C  C98  1  0.20030000  0.43419000  0.58111000  1.0
  C  C99  1  0.79969000  0.56581000  0.08111000  1.0
  C  C100  1  0.82360000  0.11553000  0.05444000  1.0
  C  C101  1  0.17640000  0.88448000  0.55444000  1.0
  C  C102  1  0.32359000  0.38447000  0.55444000  1.0
  C  C103  1  0.67640000  0.61552000  0.05444000  1.0
  N  N104  1  0.27543000  0.88227000  0.29988000  1.0
  N  N105  1  0.72458000  0.11774000  0.79988000  1.0
  N  N106  1  0.77543000  0.61773000  0.79988000  1.0
  N  N107  1  0.22458000  0.38226000  0.29988000  1.0
  N  N108  1  0.10497000  0.93012000  0.22882000  1.0
  N  N109  1  0.89503000  0.06988000  0.72881000  1.0
  N  N110  1  0.60497000  0.56988000  0.72881000  1.0
  N  N111  1  0.39503000  0.43012000  0.22881000  1.0
  N  N112  1  0.50440000  0.99003000  0.35736000  1.0
  N  N113  1  0.49560000  0.00997000  0.85736000  1.0
  N  N114  1  0.00440000  0.50997000  0.85736000  1.0
  N  N115  1  0.99560000  0.49003000  0.35736000  1.0
  N  N116  1  0.67408000  0.04890000  0.28817000  1.0
  N  N117  1  0.32592000  0.95110000  0.78817000  1.0
  N  N118  1  0.17408000  0.45110000  0.78817000  1.0
  N  N119  1  0.82592000  0.54890000  0.28817000  1.0
  O  O120  1  0.45989000  0.73930000  0.33181000  1.0
  O  O121  1  0.54011000  0.26071000  0.83182000  1.0
  O  O122  1  0.95989000  0.76070000  0.83181000  1.0
  O  O123  1  0.04011000  0.23929000  0.33182000  1.0
  O  O124  1  0.45235000  0.66182000  0.22307000  1.0
  O  O125  1  0.54765000  0.33819000  0.72307000  1.0
  O  O126  1  0.95235000  0.83818000  0.72307000  1.0
  O  O127  1  0.04765000  0.16182000  0.22307000  1.0
  O  O128  1  0.96261000  0.88543000  0.11580000  1.0
  O  O129  1  0.03739000  0.11458000  0.61579000  1.0
  O  O130  1  0.46261000  0.61457000  0.61580000  1.0
  O  O131  1  0.53739000  0.38542000  0.11579000  1.0
  O  O132  1  0.12869000  0.81534000  0.05832000  1.0
  O  O133  1  0.87131000  0.18466000  0.55832000  1.0
  O  O134  1  0.62869000  0.68466000  0.55832000  1.0
  O  O135  1  0.37130000  0.31534000  0.05832000  1.0
  O  O136  1  0.29150000  0.03371000  0.42386000  1.0
  O  O137  1  0.70850000  0.96628000  0.92386000  1.0
  O  O138  1  0.79150000  0.46629000  0.92386000  1.0
  O  O139  1  0.20850000  0.53371000  0.42386000  1.0
  O  O140  1  0.29079000  0.21136000  0.38017000  1.0
  O  O141  1  0.70921000  0.78864000  0.88018000  1.0
  O  O142  1  0.79079000  0.28864000  0.88017000  1.0
  O  O143  1  0.20921000  0.71136000  0.38018000  1.0
  O  O144  1  0.80213000  0.21206000  0.22103000  1.0
  O  O145  1  0.19786000  0.78794000  0.72103000  1.0
  O  O146  1  0.30214000  0.28794000  0.72103000  1.0
  O  O147  1  0.69786000  0.71206000  0.22103000  1.0
  O  O148  1  0.66502000  0.34552000  0.25301000  1.0
  O  O149  1  0.33498000  0.65449000  0.75301000  1.0
  O  O150  1  0.16502000  0.15448000  0.75301000  1.0
  O  O151  1  0.83498000  0.84551000  0.25301000  1.0
  O  O152  1  0.60767000  0.08141000  0.04239000  1.0
  O  O153  1  0.39232000  0.91859000  0.54239000  1.0
  O  O154  1  0.10768000  0.41859000  0.54239000  1.0
  O  O155  1  0.89233000  0.58142000  0.04239000  1.0
  O  O156  1  0.70295000  0.01340000  0.13920000  1.0
  O  O157  1  0.29705000  0.98660000  0.63920000  1.0
  O  O158  1  0.20295000  0.48659000  0.63920000  1.0
  O  O159  1  0.79705000  0.51340000  0.13920000  1.0
  O  O160  1  0.82462000  0.15401000  0.99221000  1.0
  O  O161  1  0.17538000  0.84599000  0.49221000  1.0
  O  O162  1  0.32462000  0.34599000  0.49221000  1.0
  O  O163  1  0.67538000  0.65401000  0.99221000  1.0
  O  O164  1  0.91241000  0.11182000  0.09663000  1.0
  O  O165  1  0.08758000  0.88819000  0.59663000  1.0
  O  O166  1  0.41241000  0.38818000  0.59663000  1.0
  O  O167  1  0.58758000  0.61181000  0.09663000  1.0
  O  O168  1  0.57487000  0.82941000  0.46137000  1.0
  O  O169  1  0.42513000  0.17059000  0.96137000  1.0
  O  O170  1  0.07487000  0.67059000  0.96137000  1.0
  O  O171  1  0.92513000  0.32941000  0.46137000  1.0
  O  O172  1  0.38399000  0.66101000  0.48479000  1.0
  O  O173  1  0.61601000  0.33899000  0.98479000  1.0
  O  O174  1  0.88400000  0.83899000  0.98479000  1.0
  O  O175  1  0.11601000  0.16100000  0.48479000  1.0
  O  O176  1  0.92936000  0.04425000  0.33425000  1.0
  O  O177  1  0.07064000  0.95575000  0.83425000  1.0
  O  O178  1  0.42936000  0.45575000  0.83425000  1.0
  O  O179  1  0.57064000  0.54425000  0.33425000  1.0
