# generated using pymatgen
data_ZnNiH12(C7N4)2
_symmetry_space_group_name_H-M   'P 1'
_cell_length_a   7.52112000
_cell_length_b   9.60252254
_cell_length_c   24.79532985
_cell_angle_alpha   85.73625882
_cell_angle_beta   81.28179232
_cell_angle_gamma   66.97357280
_symmetry_Int_Tables_number   1
_chemical_formula_structural   ZnNiH12(C7N4)2
_chemical_formula_sum   'Zn4 Ni4 H48 C56 N32'
_cell_volume   1628.81620422
_cell_formula_units_Z   4
loop_
 _symmetry_equiv_pos_site_id
 _symmetry_equiv_pos_as_xyz
  1  'x, y, z'
loop_
 _atom_site_type_symbol
 _atom_site_label
 _atom_site_symmetry_multiplicity
 _atom_site_fract_x
 _atom_site_fract_y
 _atom_site_fract_z
 _atom_site_occupancy
  Zn  Zn0  1  0.00265000  0.74999000  0.25003000  1.0
  Zn  Zn1  1  0.99736000  0.25000000  0.74997000  1.0
  Zn  Zn2  1  0.00000000  0.00000000  0.00000000  1.0
  Zn  Zn3  1  0.00000000  0.50000000  0.50000000  1.0
  Ni  Ni4  1  0.50381000  0.87218000  0.12460000  1.0
  Ni  Ni5  1  0.50062000  0.62775000  0.37547000  1.0
  Ni  Ni6  1  0.49620000  0.12781000  0.87540000  1.0
  Ni  Ni7  1  0.49938000  0.37225000  0.62453000  1.0
  H  H8  1  0.08006000  0.73107000  0.12283000  1.0
  H  H9  1  0.93392000  0.76903000  0.37722000  1.0
  H  H10  1  0.91994000  0.26893000  0.87717000  1.0
  H  H11  1  0.06608000  0.23097000  0.62278000  1.0
  H  H12  1  0.81423000  0.34811000  0.00603000  1.0
  H  H13  1  0.16759000  0.15224000  0.49407000  1.0
  H  H14  1  0.18578000  0.65189000  0.99397000  1.0
  H  H15  1  0.83242000  0.84776000  0.50593000  1.0
  H  H16  1  0.17440000  0.40223000  0.24601000  1.0
  H  H17  1  0.82244000  0.09773000  0.25399000  1.0
  H  H18  1  0.82561000  0.59776000  0.75399000  1.0
  H  H19  1  0.17756000  0.90227000  0.74601000  1.0
  H  H20  1  0.31093000  0.19884000  0.17464000  1.0
  H  H21  1  0.68370000  0.30118000  0.32533000  1.0
  H  H22  1  0.68908000  0.80116000  0.82535000  1.0
  H  H23  1  0.31630000  0.69882000  0.67467000  1.0
  H  H24  1  0.67766000  0.54861000  0.07845000  1.0
  H  H25  1  0.30429000  0.95154000  0.42171000  1.0
  H  H26  1  0.32235000  0.45139000  0.92155000  1.0
  H  H27  1  0.69572000  0.04846000  0.57829000  1.0
  H  H28  1  0.93179000  0.01447000  0.12742000  1.0
  H  H29  1  0.07430000  0.48561000  0.37259000  1.0
  H  H30  1  0.06820000  0.98553000  0.87258000  1.0
  H  H31  1  0.92571000  0.51438000  0.62741000  1.0
  H  H32  1  0.65846000  0.42929000  0.22948000  1.0
  H  H33  1  0.31737000  0.07040000  0.27064000  1.0
  H  H34  1  0.34155000  0.57070000  0.77052000  1.0
  H  H35  1  0.68263000  0.92960000  0.72936000  1.0
  H  H36  1  0.51247000  0.57233000  0.18657000  1.0
  H  H37  1  0.27125000  0.92758000  0.31368000  1.0
  H  H38  1  0.48752000  0.42767000  0.81343000  1.0
  H  H39  1  0.72873000  0.07242000  0.68633000  1.0
  H  H40  1  0.75193000  0.55473000  0.19056000  1.0
  H  H41  1  0.49718000  0.94511000  0.30962000  1.0
  H  H42  1  0.24805000  0.44527000  0.80945000  1.0
  H  H43  1  0.50282000  0.05489000  0.69038000  1.0
  H  H44  1  0.36309000  0.31068000  0.02349000  1.0
  H  H45  1  0.69670000  0.18967000  0.47650000  1.0
  H  H46  1  0.63690000  0.68932000  0.97651000  1.0
  H  H47  1  0.30331000  0.81033000  0.52350000  1.0
  H  H48  1  0.24545000  0.19649000  0.05945000  1.0
  H  H49  1  0.50104000  0.30375000  0.44048000  1.0
  H  H50  1  0.75454000  0.80352000  0.94055000  1.0
  H  H51  1  0.49896000  0.69625000  0.55952000  1.0
  H  H52  1  0.48542000  0.16409000  0.06937000  1.0
  H  H53  1  0.71860000  0.33611000  0.43058000  1.0
  H  H54  1  0.51457000  0.83591000  0.93063000  1.0
  H  H55  1  0.28140000  0.66389000  0.56942000  1.0
  C  C56  1  0.13208000  0.61148000  0.13431000  1.0
  C  C57  1  0.87769000  0.88864000  0.36574000  1.0
  C  C58  1  0.86792000  0.38852000  0.86569000  1.0
  C  C59  1  0.12231000  0.11136000  0.63426000  1.0
  C  C60  1  0.65363000  0.87448000  0.17610000  1.0
  C  C61  1  0.70434000  0.62520000  0.32396000  1.0
  C  C62  1  0.34639000  0.12551000  0.82389000  1.0
  C  C63  1  0.29566000  0.37480000  0.67604000  1.0
  C  C64  1  0.70863000  0.86764000  0.07308000  1.0
  C  C65  1  0.64941000  0.63236000  0.42697000  1.0
  C  C66  1  0.29136000  0.13236000  0.92692000  1.0
  C  C67  1  0.35059000  0.36764000  0.57303000  1.0
  C  C68  1  0.29943000  0.87648000  0.17622000  1.0
  C  C69  1  0.35202000  0.62356000  0.32388000  1.0
  C  C70  1  0.70057000  0.12351000  0.82378000  1.0
  C  C71  1  0.64799000  0.37644000  0.67612000  1.0
  C  C72  1  0.35239000  0.87239000  0.07312000  1.0
  C  C73  1  0.29791000  0.62784000  0.42700000  1.0
  C  C74  1  0.64762000  0.12761000  0.92688000  1.0
  C  C75  1  0.70208000  0.37216000  0.57300000  1.0
  C  C76  1  0.80944000  0.31920000  0.04960000  1.0
  C  C77  1  0.17790000  0.18103000  0.45048000  1.0
  C  C78  1  0.19055000  0.68081000  0.95040000  1.0
  C  C79  1  0.82210000  0.81897000  0.54953000  1.0
  C  C80  1  0.18420000  0.42945000  0.20229000  1.0
  C  C81  1  0.81564000  0.07056000  0.29773000  1.0
  C  C82  1  0.81580000  0.57055000  0.79771000  1.0
  C  C83  1  0.18436000  0.92944000  0.70227000  1.0
  C  C84  1  0.25907000  0.31842000  0.16294000  1.0
  C  C85  1  0.73986000  0.18162000  0.33706000  1.0
  C  C86  1  0.74092000  0.68158000  0.83706000  1.0
  C  C87  1  0.26014000  0.81838000  0.66294000  1.0
  C  C88  1  0.73495000  0.42860000  0.08954000  1.0
  C  C89  1  0.25301000  0.07151000  0.41058000  1.0
  C  C90  1  0.26505000  0.57141000  0.91046000  1.0
  C  C91  1  0.74700000  0.92849000  0.58942000  1.0
  C  C92  1  0.87475000  0.13448000  0.11657000  1.0
  C  C93  1  0.12629000  0.36562000  0.38346000  1.0
  C  C94  1  0.12525000  0.86552000  0.88343000  1.0
  C  C95  1  0.87371000  0.63438000  0.61654000  1.0
  C  C96  1  0.73544000  0.38065000  0.14447000  1.0
  C  C97  1  0.26080000  0.11938000  0.35563000  1.0
  C  C98  1  0.26457000  0.61935000  0.85553000  1.0
  C  C99  1  0.73919000  0.88063000  0.64437000  1.0
  C  C100  1  0.66019000  0.48956000  0.19033000  1.0
  C  C101  1  0.34014000  0.01031000  0.30983000  1.0
  C  C102  1  0.33982000  0.51043000  0.80967000  1.0
  C  C103  1  0.65985000  0.98970000  0.69017000  1.0
  C  C104  1  0.26695000  0.36410000  0.10776000  1.0
  C  C105  1  0.73838000  0.13600000  0.39225000  1.0
  C  C106  1  0.73303000  0.63591000  0.89224000  1.0
  C  C107  1  0.26162000  0.86400000  0.60775000  1.0
  C  C108  1  0.34496000  0.25339000  0.06250000  1.0
  C  C109  1  0.66041000  0.24684000  0.43747000  1.0
  C  C110  1  0.65503000  0.74662000  0.93750000  1.0
  C  C111  1  0.33959000  0.75316000  0.56253000  1.0
  N  N112  1  0.12001000  0.57745000  0.18786000  1.0
  N  N113  1  0.88520000  0.92258000  0.31217000  1.0
  N  N114  1  0.88000000  0.42255000  0.81214000  1.0
  N  N115  1  0.11481000  0.07742000  0.68782000  1.0
  N  N116  1  0.88021000  0.17062000  0.06319000  1.0
  N  N117  1  0.11403000  0.32956000  0.43684000  1.0
  N  N118  1  0.11979000  0.82938000  0.93681000  1.0
  N  N119  1  0.88598000  0.67044000  0.56316000  1.0
  N  N120  1  0.24364000  0.88110000  0.04261000  1.0
  N  N121  1  0.16734000  0.61927000  0.45753000  1.0
  N  N122  1  0.75637000  0.11890000  0.95738000  1.0
  N  N123  1  0.83267000  0.38072000  0.54247000  1.0
  N  N124  1  0.16764000  0.87059000  0.20689000  1.0
  N  N125  1  0.24493000  0.62951000  0.29322000  1.0
  N  N126  1  0.83236000  0.12940000  0.79312000  1.0
  N  N127  1  0.75507000  0.37049000  0.70678000  1.0
  N  N128  1  0.84018000  0.87440000  0.04250000  1.0
  N  N129  1  0.75717000  0.62570000  0.45753000  1.0
  N  N130  1  0.15981000  0.12560000  0.95750000  1.0
  N  N131  1  0.24282000  0.37430000  0.54248000  1.0
  N  N132  1  0.76042000  0.86927000  0.20675000  1.0
  N  N133  1  0.83653000  0.63049000  0.29333000  1.0
  N  N134  1  0.23959000  0.13072000  0.79325000  1.0
  N  N135  1  0.16345000  0.36952000  0.70668000  1.0
  N  N136  1  0.80623000  0.23172000  0.15761000  1.0
  N  N137  1  0.19614000  0.26828000  0.34245000  1.0
  N  N138  1  0.19378000  0.76828000  0.84239000  1.0
  N  N139  1  0.80386000  0.73172000  0.65755000  1.0
  N  N140  1  0.20233000  0.51256000  0.09381000  1.0
  N  N141  1  0.80848000  0.98758000  0.40623000  1.0
  N  N142  1  0.79765000  0.48745000  0.90619000  1.0
  N  N143  1  0.19152000  0.01242000  0.59377000  1.0
