# generated using pymatgen
data_Zn8H66C90N2O31
_symmetry_space_group_name_H-M   'P 1'
_cell_length_a   18.33500000
_cell_length_b   18.37070000
_cell_length_c   18.38620000
_cell_angle_alpha   60.25830000
_cell_angle_beta   60.69490000
_cell_angle_gamma   60.48270000
_symmetry_Int_Tables_number   1
_chemical_formula_structural   Zn8H66C90N2O31
_chemical_formula_sum   'Zn8 H66 C90 N2 O31'
_cell_volume   4426.33604885
_cell_formula_units_Z   1
loop_
 _symmetry_equiv_pos_site_id
 _symmetry_equiv_pos_as_xyz
  1  'x, y, z'
loop_
 _atom_site_type_symbol
 _atom_site_label
 _atom_site_symmetry_multiplicity
 _atom_site_fract_x
 _atom_site_fract_y
 _atom_site_fract_z
 _atom_site_occupancy
  Zn  Zn0  1  0.54107000  0.04122000  0.87120000  1.0
  Zn  Zn1  1  0.54274000  0.86515000  0.04436000  1.0
  Zn  Zn2  1  0.37125000  0.04091000  0.04760000  1.0
  Zn  Zn3  1  0.54904000  0.03704000  0.04208000  1.0
  Zn  Zn4  1  0.95416000  0.46042000  0.63127000  1.0
  Zn  Zn5  1  0.12560000  0.46102000  0.45809000  1.0
  Zn  Zn6  1  0.95629000  0.63596000  0.45946000  1.0
  Zn  Zn7  1  0.95674000  0.46251000  0.45244000  1.0
  H  H8  1  0.26554000  0.29573000  0.29430000  1.0
  H  H9  1  0.67182000  0.94183000  0.47673000  1.0
  H  H10  1  0.80310000  0.99207000  0.39760000  1.0
  H  H11  1  0.91929000  0.95094000  0.26481000  1.0
  H  H12  1  0.90478000  0.85815000  0.21314000  1.0
  H  H13  1  0.07775000  0.11758000  0.26906000  1.0
  H  H14  1  0.17560000  0.96208000  0.29661000  1.0
  H  H15  1  0.12371000  0.94393000  0.10296000  1.0
  H  H16  1  0.02588000  0.10217000  0.07311000  1.0
  H  H17  1  0.68977000  0.21077000  0.68844000  1.0
  H  H18  1  0.08712000  0.81401000  0.29886000  1.0
  H  H19  1  0.20203000  0.21765000  0.18115000  1.0
  H  H20  1  0.41298000  0.68705000  0.21629000  1.0
  H  H21  1  0.33086000  0.55008000  0.44069000  1.0
  H  H22  1  0.45213000  0.30102000  0.39457000  1.0
  H  H23  1  0.42822000  0.38092000  0.24760000  1.0
  H  H24  1  0.35573000  0.54525000  0.19777000  1.0
  H  H25  1  0.49127000  0.16507000  0.55618000  1.0
  H  H26  1  0.41996000  0.05359000  0.68218000  1.0
  H  H27  1  0.51180000  0.90526000  0.75606000  1.0
  H  H28  1  0.74538000  0.17612000  0.83953000  1.0
  H  H29  1  0.74723000  0.97574000  0.57674000  1.0
  H  H30  1  0.56302000  0.57085000  0.23882000  1.0
  H  H31  1  0.65548000  0.12501000  0.50328000  1.0
  H  H32  1  0.75864000  0.80999000  0.59303000  1.0
  H  H33  1  0.72543000  0.69273000  0.91078000  1.0
  H  H34  1  0.74252000  0.51851000  0.90544000  1.0
  H  H35  1  0.83037000  0.37271000  0.98761000  1.0
  H  H36  1  0.98573000  0.34559000  0.96508000  1.0
  H  H37  1  0.05324000  0.46483000  0.85876000  1.0
  H  H38  1  0.96579000  0.61002000  0.77484000  1.0
  H  H39  1  0.09150000  0.32349000  0.81215000  1.0
  H  H40  1  0.26588000  0.32378000  0.65387000  1.0
  H  H41  1  0.83841000  0.64979000  0.07511000  1.0
  H  H42  1  0.32774000  0.19044000  0.74716000  1.0
  H  H43  1  0.10081000  0.31040000  0.27500000  1.0
  H  H44  1  0.48083000  0.09325000  0.22084000  1.0
  H  H45  1  0.39516000  0.08327000  0.32636000  1.0
  H  H46  1  0.41540000  0.20295000  0.33808000  1.0
  H  H47  1  0.51616000  0.11217000  0.32518000  1.0
  H  H48  1  0.50118000  0.21158000  0.23328000  1.0
  H  H49  1  0.53367000  0.57294000  0.13113000  1.0
  H  H50  1  0.58127000  0.46243000  0.19602000  1.0
  H  H51  1  0.64275000  0.41247000  0.06511000  1.0
  H  H52  1  0.81033000  0.56718000  0.02257000  1.0
  H  H53  1  0.52520000  0.46036000  0.09824000  1.0
  H  H54  1  0.59153000  0.52291000  0.00280000  1.0
  H  H55  1  0.64163000  0.54560000  0.39571000  1.0
  H  H56  1  0.55732000  0.53477000  0.38318000  1.0
  H  H57  1  0.44195000  0.65147000  0.45328000  1.0
  H  H58  1  0.50217000  0.56138000  0.52574000  1.0
  H  H59  1  0.52599000  0.66285000  0.46556000  1.0
  H  H60  1  0.03524000  0.26222000  0.18425000  1.0
  H  H61  1  0.94303000  0.22627000  0.26816000  1.0
  H  H62  1  0.84742000  0.34693000  0.17069000  1.0
  H  H63  1  0.81368000  0.58847000  0.29027000  1.0
  H  H64  1  0.89150000  0.39038000  0.20179000  1.0
  H  H65  1  0.93951000  0.38433000  0.09337000  1.0
  H  H66  1  0.40680000  0.47129000  0.53267000  1.0
  H  H67  1  0.51314000  0.40122000  0.48570000  1.0
  H  H68  1  0.48636000  0.27153000  0.62853000  1.0
  H  H69  1  0.48492000  0.35958000  0.64554000  1.0
  H  H70  1  0.38364000  0.34572000  0.67471000  1.0
  H  H71  1  0.68605000  0.91437000  0.21112000  1.0
  H  H72  1  0.77492000  0.30280000  0.75961000  1.0
  H  H73  1  0.65748000  0.84939000  0.42417000  1.0
  C  C74  1  0.64005000  0.85927000  0.13752000  1.0
  C  C75  1  0.31913000  0.18786000  0.19769000  1.0
  C  C76  1  0.62387000  0.58736000  0.20178000  1.0
  C  C77  1  0.36115000  0.14132000  0.86576000  1.0
  C  C78  1  0.64140000  0.63220000  0.23152000  1.0
  C  C79  1  0.71758000  0.65691000  0.18590000  1.0
  C  C80  1  0.77828000  0.63189000  0.11098000  1.0
  C  C81  1  0.76283000  0.58658000  0.08069000  1.0
  C  C82  1  0.68417000  0.56565000  0.12529000  1.0
  C  C83  1  0.78576000  0.66057000  0.27152000  1.0
  C  C84  1  0.80382000  0.70230000  0.30442000  1.0
  C  C85  1  0.71060000  0.17589000  0.80565000  1.0
  C  C86  1  0.76820000  0.79557000  0.28263000  1.0
  C  C87  1  0.71500000  0.84244000  0.22867000  1.0
  C  C88  1  0.69715000  0.80082000  0.19555000  1.0
  C  C89  1  0.62719000  0.86043000  0.86345000  1.0
  C  C90  1  0.73321000  0.70749000  0.21695000  1.0
  C  C91  1  0.71492000  0.87166000  0.38943000  1.0
  C  C92  1  0.72310000  0.92337000  0.41903000  1.0
  C  C93  1  0.79669000  0.95170000  0.37455000  1.0
  C  C94  1  0.86186000  0.92853000  0.30012000  1.0
  C  C95  1  0.85359000  0.87688000  0.27071000  1.0
  C  C96  1  0.16324000  0.30584000  0.78016000  1.0
  C  C97  1  0.78031000  0.84745000  0.31541000  1.0
  C  C98  1  0.08775000  0.08081000  0.23149000  1.0
  C  C99  1  0.14315000  0.99232000  0.24721000  1.0
  C  C100  1  0.15679000  0.94156000  0.20206000  1.0
  C  C101  1  0.37071000  0.13217000  0.13911000  1.0
  C  C102  1  0.11358000  0.98214000  0.13933000  1.0
  C  C103  1  0.05907000  0.07046000  0.12213000  1.0
  C  C104  1  0.04482000  0.12051000  0.16875000  1.0
  C  C105  1  0.15918000  0.78678000  0.27912000  1.0
  C  C106  1  0.19847000  0.69442000  0.30902000  1.0
  C  C107  1  0.19565000  0.33320000  0.69118000  1.0
  C  C108  1  0.29173000  0.65597000  0.28712000  1.0
  C  C109  1  0.34097000  0.71378000  0.23467000  1.0
  C  C110  1  0.30153000  0.80643000  0.20304000  1.0
  C  C111  1  0.20826000  0.84482000  0.22625000  1.0
  C  C112  1  0.35423000  0.51304000  0.39764000  1.0
  C  C113  1  0.36178000  0.86078000  0.14214000  1.0
  C  C114  1  0.39511000  0.42053000  0.42539000  1.0
  C  C115  1  0.42136000  0.37300000  0.37142000  1.0
  C  C116  1  0.40776000  0.41822000  0.28946000  1.0
  C  C117  1  0.36780000  0.51023000  0.26113000  1.0
  C  C118  1  0.21880000  0.25394000  0.83724000  1.0
  C  C119  1  0.33918000  0.55799000  0.31592000  1.0
  C  C120  1  0.49167000  0.03721000  0.65915000  1.0
  C  C121  1  0.54317000  0.95374000  0.70075000  1.0
  C  C122  1  0.63566000  0.93074000  0.67172000  1.0
  C  C123  1  0.67539000  0.99306000  0.59971000  1.0
  C  C124  1  0.62368000  0.07696000  0.55869000  1.0
  C  C125  1  0.64704000  0.12631000  0.86218000  1.0
  C  C126  1  0.53162000  0.09940000  0.58821000  1.0
  C  C127  1  0.75148000  0.78554000  0.66286000  1.0
  C  C128  1  0.80228000  0.69799000  0.69905000  1.0
  C  C129  1  0.30162000  0.19694000  0.81188000  1.0
  C  C130  1  0.79394000  0.66282000  0.78960000  1.0
  C  C131  1  0.73261000  0.71759000  0.84089000  1.0
  C  C132  1  0.68226000  0.80511000  0.80461000  1.0
  C  C133  1  0.69073000  0.84056000  0.71394000  1.0
  C  C134  1  0.81117000  0.50602000  0.89408000  1.0
  C  C135  1  0.86065000  0.42418000  0.94004000  1.0
  C  C136  1  0.94797000  0.40876000  0.92723000  1.0
  C  C137  1  0.78263000  0.27135000  0.65931000  1.0
  C  C138  1  0.98567000  0.47583000  0.86766000  1.0
  C  C139  1  0.93657000  0.55744000  0.82079000  1.0
  C  C140  1  0.17159000  0.28777000  0.26450000  1.0
  C  C141  1  0.84873000  0.57324000  0.83366000  1.0
  C  C142  1  0.13408000  0.36818000  0.36088000  1.0
  C  C143  1  0.86014000  0.64287000  0.63989000  1.0
  C  C144  1  0.13666000  0.38027000  0.63697000  1.0
  C  C145  1  0.86001000  0.64403000  0.36335000  1.0
  C  C146  1  0.13761000  0.64054000  0.36352000  1.0
  C  C147  1  0.86378000  0.36338000  0.63500000  1.0
  C  C148  1  0.80389000  0.31003000  0.68963000  1.0
  C  C149  1  0.72388000  0.21776000  0.71824000  1.0
  C  C150  1  0.81338000  0.28069000  0.56783000  1.0
  C  C151  1  0.19639000  0.31480000  0.30299000  1.0
  C  C152  1  0.42942000  0.12858000  0.26752000  1.0
  C  C153  1  0.46744000  0.16646000  0.29248000  1.0
  C  C154  1  0.58848000  0.50990000  0.12776000  1.0
  C  C155  1  0.58722000  0.47428000  0.06985000  1.0
  C  C156  1  0.57560000  0.58130000  0.38726000  1.0
  C  C157  1  0.50727000  0.61647000  0.46234000  1.0
  C  C158  1  0.97165000  0.25869000  0.19648000  1.0
  C  C159  1  0.90892000  0.35033000  0.16334000  1.0
  C  C160  1  0.44617000  0.40230000  0.53376000  1.0
  C  C161  1  0.45037000  0.34098000  0.62591000  1.0
  C  C162  1  0.23018000  0.23031000  0.21229000  1.0
  C  C163  1  0.18010000  0.26752000  0.92062000  1.0
  N  N164  1  0.83186000  0.28213000  0.49672000  1.0
  N  N165  1  0.14315000  0.28681000  0.98461000  1.0
  O  O166  1  0.50093000  0.99620000  0.00049000  1.0
  O  O167  1  0.89350000  0.68071000  0.37703000  1.0
  O  O168  1  0.17100000  0.55907000  0.37017000  1.0
  O  O169  1  0.60296000  0.94112000  0.13225000  1.0
  O  O170  1  0.89369000  0.37941000  0.55185000  1.0
  O  O171  1  0.05630000  0.68118000  0.39823000  1.0
  O  O172  1  0.87930000  0.38811000  0.67847000  1.0
  O  O173  1  0.05438000  0.38974000  0.67720000  1.0
  O  O174  1  0.87009000  0.56130000  0.39504000  1.0
  O  O175  1  0.16979000  0.37633000  0.40043000  1.0
  O  O176  1  0.88209000  0.68462000  0.55664000  1.0
  O  O177  1  0.62059000  0.94230000  0.82657000  1.0
  O  O178  1  0.44246000  0.10914000  0.82309000  1.0
  O  O179  1  0.59434000  0.82073000  0.94581000  1.0
  O  O180  1  0.32838000  0.09810000  0.13343000  1.0
  O  O181  1  0.44410000  0.82069000  0.13400000  1.0
  O  O182  1  0.63687000  0.09405000  0.94488000  1.0
  O  O183  1  0.32699000  0.94240000  0.10152000  1.0
  O  O184  1  0.60809000  0.12061000  0.82460000  1.0
  O  O185  1  0.36381000  0.20314000  0.22671000  1.0
  O  O186  1  0.67172000  0.52464000  0.08924000  1.0
  O  O187  1  0.58092000  0.65598000  0.30584000  1.0
  O  O188  1  0.45248000  0.12503000  0.09889000  1.0
  O  O189  1  0.98805000  0.20572000  0.14941000  1.0
  O  O190  1  0.40723000  0.37136000  0.50731000  1.0
  O  O191  1  0.63287000  0.82508000  0.09671000  1.0
  O  O192  1  0.32680000  0.13013000  0.94816000  1.0
  O  O193  1  0.99558000  0.50541000  0.50190000  1.0
  O  O194  1  0.05150000  0.40151000  0.36905000  1.0
  O  O195  1  0.88062000  0.55894000  0.67752000  1.0
  O  O196  1  0.17538000  0.40657000  0.55342000  1.0
