# generated using pymatgen
data_Zn3H16C23O16
_symmetry_space_group_name_H-M   'P 1'
_cell_length_a   11.74510000
_cell_length_b   15.46040000
_cell_length_c   16.50390000
_cell_angle_alpha   90.00000000
_cell_angle_beta   90.00010000
_cell_angle_gamma   89.99990000
_symmetry_Int_Tables_number   1
_chemical_formula_structural   Zn3H16C23O16
_chemical_formula_sum   'Zn6 H32 C46 O32'
_cell_volume   2996.84325403
_cell_formula_units_Z   2
loop_
 _symmetry_equiv_pos_site_id
 _symmetry_equiv_pos_as_xyz
  1  'x, y, z'
loop_
 _atom_site_type_symbol
 _atom_site_label
 _atom_site_symmetry_multiplicity
 _atom_site_fract_x
 _atom_site_fract_y
 _atom_site_fract_z
 _atom_site_occupancy
  Zn  Zn0  1  0.40051000  0.17350000  0.89989000  1.0
  Zn  Zn1  1  0.59949000  0.67351000  0.60011000  1.0
  Zn  Zn2  1  0.59949000  0.67350000  0.39989000  1.0
  Zn  Zn3  1  0.40051000  0.17350000  0.10011000  1.0
  Zn  Zn4  1  0.65276000  0.11737000  1.00000000  1.0
  Zn  Zn5  1  0.34724000  0.61737000  0.50000000  1.0
  H  H6  1  0.44607000  0.05513000  0.00000000  1.0
  H  H7  1  0.55393000  0.55513000  0.50000000  1.0
  H  H8  1  0.66666667  0.95748000  0.92081000  1.0
  H  H9  1  0.33333333  0.45748000  0.57919000  1.0
  H  H10  1  0.33333333  0.45748000  0.42081000  1.0
  H  H11  1  0.66666667  0.95748000  0.07919000  1.0
  H  H12  1  0.59401000  0.02348000  0.86965000  1.0
  H  H13  1  0.40599000  0.52348000  0.63035000  1.0
  H  H14  1  0.40599000  0.52348000  0.36965000  1.0
  H  H15  1  0.59401000  0.02348000  0.13035000  1.0
  H  H16  1  0.87209000  0.08166000  0.95252000  1.0
  H  H17  1  0.12792000  0.58166000  0.54748000  1.0
  H  H18  1  0.12792000  0.58166000  0.45252000  1.0
  H  H19  1  0.87208000  0.08166000  0.04748000  1.0
  H  H20  1  0.53171000  0.38393000  0.77063000  1.0
  H  H21  1  0.46829000  0.88392000  0.72937000  1.0
  H  H22  1  0.46829000  0.88393000  0.27064000  1.0
  H  H23  1  0.53171000  0.38392000  0.22936000  1.0
  H  H24  1  0.83310000  0.54242000  0.75748000  1.0
  H  H25  1  0.16690000  0.04242000  0.74252000  1.0
  H  H26  1  0.16690000  0.04242000  0.25749000  1.0
  H  H27  1  0.83310000  0.54242000  0.24252000  1.0
  H  H28  1  0.83132000  0.31059000  0.90413000  1.0
  H  H29  1  0.16868000  0.81059000  0.59586000  1.0
  H  H30  1  0.16868000  0.81059000  0.40413000  1.0
  H  H31  1  0.83133000  0.31059000  0.09587000  1.0
  H  H32  1  0.87495000  0.48872000  0.00000000  1.0
  H  H33  1  0.12505000  0.98872000  0.50000000  1.0
  H  H34  1  0.12836000  0.34240000  0.86916000  1.0
  H  H35  1  0.87163000  0.84241000  0.63084000  1.0
  H  H36  1  0.87163000  0.84241000  0.36916000  1.0
  H  H37  1  0.12837000  0.34240000  0.13084000  1.0
  C  C38  1  0.67626000  0.33936000  0.83996000  1.0
  C  C39  1  0.32374000  0.83936000  0.66004000  1.0
  C  C40  1  0.32374000  0.83935000  0.33997000  1.0
  C  C41  1  0.67627000  0.33935000  0.16003000  1.0
  C  C42  1  0.61972000  0.39596000  0.78773000  1.0
  C  C43  1  0.38028000  0.89595000  0.71228000  1.0
  C  C44  1  0.38029000  0.89596000  0.28773000  1.0
  C  C45  1  0.61971000  0.39595000  0.21227000  1.0
  C  C46  1  0.67660000  0.46850000  0.75737000  1.0
  C  C47  1  0.32339000  0.96849000  0.74263000  1.0
  C  C48  1  0.32340000  0.96850000  0.25737000  1.0
  C  C49  1  0.67660000  0.46850000  0.24263000  1.0
  C  C50  1  0.78908000  0.48551000  0.78055000  1.0
  C  C51  1  0.21092000  0.98551000  0.71945000  1.0
  C  C52  1  0.21093000  0.98551000  0.28055000  1.0
  C  C53  1  0.78907000  0.48551000  0.21945000  1.0
  C  C54  1  0.84387000  0.42936000  0.83414000  1.0
  C  C55  1  0.15613000  0.92936000  0.66586000  1.0
  C  C56  1  0.15613000  0.92936000  0.33414000  1.0
  C  C57  1  0.84387000  0.42936000  0.16586000  1.0
  C  C58  1  0.78883000  0.35566000  0.86341000  1.0
  C  C59  1  0.21117000  0.85566000  0.63659000  1.0
  C  C60  1  0.21117000  0.85566000  0.36341000  1.0
  C  C61  1  0.78883000  0.35566000  0.13659000  1.0
  C  C62  1  0.61657000  0.26130000  0.87264000  1.0
  C  C63  1  0.38343000  0.76130000  0.62736000  1.0
  C  C64  1  0.38343000  0.76130000  0.37264000  1.0
  C  C65  1  0.61658000  0.26129000  0.12736000  1.0
  C  C66  1  0.61500000  0.52821000  0.70082000  1.0
  C  C67  1  0.38500000  0.02821000  0.79918000  1.0
  C  C68  1  0.38500000  0.02821000  0.20082000  1.0
  C  C69  1  0.61500000  0.52821000  0.29918000  1.0
  C  C70  1  0.99743000  0.41842000  0.92724000  1.0
  C  C71  1  0.00257000  0.91842000  0.57276000  1.0
  C  C72  1  0.00257000  0.91841000  0.42724000  1.0
  C  C73  1  0.99743000  0.41841000  0.07276000  1.0
  C  C74  1  0.94881000  0.44610000  1.00000000  1.0
  C  C75  1  0.05119000  0.94610000  0.50000000  1.0
  C  C76  1  0.09174000  0.36397000  0.92627000  1.0
  C  C77  1  0.90826000  0.86398000  0.57372000  1.0
  C  C78  1  0.90826000  0.86398000  0.42627000  1.0
  C  C79  1  0.09174000  0.36397000  0.07372000  1.0
  C  C80  1  0.13848000  0.33660000  0.00000000  1.0
  C  C81  1  0.86151000  0.83660000  0.50000000  1.0
  C  C82  1  0.23686000  0.27498000  1.00000000  1.0
  C  C83  1  0.76314000  0.77498000  0.50000000  1.0
  O  O84  1  0.67547000  0.20670000  0.91158000  1.0
  O  O85  1  0.32452000  0.70669000  0.58842000  1.0
  O  O86  1  0.32452000  0.70669000  0.41158000  1.0
  O  O87  1  0.67549000  0.20669000  0.08842000  1.0
  O  O88  1  0.50950000  0.25671000  0.85847000  1.0
  O  O89  1  0.49050000  0.75671000  0.64153000  1.0
  O  O90  1  0.49049000  0.75671000  0.35848000  1.0
  O  O91  1  0.50952000  0.25670000  0.14152000  1.0
  O  O92  1  0.51126000  0.51462000  0.68672000  1.0
  O  O93  1  0.48874000  0.01462000  0.81328000  1.0
  O  O94  1  0.48874000  0.01463000  0.18673000  1.0
  O  O95  1  0.51126000  0.51462000  0.31328000  1.0
  O  O96  1  0.67472000  0.59045000  0.67020000  1.0
  O  O97  1  0.32528000  0.09045000  0.82980000  1.0
  O  O98  1  0.32527000  0.09045000  0.17021000  1.0
  O  O99  1  0.67473000  0.59045000  0.32979000  1.0
  O  O100  1  0.95574000  0.44868000  0.85366000  1.0
  O  O101  1  0.04426000  0.94868000  0.64634000  1.0
  O  O102  1  0.04426000  0.94868000  0.35366000  1.0
  O  O103  1  0.95574000  0.44868000  0.14634000  1.0
  O  O104  1  0.27419000  0.25080000  0.93117000  1.0
  O  O105  1  0.72580000  0.75080000  0.56882000  1.0
  O  O106  1  0.72580000  0.75080000  0.43118000  1.0
  O  O107  1  0.27419000  0.25080000  0.06882000  1.0
  O  O108  1  0.46851000  0.11577000  0.00000000  1.0
  O  O109  1  0.53150000  0.61577000  0.50000000  1.0
  O  O110  1  0.66120000  0.01873000  0.90829000  1.0
  O  O111  1  0.33880000  0.51873000  0.59171000  1.0
  O  O112  1  0.33880000  0.51873000  0.40829000  1.0
  O  O113  1  0.66120000  0.01873000  0.09171000  1.0
  O  O114  1  0.84279000  0.11161000  0.00000000  1.0
  O  O115  1  0.15721000  0.61161000  0.50000000  1.0
