# generated using pymatgen
data_CuH22C18(N2Cl)2
_symmetry_space_group_name_H-M   'P 1'
_cell_length_a   8.36943000
_cell_length_b   8.46824000
_cell_length_c   15.96920000
_cell_angle_alpha   81.22940000
_cell_angle_beta   74.83120000
_cell_angle_gamma   60.40800000
_symmetry_Int_Tables_number   1
_chemical_formula_structural   CuH22C18(N2Cl)2
_chemical_formula_sum   'Cu2 H44 C36 N8 Cl4'
_cell_volume   949.52347313
_cell_formula_units_Z   2
loop_
 _symmetry_equiv_pos_site_id
 _symmetry_equiv_pos_as_xyz
  1  'x, y, z'
loop_
 _atom_site_type_symbol
 _atom_site_label
 _atom_site_symmetry_multiplicity
 _atom_site_fract_x
 _atom_site_fract_y
 _atom_site_fract_z
 _atom_site_occupancy
  Cu  Cu0  1  0.00000000  0.00000000  0.50000000  1.0
  Cu  Cu1  1  0.50000000  0.50000000  0.00000000  1.0
  H  H2  1  0.28199000  0.61244000  0.47805000  1.0
  H  H3  1  0.37295000  0.88779000  0.02197000  1.0
  H  H4  1  0.71801000  0.38756000  0.52194000  1.0
  H  H5  1  0.62705000  0.11221000  0.97803000  1.0
  H  H6  1  0.30740000  0.40992000  0.53843000  1.0
  H  H7  1  0.25630000  0.09024000  0.96157000  1.0
  H  H8  1  0.69260000  0.59008000  0.46157000  1.0
  H  H9  1  0.74371000  0.90976000  0.03843000  1.0
  H  H10  1  0.31410000  0.58272000  0.58633000  1.0
  H  H11  1  0.48352000  0.91750000  0.91370000  1.0
  H  H12  1  0.68590000  0.41728000  0.41366000  1.0
  H  H13  1  0.51648000  0.08249000  0.08630000  1.0
  H  H14  1  0.97375000  0.42073000  0.64201000  1.0
  H  H15  1  0.03706000  0.07951000  0.85794000  1.0
  H  H16  1  0.02625000  0.57927000  0.35799000  1.0
  H  H17  1  0.96293000  0.92049000  0.14206000  1.0
  H  H18  1  0.58638000  0.56319000  0.69775000  1.0
  H  H19  1  0.84745000  0.93717000  0.80222000  1.0
  H  H20  1  0.41363000  0.43681000  0.30225000  1.0
  H  H21  1  0.15256000  0.06283000  0.19778000  1.0
  H  H22  1  0.45076000  0.77637000  0.64839000  1.0
  H  H23  1  0.87557000  0.72399000  0.85163000  1.0
  H  H24  1  0.54925000  0.22363000  0.35162000  1.0
  H  H25  1  0.12443000  0.27601000  0.14837000  1.0
  H  H26  1  0.51022000  0.76792000  0.74815000  1.0
  H  H27  1  0.02616000  0.73239000  0.75184000  1.0
  H  H28  1  0.48978000  0.23207000  0.25185000  1.0
  H  H29  1  0.97384000  0.26761000  0.24816000  1.0
  H  H30  1  0.48172000  0.01896000  0.57538000  1.0
  H  H31  1  0.07581000  0.48151000  0.92448000  1.0
  H  H32  1  0.51829000  0.98103000  0.42462000  1.0
  H  H33  1  0.92419000  0.51849000  0.07552000  1.0
  H  H34  1  0.64214000  0.10633000  0.53937000  1.0
  H  H35  1  0.28740000  0.39404000  0.96066000  1.0
  H  H36  1  0.35786000  0.89367000  0.46063000  1.0
  H  H37  1  0.71261000  0.60596000  0.03934000  1.0
  H  H38  1  0.74954000  0.15738000  0.68440000  1.0
  H  H39  1  0.59071000  0.34366000  0.81562000  1.0
  H  H40  1  0.25045000  0.84262000  0.31560000  1.0
  H  H41  1  0.40929000  0.65634000  0.18437000  1.0
  H  H42  1  0.23607000  0.15360000  0.68507000  1.0
  H  H43  1  0.07499000  0.34559000  0.81501000  1.0
  H  H44  1  0.76393000  0.84640000  0.31493000  1.0
  H  H45  1  0.92501000  0.65441000  0.18499000  1.0
  C  C46  1  0.24695000  0.55707000  0.54301000  1.0
  C  C47  1  0.34747000  0.94309000  0.95700000  1.0
  C  C48  1  0.75305000  0.44293000  0.45699000  1.0
  C  C49  1  0.65253000  0.05691000  0.04300000  1.0
  C  C50  1  0.03923000  0.64122000  0.57625000  1.0
  C  C51  1  0.25704000  0.85895000  0.92375000  1.0
  C  C52  1  0.96077000  0.35878000  0.42375000  1.0
  C  C53  1  0.74296000  0.14105000  0.07625000  1.0
  C  C54  1  0.92699000  0.56250000  0.62288000  1.0
  C  C55  1  0.11272000  0.93776000  0.87710000  1.0
  C  C56  1  0.07302000  0.43750000  0.37712000  1.0
  C  C57  1  0.88727000  0.06225000  0.12290000  1.0
  C  C58  1  0.74187000  0.70211000  0.63817000  1.0
  C  C59  1  0.08228000  0.79820000  0.86180000  1.0
  C  C60  1  0.25813000  0.29789000  0.36184000  1.0
  C  C61  1  0.91772000  0.20180000  0.13820000  1.0
  C  C62  1  0.56299000  0.70288000  0.68504000  1.0
  C  C63  1  0.95095000  0.79747000  0.81495000  1.0
  C  C64  1  0.43702000  0.29711000  0.31497000  1.0
  C  C65  1  0.04906000  0.20253000  0.18504000  1.0
  C  C66  1  0.58978000  0.03585000  0.59404000  1.0
  C  C67  1  0.21944000  0.46447000  0.90592000  1.0
  C  C68  1  0.41022000  0.96415000  0.40596000  1.0
  C  C69  1  0.78056000  0.53553000  0.09408000  1.0
  C  C70  1  0.50215000  0.14385000  0.67576000  1.0
  C  C71  1  0.32155000  0.35640000  0.82424000  1.0
  C  C72  1  0.49785000  0.85615000  0.32424000  1.0
  C  C73  1  0.67845000  0.64360000  0.17576000  1.0
  C  C74  1  0.60127000  0.19811000  0.71292000  1.0
  C  C75  1  0.51194000  0.30253000  0.78709000  1.0
  C  C76  1  0.39872000  0.80189000  0.28708000  1.0
  C  C77  1  0.48806000  0.69747000  0.21291000  1.0
  C  C78  1  0.31334000  0.19653000  0.71347000  1.0
  C  C79  1  0.22339000  0.30321000  0.78656000  1.0
  C  C80  1  0.68665000  0.80347000  0.28653000  1.0
  C  C81  1  0.77660000  0.69679000  0.21344000  1.0
  N  N82  1  0.74793000  0.85569000  0.60086000  1.0
  N  N83  1  0.20451000  0.64458000  0.89911000  1.0
  N  N84  1  0.25207000  0.14431000  0.39914000  1.0
  N  N85  1  0.79549000  0.35542000  0.10089000  1.0
  N  N86  1  0.92781000  0.81966000  0.56356000  1.0
  N  N87  1  0.31116000  0.68053000  0.93644000  1.0
  N  N88  1  0.07219000  0.18035000  0.43644000  1.0
  N  N89  1  0.68883000  0.31947000  0.06356000  1.0
  Cl  Cl90  1  0.11197000  0.00972000  0.61477000  1.0
  Cl  Cl91  1  0.73644000  0.49050000  0.88533000  1.0
  Cl  Cl92  1  0.88803000  0.99028000  0.38523000  1.0
  Cl  Cl93  1  0.26355000  0.50951000  0.11467000  1.0
