# generated using pymatgen
data_NiH20C26S2(N2Cl)2
_symmetry_space_group_name_H-M   'P 1'
_cell_length_a   9.06512000
_cell_length_b   10.41320000
_cell_length_c   14.82200000
_cell_angle_alpha   74.80880000
_cell_angle_beta   79.35050000
_cell_angle_gamma   69.34150000
_symmetry_Int_Tables_number   1
_chemical_formula_structural   NiH20C26S2(N2Cl)2
_chemical_formula_sum   'Ni2 H40 C52 S4 N8 Cl4'
_cell_volume   1256.81306218
_cell_formula_units_Z   2
loop_
 _symmetry_equiv_pos_site_id
 _symmetry_equiv_pos_as_xyz
  1  'x, y, z'
loop_
 _atom_site_type_symbol
 _atom_site_label
 _atom_site_symmetry_multiplicity
 _atom_site_fract_x
 _atom_site_fract_y
 _atom_site_fract_z
 _atom_site_occupancy
  Ni  Ni0  1  0.50000000  0.50000000  0.50000000  1.0
  Ni  Ni1  1  0.00001000  0.99999000  0.50000000  1.0
  H  H2  1  0.82874000  0.43806000  0.43120000  1.0
  H  H3  1  0.17127000  0.56192000  0.56880000  1.0
  H  H4  1  0.99876000  0.57053000  0.32521000  1.0
  H  H5  1  0.00126000  0.42946000  0.67479000  1.0
  H  H6  1  0.58117000  0.93751000  0.29435000  1.0
  H  H7  1  0.41884000  0.06248000  0.70566000  1.0
  H  H8  1  0.43020000  0.79237000  0.40481000  1.0
  H  H9  1  0.56981000  0.20762000  0.59518000  1.0
  H  H10  1  0.02401000  0.78186000  0.22232000  1.0
  H  H11  1  0.97600000  0.21813000  0.77767000  1.0
  H  H12  1  0.90356000  0.93274000  0.26287000  1.0
  H  H13  1  0.09643000  0.06726000  0.73714000  1.0
  H  H14  1  0.77178000  0.73910000  0.12765000  1.0
  H  H15  1  0.22823000  0.26093000  0.87235000  1.0
  H  H16  1  0.67855000  0.84472000  0.97008000  1.0
  H  H17  1  0.32146000  0.15530000  0.02993000  1.0
  H  H18  1  0.79465000  0.21445000  0.96368000  1.0
  H  H19  1  0.20533000  0.78554000  0.03633000  1.0
  H  H20  1  0.88227000  0.11099000  0.12341000  1.0
  H  H21  1  0.11772000  0.88902000  0.87659000  1.0
  H  H22  1  0.82087000  0.83085000  0.47865000  1.0
  H  H23  1  0.17916000  0.16915000  0.52136000  1.0
  H  H24  1  0.67397000  0.67933000  0.58671000  1.0
  H  H25  1  0.32606000  0.32067000  0.41328000  1.0
  H  H26  1  0.79578000  0.78941000  0.81804000  1.0
  H  H27  1  0.20423000  0.21057000  0.18195000  1.0
  H  H28  1  0.93858000  0.93522000  0.70075000  1.0
  H  H29  1  0.06143000  0.06477000  0.29926000  1.0
  H  H30  1  0.50038000  0.70060000  0.78050000  1.0
  H  H31  1  0.49963000  0.29938000  0.21949000  1.0
  H  H32  1  0.63530000  0.54583000  0.75132000  1.0
  H  H33  1  0.36471000  0.45417000  0.24866000  1.0
  H  H34  1  0.46125000  0.72323000  0.93819000  1.0
  H  H35  1  0.53874000  0.27677000  0.06180000  1.0
  H  H36  1  0.53500000  0.63822000  0.10174000  1.0
  H  H37  1  0.46499000  0.36179000  0.89824000  1.0
  H  H38  1  0.97326000  0.34872000  0.00597000  1.0
  H  H39  1  0.02674000  0.65128000  0.99403000  1.0
  H  H40  1  0.89838000  0.43374000  0.84299000  1.0
  H  H41  1  0.10163000  0.56625000  0.15700000  1.0
  C  C42  1  0.83977000  0.23848000  0.59850000  1.0
  C  C43  1  0.16025000  0.76150000  0.40150000  1.0
  C  C44  1  0.35534000  0.73974000  0.59906000  1.0
  C  C45  1  0.64466000  0.26028000  0.40095000  1.0
  C  C46  1  0.77969000  0.54897000  0.39950000  1.0
  C  C47  1  0.22030000  0.45104000  0.60050000  1.0
  C  C48  1  0.87230000  0.62370000  0.33912000  1.0
  C  C49  1  0.12770000  0.37631000  0.66089000  1.0
  C  C50  1  0.80417000  0.76575000  0.29848000  1.0
  C  C51  1  0.19583000  0.23425000  0.70153000  1.0
  C  C52  1  0.64173000  0.82710000  0.32275000  1.0
  C  C53  1  0.35828000  0.17290000  0.67725000  1.0
  C  C54  1  0.55578000  0.74736000  0.38408000  1.0
  C  C55  1  0.44423000  0.25265000  0.61592000  1.0
  C  C56  1  0.89994000  0.84954000  0.23111000  1.0
  C  C57  1  0.10007000  0.15046000  0.76889000  1.0
  C  C58  1  0.83690000  0.91616000  0.13638000  1.0
  C  C59  1  0.16310000  0.08382000  0.86364000  1.0
  C  C60  1  0.77858000  0.84314000  0.09193000  1.0
  C  C61  1  0.22140000  0.15687000  0.90808000  1.0
  C  C62  1  0.72623000  0.90170000  0.00287000  1.0
  C  C63  1  0.27375000  0.09829000  0.99714000  1.0
  C  C64  1  0.73352000  0.03500000  0.95717000  1.0
  C  C65  1  0.26647000  0.96501000  0.04282000  1.0
  C  C66  1  0.79018000  0.11029000  0.99998000  1.0
  C  C67  1  0.20979000  0.88973000  0.00002000  1.0
  C  C68  1  0.84000000  0.05103000  0.08960000  1.0
  C  C69  1  0.16000000  0.94897000  0.91041000  1.0
  C  C70  1  0.81222000  0.81795000  0.55439000  1.0
  C  C71  1  0.18780000  0.18205000  0.44561000  1.0
  C  C72  1  0.73006000  0.73458000  0.61546000  1.0
  C  C73  1  0.26995000  0.26542000  0.38453000  1.0
  C  C74  1  0.72066000  0.72147000  0.71282000  1.0
  C  C75  1  0.27934000  0.27853000  0.28717000  1.0
  C  C76  1  0.79746000  0.79515000  0.74351000  1.0
  C  C77  1  0.20254000  0.20484000  0.25648000  1.0
  C  C78  1  0.87788000  0.87700000  0.67892000  1.0
  C  C79  1  0.12213000  0.12299000  0.32109000  1.0
  C  C80  1  0.62653000  0.63570000  0.78016000  1.0
  C  C81  1  0.37349000  0.36429000  0.21983000  1.0
  C  C82  1  0.67351000  0.58461000  0.87888000  1.0
  C  C83  1  0.32647000  0.41538000  0.12112000  1.0
  C  C84  1  0.57394000  0.64124000  0.95267000  1.0
  C  C85  1  0.42605000  0.35878000  0.04732000  1.0
  C  C86  1  0.61433000  0.59379000  0.04486000  1.0
  C  C87  1  0.38566000  0.40622000  0.95513000  1.0
  C  C88  1  0.75818000  0.48832000  0.06322000  1.0
  C  C89  1  0.24180000  0.51170000  0.93679000  1.0
  C  C90  1  0.86100000  0.43072000  0.99080000  1.0
  C  C91  1  0.13898000  0.56929000  0.00920000  1.0
  C  C92  1  0.81781000  0.47909000  0.89932000  1.0
  C  C93  1  0.18218000  0.52091000  0.10068000  1.0
  S  S94  1  0.74230000  0.37183000  0.64484000  1.0
  S  S95  1  0.25770000  0.62814000  0.35516000  1.0
  S  S96  1  0.28783000  0.87742000  0.64369000  1.0
  S  S97  1  0.71216000  0.12258000  0.35632000  1.0
  N  N98  1  0.90969000  0.13971000  0.56446000  1.0
  N  N99  1  0.09033000  0.86028000  0.43555000  1.0
  N  N100  1  0.40542000  0.63819000  0.56635000  1.0
  N  N101  1  0.59456000  0.36183000  0.43365000  1.0
  N  N102  1  0.62349000  0.60970000  0.42135000  1.0
  N  N103  1  0.37651000  0.39030000  0.57865000  1.0
  N  N104  1  0.88548000  0.88836000  0.58558000  1.0
  N  N105  1  0.11454000  0.11164000  0.41441000  1.0
  Cl  Cl106  1  0.67168000  0.10930000  0.84550000  1.0
  Cl  Cl107  1  0.32830000  0.89070000  0.15450000  1.0
  Cl  Cl108  1  0.80957000  0.42718000  0.17755000  1.0
  Cl  Cl109  1  0.19039000  0.57284000  0.82245000  1.0
