# generated using pymatgen
data_Cu2H8C4SI2
_symmetry_space_group_name_H-M   'P 1'
_cell_length_a   11.51330000
_cell_length_b   11.67720000
_cell_length_c   13.37620000
_cell_angle_alpha   90.00000000
_cell_angle_beta   90.00000000
_cell_angle_gamma   90.00000000
_symmetry_Int_Tables_number   1
_chemical_formula_structural   Cu2H8C4SI2
_chemical_formula_sum   'Cu16 H64 C32 S8 I16'
_cell_volume   1798.33788464
_cell_formula_units_Z   8
loop_
 _symmetry_equiv_pos_site_id
 _symmetry_equiv_pos_as_xyz
  1  'x, y, z'
loop_
 _atom_site_type_symbol
 _atom_site_label
 _atom_site_symmetry_multiplicity
 _atom_site_fract_x
 _atom_site_fract_y
 _atom_site_fract_z
 _atom_site_occupancy
  Cu  Cu0  1  0.50721000  0.25892000  0.79395000  1.0
  Cu  Cu1  1  0.99279000  0.74108000  0.29394000  1.0
  Cu  Cu2  1  0.49279000  0.75892000  0.70605000  1.0
  Cu  Cu3  1  0.00721000  0.24108000  0.20606000  1.0
  Cu  Cu4  1  0.30731000  0.24586000  0.88290000  1.0
  Cu  Cu5  1  0.19269000  0.75414000  0.38289000  1.0
  Cu  Cu6  1  0.69269000  0.74586000  0.61711000  1.0
  Cu  Cu7  1  0.80731000  0.25414000  0.11711000  1.0
  Cu  Cu8  1  0.43071000  0.05621000  0.85395000  1.0
  Cu  Cu9  1  0.06929000  0.94379000  0.35395000  1.0
  Cu  Cu10  1  0.56929000  0.55621000  0.64605000  1.0
  Cu  Cu11  1  0.93071000  0.44379000  0.14605000  1.0
  Cu  Cu12  1  0.50389000  0.20332000  0.98186000  1.0
  Cu  Cu13  1  0.99611000  0.79668000  0.48186000  1.0
  Cu  Cu14  1  0.49611000  0.70332000  0.51814000  1.0
  Cu  Cu15  1  0.00389000  0.29668000  0.01814000  1.0
  H  H16  1  0.50748000  0.23982000  0.55494000  1.0
  H  H17  1  0.99252000  0.76018000  0.05494000  1.0
  H  H18  1  0.49252000  0.73982000  0.94506000  1.0
  H  H19  1  0.00748000  0.26018000  0.44506000  1.0
  H  H20  1  0.59262000  0.35015000  0.49481000  1.0
  H  H21  1  0.90738000  0.64985000  0.99481000  1.0
  H  H22  1  0.40738000  0.85014000  0.00518000  1.0
  H  H23  1  0.09262000  0.14985000  0.50519000  1.0
  H  H24  1  0.71468000  0.17540000  0.48114000  1.0
  H  H25  1  0.78532000  0.82460000  0.98114000  1.0
  H  H26  1  0.28532000  0.67539000  0.01886000  1.0
  H  H27  1  0.21468000  0.32460000  0.51886000  1.0
  H  H28  1  0.68156000  0.13730000  0.60649000  1.0
  H  H29  1  0.81844000  0.86270000  0.10649000  1.0
  H  H30  1  0.31844000  0.63730000  0.89351000  1.0
  H  H31  1  0.18156000  0.36270000  0.39351000  1.0
  H  H32  1  0.87451000  0.23182000  0.61082000  1.0
  H  H33  1  0.62549000  0.76818000  0.11082000  1.0
  H  H34  1  0.12549000  0.73182000  0.88917000  1.0
  H  H35  1  0.37451000  0.26818000  0.38918000  1.0
  H  H36  1  0.82125000  0.34720000  0.53712000  1.0
  H  H37  1  0.67875000  0.65280000  0.03712000  1.0
  H  H38  1  0.17875000  0.84720000  0.96288000  1.0
  H  H39  1  0.32125000  0.15280000  0.46289000  1.0
  H  H40  1  0.79384000  0.42983000  0.70001000  1.0
  H  H41  1  0.70617000  0.57017000  0.20001000  1.0
  H  H42  1  0.20616000  0.92983000  0.79999000  1.0
  H  H43  1  0.29384000  0.07017000  0.29999000  1.0
  H  H44  1  0.76631000  0.29332000  0.75650000  1.0
  H  H45  1  0.73369000  0.70668000  0.25650000  1.0
  H  H46  1  0.23369000  0.79332000  0.74350000  1.0
  H  H47  1  0.26631000  0.20668000  0.24350000  1.0
  H  H48  1  0.08393000  0.20867000  0.73669000  1.0
  H  H49  1  0.41607000  0.79133000  0.23669000  1.0
  H  H50  1  0.91607000  0.70867000  0.76331000  1.0
  H  H51  1  0.58393000  0.29133000  0.26331000  1.0
  H  H52  1  0.95553000  0.27740000  0.78508000  1.0
  H  H53  1  0.54447000  0.72260000  0.28509000  1.0
  H  H54  1  0.04447000  0.77741000  0.71491000  1.0
  H  H55  1  0.45553000  0.22260000  0.21491000  1.0
  H  H56  1  0.15811000  0.38854000  0.67001000  1.0
  H  H57  1  0.34189000  0.61146000  0.17001000  1.0
  H  H58  1  0.84189000  0.88854000  0.82999000  1.0
  H  H59  1  0.65811000  0.11146000  0.32999000  1.0
  H  H60  1  0.00898000  0.39456000  0.63644000  1.0
  H  H61  1  0.49102000  0.60545000  0.13644000  1.0
  H  H62  1  0.99102000  0.89456000  0.86356000  1.0
  H  H63  1  0.50898000  0.10545000  0.36356000  1.0
  H  H64  1  0.96537000  0.50891000  0.78929000  1.0
  H  H65  1  0.53462000  0.49109000  0.28929000  1.0
  H  H66  1  0.03463000  0.00891000  0.71071000  1.0
  H  H67  1  0.46537000  0.99109000  0.21072000  1.0
  H  H68  1  0.08645000  0.57511000  0.72912000  1.0
  H  H69  1  0.41355000  0.42489000  0.22911000  1.0
  H  H70  1  0.91355000  0.07511000  0.77089000  1.0
  H  H71  1  0.58645000  0.92489000  0.27089000  1.0
  H  H72  1  0.10211000  0.51856000  0.92754000  1.0
  H  H73  1  0.39789000  0.48144000  0.42754000  1.0
  H  H74  1  0.89789000  0.01856000  0.57246000  1.0
  H  H75  1  0.60211000  0.98143000  0.07246000  1.0
  H  H76  1  0.22331000  0.49355000  0.84620000  1.0
  H  H77  1  0.27669000  0.50645000  0.34620000  1.0
  H  H78  1  0.77669000  0.99355000  0.65380000  1.0
  H  H79  1  0.72330000  0.00645000  0.15381000  1.0
  C  C80  1  0.59013000  0.28658000  0.55538000  1.0
  C  C81  1  0.90987000  0.71342000  0.05538000  1.0
  C  C82  1  0.40987000  0.78658000  0.94462000  1.0
  C  C83  1  0.09013000  0.21342000  0.44462000  1.0
  C  C84  1  0.69698000  0.20997000  0.55604000  1.0
  C  C85  1  0.80302000  0.79003000  0.05604000  1.0
  C  C86  1  0.30302000  0.70996000  0.94396000  1.0
  C  C87  1  0.19698000  0.29003000  0.44397000  1.0
  C  C88  1  0.79722000  0.28373000  0.59428000  1.0
  C  C89  1  0.70278000  0.71627000  0.09428000  1.0
  C  C90  1  0.20278000  0.78373000  0.90572000  1.0
  C  C91  1  0.29722000  0.21627000  0.40572000  1.0
  C  C92  1  0.75525000  0.34499000  0.68860000  1.0
  C  C93  1  0.74475000  0.65501000  0.18860000  1.0
  C  C94  1  0.24475000  0.84499000  0.81140000  1.0
  C  C95  1  0.25525000  0.15501000  0.31140000  1.0
  C  C96  1  0.04766000  0.28846000  0.76652000  1.0
  C  C97  1  0.45234000  0.71154000  0.26652000  1.0
  C  C98  1  0.95234000  0.78846000  0.73348000  1.0
  C  C99  1  0.54766000  0.21154000  0.23348000  1.0
  C  C100  1  0.06923000  0.39224000  0.70014000  1.0
  C  C101  1  0.43077000  0.60776000  0.20014000  1.0
  C  C102  1  0.93078000  0.89224000  0.79986000  1.0
  C  C103  1  0.56922000  0.10776000  0.29986000  1.0
  C  C104  1  0.05680000  0.49717000  0.76741000  1.0
  C  C105  1  0.44320000  0.50283000  0.26740000  1.0
  C  C106  1  0.94320000  0.99717000  0.73259000  1.0
  C  C107  1  0.55680000  0.00283000  0.23260000  1.0
  C  C108  1  0.13125000  0.47462000  0.85961000  1.0
  C  C109  1  0.36875000  0.52538000  0.35960000  1.0
  C  C110  1  0.86875000  0.97462000  0.64039000  1.0
  C  C111  1  0.63125000  0.02538000  0.14040000  1.0
  S  S112  1  0.59774000  0.36540000  0.67382000  1.0
  S  S113  1  0.90226000  0.63460000  0.17381000  1.0
  S  S114  1  0.40226000  0.86540000  0.82618000  1.0
  S  S115  1  0.09774000  0.13460000  0.32619000  1.0
  S  S116  1  0.12292000  0.31968000  0.88420000  1.0
  S  S117  1  0.37708000  0.68032000  0.38420000  1.0
  S  S118  1  0.87708000  0.81968000  0.61580000  1.0
  S  S119  1  0.62292000  0.18031000  0.11580000  1.0
  I  I120  1  0.32764000  0.15908000  0.69781000  1.0
  I  I121  1  0.17236000  0.84091000  0.19780000  1.0
  I  I122  1  0.67236000  0.65909000  0.80219000  1.0
  I  I123  1  0.82764000  0.34091000  0.30219000  1.0
  I  I124  1  0.45379000  0.41502000  0.93575000  1.0
  I  I125  1  0.04621000  0.58498000  0.43575000  1.0
  I  I126  1  0.54621000  0.91502000  0.56425000  1.0
  I  I127  1  0.95379000  0.08498000  0.06425000  1.0
  I  I128  1  0.31017000  0.08651000  0.02635000  1.0
  I  I129  1  0.18984000  0.91348000  0.52634000  1.0
  I  I130  1  0.68984000  0.58651000  0.47366000  1.0
  I  I131  1  0.81016000  0.41348000  0.97366000  1.0
  I  I132  1  0.65652000  0.09282000  0.85333000  1.0
  I  I133  1  0.84348000  0.90718000  0.35333000  1.0
  I  I134  1  0.34348000  0.59282000  0.64667000  1.0
  I  I135  1  0.15652000  0.40718000  0.14666000  1.0
