# generated using pymatgen
data_Al3H33C42NO16
_symmetry_space_group_name_H-M   'P 1'
_cell_length_a   12.90240000
_cell_length_b   13.01100000
_cell_length_c   28.37800000
_cell_angle_alpha   89.82170000
_cell_angle_beta   89.96680000
_cell_angle_gamma   61.51510000
_symmetry_Int_Tables_number   1
_chemical_formula_structural   Al3H33C42NO16
_chemical_formula_sum   'Al6 H66 C84 N2 O32'
_cell_volume   4187.17642556
_cell_formula_units_Z   2
loop_
 _symmetry_equiv_pos_site_id
 _symmetry_equiv_pos_as_xyz
  1  'x, y, z'
loop_
 _atom_site_type_symbol
 _atom_site_label
 _atom_site_symmetry_multiplicity
 _atom_site_fract_x
 _atom_site_fract_y
 _atom_site_fract_z
 _atom_site_occupancy
  Al  Al0  1  0.40599000  0.41268000  0.50227000  1.0
  Al  Al1  1  0.42022000  0.65231000  0.49922000  1.0
  Al  Al2  1  0.64770000  0.42644000  0.50038000  1.0
  Al  Al3  1  0.93347000  0.91444000  0.00201000  1.0
  Al  Al4  1  0.68683000  0.90955000  0.00066000  1.0
  Al  Al5  1  0.90972000  0.67991000  0.00110000  1.0
  H  H6  1  0.46996000  0.76149000  0.78565000  1.0
  H  H7  1  0.54187000  0.86827000  0.71481000  1.0
  H  H8  1  0.57502000  0.54909000  0.73358000  1.0
  H  H9  1  0.78923000  0.47894000  0.78287000  1.0
  H  H10  1  0.86128000  0.58606000  0.71213000  1.0
  H  H11  1  0.75629000  0.79813000  0.76410000  1.0
  H  H12  1  0.73869000  0.27158000  0.80264000  1.0
  H  H13  1  0.71946000  0.31574000  0.72194000  1.0
  H  H14  1  0.79378000  0.00532000  0.69614000  1.0
  H  H15  1  0.85456000  0.09974000  0.70549000  1.0
  H  H16  1  0.86910000  0.05683000  0.78631000  1.0
  H  H17  1  0.80592000  0.96433000  0.77703000  1.0
  H  H18  1  0.47829000  0.23468000  0.71228000  1.0
  H  H19  1  0.57093000  0.08517000  0.70077000  1.0
  H  H20  1  0.49240000  0.19605000  0.79324000  1.0
  H  H21  1  0.56557000  0.36887000  0.72552000  1.0
  H  H22  1  0.58449000  0.32917000  0.80676000  1.0
  H  H23  1  0.58402000  0.04618000  0.78200000  1.0
  H  H24  1  0.32053000  0.49007000  0.71538000  1.0
  H  H25  1  0.00473000  0.70141000  0.69604000  1.0
  H  H26  1  0.11009000  0.55171000  0.70074000  1.0
  H  H27  1  0.06563000  0.55985000  0.78087000  1.0
  H  H28  1  0.97268000  0.71237000  0.77770000  1.0
  H  H29  1  0.22027000  0.81367000  0.71791000  1.0
  H  H30  1  0.06966000  0.85640000  0.70979000  1.0
  H  H31  1  0.19919000  0.80449000  0.79991000  1.0
  H  H32  1  0.37108000  0.59458000  0.72227000  1.0
  H  H33  1  0.33923000  0.59775000  0.80359000  1.0
  H  H34  1  0.04767000  0.85342000  0.79178000  1.0
  H  H35  1  0.68844000  0.49657000  0.19725000  1.0
  H  H36  1  0.66765000  0.48076000  0.27854000  1.0
  H  H37  1  0.80280000  0.67456000  0.29968000  1.0
  H  H38  1  0.83320000  0.52863000  0.29143000  1.0
  H  H39  1  0.85010000  0.55024000  0.21022000  1.0
  H  H40  1  0.81441000  0.69752000  0.21841000  1.0
  H  H41  1  0.47394000  0.80523000  0.28822000  1.0
  H  H42  1  0.59025000  0.83840000  0.29607000  1.0
  H  H43  1  0.48678000  0.81817000  0.20630000  1.0
  H  H44  1  0.52014000  0.59401000  0.27568000  1.0
  H  H45  1  0.53952000  0.60646000  0.19420000  1.0
  H  H46  1  0.59875000  0.85761000  0.21390000  1.0
  H  H47  1  0.48329000  0.25574000  0.20671000  1.0
  H  H48  1  0.47505000  0.31831000  0.28486000  1.0
  H  H49  1  0.71573000  0.01394000  0.30668000  1.0
  H  H50  1  0.56198000  0.10189000  0.29759000  1.0
  H  H51  1  0.59428000  0.04262000  0.21858000  1.0
  H  H52  1  0.79086000  0.25645000  0.28485000  1.0
  H  H53  1  0.85139000  0.10340000  0.29144000  1.0
  H  H54  1  0.77610000  0.24416000  0.20266000  1.0
  H  H55  1  0.56827000  0.37886000  0.27185000  1.0
  H  H56  1  0.55619000  0.33671000  0.19235000  1.0
  H  H57  1  0.86356000  0.09212000  0.20897000  1.0
  H  H58  1  0.34844000  0.58186000  0.20130000  1.0
  H  H59  1  0.37560000  0.55483000  0.28323000  1.0
  H  H60  1  0.10052000  0.84742000  0.29250000  1.0
  H  H61  1  0.25321000  0.77979000  0.28059000  1.0
  H  H62  1  0.20556000  0.79844000  0.19988000  1.0
  H  H63  1  0.05542000  0.84698000  0.21286000  1.0
  H  H64  1  0.08255000  0.56887000  0.30259000  1.0
  H  H65  1  0.99845000  0.72277000  0.29802000  1.0
  H  H66  1  0.08027000  0.54847000  0.22038000  1.0
  H  H67  1  0.29934000  0.47293000  0.28518000  1.0
  H  H68  1  0.29589000  0.47890000  0.20251000  1.0
  H  H69  1  0.97799000  0.69942000  0.21786000  1.0
  H  H70  1  0.28724000  0.33386000  0.47594000  1.0
  H  H71  1  0.01658000  0.02899000  0.97522000  1.0
  C  C72  1  0.28633000  0.61781000  0.56768000  1.0
  C  C73  1  0.60337000  0.61358000  0.56397000  1.0
  C  C74  1  0.61415000  0.29241000  0.56789000  1.0
  C  C75  1  0.28209000  0.61718000  0.43396000  1.0
  C  C76  1  0.60571000  0.60470000  0.43319000  1.0
  C  C77  1  0.60803000  0.29440000  0.43348000  1.0
  C  C78  1  0.59682000  0.78196000  0.73031000  1.0
  C  C79  1  0.55666000  0.72231000  0.76882000  1.0
  C  C80  1  0.70052000  0.70650000  0.88763000  1.0
  C  C81  1  0.62980000  0.63879000  0.61026000  1.0
  C  C82  1  0.71603000  0.74254000  0.75675000  1.0
  C  C83  1  0.67612000  0.68283000  0.79678000  1.0
  C  C84  1  0.77456000  0.62496000  0.72888000  1.0
  C  C85  1  0.65509000  0.66434000  0.70091000  1.0
  C  C86  1  0.73436000  0.56530000  0.76738000  1.0
  C  C87  1  0.61509000  0.60474000  0.74098000  1.0
  C  C88  1  0.68842000  0.69494000  0.84567000  1.0
  C  C89  1  0.64237000  0.65157000  0.65208000  1.0
  C  C90  1  0.65153000  0.29364000  0.73402000  1.0
  C  C91  1  0.78442000  0.08027000  0.71701000  1.0
  C  C92  1  0.79343000  0.05289000  0.77041000  1.0
  C  C93  1  0.70274000  0.09013000  0.88754000  1.0
  C  C94  1  0.66330000  0.18685000  0.70559000  1.0
  C  C95  1  0.66297000  0.26648000  0.78744000  1.0
  C  C96  1  0.67946000  0.14184000  0.79597000  1.0
  C  C97  1  0.57287000  0.13398000  0.77483000  1.0
  C  C98  1  0.56386000  0.15971000  0.72130000  1.0
  C  C99  1  0.69055000  0.11558000  0.84594000  1.0
  C  C100  1  0.65344000  0.21470000  0.65574000  1.0
  C  C101  1  0.64192000  0.24203000  0.61433000  1.0
  C  C102  1  0.29803000  0.57625000  0.72991000  1.0
  C  C103  1  0.08406000  0.63886000  0.71515000  1.0
  C  C104  1  0.06089000  0.64195000  0.76864000  1.0
  C  C105  1  0.10099000  0.67942000  0.88789000  1.0
  C  C106  1  0.18433000  0.66941000  0.70536000  1.0
  C  C107  1  0.27977000  0.57627000  0.78344000  1.0
  C  C108  1  0.15055000  0.66591000  0.79639000  1.0
  C  C109  1  0.13568000  0.78691000  0.78051000  1.0
  C  C110  1  0.15107000  0.79042000  0.72663000  1.0
  C  C111  1  0.12830000  0.66832000  0.84656000  1.0
  C  C112  1  0.20822000  0.66444000  0.65529000  1.0
  C  C113  1  0.23489000  0.65052000  0.61387000  1.0
  C  C114  1  0.61130000  0.57073000  0.26624000  1.0
  C  C115  1  0.77545000  0.61905000  0.27990000  1.0
  C  C116  1  0.78515000  0.63289000  0.22615000  1.0
  C  C117  1  0.69061000  0.69959000  0.11010000  1.0
  C  C118  1  0.64678000  0.65289000  0.29325000  1.0
  C  C119  1  0.62369000  0.58073000  0.21228000  1.0
  C  C120  1  0.66413000  0.67295000  0.20185000  1.0
  C  C121  1  0.57253000  0.79133000  0.22319000  1.0
  C  C122  1  0.56458000  0.78030000  0.27724000  1.0
  C  C123  1  0.67646000  0.68569000  0.15156000  1.0
  C  C124  1  0.63674000  0.63995000  0.34366000  1.0
  C  C125  1  0.62784000  0.62815000  0.38578000  1.0
  C  C126  1  0.55859000  0.30003000  0.26805000  1.0
  C  C127  1  0.64930000  0.08679000  0.28595000  1.0
  C  C128  1  0.66548000  0.05568000  0.23345000  1.0
  C  C129  1  0.69535000  0.09736000  0.11324000  1.0
  C  C130  1  0.66064000  0.19816000  0.29489000  1.0
  C  C131  1  0.55976000  0.26762000  0.21567000  1.0
  C  C132  1  0.67436000  0.15347000  0.20414000  1.0
  C  C133  1  0.78144000  0.16711000  0.22083000  1.0
  C  C134  1  0.77946000  0.18093000  0.27491000  1.0
  C  C135  1  0.68236000  0.12646000  0.15433000  1.0
  C  C136  1  0.65040000  0.22344000  0.34490000  1.0
  C  C137  1  0.63757000  0.24733000  0.38657000  1.0
  C  C138  1  0.29462000  0.55433000  0.27177000  1.0
  C  C139  1  0.17220000  0.77392000  0.27394000  1.0
  C  C140  1  0.14544000  0.77863000  0.22068000  1.0
  C  C141  1  0.10713000  0.67567000  0.11273000  1.0
  C  C142  1  0.18721000  0.65807000  0.29530000  1.0
  C  C143  1  0.28246000  0.56213000  0.21750000  1.0
  C  C144  1  0.15800000  0.65974000  0.20417000  1.0
  C  C145  1  0.06587000  0.63591000  0.23031000  1.0
  C  C146  1  0.07618000  0.64599000  0.28410000  1.0
  C  C147  1  0.13558000  0.66422000  0.15400000  1.0
  C  C148  1  0.20845000  0.65247000  0.34561000  1.0
  C  C149  1  0.23235000  0.64244000  0.38738000  1.0
  C  C150  1  0.72832000  0.04160000  0.93427000  1.0
  C  C151  1  0.72627000  0.72886000  0.93452000  1.0
  C  C152  1  0.04935000  0.71054000  0.93422000  1.0
  C  C153  1  0.72693000  0.04133000  0.06778000  1.0
  C  C154  1  0.71995000  0.72713000  0.06463000  1.0
  C  C155  1  0.05168000  0.70701000  0.06725000  1.0
  N  N156  1  0.31026000  0.45447000  0.80113000  1.0
  N  N157  1  0.77547000  0.94018000  0.22476000  1.0
  O  O158  1  0.51691000  0.31152000  0.55019000  1.0
  O  O159  1  0.31431000  0.51553000  0.55434000  1.0
  O  O160  1  0.30376000  0.69423000  0.54494000  1.0
  O  O161  1  0.50372000  0.68637000  0.54624000  1.0
  O  O162  1  0.67831000  0.51780000  0.54490000  1.0
  O  O163  1  0.69002000  0.31824000  0.54897000  1.0
  O  O164  1  0.50618000  0.32097000  0.44826000  1.0
  O  O165  1  0.30040000  0.52207000  0.45301000  1.0
  O  O166  1  0.30898000  0.69275000  0.45171000  1.0
  O  O167  1  0.51050000  0.68031000  0.45277000  1.0
  O  O168  1  0.68012000  0.50697000  0.45148000  1.0
  O  O169  1  0.68702000  0.30971000  0.45555000  1.0
  O  O170  1  0.49227000  0.49821000  0.50040000  1.0
  O  O171  1  0.02581000  0.81070000  0.94888000  1.0
  O  O172  1  0.82690000  0.01863000  0.95200000  1.0
  O  O173  1  0.64940000  0.02105000  0.95362000  1.0
  O  O174  1  0.65299000  0.82527000  0.95368000  1.0
  O  O175  1  0.82374000  0.65275000  0.95273000  1.0
  O  O176  1  0.02708000  0.63556000  0.95544000  1.0
  O  O177  1  0.03259000  0.80418000  0.05016000  1.0
  O  O178  1  0.83003000  0.01071000  0.05357000  1.0
  O  O179  1  0.64825000  0.02339000  0.04693000  1.0
  O  O180  1  0.64975000  0.82748000  0.04714000  1.0
  O  O181  1  0.81701000  0.65196000  0.04601000  1.0
  O  O182  1  0.02142000  0.63473000  0.04859000  1.0
  O  O183  1  0.84220000  0.83393000  0.00097000  1.0
  O  O184  1  0.27297000  0.39762000  0.77839000  1.0
  O  O185  1  0.36998000  0.42064000  0.83749000  1.0
  O  O186  1  0.77387000  0.88287000  0.19036000  1.0
  O  O187  1  0.86097000  0.91147000  0.25154000  1.0
  O  O188  1  0.32917000  0.33254000  0.50434000  1.0
  O  O189  1  0.01769000  0.98722000  0.00361000  1.0
