# generated using pymatgen
data_CdH22C24(NO)4
_symmetry_space_group_name_H-M   'P 1'
_cell_length_a   10.29130000
_cell_length_b   11.45020000
_cell_length_c   11.46100000
_cell_angle_alpha   119.68700000
_cell_angle_beta   100.81700000
_cell_angle_gamma   98.15360000
_symmetry_Int_Tables_number   1
_chemical_formula_structural   CdH22C24(NO)4
_chemical_formula_sum   'Cd2 H44 C48 N8 O8'
_cell_volume   1107.94501764
_cell_formula_units_Z   2
loop_
 _symmetry_equiv_pos_site_id
 _symmetry_equiv_pos_as_xyz
  1  'x, y, z'
loop_
 _atom_site_type_symbol
 _atom_site_label
 _atom_site_symmetry_multiplicity
 _atom_site_fract_x
 _atom_site_fract_y
 _atom_site_fract_z
 _atom_site_occupancy
  Cd  Cd0  1  0.10554000  0.05493000  0.41024000  1.0
  Cd  Cd1  1  0.89446000  0.94506000  0.58976000  1.0
  H  H2  1  0.14684000  0.45180000  0.89244000  1.0
  H  H3  1  0.85316000  0.54819000  0.10756000  1.0
  H  H4  1  0.17333000  0.38841000  0.72318000  1.0
  H  H5  1  0.82667000  0.61159000  0.27682000  1.0
  H  H6  1  0.99164000  0.36481000  0.52769000  1.0
  H  H7  1  0.00836000  0.63519000  0.47231000  1.0
  H  H8  1  0.80893000  0.46244000  0.46472000  1.0
  H  H9  1  0.19107000  0.53756000  0.53528000  1.0
  H  H10  1  0.78522000  0.66465000  0.88865000  1.0
  H  H11  1  0.21478000  0.33536000  0.11136000  1.0
  H  H12  1  0.96918000  0.57103000  0.95283000  1.0
  H  H13  1  0.03083000  0.42897000  0.04717000  1.0
  H  H14  1  0.59307000  0.54405000  0.53362000  1.0
  H  H15  1  0.40693000  0.45595000  0.46638000  1.0
  H  H16  1  0.62139000  0.66959000  0.71531000  1.0
  H  H17  1  0.37861000  0.33041000  0.28470000  1.0
  H  H18  1  0.02444000  0.21068000  0.21978000  1.0
  H  H19  1  0.97556000  0.78932000  0.78022000  1.0
  H  H20  1  0.77364000  0.86694000  0.19153000  1.0
  H  H21  1  0.22635000  0.13307000  0.80847000  1.0
  H  H22  1  0.64252000  0.90189000  0.97909000  1.0
  H  H23  1  0.35748000  0.09811000  0.02091000  1.0
  H  H24  1  0.75897000  0.04293000  0.87809000  1.0
  H  H25  1  0.24103000  0.95707000  0.12191000  1.0
  H  H26  1  0.89773000  0.19243000  0.99794000  1.0
  H  H27  1  0.10227000  0.80757000  0.00206000  1.0
  H  H28  1  0.74874000  0.26495000  0.23936000  1.0
  H  H29  1  0.25126000  0.73506000  0.76064000  1.0
  H  H30  1  0.59856000  0.42126000  0.31435000  1.0
  H  H31  1  0.40144000  0.57874000  0.68565000  1.0
  H  H32  1  0.45531000  0.46073000  0.14151000  1.0
  H  H33  1  0.54468000  0.53927000  0.85849000  1.0
  H  H34  1  0.47549000  0.35117000  0.89986000  1.0
  H  H35  1  0.52451000  0.64883000  0.10014000  1.0
  H  H36  1  0.66443000  0.26958000  0.76499000  1.0
  H  H37  1  0.33557000  0.73042000  0.23502000  1.0
  H  H38  1  0.70835000  0.12601000  0.76172000  1.0
  H  H39  1  0.29165000  0.87400000  0.23828000  1.0
  H  H40  1  0.42439000  0.23532000  0.62644000  1.0
  H  H41  1  0.57561000  0.76468000  0.37356000  1.0
  H  H42  1  0.49789000  0.90503000  0.67453000  1.0
  H  H43  1  0.50211000  0.09496000  0.32547000  1.0
  H  H44  1  0.23304000  0.82023000  0.49116000  1.0
  H  H45  1  0.76696000  0.17977000  0.50884000  1.0
  C  C46  1  0.02181000  0.24365000  0.73121000  1.0
  C  C47  1  0.97819000  0.75634000  0.26879000  1.0
  C  C48  1  0.09625000  0.39221000  0.77835000  1.0
  C  C49  1  0.90375000  0.60779000  0.22165000  1.0
  C  C50  1  0.99050000  0.45784000  0.74342000  1.0
  C  C51  1  0.00950000  0.54215000  0.25657000  1.0
  C  C52  1  0.94439000  0.42866000  0.60604000  1.0
  C  C53  1  0.05561000  0.57134000  0.39395000  1.0
  C  C54  1  0.84094000  0.48189000  0.57034000  1.0
  C  C55  1  0.15906000  0.51811000  0.42966000  1.0
  C  C56  1  0.78028000  0.56532000  0.67034000  1.0
  C  C57  1  0.21973000  0.43468000  0.32966000  1.0
  C  C58  1  0.82765000  0.59578000  0.80793000  1.0
  C  C59  1  0.17235000  0.40422000  0.19207000  1.0
  C  C60  1  0.93149000  0.54255000  0.84402000  1.0
  C  C61  1  0.06852000  0.45745000  0.15597000  1.0
  C  C62  1  0.67137000  0.62646000  0.63262000  1.0
  C  C63  1  0.32863000  0.37355000  0.36738000  1.0
  C  C64  1  0.72966000  0.74169000  0.61010000  1.0
  C  C65  1  0.27034000  0.25831000  0.38990000  1.0
  C  C66  1  0.94031000  0.12114000  0.18537000  1.0
  C  C67  1  0.05969000  0.87886000  0.81463000  1.0
  C  C68  1  0.80667000  0.94300000  0.16555000  1.0
  C  C69  1  0.19333000  0.05700000  0.83444000  1.0
  C  C70  1  0.74073000  0.95901000  0.06055000  1.0
  C  C71  1  0.25927000  0.04099000  0.93945000  1.0
  C  C72  1  0.79915000  0.13112000  0.98783000  1.0
  C  C73  1  0.20085000  0.86888000  0.01217000  1.0
  C  C74  1  0.70158000  0.22177000  0.02841000  1.0
  C  C75  1  0.29842000  0.77823000  0.97159000  1.0
  C  C76  1  0.68912000  0.28446000  0.16476000  1.0
  C  C77  1  0.31088000  0.71554000  0.83524000  1.0
  C  C78  1  0.60303000  0.37110000  0.20658000  1.0
  C  C79  1  0.39696000  0.62890000  0.79342000  1.0
  C  C80  1  0.52503000  0.39501000  0.11095000  1.0
  C  C81  1  0.47497000  0.60499000  0.88905000  1.0
  C  C82  1  0.53668000  0.33333333  0.97526000  1.0
  C  C83  1  0.46331000  0.66666667  0.02474000  1.0
  C  C84  1  0.62488000  0.24775000  0.93262000  1.0
  C  C85  1  0.37512000  0.75226000  0.06738000  1.0
  C  C86  1  0.63260000  0.18586000  0.78342000  1.0
  C  C87  1  0.36740000  0.81413000  0.21658000  1.0
  C  C88  1  0.40588000  0.13378000  0.61454000  1.0
  C  C89  1  0.59412000  0.86622000  0.38546000  1.0
  C  C90  1  0.44031000  0.95931000  0.63835000  1.0
  C  C91  1  0.55968000  0.04069000  0.36165000  1.0
  C  C92  1  0.31160000  0.91924000  0.54697000  1.0
  C  C93  1  0.68840000  0.08077000  0.45304000  1.0
  N  N94  1  0.93108000  0.04465000  0.24266000  1.0
  N  N95  1  0.06892000  0.95535000  0.75734000  1.0
  N  N96  1  0.82735000  0.07210000  0.07416000  1.0
  N  N97  1  0.17265000  0.92789000  0.92584000  1.0
  N  N98  1  0.49883000  0.09550000  0.67973000  1.0
  N  N99  1  0.50117000  0.90450000  0.32027000  1.0
  N  N100  1  0.29179000  0.02910000  0.53299000  1.0
  N  N101  1  0.70821000  0.97090000  0.46702000  1.0
  O  O102  1  0.02944000  0.14232000  0.61435000  1.0
  O  O103  1  0.97056000  0.85768000  0.38565000  1.0
  O  O104  1  0.95292000  0.22371000  0.80238000  1.0
  O  O105  1  0.04708000  0.77630000  0.19762000  1.0
  O  O106  1  0.78550000  0.70912000  0.51167000  1.0
  O  O107  1  0.21450000  0.29088000  0.48833000  1.0
  O  O108  1  0.72316000  0.86473000  0.69209000  1.0
  O  O109  1  0.27685000  0.13527000  0.30791000  1.0
