# generated using pymatgen
data_Zn3H38C48(NO3)4
_symmetry_space_group_name_H-M   'P 1'
_cell_length_a   9.67190000
_cell_length_b   9.91353000
_cell_length_c   13.44370000
_cell_angle_alpha   105.02400000
_cell_angle_beta   104.39500000
_cell_angle_gamma   104.81600000
_symmetry_Int_Tables_number   1
_chemical_formula_structural   Zn3H38C48(NO3)4
_chemical_formula_sum   'Zn3 H38 C48 N4 O12'
_cell_volume   1133.05261085
_cell_formula_units_Z   1
loop_
 _symmetry_equiv_pos_site_id
 _symmetry_equiv_pos_as_xyz
  1  'x, y, z'
loop_
 _atom_site_type_symbol
 _atom_site_label
 _atom_site_symmetry_multiplicity
 _atom_site_fract_x
 _atom_site_fract_y
 _atom_site_fract_z
 _atom_site_occupancy
  Zn  Zn0  1  0.00000000  0.00000000  0.00000000  1.0
  Zn  Zn1  1  0.71310000  0.99399000  0.75174000  1.0
  Zn  Zn2  1  0.28690000  0.00601000  0.24826000  1.0
  H  H3  1  0.33837000  0.65758000  0.97857000  1.0
  H  H4  1  0.66162000  0.34242000  0.02143000  1.0
  H  H5  1  0.58475000  0.48322000  0.78224000  1.0
  H  H6  1  0.41525000  0.51678000  0.21776000  1.0
  H  H7  1  0.16085000  0.19721000  0.77113000  1.0
  H  H8  1  0.83915000  0.80279000  0.22887000  1.0
  H  H9  1  0.13333000  0.46566000  0.00269000  1.0
  H  H10  1  0.86667000  0.53434000  0.99731000  1.0
  H  H11  1  0.02249000  0.46334000  0.87503000  1.0
  H  H12  1  0.97751000  0.53666000  0.12497000  1.0
  H  H13  1  0.56269000  0.81242000  0.99117000  1.0
  H  H14  1  0.43731000  0.18758000  0.00883000  1.0
  H  H15  1  0.70279000  0.73253000  0.97967000  1.0
  H  H16  1  0.29721000  0.26747000  0.02033000  1.0
  H  H17  1  0.43163000  0.22990000  0.62718000  1.0
  H  H18  1  0.56837000  0.77010000  0.37282000  1.0
  H  H19  1  0.27987000  0.10814000  0.64502000  1.0
  H  H20  1  0.72013000  0.89186000  0.35498000  1.0
  H  H21  1  0.96349000  0.02912000  0.65531000  1.0
  H  H22  1  0.03651000  0.97088000  0.34469000  1.0
  H  H23  1  0.04808000  0.87023000  0.52272000  1.0
  H  H24  1  0.95192000  0.12977000  0.47728000  1.0
  H  H25  1  0.64604000  0.50400000  0.46380000  1.0
  H  H26  1  0.35396000  0.49600000  0.53620000  1.0
  H  H27  1  0.58366000  0.67783000  0.60271000  1.0
  H  H28  1  0.41634000  0.32217000  0.39729000  1.0
  H  H29  1  0.01367000  0.63176000  0.39926000  1.0
  H  H30  1  0.98633000  0.36824000  0.60074000  1.0
  H  H31  1  0.71367000  0.37884000  0.34898000  1.0
  H  H32  1  0.28633000  0.62116000  0.65102000  1.0
  H  H33  1  0.09253000  0.49456000  0.29308000  1.0
  H  H34  1  0.90747000  0.50544000  0.70692000  1.0
  H  H35  1  0.15061000  0.31337000  0.15897000  1.0
  H  H36  1  0.84939000  0.68663000  0.84103000  1.0
  H  H37  1  0.75775000  0.97402000  0.10593000  1.0
  H  H38  1  0.24225000  0.02598000  0.89407000  1.0
  H  H39  1  0.67479000  0.14274000  0.23104000  1.0
  H  H40  1  0.32521000  0.85726000  0.76896000  1.0
  C  C41  1  0.23198000  0.42550000  0.87693000  1.0
  C  C42  1  0.76802000  0.57450000  0.12307000  1.0
  C  C43  1  0.34601000  0.56485000  0.91776000  1.0
  C  C44  1  0.65399000  0.43515000  0.08224000  1.0
  C  C45  1  0.47280000  0.58703000  0.88390000  1.0
  C  C46  1  0.52720000  0.41297000  0.11610000  1.0
  C  C47  1  0.48556000  0.46711000  0.80889000  1.0
  C  C48  1  0.51444000  0.53289000  0.19111000  1.0
  C  C49  1  0.37416000  0.32609000  0.76804000  1.0
  C  C50  1  0.62584000  0.67391000  0.23196000  1.0
  C  C51  1  0.24760000  0.30738000  0.80254000  1.0
  C  C52  1  0.75241000  0.69262000  0.19746000  1.0
  C  C53  1  0.09465000  0.40885000  0.91369000  1.0
  C  C54  1  0.90535000  0.59115000  0.08631000  1.0
  C  C55  1  0.00158000  0.24748000  0.88623000  1.0
  C  C56  1  0.99842000  0.75252000  0.11377000  1.0
  C  C57  1  0.59485000  0.73736000  0.93210000  1.0
  C  C58  1  0.40515000  0.26264000  0.06790000  1.0
  C  C59  1  0.62703000  0.81224000  0.85167000  1.0
  C  C60  1  0.37297000  0.18776000  0.14833000  1.0
  C  C61  1  0.39090000  0.19738000  0.68974000  1.0
  C  C62  1  0.60910000  0.80262000  0.31026000  1.0
  C  C63  1  0.49850000  0.12598000  0.74292000  1.0
  C  C64  1  0.50150000  0.87402000  0.25708000  1.0
  C  C65  1  0.89721000  0.91174000  0.61081000  1.0
  C  C66  1  0.10279000  0.08826000  0.38919000  1.0
  C  C67  1  0.94262000  0.82278000  0.53652000  1.0
  C  C68  1  0.05738000  0.17722000  0.46348000  1.0
  C  C69  1  0.85427000  0.67167000  0.48071000  1.0
  C  C70  1  0.14573000  0.32833000  0.51929000  1.0
  C  C71  1  0.72038000  0.61952000  0.50395000  1.0
  C  C72  1  0.27963000  0.38048000  0.49605000  1.0
  C  C73  1  0.68354000  0.71482000  0.57989000  1.0
  C  C74  1  0.31646000  0.28518000  0.42011000  1.0
  C  C75  1  0.90418000  0.57736000  0.40556000  1.0
  C  C76  1  0.09582000  0.42264000  0.59444000  1.0
  C  C77  1  0.82580000  0.43223000  0.34639000  1.0
  C  C78  1  0.17420000  0.56777000  0.65361000  1.0
  C  C79  1  0.87573000  0.33492000  0.27330000  1.0
  C  C80  1  0.12427000  0.66508000  0.72670000  1.0
  C  C81  1  0.01320000  0.38080000  0.25306000  1.0
  C  C82  1  0.98680000  0.61920000  0.74694000  1.0
  C  C83  1  0.04759000  0.28017000  0.17900000  1.0
  C  C84  1  0.95241000  0.71983000  0.82100000  1.0
  C  C85  1  0.82738000  0.09060000  0.14790000  1.0
  C  C86  1  0.17262000  0.90940000  0.85210000  1.0
  C  C87  1  0.78291000  0.18491000  0.21918000  1.0
  C  C88  1  0.21709000  0.81509000  0.78082000  1.0
  N  N89  1  0.77048000  0.85929000  0.63366000  1.0
  N  N90  1  0.22952000  0.14071000  0.36634000  1.0
  N  N91  1  0.95637000  0.13722000  0.12618000  1.0
  N  N92  1  0.04363000  0.86278000  0.87382000  1.0
  O  O93  1  0.05177000  0.18231000  0.94905000  1.0
  O  O94  1  0.94822000  0.81769000  0.05095000  1.0
  O  O95  1  0.88410000  0.18932000  0.80022000  1.0
  O  O96  1  0.11590000  0.81068000  0.19978000  1.0
  O  O97  1  0.55138000  0.05339000  0.67529000  1.0
  O  O98  1  0.44861000  0.94661000  0.32471000  1.0
  O  O99  1  0.52752000  0.13715000  0.84114000  1.0
  O  O100  1  0.47248000  0.86285000  0.15886000  1.0
  O  O101  1  0.53676000  0.77098000  0.75573000  1.0
  O  O102  1  0.46324000  0.22902000  0.24427000  1.0
  O  O103  1  0.75249000  0.92623000  0.88616000  1.0
  O  O104  1  0.24751000  0.07377000  0.11384000  1.0
