# generated using pymatgen
data_BaH10C14SO8
_symmetry_space_group_name_H-M   'P 1'
_cell_length_a   7.73364000
_cell_length_b   8.91970000
_cell_length_c   11.27060000
_cell_angle_alpha   87.21670000
_cell_angle_beta   81.43620000
_cell_angle_gamma   73.31450000
_symmetry_Int_Tables_number   1
_chemical_formula_structural   BaH10C14SO8
_chemical_formula_sum   'Ba2 H20 C28 S2 O16'
_cell_volume   736.41357181
_cell_formula_units_Z   2
loop_
 _symmetry_equiv_pos_site_id
 _symmetry_equiv_pos_as_xyz
  1  'x, y, z'
loop_
 _atom_site_type_symbol
 _atom_site_label
 _atom_site_symmetry_multiplicity
 _atom_site_fract_x
 _atom_site_fract_y
 _atom_site_fract_z
 _atom_site_occupancy
  Ba  Ba0  1  0.28874000  0.39936000  0.43915000  1.0
  Ba  Ba1  1  0.71127000  0.60064000  0.56085000  1.0
  H  H2  1  0.70950000  0.04083000  0.43077000  1.0
  H  H3  1  0.29050000  0.95917000  0.56923000  1.0
  H  H4  1  0.61868000  0.18952000  0.51743000  1.0
  H  H5  1  0.38132000  0.81048000  0.48256000  1.0
  H  H6  1  0.23212000  0.71722000  0.60609000  1.0
  H  H7  1  0.76788000  0.28278000  0.39391000  1.0
  H  H8  1  0.13862000  0.61091000  0.69343000  1.0
  H  H9  1  0.86139000  0.38909000  0.30657000  1.0
  H  H10  1  0.31923000  0.43663000  0.94978000  1.0
  H  H11  1  0.68077000  0.56337000  0.05022000  1.0
  H  H12  1  0.38772000  0.89463000  0.81130000  1.0
  H  H13  1  0.61228000  0.10538000  0.18869000  1.0
  H  H14  1  0.50112000  0.08274000  0.67678000  1.0
  H  H15  1  0.49889000  0.91726000  0.32322000  1.0
  H  H16  1  0.99097000  0.06406000  0.34113000  1.0
  H  H17  1  0.00903000  0.93594000  0.65887000  1.0
  H  H18  1  0.11410000  0.62919000  0.15202000  1.0
  H  H19  1  0.88591000  0.37080000  0.84798000  1.0
  H  H20  1  0.25979000  0.74149000  0.97083000  1.0
  H  H21  1  0.74020000  0.25850000  0.02917000  1.0
  C  C22  1  0.48894000  0.38581000  0.72356000  1.0
  C  C23  1  0.51105000  0.61419000  0.27644000  1.0
  C  C24  1  0.41757000  0.27109000  0.80448000  1.0
  C  C25  1  0.58242000  0.72891000  0.19552000  1.0
  C  C26  1  0.33236000  0.31872000  0.92085000  1.0
  C  C27  1  0.66764000  0.68128000  0.07915000  1.0
  C  C28  1  0.26769000  0.21193000  0.99383000  1.0
  C  C29  1  0.73231000  0.78807000  0.00617000  1.0
  C  C30  1  0.28412000  0.05869000  0.95831000  1.0
  C  C31  1  0.71588000  0.94131000  0.04169000  1.0
  C  C32  1  0.37028000  0.01226000  0.84278000  1.0
  C  C33  1  0.62973000  0.98774000  0.15722000  1.0
  C  C34  1  0.43523000  0.11900000  0.76715000  1.0
  C  C35  1  0.56478000  0.88101000  0.23285000  1.0
  C  C36  1  0.20467000  0.96840000  0.05265000  1.0
  C  C37  1  0.79533000  0.03160000  0.94735000  1.0
  C  C38  1  0.12634000  0.05488000  0.15807000  1.0
  C  C39  1  0.87365000  0.94512000  0.84192000  1.0
  C  C40  1  0.04662000  0.99441000  0.26023000  1.0
  C  C41  1  0.95337000  0.00559000  0.73977000  1.0
  C  C42  1  0.04201000  0.83863000  0.25654000  1.0
  C  C43  1  0.95798000  0.16137000  0.74346000  1.0
  C  C44  1  0.95096000  0.76716000  0.36245000  1.0
  C  C45  1  0.04903000  0.23284000  0.63756000  1.0
  C  C46  1  0.11963000  0.74981000  0.15231000  1.0
  C  C47  1  0.88037000  0.25019000  0.84770000  1.0
  C  C48  1  0.20081000  0.81286000  0.05062000  1.0
  C  C49  1  0.79919000  0.18713000  0.94938000  1.0
  S  S50  1  0.15067000  0.24640000  0.14131000  1.0
  S  S51  1  0.84933000  0.75359000  0.85869000  1.0
  O  O52  1  0.53570000  0.35193000  0.61083000  1.0
  O  O53  1  0.46430000  0.64807000  0.38917000  1.0
  O  O54  1  0.63495000  0.15361000  0.43346000  1.0
  O  O55  1  0.36505000  0.84640000  0.56654000  1.0
  O  O56  1  0.49965000  0.50902000  0.76783000  1.0
  O  O57  1  0.50034000  0.49099000  0.23217000  1.0
  O  O58  1  0.16158000  0.63947000  0.60874000  1.0
  O  O59  1  0.83842000  0.36053000  0.39126000  1.0
  O  O60  1  0.97644000  0.36590000  0.14115000  1.0
  O  O61  1  0.02356000  0.63410000  0.85885000  1.0
  O  O62  1  0.26804000  0.26931000  0.22442000  1.0
  O  O63  1  0.73196000  0.73068000  0.77558000  1.0
  O  O64  1  0.82898000  0.85568000  0.43755000  1.0
  O  O65  1  0.17102000  0.14432000  0.56245000  1.0
  O  O66  1  0.99766000  0.61853000  0.37126000  1.0
  O  O67  1  0.00234000  0.38147000  0.62875000  1.0
