# generated using pymatgen
data_Cd3H24C22S4N4(ClO)6
_symmetry_space_group_name_H-M   'P 1'
_cell_length_a   7.52219000
_cell_length_b   9.85628000
_cell_length_c   12.75010000
_cell_angle_alpha   83.58560000
_cell_angle_beta   74.36130000
_cell_angle_gamma   68.82610000
_symmetry_Int_Tables_number   1
_chemical_formula_structural   Cd3H24C22S4N4(ClO)6
_chemical_formula_sum   'Cd3 H24 C22 S4 N4 Cl6 O6'
_cell_volume   848.74358030
_cell_formula_units_Z   1
loop_
 _symmetry_equiv_pos_site_id
 _symmetry_equiv_pos_as_xyz
  1  'x, y, z'
loop_
 _atom_site_type_symbol
 _atom_site_label
 _atom_site_symmetry_multiplicity
 _atom_site_fract_x
 _atom_site_fract_y
 _atom_site_fract_z
 _atom_site_occupancy
  Cd  Cd0  1  0.00001000  0.00000000  0.00000000  1.0
  Cd  Cd1  1  0.96823000  0.03984000  0.29327000  1.0
  Cd  Cd2  1  0.03177000  0.96017000  0.70673000  1.0
  H  H3  1  0.21642000  0.56705000  0.90052000  1.0
  H  H4  1  0.78359000  0.43294000  0.09949000  1.0
  H  H5  1  0.29810000  0.54849000  0.07974000  1.0
  H  H6  1  0.70190000  0.45149000  0.92027000  1.0
  H  H7  1  0.35772000  0.30822000  0.18378000  1.0
  H  H8  1  0.64228000  0.69175000  0.81623000  1.0
  H  H9  1  0.32765000  0.09731000  0.10164000  1.0
  H  H10  1  0.67237000  0.90267000  0.89836000  1.0
  H  H11  1  0.54480000  0.33367000  0.73065000  1.0
  H  H12  1  0.45520000  0.66634000  0.26935000  1.0
  H  H13  1  0.85628000  0.38282000  0.65362000  1.0
  H  H14  1  0.14371000  0.61720000  0.34638000  1.0
  H  H15  1  0.84469000  0.61903000  0.54845000  1.0
  H  H16  1  0.15529000  0.38099000  0.45154000  1.0
  H  H17  1  0.51788000  0.79096000  0.52223000  1.0
  H  H18  1  0.48209000  0.20905000  0.47776000  1.0
  H  H19  1  0.17017000  0.11424000  0.41557000  1.0
  H  H20  1  0.82983000  0.88577000  0.58444000  1.0
  H  H21  1  0.50457000  0.01792000  0.35367000  1.0
  H  H22  1  0.49543000  0.98209000  0.64633000  1.0
  H  H23  1  0.47228000  0.96185000  0.23400000  1.0
  H  H24  1  0.52772000  0.03816000  0.76600000  1.0
  H  H25  1  0.40249000  0.87743000  0.36283000  1.0
  H  H26  1  0.59752000  0.12257000  0.63717000  1.0
  C  C27  1  0.22461000  0.34616000  0.90818000  1.0
  C  C28  1  0.77539000  0.65383000  0.09182000  1.0
  C  C29  1  0.24095000  0.46576000  0.94778000  1.0
  C  C30  1  0.75906000  0.53422000  0.05223000  1.0
  C  C31  1  0.28712000  0.45443000  0.04795000  1.0
  C  C32  1  0.71288000  0.54556000  0.95206000  1.0
  C  C33  1  0.31849000  0.32254000  0.10621000  1.0
  C  C34  1  0.68151000  0.67744000  0.89380000  1.0
  C  C35  1  0.30255000  0.20512000  0.06423000  1.0
  C  C36  1  0.69747000  0.79488000  0.93577000  1.0
  C  C37  1  0.36821000  0.53215000  0.66605000  1.0
  C  C38  1  0.63179000  0.46786000  0.33395000  1.0
  C  C39  1  0.54445000  0.43272000  0.68332000  1.0
  C  C40  1  0.45555000  0.56730000  0.31667000  1.0
  C  C41  1  0.71823000  0.46179000  0.64110000  1.0
  C  C42  1  0.28176000  0.53823000  0.35890000  1.0
  C  C43  1  0.71289000  0.59116000  0.58237000  1.0
  C  C44  1  0.28710000  0.40885000  0.41762000  1.0
  C  C45  1  0.53551000  0.68806000  0.56666000  1.0
  C  C46  1  0.46447000  0.31194000  0.43333000  1.0
  C  C47  1  0.40970000  0.98007000  0.32139000  1.0
  C  C48  1  0.59031000  0.01994000  0.67860000  1.0
  S  S49  1  0.17651000  0.32276000  0.78491000  1.0
  S  S50  1  0.82350000  0.67724000  0.21509000  1.0
  S  S51  1  0.12843000  0.52792000  0.71381000  1.0
  S  S52  1  0.87156000  0.47208000  0.28620000  1.0
  N  N53  1  0.25409000  0.21919000  0.96756000  1.0
  N  N54  1  0.74593000  0.78079000  0.03244000  1.0
  N  N55  1  0.36709000  0.65805000  0.60820000  1.0
  N  N56  1  0.63290000  0.34196000  0.39180000  1.0
  Cl  Cl57  1  0.78354000  0.18464000  0.15471000  1.0
  Cl  Cl58  1  0.21646000  0.81536000  0.84529000  1.0
  Cl  Cl59  1  0.21415000  0.86081000  0.14140000  1.0
  Cl  Cl60  1  0.78585000  0.13920000  0.85861000  1.0
  Cl  Cl61  1  0.84674000  0.86794000  0.42346000  1.0
  Cl  Cl62  1  0.15326000  0.13207000  0.57654000  1.0
  O  O63  1  0.24007000  0.10918000  0.92279000  1.0
  O  O64  1  0.75994000  0.89081000  0.07721000  1.0
  O  O65  1  0.19488000  0.74926000  0.59515000  1.0
  O  O66  1  0.80510000  0.25074000  0.40485000  1.0
  O  O67  1  0.21602000  0.08972000  0.33670000  1.0
  O  O68  1  0.78398000  0.91029000  0.66330000  1.0
