# generated using pymatgen
data_Cd3H30C42N4(ClO2)4
_symmetry_space_group_name_H-M   'P 1'
_cell_length_a   7.82917000
_cell_length_b   9.66343000
_cell_length_c   15.55430000
_cell_angle_alpha   87.00040000
_cell_angle_beta   79.74190000
_cell_angle_gamma   68.43020000
_symmetry_Int_Tables_number   1
_chemical_formula_structural   Cd3H30C42N4(ClO2)4
_chemical_formula_sum   'Cd3 H30 C42 N4 Cl4 O8'
_cell_volume   1076.77210421
_cell_formula_units_Z   1
loop_
 _symmetry_equiv_pos_site_id
 _symmetry_equiv_pos_as_xyz
  1  'x, y, z'
loop_
 _atom_site_type_symbol
 _atom_site_label
 _atom_site_symmetry_multiplicity
 _atom_site_fract_x
 _atom_site_fract_y
 _atom_site_fract_z
 _atom_site_occupancy
  Cd  Cd0  1  0.99999000  0.00000000  0.00000000  1.0
  Cd  Cd1  1  0.88125000  0.96979000  0.23523000  1.0
  Cd  Cd2  1  0.11875000  0.03020000  0.76477000  1.0
  H  H3  1  0.33933000  0.10141000  0.02181000  1.0
  H  H4  1  0.66065000  0.89859000  0.97820000  1.0
  H  H5  1  0.30543000  0.55361000  0.97531000  1.0
  H  H6  1  0.69457000  0.44639000  0.02469000  1.0
  H  H7  1  0.96272000  0.45387000  0.19784000  1.0
  H  H8  1  0.03727000  0.54614000  0.80216000  1.0
  H  H9  1  0.63372000  0.28485000  0.93503000  1.0
  H  H10  1  0.36627000  0.71513000  0.06498000  1.0
  H  H11  1  0.56142000  0.14211000  0.91010000  1.0
  H  H12  1  0.43856000  0.85789000  0.08990000  1.0
  H  H13  1  0.44033000  0.14218000  0.79406000  1.0
  H  H14  1  0.55966000  0.85782000  0.20594000  1.0
  H  H15  1  0.35822000  0.24864000  0.65274000  1.0
  H  H16  1  0.64178000  0.75137000  0.34726000  1.0
  H  H17  1  0.42552000  0.65146000  0.72762000  1.0
  H  H18  1  0.57450000  0.34854000  0.27238000  1.0
  H  H19  1  0.51889000  0.52311000  0.86309000  1.0
  H  H20  1  0.48113000  0.47689000  0.13691000  1.0
  H  H21  1  0.29180000  0.44775000  0.55638000  1.0
  H  H22  1  0.70820000  0.55226000  0.44362000  1.0
  H  H23  1  0.32161000  0.74319000  0.60629000  1.0
  H  H24  1  0.67840000  0.25681000  0.39371000  1.0
  H  H25  1  0.17339000  0.53034000  0.44811000  1.0
  H  H26  1  0.82663000  0.46966000  0.55189000  1.0
  H  H27  1  0.05603000  0.64926000  0.31408000  1.0
  H  H28  1  0.94399000  0.35073000  0.68592000  1.0
  H  H29  1  0.14297000  0.03388000  0.36056000  1.0
  H  H30  1  0.85702000  0.96613000  0.63945000  1.0
  H  H31  1  0.26872000  0.93115000  0.49758000  1.0
  H  H32  1  0.73127000  0.06886000  0.50242000  1.0
  C  C33  1  0.06978000  0.15881000  0.16527000  1.0
  C  C34  1  0.93022000  0.84119000  0.83474000  1.0
  C  C35  1  0.14359000  0.26681000  0.11497000  1.0
  C  C36  1  0.85640000  0.73319000  0.88503000  1.0
  C  C37  1  0.28301000  0.21844000  0.04114000  1.0
  C  C38  1  0.71698000  0.78157000  0.95886000  1.0
  C  C39  1  0.34890000  0.31891000  0.99178000  1.0
  C  C40  1  0.65109000  0.68109000  0.00821000  1.0
  C  C41  1  0.26557000  0.46969000  0.01407000  1.0
  C  C42  1  0.73442000  0.53031000  0.98593000  1.0
  C  C43  1  0.12600000  0.51961000  0.08757000  1.0
  C  C44  1  0.87398000  0.48039000  0.91242000  1.0
  C  C45  1  0.06861000  0.41723000  0.13957000  1.0
  C  C46  1  0.93139000  0.58276000  0.86043000  1.0
  C  C47  1  0.04433000  0.68385000  0.10714000  1.0
  C  C48  1  0.95566000  0.31615000  0.89285000  1.0
  C  C49  1  0.51493000  0.26267000  0.91925000  1.0
  C  C50  1  0.48506000  0.73732000  0.08075000  1.0
  C  C51  1  0.43612000  0.25351000  0.77549000  1.0
  C  C52  1  0.56389000  0.74649000  0.22451000  1.0
  C  C53  1  0.38908000  0.31628000  0.69731000  1.0
  C  C54  1  0.61092000  0.68372000  0.30269000  1.0
  C  C55  1  0.37869000  0.46251000  0.67734000  1.0
  C  C56  1  0.62131000  0.53748000  0.32266000  1.0
  C  C57  1  0.42696000  0.53876000  0.73864000  1.0
  C  C58  1  0.57305000  0.46123000  0.26135000  1.0
  C  C59  1  0.47678000  0.47015000  0.81498000  1.0
  C  C60  1  0.52324000  0.52985000  0.18502000  1.0
  C  C61  1  0.31866000  0.52489000  0.59625000  1.0
  C  C62  1  0.68134000  0.47511000  0.40375000  1.0
  C  C63  1  0.29322000  0.66474000  0.56794000  1.0
  C  C64  1  0.70679000  0.33526000  0.43206000  1.0
  C  C65  1  0.22797000  0.72266000  0.48644000  1.0
  C  C66  1  0.77204000  0.27734000  0.51356000  1.0
  C  C67  1  0.16919000  0.64263000  0.43231000  1.0
  C  C68  1  0.83083000  0.35737000  0.56769000  1.0
  C  C69  1  0.10305000  0.70769000  0.35747000  1.0
  C  C70  1  0.89696000  0.29231000  0.64253000  1.0
  C  C71  1  0.15223000  0.92277000  0.38293000  1.0
  C  C72  1  0.84777000  0.07724000  0.61707000  1.0
  C  C73  1  0.22109000  0.86550000  0.45911000  1.0
  C  C74  1  0.77891000  0.13451000  0.54089000  1.0
  N  N75  1  0.09178000  0.84662000  0.33322000  1.0
  N  N76  1  0.90823000  0.15338000  0.66678000  1.0
  N  N77  1  0.47711000  0.33055000  0.83369000  1.0
  N  N78  1  0.52289000  0.66945000  0.16631000  1.0
  Cl  Cl79  1  0.68346000  0.08120000  0.10918000  1.0
  Cl  Cl80  1  0.31653000  0.91881000  0.89083000  1.0
  Cl  Cl81  1  0.60172000  0.03293000  0.35400000  1.0
  Cl  Cl82  1  0.39829000  0.96706000  0.64601000  1.0
  O  O83  1  0.11265000  0.02952000  0.12950000  1.0
  O  O84  1  0.88734000  0.97047000  0.87051000  1.0
  O  O85  1  0.96565000  0.19525000  0.23877000  1.0
  O  O86  1  0.03435000  0.80474000  0.76123000  1.0
  O  O87  1  0.95399000  0.72827000  0.18327000  1.0
  O  O88  1  0.04601000  0.27173000  0.81673000  1.0
  O  O89  1  0.07947000  0.76386000  0.04421000  1.0
  O  O90  1  0.92051000  0.23614000  0.95579000  1.0
