# generated using pymatgen
data_CuPH14C9N2ClO
_symmetry_space_group_name_H-M   'P 1'
_cell_length_a   8.41499000
_cell_length_b   8.69398000
_cell_length_c   17.60050000
_cell_angle_alpha   88.36860000
_cell_angle_beta   87.61140000
_cell_angle_gamma   64.27700000
_symmetry_Int_Tables_number   1
_chemical_formula_structural   CuPH14C9N2ClO
_chemical_formula_sum   'Cu4 P4 H56 C36 N8 Cl4 O4'
_cell_volume   1158.96101649
_cell_formula_units_Z   4
loop_
 _symmetry_equiv_pos_site_id
 _symmetry_equiv_pos_as_xyz
  1  'x, y, z'
loop_
 _atom_site_type_symbol
 _atom_site_label
 _atom_site_symmetry_multiplicity
 _atom_site_fract_x
 _atom_site_fract_y
 _atom_site_fract_z
 _atom_site_occupancy
  Cu  Cu0  1  0.37761000  0.49248000  0.57388000  1.0
  Cu  Cu1  1  0.62239000  0.50752000  0.42612000  1.0
  Cu  Cu2  1  0.51472000  0.61759000  0.92468000  1.0
  Cu  Cu3  1  0.48529000  0.38241000  0.07531000  1.0
  P  P4  1  0.32317000  0.61809000  0.68219000  1.0
  P  P5  1  0.67683000  0.38191000  0.31781000  1.0
  P  P6  1  0.38255000  0.66644000  0.81739000  1.0
  P  P7  1  0.61746000  0.33356000  0.18261000  1.0
  H  H8  1  0.87254000  0.03216000  0.62069000  1.0
  H  H9  1  0.12746000  0.96784000  0.37932000  1.0
  H  H10  1  0.98342000  0.12392000  0.88421000  1.0
  H  H11  1  0.01658000  0.87608000  0.11579000  1.0
  H  H12  1  0.73292000  0.34783000  0.81948000  1.0
  H  H13  1  0.26708000  0.65217000  0.18052000  1.0
  H  H14  1  0.45513000  0.98088000  0.78472000  1.0
  H  H15  1  0.54485000  0.01913000  0.21528000  1.0
  H  H16  1  0.65943000  0.95106000  0.73976000  1.0
  H  H17  1  0.34056000  0.04896000  0.26024000  1.0
  H  H18  1  0.65199000  0.79771000  0.80703000  1.0
  H  H19  1  0.34800000  0.20230000  0.19297000  1.0
  H  H20  1  0.07052000  0.60706000  0.89161000  1.0
  H  H21  1  0.92949000  0.39295000  0.10839000  1.0
  H  H22  1  0.97772000  0.47146000  0.86115000  1.0
  H  H23  1  0.02228000  0.52855000  0.13885000  1.0
  H  H24  1  0.96097000  0.64910000  0.80333000  1.0
  H  H25  1  0.03903000  0.35091000  0.19667000  1.0
  H  H26  1  0.03761000  0.22069000  0.44699000  1.0
  H  H27  1  0.96238000  0.77930000  0.55301000  1.0
  H  H28  1  0.97683000  0.20534000  0.54313000  1.0
  H  H29  1  0.02317000  0.79465000  0.45687000  1.0
  H  H30  1  0.18568000  0.04959000  0.50554000  1.0
  H  H31  1  0.81432000  0.95040000  0.49446000  1.0
  H  H32  1  0.10361000  0.43583000  0.69279000  1.0
  H  H33  1  0.89639000  0.56417000  0.30721000  1.0
  H  H34  1  0.13225000  0.26096000  0.75405000  1.0
  H  H35  1  0.86775000  0.73905000  0.24596000  1.0
  H  H36  1  0.31787000  0.26671000  0.70344000  1.0
  H  H37  1  0.68211000  0.73329000  0.29656000  1.0
  H  H38  1  0.47445000  0.22514000  0.82915000  1.0
  H  H39  1  0.52555000  0.77486000  0.17085000  1.0
  H  H40  1  0.28636000  0.21932000  0.87754000  1.0
  H  H41  1  0.71363000  0.78068000  0.12246000  1.0
  H  H42  1  0.36783000  0.36579000  0.90600000  1.0
  H  H43  1  0.63217000  0.63422000  0.09400000  1.0
  H  H44  1  0.67803000  0.30189000  0.68279000  1.0
  H  H45  1  0.32197000  0.69811000  0.31722000  1.0
  H  H46  1  0.78992000  0.55657000  0.71273000  1.0
  H  H47  1  0.21008000  0.44343000  0.28727000  1.0
  H  H48  1  0.81443000  0.70373000  0.64655000  1.0
  H  H49  1  0.18557000  0.29628000  0.35346000  1.0
  H  H50  1  0.70473000  0.57856000  0.62010000  1.0
  H  H51  1  0.29528000  0.42144000  0.37990000  1.0
  H  H52  1  0.77988000  0.03742000  0.94510000  1.0
  H  H53  1  0.22012000  0.96258000  0.05490000  1.0
  H  H54  1  0.94334000  0.84297000  0.98528000  1.0
  H  H55  1  0.05666000  0.15703000  0.01472000  1.0
  H  H56  1  0.76001000  0.98901000  0.04220000  1.0
  H  H57  1  0.24000000  0.01098000  0.95780000  1.0
  H  H58  1  0.43375000  0.84498000  0.58421000  1.0
  H  H59  1  0.56626000  0.15502000  0.41578000  1.0
  H  H60  1  0.53286000  0.97894000  0.61047000  1.0
  H  H61  1  0.46713000  0.02106000  0.38952000  1.0
  H  H62  1  0.32545000  0.00945000  0.65249000  1.0
  H  H63  1  0.67455000  0.99055000  0.34750000  1.0
  C  C64  1  0.89555000  0.05378000  0.67897000  1.0
  C  C65  1  0.10446000  0.94622000  0.32104000  1.0
  C  C66  1  0.95732000  0.10485000  0.82603000  1.0
  C  C67  1  0.04269000  0.89515000  0.17397000  1.0
  C  C68  1  0.81650000  0.23126000  0.78913000  1.0
  C  C69  1  0.18351000  0.76874000  0.21087000  1.0
  C  C70  1  0.17138000  0.29209000  0.52561000  1.0
  C  C71  1  0.82862000  0.70790000  0.47439000  1.0
  C  C72  1  0.58071000  0.88511000  0.76102000  1.0
  C  C73  1  0.41928000  0.11490000  0.23897000  1.0
  C  C74  1  0.04706000  0.54793000  0.84156000  1.0
  C  C75  1  0.95294000  0.45208000  0.15843000  1.0
  C  C76  1  0.08994000  0.18511000  0.50432000  1.0
  C  C77  1  0.91006000  0.81487000  0.49568000  1.0
  C  C78  1  0.03703000  0.92343000  0.71568000  1.0
  C  C79  1  0.96298000  0.07656000  0.28432000  1.0
  C  C80  1  0.06981000  0.95016000  0.79126000  1.0
  C  C81  1  0.93020000  0.04984000  0.20874000  1.0
  C  C82  1  0.19265000  0.34436000  0.73360000  1.0
  C  C83  1  0.80734000  0.65564000  0.26640000  1.0
  C  C84  1  0.34610000  0.30325000  0.85683000  1.0
  C  C85  1  0.65390000  0.69676000  0.14317000  1.0
  C  C86  1  0.22290000  0.43475000  0.80085000  1.0
  C  C87  1  0.77710000  0.56525000  0.19914000  1.0
  C  C88  1  0.54950000  0.78869000  0.69641000  1.0
  C  C89  1  0.45049000  0.21132000  0.30359000  1.0
  C  C90  1  0.78568000  0.20575000  0.71433000  1.0
  C  C91  1  0.21432000  0.79425000  0.28568000  1.0
  C  C92  1  0.72526000  0.64821000  0.66695000  1.0
  C  C93  1  0.27474000  0.35180000  0.33305000  1.0
  C  C94  1  0.69964000  0.84288000  0.96647000  1.0
  C  C95  1  0.30036000  0.15712000  0.03352000  1.0
  C  C96  1  0.80187000  0.93205000  0.98561000  1.0
  C  C97  1  0.19813000  0.06795000  0.01439000  1.0
  C  C98  1  0.45418000  0.91276000  0.63188000  1.0
  C  C99  1  0.54582000  0.08724000  0.36811000  1.0
  N  N100  1  0.23653000  0.37937000  0.54261000  1.0
  N  N101  1  0.76347000  0.62062000  0.45739000  1.0
  N  N102  1  0.43625000  0.70896000  0.72715000  1.0
  N  N103  1  0.56376000  0.29103000  0.27284000  1.0
  N  N104  1  0.31186000  0.53922000  0.77093000  1.0
  N  N105  1  0.68815000  0.46078000  0.22907000  1.0
  N  N106  1  0.61797000  0.76919000  0.95185000  1.0
  N  N107  1  0.38203000  0.23081000  0.04815000  1.0
  Cl  Cl108  1  0.71457000  0.35990000  0.98074000  1.0
  Cl  Cl109  1  0.28544000  0.64010000  0.01925000  1.0
  Cl  Cl110  1  0.65438000  0.29800000  0.52580000  1.0
  Cl  Cl111  1  0.34562000  0.70199000  0.47420000  1.0
  O  O112  1  0.12569000  0.78017000  0.67104000  1.0
  O  O113  1  0.87431000  0.21984000  0.32896000  1.0
  O  O114  1  0.20044000  0.84142000  0.83843000  1.0
  O  O115  1  0.79958000  0.15858000  0.16157000  1.0
