# generated using pymatgen
data_CsH2CO3
_symmetry_space_group_name_H-M   'P 1'
_cell_length_a   6.13435000
_cell_length_b   6.22668000
_cell_length_c   11.00100000
_cell_angle_alpha   89.99950000
_cell_angle_beta   89.99880000
_cell_angle_gamma   69.25600000
_symmetry_Int_Tables_number   1
_chemical_formula_structural   CsH2CO3
_chemical_formula_sum   'Cs4 H8 C4 O12'
_cell_volume   392.96050228
_cell_formula_units_Z   4
loop_
 _symmetry_equiv_pos_site_id
 _symmetry_equiv_pos_as_xyz
  1  'x, y, z'
loop_
 _atom_site_type_symbol
 _atom_site_label
 _atom_site_symmetry_multiplicity
 _atom_site_fract_x
 _atom_site_fract_y
 _atom_site_fract_z
 _atom_site_occupancy
  Cs  Cs0  1  0.11918000  0.19878000  0.11459000  1.0
  Cs  Cs1  1  0.88081000  0.30122000  0.61459000  1.0
  Cs  Cs2  1  0.88080000  0.80124000  0.88541000  1.0
  Cs  Cs3  1  0.11920000  0.69876000  0.38542000  1.0
  H  H4  1  0.66847000  0.88272000  0.14515000  1.0
  H  H5  1  0.33151000  0.61728000  0.64515000  1.0
  H  H6  1  0.33151000  0.11727000  0.85485000  1.0
  H  H7  1  0.66850000  0.38272000  0.35485000  1.0
  H  H8  1  0.66020000  0.07391000  0.24095000  1.0
  H  H9  1  0.33980000  0.42609000  0.74095000  1.0
  H  H10  1  0.33979000  0.92610000  0.75905000  1.0
  H  H11  1  0.66020000  0.57391000  0.25905000  1.0
  C  C12  1  0.47599000  0.07355000  0.43993000  1.0
  C  C13  1  0.52403000  0.42644000  0.93994000  1.0
  C  C14  1  0.52405000  0.92644000  0.56006000  1.0
  C  C15  1  0.47595000  0.57355000  0.06005000  1.0
  O  O16  1  0.27537000  0.13645000  0.39402000  1.0
  O  O17  1  0.72464000  0.36354000  0.89403000  1.0
  O  O18  1  0.72467000  0.86354000  0.60597000  1.0
  O  O19  1  0.27534000  0.63647000  0.10598000  1.0
  O  O20  1  0.65044000  0.11721000  0.39703000  1.0
  O  O21  1  0.34960000  0.38278000  0.89704000  1.0
  O  O22  1  0.34957000  0.88278000  0.60297000  1.0
  O  O23  1  0.65041000  0.61723000  0.10297000  1.0
  O  O24  1  0.68890000  0.03286000  0.15352000  1.0
  O  O25  1  0.31108000  0.46716000  0.65353000  1.0
  O  O26  1  0.31107000  0.96719000  0.84648000  1.0
  O  O27  1  0.68892000  0.53280000  0.34647000  1.0
