# generated using pymatgen
data_Zn3H32C52(NO6)2
_symmetry_space_group_name_H-M   'P 1'
_cell_length_a   14.71580000
_cell_length_b   18.06940000
_cell_length_c   24.91580000
_cell_angle_alpha   89.99990000
_cell_angle_beta   90.05930000
_cell_angle_gamma   90.00000000
_symmetry_Int_Tables_number   1
_chemical_formula_structural   Zn3H32C52(NO6)2
_chemical_formula_sum   'Zn12 H128 C208 N8 O48'
_cell_volume   6625.24910659
_cell_formula_units_Z   4
loop_
 _symmetry_equiv_pos_site_id
 _symmetry_equiv_pos_as_xyz
  1  'x, y, z'
loop_
 _atom_site_type_symbol
 _atom_site_label
 _atom_site_symmetry_multiplicity
 _atom_site_fract_x
 _atom_site_fract_y
 _atom_site_fract_z
 _atom_site_occupancy
  Zn  Zn0  1  0.46089000  0.06484000  0.14934000  1.0
  Zn  Zn1  1  0.49360000  0.25619000  0.15108000  1.0
  Zn  Zn2  1  0.53144000  0.44914000  0.15004000  1.0
  Zn  Zn3  1  0.96089000  0.43516000  0.64934000  1.0
  Zn  Zn4  1  0.99360000  0.24381000  0.65108000  1.0
  Zn  Zn5  1  0.03144000  0.05086000  0.65004000  1.0
  Zn  Zn6  1  0.03911000  0.56484000  0.35066000  1.0
  Zn  Zn7  1  0.00640000  0.75619000  0.34892000  1.0
  Zn  Zn8  1  0.96856000  0.94914000  0.34996000  1.0
  Zn  Zn9  1  0.53911000  0.93516000  0.85066000  1.0
  Zn  Zn10  1  0.50640000  0.74381000  0.84892000  1.0
  Zn  Zn11  1  0.46855000  0.55086000  0.84996000  1.0
  H  H12  1  0.51292000  0.94944000  0.07108000  1.0
  H  H13  1  0.53493000  0.81205000  0.06872000  1.0
  H  H14  1  0.44223000  0.80611000  0.23359000  1.0
  H  H15  1  0.42374000  0.94332000  0.22853000  1.0
  H  H16  1  0.47458000  0.56387000  0.07299000  1.0
  H  H17  1  0.45172000  0.70119000  0.07022000  1.0
  H  H18  1  0.55833000  0.70972000  0.23211000  1.0
  H  H19  1  0.57514000  0.57219000  0.22798000  1.0
  H  H20  1  0.16975000  0.08701000  0.18307000  1.0
  H  H21  1  0.01243000  0.13448000  0.18968000  1.0
  H  H22  1  0.09814000  0.33891000  0.11547000  1.0
  H  H23  1  0.25589000  0.29140000  0.11182000  1.0
  H  H24  1  0.98803000  0.38534000  0.15343000  1.0
  H  H25  1  0.83136000  0.43323000  0.15465000  1.0
  H  H26  1  0.72717000  0.21178000  0.16576000  1.0
  H  H27  1  0.88388000  0.16192000  0.15971000  1.0
  H  H28  1  0.62213000  0.01965000  0.01330000  1.0
  H  H29  1  0.71287000  0.02017000  0.92964000  1.0
  H  H30  1  0.74315000  0.25697000  0.94248000  1.0
  H  H31  1  0.65226000  0.25511000  0.02720000  1.0
  H  H32  1  0.84701000  0.03061000  0.89461000  1.0
  H  H33  1  0.92599000  0.02402000  0.80669000  1.0
  H  H34  1  0.82013000  0.23688000  0.76346000  1.0
  H  H35  1  0.73873000  0.24428000  0.85110000  1.0
  H  H36  1  0.66432000  0.03875000  0.26597000  1.0
  H  H37  1  0.76467000  0.03835000  0.34586000  1.0
  H  H38  1  0.65115000  0.24829000  0.39476000  1.0
  H  H39  1  0.55562000  0.24961000  0.31224000  1.0
  H  H40  1  0.77323000  0.02013000  0.42850000  1.0
  H  H41  1  0.87242000  0.01357000  0.50848000  1.0
  H  H42  1  0.88231000  0.25051000  0.51659000  1.0
  H  H43  1  0.78303000  0.25875000  0.43538000  1.0
  H  H44  1  0.01292000  0.55057000  0.57108000  1.0
  H  H45  1  0.03492000  0.68795000  0.56872000  1.0
  H  H46  1  0.94223000  0.69389000  0.73359000  1.0
  H  H47  1  0.92374000  0.55668000  0.72853000  1.0
  H  H48  1  0.97458000  0.93613000  0.57299000  1.0
  H  H49  1  0.95172000  0.79881000  0.57022000  1.0
  H  H50  1  0.05833000  0.79028000  0.73211000  1.0
  H  H51  1  0.07514000  0.92781000  0.72798000  1.0
  H  H52  1  0.66976000  0.41299000  0.68307000  1.0
  H  H53  1  0.51243000  0.36552000  0.68968000  1.0
  H  H54  1  0.59814000  0.16109000  0.61548000  1.0
  H  H55  1  0.75588000  0.20860000  0.61182000  1.0
  H  H56  1  0.48803000  0.11466000  0.65343000  1.0
  H  H57  1  0.33136000  0.06677000  0.65465000  1.0
  H  H58  1  0.22717000  0.28822000  0.66576000  1.0
  H  H59  1  0.38388000  0.33808000  0.65971000  1.0
  H  H60  1  0.12213000  0.48035000  0.51330000  1.0
  H  H61  1  0.21287000  0.47983000  0.42964000  1.0
  H  H62  1  0.24315000  0.24303000  0.44248000  1.0
  H  H63  1  0.15226000  0.24490000  0.52720000  1.0
  H  H64  1  0.34701000  0.46939000  0.39460000  1.0
  H  H65  1  0.42599000  0.47598000  0.30669000  1.0
  H  H66  1  0.32012000  0.26312000  0.26346000  1.0
  H  H67  1  0.23873000  0.25572000  0.35110000  1.0
  H  H68  1  0.16432000  0.46125000  0.76598000  1.0
  H  H69  1  0.26467000  0.46165000  0.84586000  1.0
  H  H70  1  0.15115000  0.25171000  0.89476000  1.0
  H  H71  1  0.05562000  0.25039000  0.81224000  1.0
  H  H72  1  0.27323000  0.47987000  0.92850000  1.0
  H  H73  1  0.37242000  0.48643000  0.00848000  1.0
  H  H74  1  0.38231000  0.24949000  0.01659000  1.0
  H  H75  1  0.28303000  0.24125000  0.93538000  1.0
  H  H76  1  0.98708000  0.44943000  0.42892000  1.0
  H  H77  1  0.96507000  0.31206000  0.43128000  1.0
  H  H78  1  0.05777000  0.30611000  0.26641000  1.0
  H  H79  1  0.07626000  0.44332000  0.27147000  1.0
  H  H80  1  0.02542000  0.06387000  0.42701000  1.0
  H  H81  1  0.04828000  0.20119000  0.42978000  1.0
  H  H82  1  0.94167000  0.20972000  0.26789000  1.0
  H  H83  1  0.92486000  0.07219000  0.27202000  1.0
  H  H84  1  0.33024000  0.58701000  0.31693000  1.0
  H  H85  1  0.48757000  0.63448000  0.31032000  1.0
  H  H86  1  0.40186000  0.83891000  0.38452000  1.0
  H  H87  1  0.24411000  0.79140000  0.38818000  1.0
  H  H88  1  0.51197000  0.88534000  0.34657000  1.0
  H  H89  1  0.66864000  0.93323000  0.34535000  1.0
  H  H90  1  0.77283000  0.71178000  0.33424000  1.0
  H  H91  1  0.61612000  0.66192000  0.34029000  1.0
  H  H92  1  0.87787000  0.51965000  0.48670000  1.0
  H  H93  1  0.78713000  0.52017000  0.57036000  1.0
  H  H94  1  0.75685000  0.75697000  0.55752000  1.0
  H  H95  1  0.84774000  0.75511000  0.47280000  1.0
  H  H96  1  0.65299000  0.53061000  0.60540000  1.0
  H  H97  1  0.57401000  0.52402000  0.69331000  1.0
  H  H98  1  0.67988000  0.73688000  0.73654000  1.0
  H  H99  1  0.76127000  0.74428000  0.64890000  1.0
  H  H100  1  0.83568000  0.53875000  0.23402000  1.0
  H  H101  1  0.73533000  0.53835000  0.15414000  1.0
  H  H102  1  0.84885000  0.74829000  0.10524000  1.0
  H  H103  1  0.94438000  0.74961000  0.18776000  1.0
  H  H104  1  0.72677000  0.52013000  0.07150000  1.0
  H  H105  1  0.62758000  0.51358000  0.99152000  1.0
  H  H106  1  0.61769000  0.75051000  0.98341000  1.0
  H  H107  1  0.71697000  0.75875000  0.06462000  1.0
  H  H108  1  0.48708000  0.05056000  0.92892000  1.0
  H  H109  1  0.46507000  0.18794000  0.93128000  1.0
  H  H110  1  0.55777000  0.19389000  0.76641000  1.0
  H  H111  1  0.57626000  0.05668000  0.77147000  1.0
  H  H112  1  0.52542000  0.43613000  0.92701000  1.0
  H  H113  1  0.54828000  0.29881000  0.92978000  1.0
  H  H114  1  0.44167000  0.29028000  0.76789000  1.0
  H  H115  1  0.42486000  0.42781000  0.77202000  1.0
  H  H116  1  0.83024000  0.91299000  0.81693000  1.0
  H  H117  1  0.98757000  0.86552000  0.81032000  1.0
  H  H118  1  0.90186000  0.66109000  0.88452000  1.0
  H  H119  1  0.74412000  0.70860000  0.88818000  1.0
  H  H120  1  0.01197000  0.61466000  0.84657000  1.0
  H  H121  1  0.16864000  0.56677000  0.84535000  1.0
  H  H122  1  0.27283000  0.78822000  0.83424000  1.0
  H  H123  1  0.11612000  0.83808000  0.84029000  1.0
  H  H124  1  0.37787000  0.98035000  0.98670000  1.0
  H  H125  1  0.28713000  0.97983000  0.07036000  1.0
  H  H126  1  0.25685000  0.74303000  0.05752000  1.0
  H  H127  1  0.34774000  0.74489000  0.97280000  1.0
  H  H128  1  0.15299000  0.96939000  0.10540000  1.0
  H  H129  1  0.07401000  0.97598000  0.19331000  1.0
  H  H130  1  0.17988000  0.76312000  0.23654000  1.0
  H  H131  1  0.26127000  0.75572000  0.14890000  1.0
  H  H132  1  0.33568000  0.96125000  0.73403000  1.0
  H  H133  1  0.23533000  0.96165000  0.65414000  1.0
  H  H134  1  0.34885000  0.75171000  0.60524000  1.0
  H  H135  1  0.44438000  0.75039000  0.68776000  1.0
  H  H136  1  0.22677000  0.97987000  0.57150000  1.0
  H  H137  1  0.12758000  0.98643000  0.49152000  1.0
  H  H138  1  0.11769000  0.74949000  0.48341000  1.0
  H  H139  1  0.21697000  0.74125000  0.56462000  1.0
  C  C140  1  0.49790000  0.91496000  0.10582000  1.0
  C  C141  1  0.50986000  0.83886000  0.10496000  1.0
  C  C142  1  0.49069000  0.79769000  0.15127000  1.0
  C  C143  1  0.45953000  0.83559000  0.19681000  1.0
  C  C144  1  0.44838000  0.91181000  0.19418000  1.0
  C  C145  1  0.49208000  0.59886000  0.10704000  1.0
  C  C146  1  0.47972000  0.67493000  0.10595000  1.0
  C  C147  1  0.50261000  0.71679000  0.15136000  1.0
  C  C148  1  0.53761000  0.67960000  0.19623000  1.0
  C  C149  1  0.54814000  0.60331000  0.19402000  1.0
  C  C150  1  0.31733000  0.15835000  0.14209000  1.0
  C  C151  1  0.22232000  0.18620000  0.14669000  1.0
  C  C152  1  0.15312000  0.14228000  0.16857000  1.0
  C  C153  1  0.06486000  0.16936000  0.17197000  1.0
  C  C154  1  0.04261000  0.24081000  0.15337000  1.0
  C  C155  1  0.11311000  0.28413000  0.13148000  1.0
  C  C156  1  0.20154000  0.25760000  0.12850000  1.0
  C  C157  1  0.94873000  0.26966000  0.15650000  1.0
  C  C158  1  0.93154000  0.34638000  0.15528000  1.0
  C  C159  1  0.84332000  0.37382000  0.15656000  1.0
  C  C160  1  0.76936000  0.32538000  0.16079000  1.0
  C  C161  1  0.78529000  0.24896000  0.16321000  1.0
  C  C162  1  0.87348000  0.22166000  0.16038000  1.0
  C  C163  1  0.67376000  0.35300000  0.16210000  1.0
  C  C164  1  0.57528000  0.13633000  0.07510000  1.0
  C  C165  1  0.63140000  0.13743000  0.02519000  1.0
  C  C166  1  0.64968000  0.07137000  0.99782000  1.0
  C  C167  1  0.70120000  0.07184000  0.95118000  1.0
  C  C168  1  0.73472000  0.13863000  0.92987000  1.0
  C  C169  1  0.71617000  0.20478000  0.95769000  1.0
  C  C170  1  0.66598000  0.20422000  0.00508000  1.0
  C  C171  1  0.78602000  0.13755000  0.87902000  1.0
  C  C172  1  0.83981000  0.07574000  0.86588000  1.0
  C  C173  1  0.88435000  0.07179000  0.81693000  1.0
  C  C174  1  0.87642000  0.12936000  0.77952000  1.0
  C  C175  1  0.82484000  0.19204000  0.79258000  1.0
  C  C176  1  0.78045000  0.19604000  0.84181000  1.0
  C  C177  1  0.92211000  0.12329000  0.72624000  1.0
  C  C178  1  0.54279000  0.14200000  0.23652000  1.0
  C  C179  1  0.60335000  0.14380000  0.28458000  1.0
  C  C180  1  0.66263000  0.08456000  0.29439000  1.0
  C  C181  1  0.71813000  0.08448000  0.33943000  1.0
  C  C182  1  0.71479000  0.14307000  0.37666000  1.0
  C  C183  1  0.65597000  0.20280000  0.36613000  1.0
  C  C184  1  0.60146000  0.20356000  0.32040000  1.0
  C  C185  1  0.77161000  0.14009000  0.42542000  1.0
  C  C186  1  0.79723000  0.07114000  0.44710000  1.0
  C  C187  1  0.85286000  0.06711000  0.49204000  1.0
  C  C188  1  0.88518000  0.13175000  0.51655000  1.0
  C  C189  1  0.85841000  0.20075000  0.49619000  1.0
  C  C190  1  0.80219000  0.20474000  0.45135000  1.0
  C  C191  1  0.94769000  0.12780000  0.56364000  1.0
  C  C192  1  0.99790000  0.58504000  0.60582000  1.0
  C  C193  1  0.00986000  0.66114000  0.60496000  1.0
  C  C194  1  0.99069000  0.70231000  0.65127000  1.0
  C  C195  1  0.95953000  0.66441000  0.69681000  1.0
  C  C196  1  0.94838000  0.58819000  0.69418000  1.0
  C  C197  1  0.99208000  0.90113000  0.60704000  1.0
  C  C198  1  0.97972000  0.82506000  0.60595000  1.0
  C  C199  1  0.00261000  0.78321000  0.65136000  1.0
  C  C200  1  0.03762000  0.82040000  0.69623000  1.0
  C  C201  1  0.04814000  0.89669000  0.69402000  1.0
  C  C202  1  0.81733000  0.34165000  0.64209000  1.0
  C  C203  1  0.72232000  0.31380000  0.64669000  1.0
  C  C204  1  0.65312000  0.35772000  0.66857000  1.0
  C  C205  1  0.56486000  0.33064000  0.67197000  1.0
  C  C206  1  0.54261000  0.25919000  0.65337000  1.0
  C  C207  1  0.61311000  0.21587000  0.63148000  1.0
  C  C208  1  0.70154000  0.24240000  0.62850000  1.0
  C  C209  1  0.44873000  0.23034000  0.65650000  1.0
  C  C210  1  0.43154000  0.15362000  0.65528000  1.0
  C  C211  1  0.34332000  0.12618000  0.65656000  1.0
  C  C212  1  0.26936000  0.17462000  0.66080000  1.0
  C  C213  1  0.28529000  0.25104000  0.66321000  1.0
  C  C214  1  0.37348000  0.27834000  0.66038000  1.0
  C  C215  1  0.17376000  0.14700000  0.66210000  1.0
  C  C216  1  0.07528000  0.36366000  0.57510000  1.0
  C  C217  1  0.13140000  0.36257000  0.52519000  1.0
  C  C218  1  0.14968000  0.42863000  0.49783000  1.0
  C  C219  1  0.20120000  0.42816000  0.45118000  1.0
  C  C220  1  0.23472000  0.36137000  0.42987000  1.0
  C  C221  1  0.21617000  0.29522000  0.45769000  1.0
  C  C222  1  0.16598000  0.29578000  0.50508000  1.0
  C  C223  1  0.28602000  0.36245000  0.37902000  1.0
  C  C224  1  0.33981000  0.42426000  0.36588000  1.0
  C  C225  1  0.38435000  0.42821000  0.31693000  1.0
  C  C226  1  0.37642000  0.37064000  0.27952000  1.0
  C  C227  1  0.32484000  0.30796000  0.29258000  1.0
  C  C228  1  0.28045000  0.30396000  0.34181000  1.0
  C  C229  1  0.42211000  0.37671000  0.22624000  1.0
  C  C230  1  0.04279000  0.35800000  0.73652000  1.0
  C  C231  1  0.10336000  0.35620000  0.78458000  1.0
  C  C232  1  0.16263000  0.41544000  0.79439000  1.0
  C  C233  1  0.21813000  0.41553000  0.83943000  1.0
  C  C234  1  0.21479000  0.35693000  0.87666000  1.0
  C  C235  1  0.15597000  0.29720000  0.86613000  1.0
  C  C236  1  0.10147000  0.29643000  0.82040000  1.0
  C  C237  1  0.27161000  0.35991000  0.92542000  1.0
  C  C238  1  0.29723000  0.42887000  0.94710000  1.0
  C  C239  1  0.35286000  0.43289000  0.99204000  1.0
  C  C240  1  0.38518000  0.36825000  0.01655000  1.0
  C  C241  1  0.35841000  0.29925000  0.99619000  1.0
  C  C242  1  0.30219000  0.29526000  0.95135000  1.0
  C  C243  1  0.44769000  0.37220000  0.06364000  1.0
  C  C244  1  0.00210000  0.41496000  0.39418000  1.0
  C  C245  1  0.99014000  0.33886000  0.39504000  1.0
  C  C246  1  0.00931000  0.29769000  0.34873000  1.0
  C  C247  1  0.04047000  0.33559000  0.30319000  1.0
  C  C248  1  0.05162000  0.41181000  0.30582000  1.0
  C  C249  1  0.00793000  0.09887000  0.39296000  1.0
  C  C250  1  0.02028000  0.17494000  0.39405000  1.0
  C  C251  1  0.99739000  0.21679000  0.34864000  1.0
  C  C252  1  0.96239000  0.17960000  0.30377000  1.0
  C  C253  1  0.95186000  0.10331000  0.30598000  1.0
  C  C254  1  0.18267000  0.65835000  0.35791000  1.0
  C  C255  1  0.27768000  0.68620000  0.35331000  1.0
  C  C256  1  0.34688000  0.64228000  0.33143000  1.0
  C  C257  1  0.43514000  0.66936000  0.32803000  1.0
  C  C258  1  0.45739000  0.74081000  0.34663000  1.0
  C  C259  1  0.38689000  0.78413000  0.36852000  1.0
  C  C260  1  0.29846000  0.75760000  0.37150000  1.0
  C  C261  1  0.55126000  0.76966000  0.34350000  1.0
  C  C262  1  0.56846000  0.84638000  0.34473000  1.0
  C  C263  1  0.65668000  0.87382000  0.34344000  1.0
  C  C264  1  0.73064000  0.82538000  0.33921000  1.0
  C  C265  1  0.71471000  0.74896000  0.33679000  1.0
  C  C266  1  0.62652000  0.72166000  0.33962000  1.0
  C  C267  1  0.82624000  0.85300000  0.33790000  1.0
  C  C268  1  0.92471000  0.63633000  0.42490000  1.0
  C  C269  1  0.86860000  0.63743000  0.47481000  1.0
  C  C270  1  0.85032000  0.57137000  0.50218000  1.0
  C  C271  1  0.79880000  0.57184000  0.54882000  1.0
  C  C272  1  0.76528000  0.63863000  0.57013000  1.0
  C  C273  1  0.78384000  0.70478000  0.54231000  1.0
  C  C274  1  0.83402000  0.70422000  0.49492000  1.0
  C  C275  1  0.71398000  0.63755000  0.62098000  1.0
  C  C276  1  0.66019000  0.57574000  0.63412000  1.0
  C  C277  1  0.61565000  0.57179000  0.68307000  1.0
  C  C278  1  0.62358000  0.62936000  0.72048000  1.0
  C  C279  1  0.67516000  0.69203000  0.70742000  1.0
  C  C280  1  0.71955000  0.69604000  0.65819000  1.0
  C  C281  1  0.57789000  0.62329000  0.77376000  1.0
  C  C282  1  0.95722000  0.64200000  0.26348000  1.0
  C  C283  1  0.89665000  0.64380000  0.21542000  1.0
  C  C284  1  0.83737000  0.58456000  0.20561000  1.0
  C  C285  1  0.78187000  0.58447000  0.16057000  1.0
  C  C286  1  0.78521000  0.64307000  0.12335000  1.0
  C  C287  1  0.84403000  0.70280000  0.13387000  1.0
  C  C288  1  0.89854000  0.70356000  0.17959000  1.0
  C  C289  1  0.72839000  0.64009000  0.07458000  1.0
  C  C290  1  0.70277000  0.57114000  0.05290000  1.0
  C  C291  1  0.64714000  0.56711000  0.00796000  1.0
  C  C292  1  0.61482000  0.63175000  0.98345000  1.0
  C  C293  1  0.64159000  0.70076000  0.00380000  1.0
  C  C294  1  0.69781000  0.70474000  0.04865000  1.0
  C  C295  1  0.55230000  0.62780000  0.93636000  1.0
  C  C296  1  0.50210000  0.08504000  0.89418000  1.0
  C  C297  1  0.49014000  0.16114000  0.89504000  1.0
  C  C298  1  0.50931000  0.20231000  0.84873000  1.0
  C  C299  1  0.54047000  0.16441000  0.80319000  1.0
  C  C300  1  0.55162000  0.08819000  0.80582000  1.0
  C  C301  1  0.50792000  0.40113000  0.89296000  1.0
  C  C302  1  0.52028000  0.32506000  0.89405000  1.0
  C  C303  1  0.49739000  0.28321000  0.84864000  1.0
  C  C304  1  0.46238000  0.32040000  0.80377000  1.0
  C  C305  1  0.45186000  0.39669000  0.80598000  1.0
  C  C306  1  0.68267000  0.84165000  0.85791000  1.0
  C  C307  1  0.77768000  0.81380000  0.85331000  1.0
  C  C308  1  0.84688000  0.85772000  0.83143000  1.0
  C  C309  1  0.93514000  0.83064000  0.82803000  1.0
  C  C310  1  0.95739000  0.75919000  0.84663000  1.0
  C  C311  1  0.88689000  0.71587000  0.86852000  1.0
  C  C312  1  0.79846000  0.74240000  0.87150000  1.0
  C  C313  1  0.05127000  0.73034000  0.84350000  1.0
  C  C314  1  0.06846000  0.65362000  0.84472000  1.0
  C  C315  1  0.15668000  0.62618000  0.84344000  1.0
  C  C316  1  0.23064000  0.67462000  0.83921000  1.0
  C  C317  1  0.21471000  0.75104000  0.83679000  1.0
  C  C318  1  0.12652000  0.77834000  0.83962000  1.0
  C  C319  1  0.32624000  0.64700000  0.83790000  1.0
  C  C320  1  0.42472000  0.86367000  0.92490000  1.0
  C  C321  1  0.36860000  0.86256000  0.97481000  1.0
  C  C322  1  0.35032000  0.92863000  0.00218000  1.0
  C  C323  1  0.29880000  0.92816000  0.04882000  1.0
  C  C324  1  0.26528000  0.86138000  0.07013000  1.0
  C  C325  1  0.28383000  0.79522000  0.04230000  1.0
  C  C326  1  0.33402000  0.79578000  0.99492000  1.0
  C  C327  1  0.21398000  0.86245000  0.12098000  1.0
  C  C328  1  0.16019000  0.92426000  0.13412000  1.0
  C  C329  1  0.11565000  0.92821000  0.18307000  1.0
  C  C330  1  0.12358000  0.87064000  0.22048000  1.0
  C  C331  1  0.17516000  0.80796000  0.20742000  1.0
  C  C332  1  0.21955000  0.80396000  0.15819000  1.0
  C  C333  1  0.07789000  0.87671000  0.27376000  1.0
  C  C334  1  0.45721000  0.85800000  0.76348000  1.0
  C  C335  1  0.39664000  0.85620000  0.71542000  1.0
  C  C336  1  0.33737000  0.91544000  0.70561000  1.0
  C  C337  1  0.28187000  0.91553000  0.66057000  1.0
  C  C338  1  0.28521000  0.85693000  0.62334000  1.0
  C  C339  1  0.34403000  0.79720000  0.63387000  1.0
  C  C340  1  0.39853000  0.79644000  0.67960000  1.0
  C  C341  1  0.22839000  0.85991000  0.57458000  1.0
  C  C342  1  0.20277000  0.92887000  0.55290000  1.0
  C  C343  1  0.14714000  0.93289000  0.50796000  1.0
  C  C344  1  0.11482000  0.86825000  0.48345000  1.0
  C  C345  1  0.14159000  0.79925000  0.50381000  1.0
  C  C346  1  0.19781000  0.79526000  0.54865000  1.0
  C  C347  1  0.05231000  0.87220000  0.43636000  1.0
  N  N348  1  0.46733000  0.95086000  0.14959000  1.0
  N  N349  1  0.52576000  0.56348000  0.15030000  1.0
  N  N350  1  0.96733000  0.54914000  0.64959000  1.0
  N  N351  1  0.02576000  0.93652000  0.65030000  1.0
  N  N352  1  0.03267000  0.45086000  0.35041000  1.0
  N  N353  1  0.97425000  0.06348000  0.34970000  1.0
  N  N354  1  0.53267000  0.04914000  0.85041000  1.0
  N  N355  1  0.47424000  0.43652000  0.84970000  1.0
  O  O356  1  0.33261000  0.09155000  0.15828000  1.0
  O  O357  1  0.37733000  0.19978000  0.12180000  1.0
  O  O358  1  0.66015000  0.42038000  0.14614000  1.0
  O  O359  1  0.61220000  0.31050000  0.17870000  1.0
  O  O360  1  0.52145000  0.08039000  0.08005000  1.0
  O  O361  1  0.58465000  0.18793000  0.10871000  1.0
  O  O362  1  0.97464000  0.06684000  0.72009000  1.0
  O  O363  1  0.90570000  0.17129000  0.69061000  1.0
  O  O364  1  0.53986000  0.07969000  0.21144000  1.0
  O  O365  1  0.49828000  0.19917000  0.22383000  1.0
  O  O366  1  0.95671000  0.06360000  0.58557000  1.0
  O  O367  1  0.98850000  0.18576000  0.57830000  1.0
  O  O368  1  0.83261000  0.40845000  0.65828000  1.0
  O  O369  1  0.87733000  0.30023000  0.62180000  1.0
  O  O370  1  0.16015000  0.07962000  0.64614000  1.0
  O  O371  1  0.11221000  0.18950000  0.67870000  1.0
  O  O372  1  0.02145000  0.41961000  0.58005000  1.0
  O  O373  1  0.08465000  0.31208000  0.60871000  1.0
  O  O374  1  0.47464000  0.43316000  0.22009000  1.0
  O  O375  1  0.40570000  0.32871000  0.19061000  1.0
  O  O376  1  0.03986000  0.42031000  0.71144000  1.0
  O  O377  1  0.99828000  0.30083000  0.72384000  1.0
  O  O378  1  0.45671000  0.43640000  0.08556000  1.0
  O  O379  1  0.48851000  0.31424000  0.07830000  1.0
  O  O380  1  0.16739000  0.59155000  0.34172000  1.0
  O  O381  1  0.12267000  0.69978000  0.37820000  1.0
  O  O382  1  0.83985000  0.92038000  0.35386000  1.0
  O  O383  1  0.88780000  0.81050000  0.32130000  1.0
  O  O384  1  0.97854000  0.58038000  0.41995000  1.0
  O  O385  1  0.91535000  0.68793000  0.39129000  1.0
  O  O386  1  0.52536000  0.56684000  0.77991000  1.0
  O  O387  1  0.59430000  0.67129000  0.80939000  1.0
  O  O388  1  0.96014000  0.57969000  0.28856000  1.0
  O  O389  1  0.00172000  0.69917000  0.27616000  1.0
  O  O390  1  0.54329000  0.56360000  0.91444000  1.0
  O  O391  1  0.51149000  0.68576000  0.92171000  1.0
  O  O392  1  0.66739000  0.90845000  0.84172000  1.0
  O  O393  1  0.62267000  0.80022000  0.87820000  1.0
  O  O394  1  0.33985000  0.57962000  0.85386000  1.0
  O  O395  1  0.38780000  0.68950000  0.82131000  1.0
  O  O396  1  0.47854000  0.91962000  0.91995000  1.0
  O  O397  1  0.41535000  0.81208000  0.89129000  1.0
  O  O398  1  0.02537000  0.93316000  0.27991000  1.0
  O  O399  1  0.09430000  0.82871000  0.30939000  1.0
  O  O400  1  0.46014000  0.92031000  0.78856000  1.0
  O  O401  1  0.50172000  0.80083000  0.77616000  1.0
  O  O402  1  0.04329000  0.93640000  0.41443000  1.0
  O  O403  1  0.01150000  0.81424000  0.42170000  1.0
