# generated using pymatgen
data_Zn3H28C36N11O14
_symmetry_space_group_name_H-M   'P 1'
_cell_length_a   12.92160000
_cell_length_b   12.92170000
_cell_length_c   14.84900000
_cell_angle_alpha   91.34890000
_cell_angle_beta   91.34900000
_cell_angle_gamma   90.54570000
_symmetry_Int_Tables_number   1
_chemical_formula_structural   Zn3H28C36N11O14
_chemical_formula_sum   'Zn6 H56 C72 N22 O28'
_cell_volume   2477.82322751
_cell_formula_units_Z   2
loop_
 _symmetry_equiv_pos_site_id
 _symmetry_equiv_pos_as_xyz
  1  'x, y, z'
loop_
 _atom_site_type_symbol
 _atom_site_label
 _atom_site_symmetry_multiplicity
 _atom_site_fract_x
 _atom_site_fract_y
 _atom_site_fract_z
 _atom_site_occupancy
  Zn  Zn0  1  0.61775000  0.38225000  0.25000000  1.0
  Zn  Zn1  1  0.38224000  0.61776000  0.75000000  1.0
  Zn  Zn2  1  0.41064000  0.93450000  0.22376000  1.0
  Zn  Zn3  1  0.06550000  0.58936000  0.27624000  1.0
  Zn  Zn4  1  0.58933000  0.06551000  0.77624000  1.0
  Zn  Zn5  1  0.93449000  0.41067000  0.72376000  1.0
  H  H6  1  0.64289000  0.98429000  0.11836000  1.0
  H  H7  1  0.01571000  0.35712000  0.38164000  1.0
  H  H8  1  0.35712000  0.01571000  0.88164000  1.0
  H  H9  1  0.98429000  0.64289000  0.61836000  1.0
  H  H10  1  0.50080000  0.27819000  0.06289000  1.0
  H  H11  1  0.72181000  0.49920000  0.43711000  1.0
  H  H12  1  0.49920000  0.72181000  0.93711000  1.0
  H  H13  1  0.27819000  0.50080000  0.56289000  1.0
  H  H14  1  0.66247000  0.95890000  0.95144000  1.0
  H  H15  1  0.04110000  0.33753000  0.54856000  1.0
  H  H16  1  0.33753000  0.04110000  0.04857000  1.0
  H  H17  1  0.95890000  0.66247000  0.45143000  1.0
  H  H18  1  0.52031000  0.23730000  0.89938000  1.0
  H  H19  1  0.76270000  0.47969000  0.60062000  1.0
  H  H20  1  0.47969000  0.76271000  0.10063000  1.0
  H  H21  1  0.23730000  0.52031000  0.39938000  1.0
  H  H22  1  0.54083000  0.54522000  0.38132000  1.0
  H  H23  1  0.45478000  0.45917000  0.11868000  1.0
  H  H24  1  0.45917000  0.45479000  0.61868000  1.0
  H  H25  1  0.54522000  0.54083000  0.88132000  1.0
  H  H26  1  0.41314000  0.68666000  0.38500000  1.0
  H  H27  1  0.31333000  0.58686000  0.11500000  1.0
  H  H28  1  0.58685000  0.31334000  0.61500000  1.0
  H  H29  1  0.68666000  0.41314000  0.88500000  1.0
  H  H30  1  0.72065000  0.83857000  0.44084000  1.0
  H  H31  1  0.16143000  0.27935000  0.05916000  1.0
  H  H32  1  0.27935000  0.16143000  0.55916000  1.0
  H  H33  1  0.83857000  0.72065000  0.94084000  1.0
  H  H34  1  0.82921000  0.80231000  0.37370000  1.0
  H  H35  1  0.19769000  0.17079000  0.12630000  1.0
  H  H36  1  0.17079000  0.19770000  0.62629000  1.0
  H  H37  1  0.80231000  0.82921000  0.87371000  1.0
  H  H38  1  0.74956000  0.70489000  0.42157000  1.0
  H  H39  1  0.29511000  0.25044000  0.07843000  1.0
  H  H40  1  0.25044000  0.29511000  0.57843000  1.0
  H  H41  1  0.70489000  0.74956000  0.92157000  1.0
  H  H42  1  0.67104000  0.73498000  0.17501000  1.0
  H  H43  1  0.26502000  0.32896000  0.32499000  1.0
  H  H44  1  0.32896000  0.26502000  0.82499000  1.0
  H  H45  1  0.73498000  0.67104000  0.67501000  1.0
  H  H46  1  0.69221000  0.63184000  0.25093000  1.0
  H  H47  1  0.36816000  0.30780000  0.24907000  1.0
  H  H48  1  0.30779000  0.36816000  0.74907000  1.0
  H  H49  1  0.63184000  0.69220000  0.75093000  1.0
  H  H50  1  0.79672000  0.71811000  0.22815000  1.0
  H  H51  1  0.28189000  0.20328000  0.27185000  1.0
  H  H52  1  0.20329000  0.28189000  0.77185000  1.0
  H  H53  1  0.71811000  0.79671000  0.72815000  1.0
  H  H54  1  0.58489000  0.88778000  0.36503000  1.0
  H  H55  1  0.11222000  0.41511000  0.13497000  1.0
  H  H56  1  0.41511000  0.11222000  0.63497000  1.0
  H  H57  1  0.88778000  0.58489000  0.86503000  1.0
  H  H58  1  0.45599000  0.17045000  0.48365000  1.0
  H  H59  1  0.82955000  0.54401000  0.01635000  1.0
  H  H60  1  0.54402000  0.82955000  0.51636000  1.0
  H  H61  1  0.17045000  0.45598000  0.98364000  1.0
  C  C62  1  0.54546000  0.14579000  0.20036000  1.0
  C  C63  1  0.85422000  0.45454000  0.29964000  1.0
  C  C64  1  0.45454000  0.85422000  0.79965000  1.0
  C  C65  1  0.14578000  0.54545000  0.70036000  1.0
  C  C66  1  0.56711000  0.13249000  0.10431000  1.0
  C  C67  1  0.86751000  0.43289000  0.39570000  1.0
  C  C68  1  0.43289000  0.86751000  0.89570000  1.0
  C  C69  1  0.13249000  0.56711000  0.60430000  1.0
  C  C70  1  0.61525000  0.04247000  0.07192000  1.0
  C  C71  1  0.95753000  0.38475000  0.42809000  1.0
  C  C72  1  0.38475000  0.95753000  0.92809000  1.0
  C  C73  1  0.04247000  0.61525000  0.57191000  1.0
  C  C74  1  0.53562000  0.20571000  0.04149000  1.0
  C  C75  1  0.79429000  0.46438000  0.45851000  1.0
  C  C76  1  0.46438000  0.79429000  0.95851000  1.0
  C  C77  1  0.20571000  0.53562000  0.54149000  1.0
  C  C78  1  0.62566000  0.02761000  0.97955000  1.0
  C  C79  1  0.97238000  0.37434000  0.52045000  1.0
  C  C80  1  0.37434000  0.97239000  0.02046000  1.0
  C  C81  1  0.02761000  0.62566000  0.47954000  1.0
  C  C82  1  0.54746000  0.18398000  0.95033000  1.0
  C  C83  1  0.81601000  0.45255000  0.54967000  1.0
  C  C84  1  0.45254000  0.81602000  0.04968000  1.0
  C  C85  1  0.18399000  0.54746000  0.45032000  1.0
  C  C86  1  0.48922000  0.11052000  0.33313000  1.0
  C  C87  1  0.88948000  0.51079000  0.16687000  1.0
  C  C88  1  0.51079000  0.88948000  0.66688000  1.0
  C  C89  1  0.11052000  0.48921000  0.83312000  1.0
  C  C90  1  0.53067000  0.21044000  0.33610000  1.0
  C  C91  1  0.78956000  0.46933000  0.16390000  1.0
  C  C92  1  0.46933000  0.78956000  0.66390000  1.0
  C  C93  1  0.21044000  0.53067000  0.83610000  1.0
  C  C94  1  0.54194000  0.28857000  0.41017000  1.0
  C  C95  1  0.71143000  0.45806000  0.08983000  1.0
  C  C96  1  0.45806000  0.71143000  0.58983000  1.0
  C  C97  1  0.28857000  0.54194000  0.91017000  1.0
  C  C98  1  0.43477000  0.04978000  0.40041000  1.0
  C  C99  1  0.95023000  0.56523000  0.09959000  1.0
  C  C100  1  0.56524000  0.95021000  0.59959000  1.0
  C  C101  1  0.04978000  0.43476000  0.90041000  1.0
  C  C102  1  0.19264000  0.99117000  0.23364000  1.0
  C  C103  1  0.00883000  0.80737000  0.26636000  1.0
  C  C104  1  0.80740000  0.00884000  0.76636000  1.0
  C  C105  1  0.99115000  0.19260000  0.73364000  1.0
  C  C106  1  0.19672000  0.87896000  0.24526000  1.0
  C  C107  1  0.12105000  0.80328000  0.25474000  1.0
  C  C108  1  0.80325000  0.12107000  0.75474000  1.0
  C  C109  1  0.87893000  0.19675000  0.74526000  1.0
  C  C110  1  0.27110000  0.72890000  0.25000000  1.0
  C  C111  1  0.72891000  0.27109000  0.75000000  1.0
  C  C112  1  0.49111000  0.55934000  0.32276000  1.0
  C  C113  1  0.44066000  0.50888000  0.17724000  1.0
  C  C114  1  0.50888000  0.44066000  0.67724000  1.0
  C  C115  1  0.55934000  0.49112000  0.82276000  1.0
  C  C116  1  0.41775000  0.63722000  0.32480000  1.0
  C  C117  1  0.36278000  0.58225000  0.17520000  1.0
  C  C118  1  0.58224000  0.36279000  0.67520000  1.0
  C  C119  1  0.63721000  0.41776000  0.82480000  1.0
  C  C120  1  0.35129000  0.64870000  0.25000000  1.0
  C  C121  1  0.64868000  0.35131000  0.75000000  1.0
  C  C122  1  0.74987000  0.78216000  0.39176000  1.0
  C  C123  1  0.21784000  0.25013000  0.10824000  1.0
  C  C124  1  0.25014000  0.21784000  0.60823000  1.0
  C  C125  1  0.78216000  0.74986000  0.89177000  1.0
  C  C126  1  0.71276000  0.71238000  0.23633000  1.0
  C  C127  1  0.28762000  0.28724000  0.26367000  1.0
  C  C128  1  0.28725000  0.28762000  0.76367000  1.0
  C  C129  1  0.71238000  0.71275000  0.73633000  1.0
  C  C130  1  0.59919000  0.83834000  0.30545000  1.0
  C  C131  1  0.16166000  0.40081000  0.19456000  1.0
  C  C132  1  0.40082000  0.16166000  0.69456000  1.0
  C  C133  1  0.83834000  0.59918000  0.80544000  1.0
  N  N134  1  0.58968000  0.09560000  0.91933000  1.0
  N  N135  1  0.90440000  0.41032000  0.58067000  1.0
  N  N136  1  0.41032000  0.90440000  0.08067000  1.0
  N  N137  1  0.09560000  0.58968000  0.41933000  1.0
  N  N138  1  0.50007000  0.07030000  0.24778000  1.0
  N  N139  1  0.92969000  0.49993000  0.25222000  1.0
  N  N140  1  0.49993000  0.92969000  0.75222000  1.0
  N  N141  1  0.07031000  0.50006000  0.74778000  1.0
  N  N142  1  0.56494000  0.23257000  0.25184000  1.0
  N  N143  1  0.76743000  0.43507000  0.24816000  1.0
  N  N144  1  0.43506000  0.76743000  0.74817000  1.0
  N  N145  1  0.23257000  0.56494000  0.75183000  1.0
  N  N146  1  0.29072000  0.83125000  0.24348000  1.0
  N  N147  1  0.16875000  0.70928000  0.25652000  1.0
  N  N148  1  0.70928000  0.16877000  0.75653000  1.0
  N  N149  1  0.83123000  0.29072000  0.74347000  1.0
  N  N150  1  0.50357000  0.49643000  0.25000000  1.0
  N  N151  1  0.49643000  0.50357000  0.75000000  1.0
  N  N152  1  0.68372000  0.78076000  0.31075000  1.0
  N  N153  1  0.21924000  0.31628000  0.18925000  1.0
  N  N154  1  0.31628000  0.21924000  0.68925000  1.0
  N  N155  1  0.78076000  0.68372000  0.81076000  1.0
  O  O156  1  0.50120000  0.26962000  0.48561000  1.0
  O  O157  1  0.73038000  0.49880000  0.01439000  1.0
  O  O158  1  0.49880000  0.73038000  0.51439000  1.0
  O  O159  1  0.26962000  0.50119000  0.98561000  1.0
  O  O160  1  0.53874000  0.83702000  0.23721000  1.0
  O  O161  1  0.16298000  0.46126000  0.26279000  1.0
  O  O162  1  0.46125000  0.16297000  0.76279000  1.0
  O  O163  1  0.83703000  0.53875000  0.73721000  1.0
  O  O164  1  0.59158000  0.37103000  0.39298000  1.0
  O  O165  1  0.62897000  0.40842000  0.10702000  1.0
  O  O166  1  0.40842000  0.62897000  0.60702000  1.0
  O  O167  1  0.37103000  0.59158000  0.89298000  1.0
  O  O168  1  0.42041000  0.09414000  0.47975000  1.0
  O  O169  1  0.90586000  0.57959000  0.02025000  1.0
  O  O170  1  0.57960000  0.90586000  0.52026000  1.0
  O  O171  1  0.09414000  0.42040000  0.97974000  1.0
  O  O172  1  0.40299000  0.96088000  0.38037000  1.0
  O  O173  1  0.03912000  0.59701000  0.11963000  1.0
  O  O174  1  0.59703000  0.03912000  0.61964000  1.0
  O  O175  1  0.96088000  0.40297000  0.88036000  1.0
  O  O176  1  0.27918000  0.03730000  0.21682000  1.0
  O  O177  1  0.96270000  0.72083000  0.28318000  1.0
  O  O178  1  0.72091000  0.96267000  0.78317000  1.0
  O  O179  1  0.03733000  0.27909000  0.71683000  1.0
  O  O180  1  0.10922000  0.04043000  0.23849000  1.0
  O  O181  1  0.95958000  0.89078000  0.26151000  1.0
  O  O182  1  0.89079000  0.95962000  0.76151000  1.0
  O  O183  1  0.04038000  0.10921000  0.73849000  1.0
