# generated using pymatgen
data_Zn3H38C44(N2O5)4
_symmetry_space_group_name_H-M   'P 1'
_cell_length_a   16.38460000
_cell_length_b   16.56530000
_cell_length_c   18.46350000
_cell_angle_alpha   90.00000000
_cell_angle_beta   90.00000000
_cell_angle_gamma   109.93700000
_symmetry_Int_Tables_number   1
_chemical_formula_structural   Zn3H38C44(N2O5)4
_chemical_formula_sum   'Zn12 H152 C176 N32 O80'
_cell_volume   4710.95012152
_cell_formula_units_Z   4
loop_
 _symmetry_equiv_pos_site_id
 _symmetry_equiv_pos_as_xyz
  1  'x, y, z'
loop_
 _atom_site_type_symbol
 _atom_site_label
 _atom_site_symmetry_multiplicity
 _atom_site_fract_x
 _atom_site_fract_y
 _atom_site_fract_z
 _atom_site_occupancy
  Zn  Zn0  1  0.12572000  0.18692000  0.60671000  1.0
  Zn  Zn1  1  0.37428000  0.81308000  0.10671000  1.0
  Zn  Zn2  1  0.87428000  0.81308000  0.39329000  1.0
  Zn  Zn3  1  0.62572000  0.18692000  0.89329000  1.0
  Zn  Zn4  1  0.35464000  0.30736000  0.61788000  1.0
  Zn  Zn5  1  0.14536000  0.69265000  0.11788000  1.0
  Zn  Zn6  1  0.64536000  0.69264000  0.38212000  1.0
  Zn  Zn7  1  0.85464000  0.30736000  0.88212000  1.0
  Zn  Zn8  1  0.00000000  0.00000000  0.50000000  1.0
  Zn  Zn9  1  0.50000000  0.00000000  0.00000000  1.0
  Zn  Zn10  1  0.50000000  0.50000000  0.50000000  1.0
  Zn  Zn11  1  0.00000000  0.50000000  0.00000000  1.0
  H  H12  1  0.39466000  0.16612000  0.76608000  1.0
  H  H13  1  0.10534000  0.83388000  0.26608000  1.0
  H  H14  1  0.60534000  0.83388000  0.23392000  1.0
  H  H15  1  0.89466000  0.16612000  0.73392000  1.0
  H  H16  1  0.34099000  0.91708000  0.85990000  1.0
  H  H17  1  0.15901000  0.08292000  0.35990000  1.0
  H  H18  1  0.65901000  0.08291000  0.14010000  1.0
  H  H19  1  0.84099000  0.91708000  0.64010000  1.0
  H  H20  1  0.15172000  0.96658000  0.72002000  1.0
  H  H21  1  0.34828000  0.03342000  0.22002000  1.0
  H  H22  1  0.84828000  0.03342000  0.27998000  1.0
  H  H23  1  0.65172000  0.96658000  0.77998000  1.0
  H  H24  1  0.22080000  0.85673000  0.91956000  1.0
  H  H25  1  0.27920000  0.14328000  0.41956000  1.0
  H  H26  1  0.77920000  0.14327000  0.08044000  1.0
  H  H27  1  0.72080000  0.85672000  0.58044000  1.0
  H  H28  1  0.03633000  0.60988000  0.86302000  1.0
  H  H29  1  0.46368000  0.39012000  0.36301000  1.0
  H  H30  1  0.96367000  0.39012000  0.13698000  1.0
  H  H31  1  0.53633000  0.60988000  0.63698000  1.0
  H  H32  1  0.12964000  0.80493000  0.69980000  1.0
  H  H33  1  0.37036000  0.19507000  0.19980000  1.0
  H  H34  1  0.87036000  0.19507000  0.30020000  1.0
  H  H35  1  0.62964000  0.80493000  0.80020000  1.0
  H  H36  1  0.01920000  0.11935000  0.32984000  1.0
  H  H37  1  0.48081000  0.88065000  0.82984000  1.0
  H  H38  1  0.98081000  0.88065000  0.67016000  1.0
  H  H39  1  0.51919000  0.11935000  0.17016000  1.0
  H  H40  1  0.16388000  0.32846000  0.19117000  1.0
  H  H41  1  0.33613000  0.67154000  0.69118000  1.0
  H  H42  1  0.83612000  0.67154000  0.80882000  1.0
  H  H43  1  0.66387000  0.32846000  0.30882000  1.0
  H  H44  1  0.19858000  0.34975000  0.42231000  1.0
  H  H45  1  0.30142000  0.65025000  0.92231000  1.0
  H  H46  1  0.80142000  0.65025000  0.57769000  1.0
  H  H47  1  0.69859000  0.34975000  0.07769000  1.0
  H  H48  1  0.17196000  0.47124000  0.21272000  1.0
  H  H49  1  0.32804000  0.52875000  0.71272000  1.0
  H  H50  1  0.82804000  0.52875000  0.78728000  1.0
  H  H51  1  0.67196000  0.47125000  0.28729000  1.0
  H  H52  1  0.42153000  0.66198000  0.25101000  1.0
  H  H53  1  0.07847000  0.33802000  0.75101000  1.0
  H  H54  1  0.57847000  0.33802000  0.74899000  1.0
  H  H55  1  0.92153000  0.66198000  0.24899000  1.0
  H  H56  1  0.34308000  0.42850000  0.37479000  1.0
  H  H57  1  0.15692000  0.57150000  0.87479000  1.0
  H  H58  1  0.65692000  0.57150000  0.62521000  1.0
  H  H59  1  0.84308000  0.42850000  0.12522000  1.0
  H  H60  1  0.33746000  0.01076000  0.61989000  1.0
  H  H61  1  0.16255000  0.98924000  0.11990000  1.0
  H  H62  1  0.66255000  0.98924000  0.38010000  1.0
  H  H63  1  0.83745000  0.01076000  0.88010000  1.0
  H  H64  1  0.37428000  0.99368000  0.53158000  1.0
  H  H65  1  0.12572000  0.00633000  0.03158000  1.0
  H  H66  1  0.62572000  0.00633000  0.46842000  1.0
  H  H67  1  0.87428000  0.99367000  0.96842000  1.0
  H  H68  1  0.25169000  0.86696000  0.51221000  1.0
  H  H69  1  0.24832000  0.13304000  0.01221000  1.0
  H  H70  1  0.74832000  0.13304000  0.48778000  1.0
  H  H71  1  0.75168000  0.86696000  0.98779000  1.0
  H  H72  1  0.24393000  0.86449000  0.60875000  1.0
  H  H73  1  0.25608000  0.13552000  0.10875000  1.0
  H  H74  1  0.75608000  0.13552000  0.39125000  1.0
  H  H75  1  0.74392000  0.86448000  0.89125000  1.0
  H  H76  1  0.84301000  0.51713000  0.49927000  1.0
  H  H77  1  0.65699000  0.48287000  0.99927000  1.0
  H  H78  1  0.15698000  0.48287000  0.50073000  1.0
  H  H79  1  0.34301000  0.51713000  0.00073000  1.0
  H  H80  1  0.81042000  0.52991000  0.40898000  1.0
  H  H81  1  0.68959000  0.47009000  0.90897000  1.0
  H  H82  1  0.18958000  0.47009000  0.59103000  1.0
  H  H83  1  0.31042000  0.52992000  0.09102000  1.0
  H  H84  1  0.79755000  0.38278000  0.39500000  1.0
  H  H85  1  0.70245000  0.61722000  0.89500000  1.0
  H  H86  1  0.20245000  0.61722000  0.60500000  1.0
  H  H87  1  0.29755000  0.38279000  0.10500000  1.0
  H  H88  1  0.78902000  0.36394000  0.49030000  1.0
  H  H89  1  0.71098000  0.63606000  0.99030000  1.0
  H  H90  1  0.21098000  0.63605000  0.50970000  1.0
  H  H91  1  0.28903000  0.36395000  0.00970000  1.0
  H  H92  1  0.99919000  0.60871000  0.62523000  1.0
  H  H93  1  0.50082000  0.39129000  0.12523000  1.0
  H  H94  1  0.00081000  0.39129000  0.37476000  1.0
  H  H95  1  0.49919000  0.60871000  0.87477000  1.0
  H  H96  1  0.97439000  0.06175000  0.14622000  1.0
  H  H97  1  0.52561000  0.93825000  0.64622000  1.0
  H  H98  1  0.02561000  0.93825000  0.85378000  1.0
  H  H99  1  0.47439000  0.06175000  0.35378000  1.0
  H  H100  1  0.10419000  0.88587000  0.55010000  1.0
  H  H101  1  0.39582000  0.11413000  0.05010000  1.0
  H  H102  1  0.89582000  0.11413000  0.44990000  1.0
  H  H103  1  0.60418000  0.88587000  0.94990000  1.0
  H  H104  1  0.30203000  0.11348000  0.52961000  1.0
  H  H105  1  0.19796000  0.88653000  0.02961000  1.0
  H  H106  1  0.69796000  0.88653000  0.47039000  1.0
  H  H107  1  0.80204000  0.11347000  0.97039000  1.0
  H  H108  1  0.63489000  0.30635000  0.42410000  1.0
  H  H109  1  0.86511000  0.69365000  0.92410000  1.0
  H  H110  1  0.36511000  0.69365000  0.57590000  1.0
  H  H111  1  0.13489000  0.30635000  0.07590000  1.0
  H  H112  1  0.69672000  0.55380000  0.49028000  1.0
  H  H113  1  0.80328000  0.44621000  0.99028000  1.0
  H  H114  1  0.30327000  0.44620000  0.50972000  1.0
  H  H115  1  0.19672000  0.55380000  0.00972000  1.0
  H  H116  1  0.01923000  0.72014000  0.41144000  1.0
  H  H117  1  0.48077000  0.27986000  0.91144000  1.0
  H  H118  1  0.98077000  0.27986000  0.58856000  1.0
  H  H119  1  0.51922000  0.72014000  0.08856000  1.0
  H  H120  1  0.12379000  0.72960000  0.44588000  1.0
  H  H121  1  0.37621000  0.27040000  0.94589000  1.0
  H  H122  1  0.87621000  0.27040000  0.55411000  1.0
  H  H123  1  0.62379000  0.72961000  0.05412000  1.0
  H  H124  1  0.04760000  0.66858000  0.29623000  1.0
  H  H125  1  0.45239000  0.33141000  0.79624000  1.0
  H  H126  1  0.95240000  0.33141000  0.70376000  1.0
  H  H127  1  0.54760000  0.66858000  0.20376000  1.0
  H  H128  1  0.15831000  0.71830000  0.32044000  1.0
  H  H129  1  0.34169000  0.28170000  0.82044000  1.0
  H  H130  1  0.84169000  0.28170000  0.67956000  1.0
  H  H131  1  0.65831000  0.71830000  0.17956000  1.0
  H  H132  1  0.00694000  0.58538000  0.49502000  1.0
  H  H133  1  0.49306000  0.41462000  0.99502000  1.0
  H  H134  1  0.99306000  0.41462000  0.50498000  1.0
  H  H135  1  0.50694000  0.58538000  0.00498000  1.0
  H  H136  1  0.10087000  0.54591000  0.30282000  1.0
  H  H137  1  0.39913000  0.45409000  0.80282000  1.0
  H  H138  1  0.89913000  0.45409000  0.69718000  1.0
  H  H139  1  0.60088000  0.54591000  0.19718000  1.0
  H  H140  1  0.01346000  0.79138000  0.07400000  1.0
  H  H141  1  0.48654000  0.20862000  0.57400000  1.0
  H  H142  1  0.98654000  0.20862000  0.92600000  1.0
  H  H143  1  0.51346000  0.79138000  0.42600000  1.0
  H  H144  1  0.90204000  0.73100000  0.05930000  1.0
  H  H145  1  0.59796000  0.26900000  0.55930000  1.0
  H  H146  1  0.09796000  0.26900000  0.94070000  1.0
  H  H147  1  0.40204000  0.73100000  0.44070000  1.0
  H  H148  1  0.85972000  0.77035000  0.17563000  1.0
  H  H149  1  0.64028000  0.22965000  0.67563000  1.0
  H  H150  1  0.14028000  0.22965000  0.82438000  1.0
  H  H151  1  0.35972000  0.77035000  0.32437000  1.0
  H  H152  1  0.96978000  0.78574000  0.19827000  1.0
  H  H153  1  0.53022000  0.21426000  0.69827000  1.0
  H  H154  1  0.03022000  0.21426000  0.80173000  1.0
  H  H155  1  0.46979000  0.78574000  0.30173000  1.0
  H  H156  1  0.95465000  0.88205000  0.99373000  1.0
  H  H157  1  0.54535000  0.11796000  0.49372000  1.0
  H  H158  1  0.04535000  0.11796000  0.00628000  1.0
  H  H159  1  0.45465000  0.88204000  0.50628000  1.0
  H  H160  1  0.93530000  0.92843000  0.20760000  1.0
  H  H161  1  0.56470000  0.07157000  0.70760000  1.0
  H  H162  1  0.06470000  0.07157000  0.79240000  1.0
  H  H163  1  0.43531000  0.92843000  0.29240000  1.0
  C  C164  1  0.27110000  0.07194000  0.73834000  1.0
  C  C165  1  0.22890000  0.92806000  0.23834000  1.0
  C  C166  1  0.72890000  0.92806000  0.26166000  1.0
  C  C167  1  0.77110000  0.07194000  0.76166000  1.0
  C  C168  1  0.35159000  0.10026000  0.77333000  1.0
  C  C169  1  0.14841000  0.89975000  0.27333000  1.0
  C  C170  1  0.64841000  0.89974000  0.22667000  1.0
  C  C171  1  0.85159000  0.10025000  0.72667000  1.0
  C  C172  1  0.37624000  0.04408000  0.81718000  1.0
  C  C173  1  0.12376000  0.95592000  0.31719000  1.0
  C  C174  1  0.62376000  0.95591000  0.18281000  1.0
  C  C175  1  0.87624000  0.04408000  0.68282000  1.0
  C  C176  1  0.32021000  0.95980000  0.82557000  1.0
  C  C177  1  0.17979000  0.04021000  0.32558000  1.0
  C  C178  1  0.67979000  0.04020000  0.17443000  1.0
  C  C179  1  0.82021000  0.95980000  0.67443000  1.0
  C  C180  1  0.23899000  0.93020000  0.79125000  1.0
  C  C181  1  0.26101000  0.06980000  0.29125000  1.0
  C  C182  1  0.76101000  0.06980000  0.20875000  1.0
  C  C183  1  0.73899000  0.93020000  0.70875000  1.0
  C  C184  1  0.21475000  0.98698000  0.74686000  1.0
  C  C185  1  0.28524000  0.01302000  0.24686000  1.0
  C  C186  1  0.78524000  0.01302000  0.25314000  1.0
  C  C187  1  0.71475000  0.98698000  0.75314000  1.0
  C  C188  1  0.18137000  0.84176000  0.80770000  1.0
  C  C189  1  0.31863000  0.15824000  0.30770000  1.0
  C  C190  1  0.81863000  0.15824000  0.19231000  1.0
  C  C191  1  0.68137000  0.84176000  0.69230000  1.0
  C  C192  1  0.18050000  0.81331000  0.87931000  1.0
  C  C193  1  0.31951000  0.18670000  0.37931000  1.0
  C  C194  1  0.81950000  0.18669000  0.12069000  1.0
  C  C195  1  0.68050000  0.81330000  0.62069000  1.0
  C  C196  1  0.12954000  0.73035000  0.89976000  1.0
  C  C197  1  0.37046000  0.26965000  0.39976000  1.0
  C  C198  1  0.87046000  0.26965000  0.10023000  1.0
  C  C199  1  0.62954000  0.73035000  0.60024000  1.0
  C  C200  1  0.07728000  0.67467000  0.84836000  1.0
  C  C201  1  0.42273000  0.32533000  0.34836000  1.0
  C  C202  1  0.92272000  0.32533000  0.15164000  1.0
  C  C203  1  0.57728000  0.67467000  0.65164000  1.0
  C  C204  1  0.07794000  0.70189000  0.77670000  1.0
  C  C205  1  0.42206000  0.29812000  0.27669000  1.0
  C  C206  1  0.92206000  0.29811000  0.22330000  1.0
  C  C207  1  0.57794000  0.70188000  0.72330000  1.0
  C  C208  1  0.12965000  0.78515000  0.75610000  1.0
  C  C209  1  0.37035000  0.21485000  0.25610000  1.0
  C  C210  1  0.87035000  0.21485000  0.24390000  1.0
  C  C211  1  0.62965000  0.78515000  0.74390000  1.0
  C  C212  1  0.24807000  0.13537000  0.69245000  1.0
  C  C213  1  0.25193000  0.86463000  0.19245000  1.0
  C  C214  1  0.75193000  0.86463000  0.30755000  1.0
  C  C215  1  0.74807000  0.13537000  0.80755000  1.0
  C  C216  1  0.46095000  0.07306000  0.85646000  1.0
  C  C217  1  0.03905000  0.92694000  0.35646000  1.0
  C  C218  1  0.53905000  0.92694000  0.14354000  1.0
  C  C219  1  0.96095000  0.07306000  0.64354000  1.0
  C  C220  1  0.13405000  0.70088000  0.97517000  1.0
  C  C221  1  0.36595000  0.29913000  0.47516000  1.0
  C  C222  1  0.86595000  0.29912000  0.02483000  1.0
  C  C223  1  0.63406000  0.70088000  0.52484000  1.0
  C  C224  1  0.02421000  0.63701000  0.72448000  1.0
  C  C225  1  0.47579000  0.36299000  0.22449000  1.0
  C  C226  1  0.97578000  0.36299000  0.27552000  1.0
  C  C227  1  0.52421000  0.63700000  0.77551000  1.0
  C  C228  1  0.10622000  0.23167000  0.38320000  1.0
  C  C229  1  0.39378000  0.76833000  0.88320000  1.0
  C  C230  1  0.89378000  0.76833000  0.61680000  1.0
  C  C231  1  0.60622000  0.23167000  0.11680000  1.0
  C  C232  1  0.06572000  0.18389000  0.32244000  1.0
  C  C233  1  0.43429000  0.81611000  0.82244000  1.0
  C  C234  1  0.93429000  0.81611000  0.67756000  1.0
  C  C235  1  0.56571000  0.18390000  0.17756000  1.0
  C  C236  1  0.08832000  0.21856000  0.25290000  1.0
  C  C237  1  0.41168000  0.78144000  0.75290000  1.0
  C  C238  1  0.91168000  0.78144000  0.74710000  1.0
  C  C239  1  0.58832000  0.21856000  0.24710000  1.0
  C  C240  1  0.14804000  0.30166000  0.24531000  1.0
  C  C241  1  0.35196000  0.69834000  0.74531000  1.0
  C  C242  1  0.85196000  0.69834000  0.75469000  1.0
  C  C243  1  0.64804000  0.30166000  0.25469000  1.0
  C  C244  1  0.18806000  0.35055000  0.30547000  1.0
  C  C245  1  0.31194000  0.64944000  0.80547000  1.0
  C  C246  1  0.81194000  0.64944000  0.69453000  1.0
  C  C247  1  0.68806000  0.35055000  0.19453000  1.0
  C  C248  1  0.16785000  0.31393000  0.37437000  1.0
  C  C249  1  0.33215000  0.68607000  0.87438000  1.0
  C  C250  1  0.83215000  0.68607000  0.62563000  1.0
  C  C251  1  0.66785000  0.31393000  0.12563000  1.0
  C  C252  1  0.25080000  0.43802000  0.29397000  1.0
  C  C253  1  0.24920000  0.56198000  0.79398000  1.0
  C  C254  1  0.74920000  0.56198000  0.70603000  1.0
  C  C255  1  0.75080000  0.43802000  0.20603000  1.0
  C  C256  1  0.23373000  0.49149000  0.24152000  1.0
  C  C257  1  0.26627000  0.50850000  0.74153000  1.0
  C  C258  1  0.76627000  0.50851000  0.75847000  1.0
  C  C259  1  0.73374000  0.49149000  0.25848000  1.0
  C  C260  1  0.29474000  0.57255000  0.22740000  1.0
  C  C261  1  0.20526000  0.42745000  0.72740000  1.0
  C  C262  1  0.70526000  0.42745000  0.77260000  1.0
  C  C263  1  0.79474000  0.57255000  0.27260000  1.0
  C  C264  1  0.37387000  0.59985000  0.26401000  1.0
  C  C265  1  0.12613000  0.40015000  0.76402000  1.0
  C  C266  1  0.62613000  0.40015000  0.73598000  1.0
  C  C267  1  0.87387000  0.59985000  0.23598000  1.0
  C  C268  1  0.39104000  0.54794000  0.31702000  1.0
  C  C269  1  0.10896000  0.45206000  0.81703000  1.0
  C  C270  1  0.60896000  0.45206000  0.68298000  1.0
  C  C271  1  0.89104000  0.54794000  0.18298000  1.0
  C  C272  1  0.32882000  0.46793000  0.33288000  1.0
  C  C273  1  0.17118000  0.53207000  0.83288000  1.0
  C  C274  1  0.67118000  0.53208000  0.66712000  1.0
  C  C275  1  0.82882000  0.46792000  0.16713000  1.0
  C  C276  1  0.08547000  0.19466000  0.45798000  1.0
  C  C277  1  0.41453000  0.80534000  0.95799000  1.0
  C  C278  1  0.91452000  0.80534000  0.54201000  1.0
  C  C279  1  0.58547000  0.19466000  0.04201000  1.0
  C  C280  1  0.05259000  0.16977000  0.18518000  1.0
  C  C281  1  0.44740000  0.83023000  0.68518000  1.0
  C  C282  1  0.94741000  0.83023000  0.81482000  1.0
  C  C283  1  0.55259000  0.16977000  0.31482000  1.0
  C  C284  1  0.27604000  0.63281000  0.17531000  1.0
  C  C285  1  0.22395000  0.36719000  0.67531000  1.0
  C  C286  1  0.72395000  0.36719000  0.82469000  1.0
  C  C287  1  0.77605000  0.63281000  0.32469000  1.0
  C  C288  1  0.47662000  0.57710000  0.35469000  1.0
  C  C289  1  0.02338000  0.42290000  0.85469000  1.0
  C  C290  1  0.52338000  0.42290000  0.64531000  1.0
  C  C291  1  0.97662000  0.57710000  0.14531000  1.0
  C  C292  1  0.18683000  0.00940000  0.53219000  1.0
  C  C293  1  0.31317000  0.99061000  0.03219000  1.0
  C  C294  1  0.81317000  0.99061000  0.46780000  1.0
  C  C295  1  0.68683000  0.00939000  0.96781000  1.0
  C  C296  1  0.31745000  0.99211000  0.56359000  1.0
  C  C297  1  0.18255000  0.00789000  0.06359000  1.0
  C  C298  1  0.68256000  0.00789000  0.43641000  1.0
  C  C299  1  0.81744000  0.99211000  0.93641000  1.0
  C  C300  1  0.24448000  0.90332000  0.56046000  1.0
  C  C301  1  0.25552000  0.09668000  0.06047000  1.0
  C  C302  1  0.75553000  0.09669000  0.43953000  1.0
  C  C303  1  0.74447000  0.90332000  0.93953000  1.0
  C  C304  1  0.64160000  0.42578000  0.46776000  1.0
  C  C305  1  0.85840000  0.57422000  0.96776000  1.0
  C  C306  1  0.35840000  0.57422000  0.53224000  1.0
  C  C307  1  0.14160000  0.42578000  0.03224000  1.0
  C  C308  1  0.79091000  0.49294000  0.45938000  1.0
  C  C309  1  0.70909000  0.50707000  0.95938000  1.0
  C  C310  1  0.20909000  0.50706000  0.54062000  1.0
  C  C311  1  0.29091000  0.49294000  0.04062000  1.0
  C  C312  1  0.76788000  0.39565000  0.44507000  1.0
  C  C313  1  0.73212000  0.60435000  0.94506000  1.0
  C  C314  1  0.23212000  0.60435000  0.55494000  1.0
  C  C315  1  0.26788000  0.39566000  0.05493000  1.0
  C  C316  1  0.05911000  0.54595000  0.40596000  1.0
  C  C317  1  0.44089000  0.45405000  0.90596000  1.0
  C  C318  1  0.94089000  0.45405000  0.59404000  1.0
  C  C319  1  0.55911000  0.54595000  0.09404000  1.0
  C  C320  1  0.06814000  0.68863000  0.41383000  1.0
  C  C321  1  0.43186000  0.31136000  0.91383000  1.0
  C  C322  1  0.93187000  0.31136000  0.58617000  1.0
  C  C323  1  0.56813000  0.68863000  0.08617000  1.0
  C  C324  1  0.09667000  0.67033000  0.33743000  1.0
  C  C325  1  0.40333000  0.32967000  0.83743000  1.0
  C  C326  1  0.90333000  0.32967000  0.66257000  1.0
  C  C327  1  0.59667000  0.67033000  0.16257000  1.0
  C  C328  1  0.94476000  0.93002000  0.09535000  1.0
  C  C329  1  0.55524000  0.06998000  0.59535000  1.0
  C  C330  1  0.05524000  0.06998000  0.90465000  1.0
  C  C331  1  0.44476000  0.93002000  0.40465000  1.0
  C  C332  1  0.94677000  0.79138000  0.08115000  1.0
  C  C333  1  0.55323000  0.20863000  0.58114000  1.0
  C  C334  1  0.05323000  0.20862000  0.91886000  1.0
  C  C335  1  0.44677000  0.79137000  0.41886000  1.0
  C  C336  1  0.92799000  0.80532000  0.16112000  1.0
  C  C337  1  0.57201000  0.19468000  0.66112000  1.0
  C  C338  1  0.07201000  0.19468000  0.83888000  1.0
  C  C339  1  0.42799000  0.80532000  0.33888000  1.0
  N  N340  1  0.16664000  0.92712000  0.55550000  1.0
  N  N341  1  0.33333333  0.07288000  0.05550000  1.0
  N  N342  1  0.83336000  0.07288000  0.44450000  1.0
  N  N343  1  0.66666667  0.92712000  0.94450000  1.0
  N  N344  1  0.27454000  0.04805000  0.53193000  1.0
  N  N345  1  0.22546000  0.95195000  0.03194000  1.0
  N  N346  1  0.72546000  0.95195000  0.46806000  1.0
  N  N347  1  0.77454000  0.04805000  0.96806000  1.0
  N  N348  1  0.67336000  0.36649000  0.44026000  1.0
  N  N349  1  0.82664000  0.63351000  0.94026000  1.0
  N  N350  1  0.32664000  0.63351000  0.55974000  1.0
  N  N351  1  0.17336000  0.36649000  0.05974000  1.0
  N  N352  1  0.70883000  0.49743000  0.48671000  1.0
  N  N353  1  0.79117000  0.50257000  0.98671000  1.0
  N  N354  1  0.29117000  0.50257000  0.51330000  1.0
  N  N355  1  0.20883000  0.49743000  0.01329000  1.0
  N  N356  1  0.03361000  0.60245000  0.44443000  1.0
  N  N357  1  0.46639000  0.39755000  0.94443000  1.0
  N  N358  1  0.96639000  0.39754000  0.55557000  1.0
  N  N359  1  0.53361000  0.60245000  0.05557000  1.0
  N  N360  1  0.10456000  0.58524000  0.34628000  1.0
  N  N361  1  0.39545000  0.41476000  0.84628000  1.0
  N  N362  1  0.89545000  0.41476000  0.65372000  1.0
  N  N363  1  0.60455000  0.58524000  0.15372000  1.0
  N  N364  1  0.93551000  0.86633000  0.04595000  1.0
  N  N365  1  0.56449000  0.13367000  0.54595000  1.0
  N  N366  1  0.06449000  0.13367000  0.95405000  1.0
  N  N367  1  0.43551000  0.86633000  0.45405000  1.0
  N  N368  1  0.94701000  0.89804000  0.16315000  1.0
  N  N369  1  0.55299000  0.10196000  0.66315000  1.0
  N  N370  1  0.05299000  0.10196000  0.83685000  1.0
  N  N371  1  0.44701000  0.89804000  0.33685000  1.0
  O  O372  1  0.17213000  0.11189000  0.66467000  1.0
  O  O373  1  0.32787000  0.88811000  0.16467000  1.0
  O  O374  1  0.82787000  0.88811000  0.33533000  1.0
  O  O375  1  0.67213000  0.11188000  0.83533000  1.0
  O  O376  1  0.30636000  0.20855000  0.68542000  1.0
  O  O377  1  0.19364000  0.79145000  0.18542000  1.0
  O  O378  1  0.69364000  0.79145000  0.31458000  1.0
  O  O379  1  0.80636000  0.20855000  0.81458000  1.0
  O  O380  1  0.50670000  0.15303000  0.85192000  1.0
  O  O381  1  0.99330000  0.84697000  0.35192000  1.0
  O  O382  1  0.49330000  0.84697000  0.14808000  1.0
  O  O383  1  0.00670000  0.15303000  0.64808000  1.0
  O  O384  1  0.48297000  0.01772000  0.89098000  1.0
  O  O385  1  0.01703000  0.98229000  0.39098000  1.0
  O  O386  1  0.51703000  0.98228000  0.10902000  1.0
  O  O387  1  0.98297000  0.01772000  0.60902000  1.0
  O  O388  1  0.15289000  0.75797000  0.02602000  1.0
  O  O389  1  0.34711000  0.24204000  0.52602000  1.0
  O  O390  1  0.84711000  0.24203000  0.97398000  1.0
  O  O391  1  0.65289000  0.75797000  0.47398000  1.0
  O  O392  1  0.12215000  0.62255000  0.98866000  1.0
  O  O393  1  0.37785000  0.37745000  0.48865000  1.0
  O  O394  1  0.87785000  0.37744000  0.01134000  1.0
  O  O395  1  0.62215000  0.62255000  0.51135000  1.0
  O  O396  1  0.97372000  0.56644000  0.74450000  1.0
  O  O397  1  0.52628000  0.43355000  0.24449000  1.0
  O  O398  1  0.02627000  0.43356000  0.25550000  1.0
  O  O399  1  0.47373000  0.56644000  0.75550000  1.0
  O  O400  1  0.03677000  0.66047000  0.65507000  1.0
  O  O401  1  0.46323000  0.33953000  0.15506000  1.0
  O  O402  1  0.96323000  0.33953000  0.34493000  1.0
  O  O403  1  0.53677000  0.66047000  0.84494000  1.0
  O  O404  1  0.01518000  0.13289000  0.46909000  1.0
  O  O405  1  0.48482000  0.86711000  0.96909000  1.0
  O  O406  1  0.98481000  0.86710000  0.53091000  1.0
  O  O407  1  0.51519000  0.13290000  0.03091000  1.0
  O  O408  1  0.14227000  0.22965000  0.50703000  1.0
  O  O409  1  0.35774000  0.77035000  0.00703000  1.0
  O  O410  1  0.85773000  0.77036000  0.49297000  1.0
  O  O411  1  0.64227000  0.22965000  0.99297000  1.0
  O  O412  1  0.99321000  0.09315000  0.19610000  1.0
  O  O413  1  0.50679000  0.90685000  0.69610000  1.0
  O  O414  1  0.00679000  0.90685000  0.80390000  1.0
  O  O415  1  0.49321000  0.09315000  0.30390000  1.0
  O  O416  1  0.07724000  0.19822000  0.12364000  1.0
  O  O417  1  0.42275000  0.80178000  0.62364000  1.0
  O  O418  1  0.92276000  0.80178000  0.87636000  1.0
  O  O419  1  0.57724000  0.19822000  0.37637000  1.0
  O  O420  1  0.19867000  0.61042000  0.15021000  1.0
  O  O421  1  0.30132000  0.38958000  0.65021000  1.0
  O  O422  1  0.80132000  0.38958000  0.84979000  1.0
  O  O423  1  0.69868000  0.61042000  0.34980000  1.0
  O  O424  1  0.33783000  0.70146000  0.16099000  1.0
  O  O425  1  0.16216000  0.29854000  0.66100000  1.0
  O  O426  1  0.66216000  0.29854000  0.83900000  1.0
  O  O427  1  0.83784000  0.70146000  0.33901000  1.0
  O  O428  1  0.52628000  0.65473000  0.34276000  1.0
  O  O429  1  0.97372000  0.34527000  0.84276000  1.0
  O  O430  1  0.47372000  0.34527000  0.65724000  1.0
  O  O431  1  0.02628000  0.65473000  0.15724000  1.0
  O  O432  1  0.49718000  0.52457000  0.39399000  1.0
  O  O433  1  0.00282000  0.47544000  0.89400000  1.0
  O  O434  1  0.50282000  0.47544000  0.60600000  1.0
  O  O435  1  0.99718000  0.52457000  0.10601000  1.0
  O  O436  1  0.13410000  0.04571000  0.51247000  1.0
  O  O437  1  0.36590000  0.95429000  0.01247000  1.0
  O  O438  1  0.86590000  0.95429000  0.48753000  1.0
  O  O439  1  0.63410000  0.04571000  0.98753000  1.0
  O  O440  1  0.56185000  0.41384000  0.47591000  1.0
  O  O441  1  0.93815000  0.58616000  0.97591000  1.0
  O  O442  1  0.43815000  0.58616000  0.52408000  1.0
  O  O443  1  0.06185000  0.41384000  0.02409000  1.0
  O  O444  1  0.04453000  0.46830000  0.42393000  1.0
  O  O445  1  0.45547000  0.53170000  0.92393000  1.0
  O  O446  1  0.95548000  0.53170000  0.57607000  1.0
  O  O447  1  0.54453000  0.46830000  0.07607000  1.0
  O  O448  1  0.95058000  0.00624000  0.08066000  1.0
  O  O449  1  0.54943000  0.99377000  0.58066000  1.0
  O  O450  1  0.04942000  0.99377000  0.91934000  1.0
  O  O451  1  0.45058000  0.00623000  0.41934000  1.0
