# generated using pymatgen
data_ZnH17C20(NO2)2
_symmetry_space_group_name_H-M   'P 1'
_cell_length_a   10.30040000
_cell_length_b   14.58450000
_cell_length_c   14.58450000
_cell_angle_alpha   65.55000000
_cell_angle_beta   80.38620000
_cell_angle_gamma   80.38640000
_symmetry_Int_Tables_number   1
_chemical_formula_structural   ZnH17C20(NO2)2
_chemical_formula_sum   'Zn4 H68 C80 N8 O16'
_cell_volume   1954.75423879
_cell_formula_units_Z   4
loop_
 _symmetry_equiv_pos_site_id
 _symmetry_equiv_pos_as_xyz
  1  'x, y, z'
loop_
 _atom_site_type_symbol
 _atom_site_label
 _atom_site_symmetry_multiplicity
 _atom_site_fract_x
 _atom_site_fract_y
 _atom_site_fract_z
 _atom_site_occupancy
  Zn  Zn0  1  0.37838000  0.97275000  0.62153000  1.0
  Zn  Zn1  1  0.12161000  0.37847000  0.02725000  1.0
  Zn  Zn2  1  0.62161000  0.02726000  0.37847000  1.0
  Zn  Zn3  1  0.87839000  0.62153000  0.97275000  1.0
  H  H4  1  0.52766000  0.71211000  0.68534000  1.0
  H  H5  1  0.97234000  0.31466000  0.28789000  1.0
  H  H6  1  0.47234000  0.28789000  0.31466000  1.0
  H  H7  1  0.02766000  0.68534000  0.71211000  1.0
  H  H8  1  0.65585000  0.70324000  0.75788000  1.0
  H  H9  1  0.84415000  0.24212000  0.29676000  1.0
  H  H10  1  0.34415000  0.29676000  0.24212000  1.0
  H  H11  1  0.15584000  0.75788000  0.70324000  1.0
  H  H12  1  0.61092000  0.81946000  0.65609000  1.0
  H  H13  1  0.88908000  0.34391000  0.18054000  1.0
  H  H14  1  0.38908000  0.18054000  0.34390000  1.0
  H  H15  1  0.11091000  0.65610000  0.81946000  1.0
  H  H16  1  0.13811000  0.25263000  0.73159000  1.0
  H  H17  1  0.36188000  0.26841000  0.74738000  1.0
  H  H18  1  0.86188000  0.74738000  0.26841000  1.0
  H  H19  1  0.63812000  0.73159000  0.25262000  1.0
  H  H20  1  0.21271000  0.77034000  0.52692000  1.0
  H  H21  1  0.28729000  0.47308000  0.22966000  1.0
  H  H22  1  0.78730000  0.22965000  0.47308000  1.0
  H  H23  1  0.71271000  0.52692000  0.77035000  1.0
  H  H24  1  0.02575000  0.42553000  0.67509000  1.0
  H  H25  1  0.47425000  0.32490000  0.57447000  1.0
  H  H26  1  0.97425000  0.57447000  0.32491000  1.0
  H  H27  1  0.52575000  0.67509000  0.42553000  1.0
  H  H28  1  0.39999000  0.85321000  0.16802000  1.0
  H  H29  1  0.10002000  0.83198000  0.14679000  1.0
  H  H30  1  0.60001000  0.14679000  0.83198000  1.0
  H  H31  1  0.89999000  0.16802000  0.85321000  1.0
  H  H32  1  0.14887000  0.68091000  0.43061000  1.0
  H  H33  1  0.35114000  0.56938000  0.31909000  1.0
  H  H34  1  0.85114000  0.31908000  0.56939000  1.0
  H  H35  1  0.64886000  0.43061000  0.68092000  1.0
  H  H36  1  0.46473000  0.94145000  0.26517000  1.0
  H  H37  1  0.03527000  0.73483000  0.05855000  1.0
  H  H38  1  0.53526000  0.05855000  0.73483000  1.0
  H  H39  1  0.96474000  0.26517000  0.94144000  1.0
  H  H40  1  0.24024000  0.93589000  0.84705000  1.0
  H  H41  1  0.25976000  0.15294000  0.06411000  1.0
  H  H42  1  0.75976000  0.06411000  0.15295000  1.0
  H  H43  1  0.74024000  0.84705000  0.93589000  1.0
  H  H44  1  0.32984000  0.76515000  0.01174000  1.0
  H  H45  1  0.17016000  0.98826000  0.23485000  1.0
  H  H46  1  0.67017000  0.23485000  0.98826000  1.0
  H  H47  1  0.82983000  0.01173000  0.76515000  1.0
  H  H48  1  0.36029000  0.55810000  0.99101000  1.0
  H  H49  1  0.13971000  0.00899000  0.44190000  1.0
  H  H50  1  0.63971000  0.44191000  0.00899000  1.0
  H  H51  1  0.86029000  0.99101000  0.55810000  1.0
  H  H52  1  0.46928000  0.54634000  0.88898000  1.0
  H  H53  1  0.03072000  0.11102000  0.45366000  1.0
  H  H54  1  0.53072000  0.45366000  0.11102000  1.0
  H  H55  1  0.96928000  0.88898000  0.54634000  1.0
  H  H56  1  0.06262000  0.43852000  0.37016000  1.0
  H  H57  1  0.43739000  0.62984000  0.56148000  1.0
  H  H58  1  0.93737000  0.56148000  0.62984000  1.0
  H  H59  1  0.56262000  0.37016000  0.43852000  1.0
  H  H60  1  0.53302000  0.64179000  0.02705000  1.0
  H  H61  1  0.96698000  0.97295000  0.35821000  1.0
  H  H62  1  0.46699000  0.35822000  0.97294000  1.0
  H  H63  1  0.03302000  0.02705000  0.64178000  1.0
  H  H64  1  0.63254000  0.63705000  0.91749000  1.0
  H  H65  1  0.86746000  0.08251000  0.36295000  1.0
  H  H66  1  0.36747000  0.36295000  0.08251000  1.0
  H  H67  1  0.13253000  0.91749000  0.63705000  1.0
  H  H68  1  0.17678000  0.26514000  0.42930000  1.0
  H  H69  1  0.32323000  0.57071000  0.73487000  1.0
  H  H70  1  0.82321000  0.73487000  0.57070000  1.0
  H  H71  1  0.67678000  0.42930000  0.26514000  1.0
  C  C72  1  0.16481000  0.24736000  0.58447000  1.0
  C  C73  1  0.33519000  0.41553000  0.75265000  1.0
  C  C74  1  0.83518000  0.75265000  0.41553000  1.0
  C  C75  1  0.66481000  0.58447000  0.24735000  1.0
  C  C76  1  0.57244000  0.75298000  0.71868000  1.0
  C  C77  1  0.92756000  0.28132000  0.24702000  1.0
  C  C78  1  0.42756000  0.24702000  0.28132000  1.0
  C  C79  1  0.07244000  0.71868000  0.75298000  1.0
  C  C80  1  0.37737000  0.91687000  0.45848000  1.0
  C  C81  1  0.12263000  0.54152000  0.08313000  1.0
  C  C82  1  0.62263000  0.08313000  0.54152000  1.0
  C  C83  1  0.87738000  0.45848000  0.91687000  1.0
  C  C84  1  0.23690000  0.14303000  0.62182000  1.0
  C  C85  1  0.26310000  0.37818000  0.85697000  1.0
  C  C86  1  0.76310000  0.85698000  0.37818000  1.0
  C  C87  1  0.73690000  0.62182000  0.14302000  1.0
  C  C88  1  0.12074000  0.29416000  0.65241000  1.0
  C  C89  1  0.37926000  0.34759000  0.70584000  1.0
  C  C90  1  0.87926000  0.70584000  0.34759000  1.0
  C  C91  1  0.62074000  0.65241000  0.29416000  1.0
  C  C92  1  0.25294000  0.78817000  0.44823000  1.0
  C  C93  1  0.24707000  0.55177000  0.21183000  1.0
  C  C94  1  0.74707000  0.21182000  0.55177000  1.0
  C  C95  1  0.75294000  0.44823000  0.78818000  1.0
  C  C96  1  0.26862000  0.76254000  0.29276000  1.0
  C  C97  1  0.23140000  0.70724000  0.23746000  1.0
  C  C98  1  0.73139000  0.23745000  0.70724000  1.0
  C  C99  1  0.76861000  0.29276000  0.76254000  1.0
  C  C100  1  0.34159000  0.86185000  0.40171000  1.0
  C  C101  1  0.15841000  0.59829000  0.13815000  1.0
  C  C102  1  0.65841000  0.13815000  0.59829000  1.0
  C  C103  1  0.84159000  0.40171000  0.86185000  1.0
  C  C104  1  0.05748000  0.39232000  0.61944000  1.0
  C  C105  1  0.44252000  0.38056000  0.60768000  1.0
  C  C106  1  0.94252000  0.60768000  0.38056000  1.0
  C  C107  1  0.55748000  0.61944000  0.39232000  1.0
  C  C108  1  0.03421000  0.44773000  0.51740000  1.0
  C  C109  1  0.46580000  0.48260000  0.55227000  1.0
  C  C110  1  0.96579000  0.55228000  0.48260000  1.0
  C  C111  1  0.53421000  0.51739000  0.44773000  1.0
  C  C112  1  0.35739000  0.83626000  0.24624000  1.0
  C  C113  1  0.14262000  0.75375000  0.16374000  1.0
  C  C114  1  0.64261000  0.16374000  0.75375000  1.0
  C  C115  1  0.85739000  0.24624000  0.83625000  1.0
  C  C116  1  0.47386000  0.78568000  0.78908000  1.0
  C  C117  1  0.02614000  0.21092000  0.21432000  1.0
  C  C118  1  0.52614000  0.21432000  0.21092000  1.0
  C  C119  1  0.97386000  0.78908000  0.78568000  1.0
  C  C120  1  0.21722000  0.73851000  0.39438000  1.0
  C  C121  1  0.28280000  0.60562000  0.26149000  1.0
  C  C122  1  0.78280000  0.26148000  0.60562000  1.0
  C  C123  1  0.71721000  0.39438000  0.73851000  1.0
  C  C124  1  0.39430000  0.88530000  0.30040000  1.0
  C  C125  1  0.10570000  0.69960000  0.11470000  1.0
  C  C126  1  0.60570000  0.11470000  0.69960000  1.0
  C  C127  1  0.89430000  0.30040000  0.88530000  1.0
  C  C128  1  0.31417000  0.87278000  0.85004000  1.0
  C  C129  1  0.18582000  0.14996000  0.12722000  1.0
  C  C130  1  0.68583000  0.12722000  0.14996000  1.0
  C  C131  1  0.81417000  0.85004000  0.87278000  1.0
  C  C132  1  0.35888000  0.79039000  0.93103000  1.0
  C  C133  1  0.14112000  0.06897000  0.20961000  1.0
  C  C134  1  0.64112000  0.20961000  0.06897000  1.0
  C  C135  1  0.85888000  0.93103000  0.79039000  1.0
  C  C136  1  0.46574000  0.54914000  0.96372000  1.0
  C  C137  1  0.03425000  0.03628000  0.45086000  1.0
  C  C138  1  0.53425000  0.45086000  0.03628000  1.0
  C  C139  1  0.96574000  0.96372000  0.54914000  1.0
  C  C140  1  0.07804000  0.39920000  0.44986000  1.0
  C  C141  1  0.42197000  0.55014000  0.60081000  1.0
  C  C142  1  0.92195000  0.60081000  0.55014000  1.0
  C  C143  1  0.57804000  0.44986000  0.39920000  1.0
  C  C144  1  0.53005000  0.64065000  0.95267000  1.0
  C  C145  1  0.96994000  0.04733000  0.35935000  1.0
  C  C146  1  0.46995000  0.35935000  0.04733000  1.0
  C  C147  1  0.03005000  0.95267000  0.64065000  1.0
  C  C148  1  0.14239000  0.30121000  0.48253000  1.0
  C  C149  1  0.35762000  0.51747000  0.69879000  1.0
  C  C150  1  0.85760000  0.69879000  0.51747000  1.0
  C  C151  1  0.64239000  0.48253000  0.30121000  1.0
  N  N152  1  0.38615000  0.86902000  0.76248000  1.0
  N  N153  1  0.11385000  0.23752000  0.13098000  1.0
  N  N154  1  0.61385000  0.13098000  0.23752000  1.0
  N  N155  1  0.88615000  0.76248000  0.86902000  1.0
  N  N156  1  0.45908000  0.73655000  0.89182000  1.0
  N  N157  1  0.04092000  0.10818000  0.26345000  1.0
  N  N158  1  0.54092000  0.26345000  0.10818000  1.0
  N  N159  1  0.95908000  0.89182000  0.73655000  1.0
  O  O160  1  0.34623000  0.88219000  0.55461000  1.0
  O  O161  1  0.15377000  0.44539000  0.11781000  1.0
  O  O162  1  0.65377000  0.11781000  0.44539000  1.0
  O  O163  1  0.84623000  0.55461000  0.88219000  1.0
  O  O164  1  0.43262000  0.99774000  0.40864000  1.0
  O  O165  1  0.06738000  0.59136000  0.00227000  1.0
  O  O166  1  0.56738000  0.00227000  0.59136000  1.0
  O  O167  1  0.93262000  0.40864000  0.99773000  1.0
  O  O168  1  0.27530000  0.10360000  0.55457000  1.0
  O  O169  1  0.22470000  0.44543000  0.89640000  1.0
  O  O170  1  0.72469000  0.89640000  0.44543000  1.0
  O  O171  1  0.77530000  0.55457000  0.10360000  1.0
  O  O172  1  0.25865000  0.09778000  0.71270000  1.0
  O  O173  1  0.24133000  0.28730000  0.90222000  1.0
  O  O174  1  0.74134000  0.90223000  0.28729000  1.0
  O  O175  1  0.75865000  0.71270000  0.09777000  1.0
