# generated using pymatgen
data_CoH10C8(N2Cl)2
_symmetry_space_group_name_H-M   'P 1'
_cell_length_a   8.74298000
_cell_length_b   9.58034000
_cell_length_c   14.16860000
_cell_angle_alpha   90.00000000
_cell_angle_beta   90.00010000
_cell_angle_gamma   105.12700000
_symmetry_Int_Tables_number   1
_chemical_formula_structural   CoH10C8(N2Cl)2
_chemical_formula_sum   'Co4 H40 C32 N16 Cl8'
_cell_volume   1145.65021640
_cell_formula_units_Z   4
loop_
 _symmetry_equiv_pos_site_id
 _symmetry_equiv_pos_as_xyz
  1  'x, y, z'
loop_
 _atom_site_type_symbol
 _atom_site_label
 _atom_site_symmetry_multiplicity
 _atom_site_fract_x
 _atom_site_fract_y
 _atom_site_fract_z
 _atom_site_occupancy
  Co  Co0  1  0.74291000  0.88329000  0.78467000  1.0
  Co  Co1  1  0.75709000  0.61670000  0.28467000  1.0
  Co  Co2  1  0.25709000  0.11671000  0.21533000  1.0
  Co  Co3  1  0.24291000  0.38329000  0.71533000  1.0
  H  H4  1  0.61022000  0.58401000  0.65459000  1.0
  H  H5  1  0.88978000  0.91599000  0.15459000  1.0
  H  H6  1  0.38978000  0.41599000  0.34541000  1.0
  H  H7  1  0.11022000  0.08401000  0.84541000  1.0
  H  H8  1  0.80958000  0.68147000  0.62413000  1.0
  H  H9  1  0.69042000  0.81853000  0.12413000  1.0
  H  H10  1  0.19042000  0.31853000  0.37587000  1.0
  H  H11  1  0.30958000  0.18147000  0.87587000  1.0
  H  H12  1  0.67165000  0.59732000  0.53395000  1.0
  H  H13  1  0.82835000  0.90268000  0.03395000  1.0
  H  H14  1  0.32835000  0.40268000  0.46605000  1.0
  H  H15  1  0.17165000  0.09732000  0.96605000  1.0
  H  H16  1  0.54257000  0.75659000  0.44955000  1.0
  H  H17  1  0.95743000  0.74341000  0.94954000  1.0
  H  H18  1  0.45743000  0.24341000  0.55046000  1.0
  H  H19  1  0.04257000  0.25659000  0.05046000  1.0
  H  H20  1  0.59084000  0.08486000  0.66752000  1.0
  H  H21  1  0.90917000  0.41514000  0.16752000  1.0
  H  H22  1  0.40917000  0.91514000  0.33249000  1.0
  H  H23  1  0.09083000  0.58486000  0.83248000  1.0
  H  H24  1  0.32602000  0.85451000  0.82618000  1.0
  H  H25  1  0.17398000  0.64549000  0.32619000  1.0
  H  H26  1  0.67398000  0.14549000  0.17381000  1.0
  H  H27  1  0.82602000  0.35451000  0.67381000  1.0
  H  H28  1  0.48738000  0.98596000  0.88017000  1.0
  H  H29  1  0.01262000  0.51405000  0.38017000  1.0
  H  H30  1  0.51262000  0.01405000  0.11983000  1.0
  H  H31  1  0.98738000  0.48595000  0.61983000  1.0
  H  H32  1  0.31750000  0.89675000  0.94926000  1.0
  H  H33  1  0.18250000  0.60325000  0.44926000  1.0
  H  H34  1  0.68250000  0.10325000  0.05074000  1.0
  H  H35  1  0.81750000  0.39675000  0.55074000  1.0
  H  H36  1  0.32398000  0.67277000  0.03122000  1.0
  H  H37  1  0.17602000  0.82723000  0.53122000  1.0
  H  H38  1  0.67602000  0.32723000  0.96878000  1.0
  H  H39  1  0.82397000  0.17277000  0.46878000  1.0
  H  H40  1  0.70166000  0.57428000  0.86645000  1.0
  H  H41  1  0.79834000  0.92572000  0.36645000  1.0
  H  H42  1  0.29834000  0.42572000  0.13354000  1.0
  H  H43  1  0.20166000  0.07428000  0.63354000  1.0
  C  C44  1  0.68516000  0.65386000  0.60191000  1.0
  C  C45  1  0.81484000  0.84614000  0.10191000  1.0
  C  C46  1  0.31484000  0.34614000  0.39809000  1.0
  C  C47  1  0.18516000  0.15386000  0.89809000  1.0
  C  C48  1  0.56450000  0.82380000  0.51248000  1.0
  C  C49  1  0.93550000  0.67620000  0.01248000  1.0
  C  C50  1  0.43550000  0.17620000  0.48752000  1.0
  C  C51  1  0.06450000  0.32380000  0.98752000  1.0
  C  C52  1  0.53459000  0.95738000  0.53149000  1.0
  C  C53  1  0.96541000  0.54262000  0.03149000  1.0
  C  C54  1  0.46541000  0.04262000  0.46851000  1.0
  C  C55  1  0.03459000  0.45738000  0.96851000  1.0
  C  C56  1  0.59062000  0.99137000  0.62406000  1.0
  C  C57  1  0.90938000  0.50863000  0.12405000  1.0
  C  C58  1  0.40938000  0.00864000  0.37595000  1.0
  C  C59  1  0.09062000  0.49136000  0.87595000  1.0
  C  C60  1  0.39567000  0.88467000  0.89111000  1.0
  C  C61  1  0.10433000  0.61533000  0.39111000  1.0
  C  C62  1  0.60433000  0.11533000  0.10888000  1.0
  C  C63  1  0.89567000  0.38467000  0.60889000  1.0
  C  C64  1  0.41793000  0.66656000  0.98268000  1.0
  C  C65  1  0.08207000  0.83344000  0.48268000  1.0
  C  C66  1  0.58207000  0.33344000  0.01732000  1.0
  C  C67  1  0.91793000  0.16656000  0.51732000  1.0
  C  C68  1  0.50628000  0.56500000  0.97268000  1.0
  C  C69  1  0.99372000  0.93500000  0.47268000  1.0
  C  C70  1  0.49372000  0.43500000  0.02732000  1.0
  C  C71  1  0.00628000  0.06500000  0.52732000  1.0
  C  C72  1  0.61095000  0.61808000  0.89774000  1.0
  C  C73  1  0.88905000  0.88192000  0.39774000  1.0
  C  C74  1  0.38905000  0.38193000  0.10226000  1.0
  C  C75  1  0.11095000  0.11808000  0.60226000  1.0
  N  N76  1  0.65192000  0.88650000  0.65805000  1.0
  N  N77  1  0.84808000  0.61350000  0.15805000  1.0
  N  N78  1  0.34808000  0.11350000  0.34194000  1.0
  N  N79  1  0.15192000  0.38650000  0.84194000  1.0
  N  N80  1  0.63530000  0.78541000  0.58904000  1.0
  N  N81  1  0.86470000  0.71459000  0.08904000  1.0
  N  N82  1  0.36470000  0.21459000  0.41096000  1.0
  N  N83  1  0.13530000  0.28541000  0.91096000  1.0
  N  N84  1  0.58927000  0.74329000  0.86501000  1.0
  N  N85  1  0.91073000  0.75671000  0.36501000  1.0
  N  N86  1  0.41073000  0.25671000  0.13499000  1.0
  N  N87  1  0.08927000  0.24329000  0.63499000  1.0
  N  N88  1  0.46970000  0.77094000  0.91718000  1.0
  N  N89  1  0.03030000  0.72907000  0.41718000  1.0
  N  N90  1  0.53030000  0.22907000  0.08282000  1.0
  N  N91  1  0.96970000  0.27093000  0.58282000  1.0
  Cl  Cl92  1  0.96771000  0.81498000  0.77808000  1.0
  Cl  Cl93  1  0.53229000  0.68502000  0.27808000  1.0
  Cl  Cl94  1  0.03229000  0.18502000  0.22192000  1.0
  Cl  Cl95  1  0.46771000  0.31497000  0.72192000  1.0
  Cl  Cl96  1  0.77772000  0.10255000  0.84698000  1.0
  Cl  Cl97  1  0.72228000  0.39745000  0.34698000  1.0
  Cl  Cl98  1  0.22228000  0.89745000  0.15302000  1.0
  Cl  Cl99  1  0.27772000  0.60255000  0.65302000  1.0
