# generated using pymatgen
data_Zr3H6C26S5NCl5O16
_symmetry_space_group_name_H-M   'P 1'
_cell_length_a   16.46000000
_cell_length_b   16.45876569
_cell_length_c   16.46660000
_cell_angle_alpha   119.70594760
_cell_angle_beta   119.70290000
_cell_angle_gamma   88.98227761
_symmetry_Int_Tables_number   1
_chemical_formula_structural   Zr3H6C26S5NCl5O16
_chemical_formula_sum   'Zr6 H12 C52 S10 N2 Cl10 O32'
_cell_volume   3208.55011185
_cell_formula_units_Z   2
loop_
 _symmetry_equiv_pos_site_id
 _symmetry_equiv_pos_as_xyz
  1  'x, y, z'
loop_
 _atom_site_type_symbol
 _atom_site_label
 _atom_site_symmetry_multiplicity
 _atom_site_fract_x
 _atom_site_fract_y
 _atom_site_fract_z
 _atom_site_occupancy
  Zr  Zr0  1  0.90259000  0.40138000  0.51336000  1.0
  Zr  Zr1  1  0.10359000  0.60246000  0.49162000  1.0
  Zr  Zr2  1  0.89451000  0.39280000  0.29106000  1.0
  Zr  Zr3  1  0.11223000  0.61058000  0.71399000  1.0
  Zr  Zr4  1  0.89439000  0.61063000  0.50254000  1.0
  Zr  Zr5  1  0.11207000  0.39306000  0.50258000  1.0
  H  H6  1  0.75306000  0.42158000  0.34443000  1.0
  H  H7  1  0.08329000  0.75201000  0.66054000  1.0
  H  H8  1  0.08278000  0.41089000  0.32763000  1.0
  H  H9  1  0.09416000  0.42224000  0.67739000  1.0
  H  H10  1  0.64185000  0.12826000  0.03071000  1.0
  H  H11  1  0.65422000  0.15158000  0.30728000  1.0
  H  H12  1  0.37687000  0.86310000  0.97405000  1.0
  H  H13  1  0.35312000  0.85110000  0.69747000  1.0
  H  H14  1  0.54606000  0.07795000  0.86984000  1.0
  H  H15  1  0.46084000  0.98081000  0.73729000  1.0
  H  H16  1  0.42755000  0.95843000  0.13495000  1.0
  H  H17  1  0.52467000  0.04370000  0.26747000  1.0
  C  C18  1  0.73961000  0.51634000  0.52062000  1.0
  C  C19  1  0.98833000  0.76520000  0.48395000  1.0
  C  C20  1  0.27364000  0.49476000  0.49849000  1.0
  C  C21  1  0.01009000  0.23122000  0.50616000  1.0
  C  C22  1  0.74180000  0.23348000  0.25355000  1.0
  C  C23  1  0.00402000  0.51113000  0.77979000  1.0
  C  C24  1  0.27144000  0.76333000  0.75129000  1.0
  C  C25  1  0.99379000  0.50092000  0.22513000  1.0
  C  C26  1  0.73145000  0.50200000  0.22970000  1.0
  C  C27  1  0.99705000  0.22293000  0.23060000  1.0
  C  C28  1  0.28194000  0.50802000  0.77469000  1.0
  C  C29  1  0.00282000  0.77335000  0.77545000  1.0
  C  C30  1  0.42488000  0.43675000  0.51244000  1.0
  C  C31  1  0.59176000  0.57795000  0.51413000  1.0
  C  C32  1  0.36574000  0.49774000  0.50492000  1.0
  C  C33  1  0.65044000  0.51644000  0.52048000  1.0
  C  C34  1  0.50965000  0.54907000  0.51166000  1.0
  C  C35  1  0.50762000  0.46627000  0.51627000  1.0
  C  C36  1  0.92621000  0.91261000  0.48942000  1.0
  C  C37  1  0.06761000  0.07957000  0.49137000  1.0
  C  C38  1  0.98782000  0.85401000  0.48331000  1.0
  C  C39  1  0.00675000  0.13884000  0.49910000  1.0
  C  C40  1  0.03789000  0.99672000  0.48726000  1.0
  C  C41  1  0.95508000  0.99470000  0.49184000  1.0
  C  C42  1  0.92939000  0.08250000  0.02345000  1.0
  C  C43  1  0.06627000  0.90914000  0.98300000  1.0
  C  C44  1  0.99467000  0.13302000  0.14029000  1.0
  C  C45  1  0.00177000  0.85949000  0.86615000  1.0
  C  C46  1  0.03971000  0.99026000  0.04044000  1.0
  C  C47  1  0.95535000  0.00065000  0.96620000  1.0
  C  C48  1  0.59506000  0.43805000  0.02219000  1.0
  C  C49  1  0.42192000  0.57518000  0.98191000  1.0
  C  C50  1  0.64491000  0.50269000  0.13906000  1.0
  C  C51  1  0.37142000  0.50999000  0.86504000  1.0
  C  C52  1  0.50361000  0.54904000  0.03910000  1.0
  C  C53  1  0.51389000  0.46459000  0.96482000  1.0
  C  C54  1  0.60901000  0.09963000  0.05828000  1.0
  C  C55  1  0.61722000  0.11216000  0.21609000  1.0
  C  C56  1  0.53475000  0.03102000  0.14329000  1.0
  C  C57  1  0.48730000  0.98037000  0.02317000  1.0
  C  C58  1  0.40541000  0.89599000  0.94644000  1.0
  C  C59  1  0.39261000  0.88802000  0.78863000  1.0
  C  C60  1  0.47372000  0.97050000  0.86140000  1.0
  C  C61  1  0.52460000  0.01777000  0.98154000  1.0
  C  C62  1  0.65443000  0.14563000  0.17357000  1.0
  C  C63  1  0.35925000  0.85070000  0.83116000  1.0
  C  C64  1  0.05962000  0.57274000  0.15344000  1.0
  C  C65  1  0.93207000  0.44554000  0.85155000  1.0
  C  C66  1  0.99406000  0.50628000  0.13897000  1.0
  C  C67  1  0.99872000  0.51086000  0.86598000  1.0
  C  C68  1  0.95404000  0.46859000  0.95653000  1.0
  C  C69  1  0.03657000  0.55086000  0.04849000  1.0
  S  S70  1  0.41120000  0.59105000  0.50286000  1.0
  S  S71  1  0.60564000  0.42379000  0.52396000  1.0
  S  S72  1  0.08042000  0.89875000  0.47973000  1.0
  S  S73  1  0.91327000  0.09328000  0.50087000  1.0
  S  S74  1  0.08729000  0.07998000  0.17979000  1.0
  S  S75  1  0.90831000  0.91166000  0.82684000  1.0
  S  S76  1  0.59273000  0.59612000  0.17843000  1.0
  S  S77  1  0.42429000  0.41719000  0.82549000  1.0
  S  S78  1  0.90424000  0.41784000  0.99745000  1.0
  S  S79  1  0.08746000  0.60045000  0.00751000  1.0
  N  N80  1  0.50780000  0.00582000  0.81968000  1.0
  N  N81  1  0.49964000  0.99676000  0.18505000  1.0
  Cl  Cl82  1  0.40467000  0.33771000  0.51634000  1.0
  Cl  Cl83  1  0.61116000  0.67618000  0.50872000  1.0
  Cl  Cl84  1  0.82792000  0.89324000  0.49474000  1.0
  Cl  Cl85  1  0.16667000  0.09974000  0.48749000  1.0
  Cl  Cl86  1  0.82975000  0.11112000  0.95142000  1.0
  Cl  Cl87  1  0.16632000  0.88051000  0.05467000  1.0
  Cl  Cl88  1  0.62364000  0.33798000  0.95043000  1.0
  Cl  Cl89  1  0.39345000  0.67493000  0.05403000  1.0
  Cl  Cl90  1  0.15760000  0.66944000  0.27781000  1.0
  Cl  Cl91  1  0.83499000  0.34788000  0.72720000  1.0
  O  O92  1  0.77600000  0.44775000  0.52347000  1.0
  O  O93  1  0.05706000  0.72894000  0.48139000  1.0
  O  O94  1  0.23553000  0.56142000  0.49186000  1.0
  O  O95  1  0.94352000  0.26940000  0.51293000  1.0
  O  O96  1  0.77303000  0.26496000  0.21388000  1.0
  O  O97  1  0.07312000  0.57787000  0.81293000  1.0
  O  O98  1  0.24005000  0.73213000  0.79104000  1.0
  O  O99  1  0.92707000  0.43179000  0.19198000  1.0
  O  O100  1  0.76326000  0.57152000  0.33125000  1.0
  O  O101  1  0.06791000  0.25646000  0.33219000  1.0
  O  O102  1  0.24863000  0.43731000  0.67310000  1.0
  O  O103  1  0.93342000  0.74168000  0.67392000  1.0
  O  O104  1  0.92887000  0.26092000  0.19978000  1.0
  O  O105  1  0.24404000  0.57632000  0.80545000  1.0
  O  O106  1  0.07385000  0.73824000  0.80588000  1.0
  O  O107  1  0.76676000  0.43116000  0.19923000  1.0
  O  O108  1  0.77944000  0.27364000  0.35899000  1.0
  O  O109  1  0.06264000  0.56629000  0.32734000  1.0
  O  O110  1  0.23122000  0.72566000  0.64583000  1.0
  O  O111  1  0.93868000  0.44223000  0.67759000  1.0
  O  O112  1  0.07878000  0.26624000  0.50616000  1.0
  O  O113  1  0.77231000  0.58246000  0.51565000  1.0
  O  O114  1  0.92241000  0.73271000  0.48933000  1.0
  O  O115  1  0.23880000  0.42627000  0.49889000  1.0
  O  O116  1  0.06925000  0.44528000  0.62810000  1.0
  O  O117  1  0.05976000  0.43581000  0.37693000  1.0
  O  O118  1  0.05935000  0.68093000  0.61506000  1.0
  O  O119  1  0.82413000  0.44562000  0.38997000  1.0
  O  O120  1  0.95421000  0.54347000  0.41000000  1.0
  O  O121  1  0.96157000  0.55080000  0.59504000  1.0
  O  O122  1  0.13498000  0.54301000  0.58533000  1.0
  O  O123  1  0.96211000  0.37006000  0.41973000  1.0
