# generated using pymatgen
data_CdH18C12(NO3)2
_symmetry_space_group_name_H-M   'P 1'
_cell_length_a   8.92700000
_cell_length_b   8.92704000
_cell_length_c   9.79891000
_cell_angle_alpha   105.47100000
_cell_angle_beta   105.47100000
_cell_angle_gamma   102.15000000
_symmetry_Int_Tables_number   1
_chemical_formula_structural   CdH18C12(NO3)2
_chemical_formula_sum   'Cd2 H36 C24 N4 O12'
_cell_volume   691.18275742
_cell_formula_units_Z   2
loop_
 _symmetry_equiv_pos_site_id
 _symmetry_equiv_pos_as_xyz
  1  'x, y, z'
loop_
 _atom_site_type_symbol
 _atom_site_label
 _atom_site_symmetry_multiplicity
 _atom_site_fract_x
 _atom_site_fract_y
 _atom_site_fract_z
 _atom_site_occupancy
  Cd  Cd0  1  0.96434000  0.03566000  0.75000000  1.0
  Cd  Cd1  1  0.03567000  0.96433000  0.25000000  1.0
  H  H2  1  0.76833000  0.97989000  0.41780000  1.0
  H  H3  1  0.02011000  0.23167000  0.08220000  1.0
  H  H4  1  0.23167000  0.02011000  0.58220000  1.0
  H  H5  1  0.97989000  0.76833000  0.91780000  1.0
  H  H6  1  0.46322000  0.18742000  0.53854000  1.0
  H  H7  1  0.81258000  0.53678000  0.96146000  1.0
  H  H8  1  0.53678000  0.81258000  0.46146000  1.0
  H  H9  1  0.18742000  0.46322000  0.03854000  1.0
  H  H10  1  0.60648000  0.29512000  0.47970000  1.0
  H  H11  1  0.70489000  0.39351000  0.02030000  1.0
  H  H12  1  0.39352000  0.70488000  0.52030000  1.0
  H  H13  1  0.29511000  0.60648000  0.97970000  1.0
  H  H14  1  0.66742000  0.54826000  0.69204000  1.0
  H  H15  1  0.45175000  0.33258000  0.80796000  1.0
  H  H16  1  0.33259000  0.45174000  0.30796000  1.0
  H  H17  1  0.54826000  0.66742000  0.19204000  1.0
  H  H18  1  0.45303000  0.46462000  0.60973000  1.0
  H  H19  1  0.53538000  0.54697000  0.89027000  1.0
  H  H20  1  0.54697000  0.53538000  0.39027000  1.0
  H  H21  1  0.46462000  0.45303000  0.10973000  1.0
  H  H22  1  0.24289000  0.47140000  0.73312000  1.0
  H  H23  1  0.52860000  0.75712000  0.76688000  1.0
  H  H24  1  0.75712000  0.52861000  0.26688000  1.0
  H  H25  1  0.47140000  0.24288000  0.23313000  1.0
  H  H26  1  0.03573000  0.40223000  0.70512000  1.0
  H  H27  1  0.59776000  0.96427000  0.79488000  1.0
  H  H28  1  0.96427000  0.59777000  0.29488000  1.0
  H  H29  1  0.40224000  0.03573000  0.20512000  1.0
  H  H30  1  0.12423000  0.65153000  0.62748000  1.0
  H  H31  1  0.34847000  0.87577000  0.87252000  1.0
  H  H32  1  0.87576000  0.34846000  0.37252000  1.0
  H  H33  1  0.65154000  0.12424000  0.12748000  1.0
  H  H34  1  0.16641000  0.52149000  0.48040000  1.0
  H  H35  1  0.47851000  0.83359000  0.01959000  1.0
  H  H36  1  0.83359000  0.47851000  0.51960000  1.0
  H  H37  1  0.52149000  0.16641000  0.98041000  1.0
  C  C38  1  0.70775000  0.22764000  0.66651000  1.0
  C  C39  1  0.77235000  0.29225000  0.83348000  1.0
  C  C40  1  0.29224000  0.77235000  0.33349000  1.0
  C  C41  1  0.22765000  0.70774000  0.16652000  1.0
  C  C42  1  0.57982000  0.28547000  0.58065000  1.0
  C  C43  1  0.71453000  0.42018000  0.91935000  1.0
  C  C44  1  0.42018000  0.71453000  0.41935000  1.0
  C  C45  1  0.28547000  0.57983000  0.08065000  1.0
  C  C46  1  0.56355000  0.44428000  0.67407000  1.0
  C  C47  1  0.55572000  0.43644000  0.82593000  1.0
  C  C48  1  0.43645000  0.55572000  0.32593000  1.0
  C  C49  1  0.44428000  0.56355000  0.17407000  1.0
  C  C50  1  0.11947000  0.24678000  0.55558000  1.0
  C  C51  1  0.75322000  0.88054000  0.94441000  1.0
  C  C52  1  0.88053000  0.75321000  0.44441000  1.0
  C  C53  1  0.24678000  0.11947000  0.05559000  1.0
  C  C54  1  0.12212000  0.41584000  0.64408000  1.0
  C  C55  1  0.58416000  0.87788000  0.85592000  1.0
  C  C56  1  0.87788000  0.58416000  0.35592000  1.0
  C  C57  1  0.41584000  0.12212000  0.14408000  1.0
  C  C58  1  0.08897000  0.52512000  0.55101000  1.0
  C  C59  1  0.47488000  0.91103000  0.94899000  1.0
  C  C60  1  0.91103000  0.47488000  0.44899000  1.0
  C  C61  1  0.52512000  0.08897000  0.05101000  1.0
  N  N62  1  0.76620000  0.11937000  0.60029000  1.0
  N  N63  1  0.88064000  0.23380000  0.89970000  1.0
  N  N64  1  0.23380000  0.88062000  0.39970000  1.0
  N  N65  1  0.11936000  0.76620000  0.10029000  1.0
  O  O66  1  0.70451000  0.06008000  0.44611000  1.0
  O  O67  1  0.93992000  0.29548000  0.05388000  1.0
  O  O68  1  0.29548000  0.93992000  0.55389000  1.0
  O  O69  1  0.06009000  0.70452000  0.94612000  1.0
  O  O70  1  0.14323000  0.14799000  0.62772000  1.0
  O  O71  1  0.85201000  0.85677000  0.87228000  1.0
  O  O72  1  0.85677000  0.85201000  0.37228000  1.0
  O  O73  1  0.14799000  0.14323000  0.12772000  1.0
  O  O74  1  0.09928000  0.21409000  0.41674000  1.0
  O  O75  1  0.78591000  0.90073000  0.08326000  1.0
  O  O76  1  0.90073000  0.78591000  0.58326000  1.0
  O  O77  1  0.21409000  0.09928000  0.91674000  1.0
