# generated using pymatgen
data_CuH4C5BrNCl
_symmetry_space_group_name_H-M   'P 1'
_cell_length_a   3.82123000
_cell_length_b   8.64078000
_cell_length_c   20.83540000
_cell_angle_alpha   78.10800000
_cell_angle_beta   89.99990000
_cell_angle_gamma   89.99970000
_symmetry_Int_Tables_number   1
_chemical_formula_structural   CuH4C5BrNCl
_chemical_formula_sum   'Cu4 H16 C20 Br4 N4 Cl4'
_cell_volume   673.18675270
_cell_formula_units_Z   4
loop_
 _symmetry_equiv_pos_site_id
 _symmetry_equiv_pos_as_xyz
  1  'x, y, z'
loop_
 _atom_site_type_symbol
 _atom_site_label
 _atom_site_symmetry_multiplicity
 _atom_site_fract_x
 _atom_site_fract_y
 _atom_site_fract_z
 _atom_site_occupancy
  Cu  Cu0  1  0.38619000  0.81495000  0.20826000  1.0
  Cu  Cu1  1  0.88618000  0.68505000  0.29174000  1.0
  Cu  Cu2  1  0.61381000  0.18505000  0.79174000  1.0
  Cu  Cu3  1  0.11381000  0.31495000  0.70826000  1.0
  H  H4  1  0.67302000  0.96237000  0.07758000  1.0
  H  H5  1  0.17301000  0.53763000  0.42242000  1.0
  H  H6  1  0.32699000  0.03762000  0.92242000  1.0
  H  H7  1  0.82695000  0.46237000  0.57758000  1.0
  H  H8  1  0.32728000  0.41354000  0.17415000  1.0
  H  H9  1  0.82727000  0.08646000  0.32586000  1.0
  H  H10  1  0.67275000  0.58646000  0.82586000  1.0
  H  H11  1  0.17275000  0.91354000  0.67414000  1.0
  H  H12  1  0.60534000  0.46845000  0.06303000  1.0
  H  H13  1  0.10532000  0.03155000  0.43697000  1.0
  H  H14  1  0.39468000  0.53155000  0.93697000  1.0
  H  H15  1  0.89468000  0.96845000  0.56303000  1.0
  H  H16  1  0.24483000  0.13106000  0.23296000  1.0
  H  H17  1  0.74482000  0.36894000  0.26704000  1.0
  H  H18  1  0.75519000  0.86894000  0.76704000  1.0
  H  H19  1  0.25519000  0.63106000  0.73296000  1.0
  C  C20  1  0.59846000  0.06475000  0.09755000  1.0
  C  C21  1  0.09845000  0.43525000  0.40245000  1.0
  C  C22  1  0.40152000  0.93525000  0.90245000  1.0
  C  C23  1  0.90153000  0.56475000  0.59755000  1.0
  C  C24  1  0.40954000  0.31621000  0.15162000  1.0
  C  C25  1  0.90953000  0.18379000  0.34837000  1.0
  C  C26  1  0.59044000  0.68378000  0.84837000  1.0
  C  C27  1  0.09045000  0.81622000  0.65162000  1.0
  C  C28  1  0.65392000  0.21852000  0.06236000  1.0
  C  C29  1  0.15389000  0.28148000  0.43764000  1.0
  C  C30  1  0.34611000  0.78148000  0.93765000  1.0
  C  C31  1  0.84608000  0.71852000  0.56235000  1.0
  C  C32  1  0.56149000  0.34747000  0.08946000  1.0
  C  C33  1  0.06150000  0.15252000  0.41054000  1.0
  C  C34  1  0.43852000  0.65253000  0.91055000  1.0
  C  C35  1  0.93850000  0.84747000  0.58946000  1.0
  C  C36  1  0.36036000  0.16040000  0.18411000  1.0
  C  C37  1  0.86036000  0.33960000  0.31589000  1.0
  C  C38  1  0.63966000  0.83960000  0.81589000  1.0
  C  C39  1  0.13963000  0.66039000  0.68411000  1.0
  Br  Br40  1  0.89650000  0.66524000  0.17339000  1.0
  Br  Br41  1  0.39650000  0.83475000  0.32661000  1.0
  Br  Br42  1  0.10350000  0.33476000  0.82661000  1.0
  Br  Br43  1  0.60350000  0.16524000  0.67339000  1.0
  N  N44  1  0.45419000  0.03600000  0.15787000  1.0
  N  N45  1  0.95417000  0.46400000  0.34213000  1.0
  N  N46  1  0.54584000  0.96400000  0.84213000  1.0
  N  N47  1  0.04581000  0.53600000  0.65787000  1.0
  Cl  Cl48  1  0.83140000  0.24704000  0.98442000  1.0
  Cl  Cl49  1  0.33138000  0.25297000  0.51558000  1.0
  Cl  Cl50  1  0.16861000  0.75297000  0.01559000  1.0
  Cl  Cl51  1  0.66858000  0.74702000  0.48442000  1.0
