# generated using pymatgen
data_CuH19C18N3O8
_symmetry_space_group_name_H-M   'P 1'
_cell_length_a   4.76895000
_cell_length_b   20.24200000
_cell_length_c   21.03840000
_cell_angle_alpha   89.99970000
_cell_angle_beta   90.00100000
_cell_angle_gamma   89.99940000
_symmetry_Int_Tables_number   1
_chemical_formula_structural   CuH19C18N3O8
_chemical_formula_sum   'Cu4 H76 C72 N12 O32'
_cell_volume   2030.90167395
_cell_formula_units_Z   4
loop_
 _symmetry_equiv_pos_site_id
 _symmetry_equiv_pos_as_xyz
  1  'x, y, z'
loop_
 _atom_site_type_symbol
 _atom_site_label
 _atom_site_symmetry_multiplicity
 _atom_site_fract_x
 _atom_site_fract_y
 _atom_site_fract_z
 _atom_site_occupancy
  Cu  Cu0  1  0.00048000  0.95257000  0.22685000  1.0
  Cu  Cu1  1  0.99950000  0.04743000  0.72685000  1.0
  Cu  Cu2  1  0.99951000  0.45257000  0.22685000  1.0
  Cu  Cu3  1  0.00053000  0.54743000  0.72686000  1.0
  H  H4  1  0.64293000  0.20031000  0.15575000  1.0
  H  H5  1  0.35699000  0.79969000  0.65574000  1.0
  H  H6  1  0.35703000  0.70031000  0.15574000  1.0
  H  H7  1  0.64299000  0.29970000  0.65575000  1.0
  H  H8  1  0.68894000  0.23322000  0.37170000  1.0
  H  H9  1  0.31106000  0.76678000  0.87170000  1.0
  H  H10  1  0.31102000  0.73322000  0.37170000  1.0
  H  H11  1  0.68895000  0.26678000  0.87170000  1.0
  H  H12  1  0.99441000  0.21801000  0.59093000  1.0
  H  H13  1  0.00561000  0.78201000  0.09093000  1.0
  H  H14  1  0.00557000  0.71799000  0.59093000  1.0
  H  H15  1  0.99444000  0.28199000  0.09093000  1.0
  H  H16  1  0.18317000  0.09417000  0.24195000  1.0
  H  H17  1  0.81677000  0.90584000  0.74196000  1.0
  H  H18  1  0.81676000  0.59416000  0.24196000  1.0
  H  H19  1  0.18324000  0.40583000  0.74196000  1.0
  H  H20  1  0.02991000  0.18980000  0.30785000  1.0
  H  H21  1  0.97004000  0.81020000  0.80785000  1.0
  H  H22  1  0.97003000  0.68980000  0.30785000  1.0
  H  H23  1  0.02994000  0.31019000  0.80786000  1.0
  H  H24  1  0.45312000  0.05681000  0.40292000  1.0
  H  H25  1  0.54689000  0.94319000  0.90291000  1.0
  H  H26  1  0.54691000  0.55681000  0.40291000  1.0
  H  H27  1  0.45315000  0.44319000  0.90292000  1.0
  H  H28  1  0.64034000  0.96771000  0.33599000  1.0
  H  H29  1  0.35967000  0.03229000  0.83598000  1.0
  H  H30  1  0.35968000  0.46770000  0.33598000  1.0
  H  H31  1  0.64042000  0.53230000  0.83599000  1.0
  H  H32  1  0.03560000  0.30585000  0.51853000  1.0
  H  H33  1  0.96437000  0.69416000  0.01855000  1.0
  H  H34  1  0.96436000  0.80584000  0.51854000  1.0
  H  H35  1  0.03563000  0.19415000  0.01854000  1.0
  H  H36  1  0.34682000  0.29447000  0.42221000  1.0
  H  H37  1  0.65310000  0.70553000  0.92223000  1.0
  H  H38  1  0.65312000  0.79447000  0.42222000  1.0
  H  H39  1  0.34683000  0.20553000  0.92222000  1.0
  H  H40  1  0.54935000  0.09699000  0.48853000  1.0
  H  H41  1  0.45064000  0.90302000  0.98852000  1.0
  H  H42  1  0.45066000  0.59698000  0.48852000  1.0
  H  H43  1  0.54936000  0.40301000  0.98853000  1.0
  H  H44  1  0.23234000  0.11769000  0.58140000  1.0
  H  H45  1  0.76767000  0.88232000  0.08140000  1.0
  H  H46  1  0.76766000  0.61768000  0.58139000  1.0
  H  H47  1  0.23235000  0.38231000  0.08140000  1.0
  H  H48  1  0.50465000  0.87479000  0.23980000  1.0
  H  H49  1  0.49533000  0.12521000  0.73979000  1.0
  H  H50  1  0.49535000  0.37479000  0.23979000  1.0
  H  H51  1  0.50473000  0.62521000  0.73979000  1.0
  H  H52  1  0.70312000  0.77911000  0.29862000  1.0
  H  H53  1  0.29684000  0.22090000  0.79861000  1.0
  H  H54  1  0.29685000  0.27910000  0.29861000  1.0
  H  H55  1  0.70322000  0.72089000  0.79861000  1.0
  H  H56  1  0.71160000  0.76365000  0.21537000  1.0
  H  H57  1  0.28843000  0.23636000  0.71535000  1.0
  H  H58  1  0.28843000  0.26364000  0.21535000  1.0
  H  H59  1  0.71160000  0.73636000  0.71535000  1.0
  H  H60  1  0.45535000  0.72468000  0.26306000  1.0
  H  H61  1  0.54466000  0.27533000  0.76306000  1.0
  H  H62  1  0.54465000  0.22467000  0.26306000  1.0
  H  H63  1  0.45539000  0.77532000  0.76306000  1.0
  H  H64  1  0.21241000  0.06457000  0.13052000  1.0
  H  H65  1  0.78756000  0.93543000  0.63052000  1.0
  H  H66  1  0.78756000  0.56457000  0.13052000  1.0
  H  H67  1  0.21242000  0.43544000  0.63053000  1.0
  H  H68  1  0.27682000  0.97292000  0.05585000  1.0
  H  H69  1  0.72318000  0.02709000  0.55586000  1.0
  H  H70  1  0.72318000  0.47291000  0.05586000  1.0
  H  H71  1  0.27682000  0.52710000  0.55587000  1.0
  H  H72  1  0.60459000  0.00717000  0.02897000  1.0
  H  H73  1  0.39541000  0.99284000  0.52897000  1.0
  H  H74  1  0.39541000  0.50716000  0.02897000  1.0
  H  H75  1  0.60456000  0.49285000  0.52899000  1.0
  H  H76  1  0.28288000  0.04923000  0.01401000  1.0
  H  H77  1  0.71709000  0.95078000  0.51400000  1.0
  H  H78  1  0.71710000  0.54922000  0.01401000  1.0
  H  H79  1  0.28286000  0.45079000  0.51402000  1.0
  C  C80  1  0.02443000  0.08819000  0.27875000  1.0
  C  C81  1  0.97552000  0.91182000  0.77875000  1.0
  C  C82  1  0.97551000  0.58818000  0.27875000  1.0
  C  C83  1  0.02449000  0.41181000  0.77876000  1.0
  C  C84  1  0.93921000  0.14114000  0.31558000  1.0
  C  C85  1  0.06075000  0.85887000  0.81558000  1.0
  C  C86  1  0.06074000  0.64113000  0.31558000  1.0
  C  C87  1  0.93925000  0.35886000  0.81559000  1.0
  C  C88  1  0.72983000  0.13225000  0.36213000  1.0
  C  C89  1  0.27016000  0.86775000  0.86213000  1.0
  C  C90  1  0.27016000  0.63224000  0.36212000  1.0
  C  C91  1  0.72986000  0.36775000  0.86213000  1.0
  C  C92  1  0.62212000  0.06798000  0.37002000  1.0
  C  C93  1  0.37788000  0.93202000  0.87002000  1.0
  C  C94  1  0.37788000  0.56798000  0.37002000  1.0
  C  C95  1  0.62216000  0.43202000  0.87002000  1.0
  C  C96  1  0.72205000  0.01768000  0.33153000  1.0
  C  C97  1  0.27795000  0.98232000  0.83153000  1.0
  C  C98  1  0.27796000  0.51768000  0.33153000  1.0
  C  C99  1  0.72210000  0.48232000  0.83153000  1.0
  C  C100  1  0.15765000  0.26152000  0.50852000  1.0
  C  C101  1  0.84231000  0.73848000  0.00853000  1.0
  C  C102  1  0.84230000  0.76151000  0.50852000  1.0
  C  C103  1  0.15767000  0.23848000  0.00852000  1.0
  C  C104  1  0.32659000  0.25413000  0.45608000  1.0
  C  C105  1  0.67337000  0.74588000  0.95608000  1.0
  C  C106  1  0.67337000  0.75412000  0.45608000  1.0
  C  C107  1  0.32659000  0.24587000  0.95608000  1.0
  C  C108  1  0.46743000  0.19346000  0.44566000  1.0
  C  C109  1  0.53255000  0.80655000  0.94566000  1.0
  C  C110  1  0.53256000  0.69345000  0.44566000  1.0
  C  C111  1  0.46744000  0.30654000  0.94566000  1.0
  C  C112  1  0.43550000  0.14321000  0.49185000  1.0
  C  C113  1  0.56449000  0.85679000  0.99185000  1.0
  C  C114  1  0.56450000  0.64321000  0.49184000  1.0
  C  C115  1  0.43551000  0.35679000  0.99185000  1.0
  C  C116  1  0.26570000  0.15387000  0.54376000  1.0
  C  C117  1  0.73431000  0.84615000  0.04376000  1.0
  C  C118  1  0.73431000  0.65385000  0.54375000  1.0
  C  C119  1  0.26571000  0.34613000  0.04376000  1.0
  C  C120  1  0.19057000  0.84372000  0.30410000  1.0
  C  C121  1  0.80939000  0.15628000  0.80411000  1.0
  C  C122  1  0.80941000  0.34372000  0.30410000  1.0
  C  C123  1  0.19068000  0.65627000  0.80411000  1.0
  C  C124  1  0.38021000  0.82924000  0.24641000  1.0
  C  C125  1  0.61978000  0.17077000  0.74640000  1.0
  C  C126  1  0.61979000  0.32923000  0.24640000  1.0
  C  C127  1  0.38027000  0.67076000  0.74641000  1.0
  C  C128  1  0.20146000  0.82490000  0.18646000  1.0
  C  C129  1  0.79856000  0.17511000  0.68645000  1.0
  C  C130  1  0.79858000  0.32489000  0.18646000  1.0
  C  C131  1  0.20145000  0.67510000  0.68647000  1.0
  C  C132  1  0.57325000  0.77061000  0.25643000  1.0
  C  C133  1  0.42675000  0.22940000  0.75642000  1.0
  C  C134  1  0.42675000  0.27060000  0.25642000  1.0
  C  C135  1  0.57331000  0.72939000  0.75642000  1.0
  C  C136  1  0.57205000  0.01077000  0.16123000  1.0
  C  C137  1  0.42793000  0.98922000  0.66123000  1.0
  C  C138  1  0.42794000  0.51077000  0.16123000  1.0
  C  C139  1  0.57209000  0.48923000  0.66124000  1.0
  C  C140  1  0.42303000  0.05451000  0.11193000  1.0
  C  C141  1  0.57695000  0.94549000  0.61192000  1.0
  C  C142  1  0.57695000  0.55451000  0.11192000  1.0
  C  C143  1  0.42304000  0.44550000  0.61194000  1.0
  C  C144  1  0.57824000  0.11966000  0.10655000  1.0
  C  C145  1  0.42171000  0.88032000  0.60653000  1.0
  C  C146  1  0.42172000  0.61968000  0.10653000  1.0
  C  C147  1  0.57824000  0.38034000  0.60655000  1.0
  C  C148  1  0.39668000  0.01861000  0.04845000  1.0
  C  C149  1  0.60330000  0.98140000  0.54845000  1.0
  C  C150  1  0.60331000  0.51860000  0.04845000  1.0
  C  C151  1  0.39667000  0.48141000  0.54847000  1.0
  N  N152  1  0.91764000  0.02710000  0.28632000  1.0
  N  N153  1  0.08234000  0.97291000  0.78631000  1.0
  N  N154  1  0.08234000  0.52709000  0.28632000  1.0
  N  N155  1  0.91771000  0.47290000  0.78632000  1.0
  N  N156  1  0.63317000  0.18801000  0.39299000  1.0
  N  N157  1  0.36680000  0.81199000  0.89299000  1.0
  N  N158  1  0.36680000  0.68801000  0.39299000  1.0
  N  N159  1  0.63319000  0.31199000  0.89299000  1.0
  N  N160  1  0.12830000  0.21166000  0.55089000  1.0
  N  N161  1  0.87170000  0.78835000  0.05089000  1.0
  N  N162  1  0.87169000  0.71165000  0.55088000  1.0
  N  N163  1  0.12832000  0.28834000  0.05089000  1.0
  O  O164  1  0.03869000  0.89602000  0.30247000  1.0
  O  O165  1  0.96126000  0.10398000  0.80246000  1.0
  O  O166  1  0.96128000  0.39602000  0.30246000  1.0
  O  O167  1  0.03882000  0.60397000  0.80248000  1.0
  O  O168  1  0.18741000  0.80519000  0.35093000  1.0
  O  O169  1  0.81251000  0.19481000  0.85094000  1.0
  O  O170  1  0.81253000  0.30519000  0.35094000  1.0
  O  O171  1  0.18763000  0.69478000  0.85096000  1.0
  O  O172  1  0.04234000  0.87333000  0.17157000  1.0
  O  O173  1  0.95765000  0.12667000  0.67157000  1.0
  O  O174  1  0.95769000  0.37332000  0.17157000  1.0
  O  O175  1  0.04229000  0.62668000  0.67159000  1.0
  O  O176  1  0.21290000  0.77346000  0.15155000  1.0
  O  O177  1  0.78716000  0.22656000  0.65156000  1.0
  O  O178  1  0.78719000  0.27344000  0.15157000  1.0
  O  O179  1  0.21285000  0.72655000  0.65157000  1.0
  O  O180  1  0.83653000  0.00215000  0.15268000  1.0
  O  O181  1  0.16346000  0.99784000  0.65268000  1.0
  O  O182  1  0.16346000  0.50216000  0.15268000  1.0
  O  O183  1  0.83657000  0.49784000  0.65269000  1.0
  O  O184  1  0.43860000  0.98533000  0.20656000  1.0
  O  O185  1  0.56139000  0.01466000  0.70656000  1.0
  O  O186  1  0.56139000  0.48534000  0.20656000  1.0
  O  O187  1  0.43865000  0.51468000  0.70657000  1.0
  O  O188  1  0.54568000  0.15591000  0.15943000  1.0
  O  O189  1  0.45416000  0.84409000  0.65943000  1.0
  O  O190  1  0.45421000  0.65591000  0.15943000  1.0
  O  O191  1  0.54581000  0.34410000  0.65944000  1.0
  O  O192  1  0.71477000  0.13740000  0.06008000  1.0
  O  O193  1  0.28538000  0.86259000  0.56005000  1.0
  O  O194  1  0.28536000  0.63741000  0.06006000  1.0
  O  O195  1  0.71460000  0.36259000  0.56006000  1.0
