# generated using pymatgen
data_NaH7(CO)8
_symmetry_space_group_name_H-M   'P 1'
_cell_length_a   5.35038000
_cell_length_b   12.45990000
_cell_length_c   13.64370000
_cell_angle_alpha   89.99950000
_cell_angle_beta   89.99940000
_cell_angle_gamma   91.32420000
_symmetry_Int_Tables_number   1
_chemical_formula_structural   NaH7(CO)8
_chemical_formula_sum   'Na4 H28 C32 O32'
_cell_volume   909.31707673
_cell_formula_units_Z   4
loop_
 _symmetry_equiv_pos_site_id
 _symmetry_equiv_pos_as_xyz
  1  'x, y, z'
loop_
 _atom_site_type_symbol
 _atom_site_label
 _atom_site_symmetry_multiplicity
 _atom_site_fract_x
 _atom_site_fract_y
 _atom_site_fract_z
 _atom_site_occupancy
  Na  Na0  1  0.73488000  0.05371000  0.27412000  1.0
  Na  Na1  1  0.76511000  0.44628000  0.77411000  1.0
  Na  Na2  1  0.26513000  0.94629000  0.72589000  1.0
  Na  Na3  1  0.23488000  0.55371000  0.22589000  1.0
  H  H4  1  0.21246000  0.96410000  0.33054000  1.0
  H  H5  1  0.28754000  0.53591000  0.83052000  1.0
  H  H6  1  0.78755000  0.03591000  0.66946000  1.0
  H  H7  1  0.71247000  0.46409000  0.16946000  1.0
  H  H8  1  0.67456000  0.23280000  0.67471000  1.0
  H  H9  1  0.82543000  0.26720000  0.17471000  1.0
  H  H10  1  0.32543000  0.76720000  0.32528000  1.0
  H  H11  1  0.17457000  0.73280000  0.82529000  1.0
  H  H12  1  0.81495000  0.54037000  0.35963000  1.0
  H  H13  1  0.68506000  0.95964000  0.85963000  1.0
  H  H14  1  0.18504000  0.45963000  0.64036000  1.0
  H  H15  1  0.31498000  0.04038000  0.14037000  1.0
  H  H16  1  0.13003000  0.26251000  0.30297000  1.0
  H  H17  1  0.36996000  0.23748000  0.80297000  1.0
  H  H18  1  0.86996000  0.73748000  0.69703000  1.0
  H  H19  1  0.63003000  0.76252000  0.19703000  1.0
  H  H20  1  0.55004000  0.18223000  0.43368000  1.0
  H  H21  1  0.94993000  0.31776000  0.93368000  1.0
  H  H22  1  0.44994000  0.81777000  0.56632000  1.0
  H  H23  1  0.05005000  0.68224000  0.06633000  1.0
  H  H24  1  0.05751000  0.24853000  0.52761000  1.0
  H  H25  1  0.44248000  0.25148000  0.02760000  1.0
  H  H26  1  0.94247000  0.75147000  0.47239000  1.0
  H  H27  1  0.55753000  0.74854000  0.97240000  1.0
  H  H28  1  0.37642000  0.42864000  0.43695000  1.0
  H  H29  1  0.12359000  0.07135000  0.93696000  1.0
  H  H30  1  0.62355000  0.57136000  0.56305000  1.0
  H  H31  1  0.87646000  0.92864000  0.06305000  1.0
  C  C32  1  0.29717000  0.28451000  0.34611000  1.0
  C  C33  1  0.20284000  0.21549000  0.84612000  1.0
  C  C34  1  0.70283000  0.71549000  0.65389000  1.0
  C  C35  1  0.79716000  0.78451000  0.15389000  1.0
  C  C36  1  0.35050000  0.19735000  0.42535000  1.0
  C  C37  1  0.14947000  0.30264000  0.92535000  1.0
  C  C38  1  0.64947000  0.80264000  0.57465000  1.0
  C  C39  1  0.85052000  0.69736000  0.07466000  1.0
  C  C40  1  0.24699000  0.27376000  0.50393000  1.0
  C  C41  1  0.25301000  0.22623000  0.00392000  1.0
  C  C42  1  0.75299000  0.72624000  0.49607000  1.0
  C  C43  1  0.74701000  0.77376000  0.99608000  1.0
  C  C44  1  0.23061000  0.36612000  0.42848000  1.0
  C  C45  1  0.26940000  0.13388000  0.92849000  1.0
  C  C46  1  0.76938000  0.63388000  0.57152000  1.0
  C  C47  1  0.73064000  0.86612000  0.07152000  1.0
  C  C48  1  0.50187000  0.31338000  0.27359000  1.0
  C  C49  1  0.99808000  0.18661000  0.77358000  1.0
  C  C50  1  0.49810000  0.68662000  0.72642000  1.0
  C  C51  1  0.00191000  0.81339000  0.22642000  1.0
  C  C52  1  0.20075000  0.09697000  0.40359000  1.0
  C  C53  1  0.29921000  0.40304000  0.90358000  1.0
  C  C54  1  0.79923000  0.90303000  0.59641000  1.0
  C  C55  1  0.70078000  0.59697000  0.09642000  1.0
  C  C56  1  0.40703000  0.29278000  0.59324000  1.0
  C  C57  1  0.09296000  0.20722000  0.09323000  1.0
  C  C58  1  0.59296000  0.70722000  0.40677000  1.0
  C  C59  1  0.90704000  0.79278000  0.90676000  1.0
  C  C60  1  0.97856000  0.41639000  0.41937000  1.0
  C  C61  1  0.52146000  0.08361000  0.91936000  1.0
  C  C62  1  0.02143000  0.58360000  0.58063000  1.0
  C  C63  1  0.47859000  0.91641000  0.08063000  1.0
  O  O64  1  0.65860000  0.24062000  0.25295000  1.0
  O  O65  1  0.84143000  0.25937000  0.75295000  1.0
  O  O66  1  0.34141000  0.75937000  0.74705000  1.0
  O  O67  1  0.15856000  0.74063000  0.24705000  1.0
  O  O68  1  0.50027000  0.40563000  0.23490000  1.0
  O  O69  1  0.99974000  0.09437000  0.73490000  1.0
  O  O70  1  0.49974000  0.59437000  0.76511000  1.0
  O  O71  1  0.00027000  0.90562000  0.26510000  1.0
  O  O72  1  0.33328000  0.02116000  0.35923000  1.0
  O  O73  1  0.16671000  0.47883000  0.85922000  1.0
  O  O74  1  0.66666667  0.97884000  0.64077000  1.0
  O  O75  1  0.83329000  0.52116000  0.14077000  1.0
  O  O76  1  0.97262000  0.08968000  0.41581000  1.0
  O  O77  1  0.52735000  0.41032000  0.91580000  1.0
  O  O78  1  0.02737000  0.91031000  0.58420000  1.0
  O  O79  1  0.47263000  0.58968000  0.08420000  1.0
  O  O80  1  0.39648000  0.37583000  0.64492000  1.0
  O  O81  1  0.10354000  0.12418000  0.14493000  1.0
  O  O82  1  0.60351000  0.62417000  0.35508000  1.0
  O  O83  1  0.89647000  0.87582000  0.85507000  1.0
  O  O84  1  0.55440000  0.21389000  0.61403000  1.0
  O  O85  1  0.94559000  0.28611000  0.11403000  1.0
  O  O86  1  0.44560000  0.78610000  0.38596000  1.0
  O  O87  1  0.05441000  0.71390000  0.88597000  1.0
  O  O88  1  0.97795000  0.49810000  0.35544000  1.0
  O  O89  1  0.52206000  0.00192000  0.85544000  1.0
  O  O90  1  0.02203000  0.50190000  0.64456000  1.0
  O  O91  1  0.47798000  0.99810000  0.14456000  1.0
  O  O92  1  0.79235000  0.38660000  0.46531000  1.0
  O  O93  1  0.70765000  0.11340000  0.96531000  1.0
  O  O94  1  0.20763000  0.61339000  0.53468000  1.0
  O  O95  1  0.29237000  0.88663000  0.03468000  1.0
