# generated using pymatgen
data_Cu3P2H24C38(N2O5)2
_symmetry_space_group_name_H-M   'P 1'
_cell_length_a   8.34484000
_cell_length_b   9.74792000
_cell_length_c   11.49380000
_cell_angle_alpha   100.52000000
_cell_angle_beta   97.84050000
_cell_angle_gamma   90.55020000
_symmetry_Int_Tables_number   1
_chemical_formula_structural   Cu3P2H24C38(N2O5)2
_chemical_formula_sum   'Cu3 P2 H24 C38 N4 O10'
_cell_volume   910.08051603
_cell_formula_units_Z   1
loop_
 _symmetry_equiv_pos_site_id
 _symmetry_equiv_pos_as_xyz
  1  'x, y, z'
loop_
 _atom_site_type_symbol
 _atom_site_label
 _atom_site_symmetry_multiplicity
 _atom_site_fract_x
 _atom_site_fract_y
 _atom_site_fract_z
 _atom_site_occupancy
  Cu  Cu0  1  0.84169000  0.00075000  0.79952000  1.0
  Cu  Cu1  1  0.15832000  0.99924000  0.20048000  1.0
  Cu  Cu2  1  0.50001000  0.00000000  0.00000000  1.0
  P  P3  1  0.84555000  0.85061000  0.02814000  1.0
  P  P4  1  0.15446000  0.14938000  0.97186000  1.0
  H  H5  1  0.68474000  0.69366000  0.17226000  1.0
  H  H6  1  0.31526000  0.30634000  0.82773000  1.0
  H  H7  1  0.60678000  0.44171000  0.15032000  1.0
  H  H8  1  0.39323000  0.55829000  0.84968000  1.0
  H  H9  1  0.81137000  0.35070000  0.82420000  1.0
  H  H10  1  0.18862000  0.64928000  0.17580000  1.0
  H  H11  1  0.88909000  0.60496000  0.84428000  1.0
  H  H12  1  0.11090000  0.39502000  0.15571000  1.0
  H  H13  1  0.60124000  0.75437000  0.81480000  1.0
  H  H14  1  0.39875000  0.24564000  0.18520000  1.0
  H  H15  1  0.41362000  0.59131000  0.66291000  1.0
  H  H16  1  0.58635000  0.40872000  0.33710000  1.0
  H  H17  1  0.39132000  0.61134000  0.44642000  1.0
  H  H18  1  0.60866000  0.38867000  0.55359000  1.0
  H  H19  1  0.84173000  0.14101000  0.31969000  1.0
  H  H20  1  0.15827000  0.85901000  0.68031000  1.0
  H  H21  1  0.00769000  0.29459000  0.49652000  1.0
  H  H22  1  0.99231000  0.70542000  0.50348000  1.0
  H  H23  1  0.00417000  0.23957000  0.70315000  1.0
  H  H24  1  0.99584000  0.76043000  0.29685000  1.0
  H  H25  1  0.64013000  0.93526000  0.24493000  1.0
  H  H26  1  0.35987000  0.06474000  0.75506000  1.0
  H  H27  1  0.47447000  0.74743000  0.29074000  1.0
  H  H28  1  0.52554000  0.25257000  0.70926000  1.0
  C  C29  1  0.78974000  0.66606000  0.00859000  1.0
  C  C30  1  0.21026000  0.33393000  0.99140000  1.0
  C  C31  1  0.71416000  0.61851000  0.09636000  1.0
  C  C32  1  0.28583000  0.38148000  0.90363000  1.0
  C  C33  1  0.67174000  0.47800000  0.08504000  1.0
  C  C34  1  0.32826000  0.52199000  0.91495000  1.0
  C  C35  1  0.70385000  0.38127000  0.98553000  1.0
  C  C36  1  0.29615000  0.61873000  0.01447000  1.0
  C  C37  1  0.64553000  0.23225000  0.96756000  1.0
  C  C38  1  0.35448000  0.76774000  0.03244000  1.0
  C  C39  1  0.78308000  0.42772000  0.89924000  1.0
  C  C40  1  0.21691000  0.57227000  0.10075000  1.0
  C  C41  1  0.82610000  0.56862000  0.91072000  1.0
  C  C42  1  0.17389000  0.43137000  0.08926000  1.0
  C  C43  1  0.58973000  0.76192000  0.72078000  1.0
  C  C44  1  0.41026000  0.23810000  0.27922000  1.0
  C  C45  1  0.48466000  0.66998000  0.63409000  1.0
  C  C46  1  0.51533000  0.33004000  0.36592000  1.0
  C  C47  1  0.47174000  0.68155000  0.51506000  1.0
  C  C48  1  0.52825000  0.31847000  0.48494000  1.0
  C  C49  1  0.56230000  0.78790000  0.48205000  1.0
  C  C50  1  0.43770000  0.21210000  0.51795000  1.0
  C  C51  1  0.66244000  0.87721000  0.57543000  1.0
  C  C52  1  0.33756000  0.12279000  0.42457000  1.0
  C  C53  1  0.75292000  0.99024000  0.54926000  1.0
  C  C54  1  0.24709000  0.00976000  0.45074000  1.0
  C  C55  1  0.74624000  0.01092000  0.42997000  1.0
  C  C56  1  0.25377000  0.98908000  0.57003000  1.0
  C  C57  1  0.84137000  0.12346000  0.41081000  1.0
  C  C58  1  0.15863000  0.87655000  0.58919000  1.0
  C  C59  1  0.93238000  0.20748000  0.50811000  1.0
  C  C60  1  0.06762000  0.79252000  0.49189000  1.0
  C  C61  1  0.93124000  0.17912000  0.62394000  1.0
  C  C62  1  0.06877000  0.82088000  0.37606000  1.0
  C  C63  1  0.64508000  0.91892000  0.33693000  1.0
  C  C64  1  0.35493000  0.08108000  0.66307000  1.0
  C  C65  1  0.55590000  0.81226000  0.36249000  1.0
  C  C66  1  0.44411000  0.18774000  0.63751000  1.0
  N  N67  1  0.67689000  0.86240000  0.69164000  1.0
  N  N68  1  0.32312000  0.13760000  0.30836000  1.0
  N  N69  1  0.84412000  0.07258000  0.64327000  1.0
  N  N70  1  0.15589000  0.92742000  0.35673000  1.0
  O  O71  1  0.89115000  0.87173000  0.90745000  1.0
  O  O72  1  0.10886000  0.12826000  0.09255000  1.0
  O  O73  1  0.98964000  0.86276000  0.12946000  1.0
  O  O74  1  0.01036000  0.13723000  0.87054000  1.0
  O  O75  1  0.70639000  0.93858000  0.07193000  1.0
  O  O76  1  0.29362000  0.06142000  0.92807000  1.0
  O  O77  1  0.58424000  0.19503000  0.05452000  1.0
  O  O78  1  0.41578000  0.80496000  0.94550000  1.0
  O  O79  1  0.65129000  0.15147000  0.86877000  1.0
  O  O80  1  0.34871000  0.84851000  0.13123000  1.0
