# generated using pymatgen
data_NiH7C3N(ClO)2
_symmetry_space_group_name_H-M   'P 1'
_cell_length_a   6.62015000
_cell_length_b   7.59453000
_cell_length_c   12.80630000
_cell_angle_alpha   90.00020000
_cell_angle_beta   90.00020000
_cell_angle_gamma   89.99990000
_symmetry_Int_Tables_number   1
_chemical_formula_structural   NiH7C3N(ClO)2
_chemical_formula_sum   'Ni4 H28 C12 N4 Cl8 O8'
_cell_volume   643.86142021
_cell_formula_units_Z   4
loop_
 _symmetry_equiv_pos_site_id
 _symmetry_equiv_pos_as_xyz
  1  'x, y, z'
loop_
 _atom_site_type_symbol
 _atom_site_label
 _atom_site_symmetry_multiplicity
 _atom_site_fract_x
 _atom_site_fract_y
 _atom_site_fract_z
 _atom_site_occupancy
  Ni  Ni0  1  0.65474000  0.74630000  0.23919000  1.0
  Ni  Ni1  1  0.34526000  0.24630000  0.76081000  1.0
  Ni  Ni2  1  0.15474000  0.74630000  0.26081000  1.0
  Ni  Ni3  1  0.84526000  0.24630000  0.73919000  1.0
  H  H4  1  0.98115000  0.80908000  0.55666000  1.0
  H  H5  1  0.01885000  0.30908000  0.44334000  1.0
  H  H6  1  0.48115000  0.80908000  0.94334000  1.0
  H  H7  1  0.51885000  0.30907000  0.05665000  1.0
  H  H8  1  0.81677000  0.97244000  0.57095000  1.0
  H  H9  1  0.18323000  0.47244000  0.42906000  1.0
  H  H10  1  0.31677000  0.97245000  0.92905000  1.0
  H  H11  1  0.68322000  0.47244000  0.07094000  1.0
  H  H12  1  0.80793000  0.84397000  0.46320000  1.0
  H  H13  1  0.19207000  0.34397000  0.53680000  1.0
  H  H14  1  0.30793000  0.84397000  0.03680000  1.0
  H  H15  1  0.69207000  0.34397000  0.96320000  1.0
  H  H16  1  0.37482000  0.66220000  0.60956000  1.0
  H  H17  1  0.62518000  0.16221000  0.39044000  1.0
  H  H18  1  0.87482000  0.66220000  0.89044000  1.0
  H  H19  1  0.12518000  0.16220000  0.10956000  1.0
  H  H20  1  0.42357000  0.88702000  0.59623000  1.0
  H  H21  1  0.57643000  0.38703000  0.40377000  1.0
  H  H22  1  0.92356000  0.88703000  0.90377000  1.0
  H  H23  1  0.07643000  0.38702000  0.09623000  1.0
  H  H24  1  0.71251000  0.72786000  0.67877000  1.0
  H  H25  1  0.28749000  0.22786000  0.32123000  1.0
  H  H26  1  0.21251000  0.72787000  0.82123000  1.0
  H  H27  1  0.78749000  0.22787000  0.17877000  1.0
  H  H28  1  0.73527000  0.58692000  0.56932000  1.0
  H  H29  1  0.26473000  0.08692000  0.43068000  1.0
  H  H30  1  0.23527000  0.58692000  0.93068000  1.0
  H  H31  1  0.76473000  0.08692000  0.06932000  1.0
  C  C32  1  0.42540000  0.74661000  0.45058000  1.0
  C  C33  1  0.57460000  0.24661000  0.54942000  1.0
  C  C34  1  0.92541000  0.74661000  0.04942000  1.0
  C  C35  1  0.07460000  0.24662000  0.95058000  1.0
  C  C36  1  0.47031000  0.75662000  0.56698000  1.0
  C  C37  1  0.52969000  0.25662000  0.43302000  1.0
  C  C38  1  0.97030000  0.75663000  0.93302000  1.0
  C  C39  1  0.02969000  0.25662000  0.06698000  1.0
  C  C40  1  0.69016000  0.71916000  0.59440000  1.0
  C  C41  1  0.30984000  0.21916000  0.40560000  1.0
  C  C42  1  0.19015000  0.71916000  0.90560000  1.0
  C  C43  1  0.80984000  0.21916000  0.09440000  1.0
  N  N44  1  0.83357000  0.84477000  0.54350000  1.0
  N  N45  1  0.16643000  0.34477000  0.45650000  1.0
  N  N46  1  0.33357000  0.84478000  0.95650000  1.0
  N  N47  1  0.66642000  0.34477000  0.04350000  1.0
  Cl  Cl48  1  0.41080000  0.96320000  0.20287000  1.0
  Cl  Cl49  1  0.58920000  0.46320000  0.79713000  1.0
  Cl  Cl50  1  0.91080000  0.96320000  0.29713000  1.0
  Cl  Cl51  1  0.08920000  0.46320000  0.70287000  1.0
  Cl  Cl52  1  0.39807000  0.52968000  0.21253000  1.0
  Cl  Cl53  1  0.60193000  0.02968000  0.78747000  1.0
  Cl  Cl54  1  0.89808000  0.52968000  0.28747000  1.0
  Cl  Cl55  1  0.10193000  0.02968000  0.71253000  1.0
  O  O56  1  0.57897000  0.75559000  0.39184000  1.0
  O  O57  1  0.42104000  0.25560000  0.60815000  1.0
  O  O58  1  0.07897000  0.75560000  0.10815000  1.0
  O  O59  1  0.92103000  0.25559000  0.89185000  1.0
  O  O60  1  0.24154000  0.73152000  0.42031000  1.0
  O  O61  1  0.75847000  0.23152000  0.57969000  1.0
  O  O62  1  0.74153000  0.73152000  0.07969000  1.0
  O  O63  1  0.25847000  0.23152000  0.92031000  1.0
