# generated using pymatgen
data_Mn2H35C45N7O8
_symmetry_space_group_name_H-M   'P 1'
_cell_length_a   11.77550000
_cell_length_b   11.77550000
_cell_length_c   16.48190000
_cell_angle_alpha   69.61760000
_cell_angle_beta   69.61750000
_cell_angle_gamma   80.54400000
_symmetry_Int_Tables_number   1
_chemical_formula_structural   Mn2H35C45N7O8
_chemical_formula_sum   'Mn4 H70 C90 N14 O16'
_cell_volume   2005.78829538
_cell_formula_units_Z   2
loop_
 _symmetry_equiv_pos_site_id
 _symmetry_equiv_pos_as_xyz
  1  'x, y, z'
loop_
 _atom_site_type_symbol
 _atom_site_label
 _atom_site_symmetry_multiplicity
 _atom_site_fract_x
 _atom_site_fract_y
 _atom_site_fract_z
 _atom_site_occupancy
  Mn  Mn0  1  0.16054000  0.38093000  0.95529000  1.0
  Mn  Mn1  1  0.61907000  0.83946000  0.54471000  1.0
  Mn  Mn2  1  0.83946000  0.61906000  0.04471000  1.0
  Mn  Mn3  1  0.38094000  0.16054000  0.45529000  1.0
  H  H4  1  0.58215000  0.83675000  0.96148000  1.0
  H  H5  1  0.16325000  0.41785000  0.53852000  1.0
  H  H6  1  0.41786000  0.16325000  0.03852000  1.0
  H  H7  1  0.83675000  0.58214000  0.46148000  1.0
  H  H8  1  0.32713000  0.19339000  0.72386000  1.0
  H  H9  1  0.80661000  0.67287000  0.77614000  1.0
  H  H10  1  0.67287000  0.80661000  0.27614000  1.0
  H  H11  1  0.19339000  0.32713000  0.22387000  1.0
  H  H12  1  0.65813000  0.66825000  0.92391000  1.0
  H  H13  1  0.33175000  0.34188000  0.57609000  1.0
  H  H14  1  0.34188000  0.33175000  0.07609000  1.0
  H  H15  1  0.66825000  0.65812000  0.42391000  1.0
  H  H16  1  0.64826000  0.74124000  0.81314000  1.0
  H  H17  1  0.25876000  0.35174000  0.68687000  1.0
  H  H18  1  0.35174000  0.25876000  0.18686000  1.0
  H  H19  1  0.74124000  0.64826000  0.31313000  1.0
  H  H20  1  0.44498000  0.02270000  0.95960000  1.0
  H  H21  1  0.97730000  0.55502000  0.54040000  1.0
  H  H22  1  0.55503000  0.97730000  0.04040000  1.0
  H  H23  1  0.02270000  0.44498000  0.45960000  1.0
  H  H24  1  0.52419000  0.84949000  0.75191000  1.0
  H  H25  1  0.15050000  0.47580000  0.74810000  1.0
  H  H26  1  0.47580000  0.15050000  0.24810000  1.0
  H  H27  1  0.84950000  0.52420000  0.25190000  1.0
  H  H28  1  0.60354000  0.54182000  0.81209000  1.0
  H  H29  1  0.45818000  0.39646000  0.68791000  1.0
  H  H30  1  0.39645000  0.45818000  0.18791000  1.0
  H  H31  1  0.54182000  0.60354000  0.31209000  1.0
  H  H32  1  0.35768000  0.71894000  0.00010000  1.0
  H  H33  1  0.28106000  0.64232000  0.49990000  1.0
  H  H34  1  0.64232000  0.28106000  0.99990000  1.0
  H  H35  1  0.71894000  0.35768000  0.50010000  1.0
  H  H36  1  0.43498000  0.41705000  0.84152000  1.0
  H  H37  1  0.58295000  0.56502000  0.65848000  1.0
  H  H38  1  0.56502000  0.58296000  0.15848000  1.0
  H  H39  1  0.41705000  0.43498000  0.34152000  1.0
  H  H40  1  0.19794000  0.58523000  0.02332000  1.0
  H  H41  1  0.41477000  0.80206000  0.47668000  1.0
  H  H42  1  0.80206000  0.41477000  0.97668000  1.0
  H  H43  1  0.58523000  0.19794000  0.52332000  1.0
  H  H44  1  0.07450000  0.25733000  0.84884000  1.0
  H  H45  1  0.74267000  0.92550000  0.65116000  1.0
  H  H46  1  0.92550000  0.74267000  0.15116000  1.0
  H  H47  1  0.25733000  0.07450000  0.34884000  1.0
  H  H48  1  0.78669000  0.01837000  0.03175000  1.0
  H  H49  1  0.98163000  0.21331000  0.46825000  1.0
  H  H50  1  0.21332000  0.98163000  0.96825000  1.0
  H  H51  1  0.01838000  0.78668000  0.53175000  1.0
  H  H52  1  0.94262000  0.24408000  0.11906000  1.0
  H  H53  1  0.75592000  0.05738000  0.38094000  1.0
  H  H54  1  0.05738000  0.75592000  0.88094000  1.0
  H  H55  1  0.24408000  0.94262000  0.61905000  1.0
  H  H56  1  0.93058000  0.10460000  0.87505000  1.0
  H  H57  1  0.89540000  0.06942000  0.62495000  1.0
  H  H58  1  0.06942000  0.89539000  0.12496000  1.0
  H  H59  1  0.10460000  0.93058000  0.37504000  1.0
  H  H60  1  0.79140000  0.09071000  0.15676000  1.0
  H  H61  1  0.90929000  0.20860000  0.34324000  1.0
  H  H62  1  0.20860000  0.90929000  0.84325000  1.0
  H  H63  1  0.09071000  0.79140000  0.65675000  1.0
  H  H64  1  0.69242000  0.03915000  0.83190000  1.0
  H  H65  1  0.96085000  0.30759000  0.66810000  1.0
  H  H66  1  0.30758000  0.96086000  0.16810000  1.0
  H  H67  1  0.03915000  0.69242000  0.33189000  1.0
  H  H68  1  0.07120000  0.92880000  0.75000000  1.0
  H  H69  1  0.92879000  0.07120000  0.25000000  1.0
  H  H70  1  0.85635000  0.87533000  0.83364000  1.0
  H  H71  1  0.12467000  0.14365000  0.66636000  1.0
  H  H72  1  0.14365000  0.12468000  0.16636000  1.0
  H  H73  1  0.87532000  0.85635000  0.33364000  1.0
  C  C74  1  0.42821000  0.02247000  0.72883000  1.0
  C  C75  1  0.97753000  0.57179000  0.77117000  1.0
  C  C76  1  0.57179000  0.97753000  0.27117000  1.0
  C  C77  1  0.02247000  0.42821000  0.22883000  1.0
  C  C78  1  0.37573000  0.12002000  0.76168000  1.0
  C  C79  1  0.87998000  0.62427000  0.73832000  1.0
  C  C80  1  0.62427000  0.87998000  0.23832000  1.0
  C  C81  1  0.12002000  0.37573000  0.26168000  1.0
  C  C82  1  0.59580000  0.72012000  0.88614000  1.0
  C  C83  1  0.27988000  0.40420000  0.61386000  1.0
  C  C84  1  0.40421000  0.27988000  0.11386000  1.0
  C  C85  1  0.72012000  0.59580000  0.38614000  1.0
  C  C86  1  0.44442000  0.02342000  0.89349000  1.0
  C  C87  1  0.97658000  0.55558000  0.60652000  1.0
  C  C88  1  0.55558000  0.97658000  0.10651000  1.0
  C  C89  1  0.02341000  0.44442000  0.39349000  1.0
  C  C90  1  0.49751000  0.92412000  0.86170000  1.0
  C  C91  1  0.07588000  0.50249000  0.63830000  1.0
  C  C92  1  0.50249000  0.07587000  0.13830000  1.0
  C  C93  1  0.92412000  0.49751000  0.36171000  1.0
  C  C94  1  0.38328000  0.11978000  0.84476000  1.0
  C  C95  1  0.88022000  0.61672000  0.65525000  1.0
  C  C96  1  0.61673000  0.88022000  0.15524000  1.0
  C  C97  1  0.11978000  0.38327000  0.34476000  1.0
  C  C98  1  0.49462000  0.64138000  0.90418000  1.0
  C  C99  1  0.35862000  0.50538000  0.59582000  1.0
  C  C100  1  0.50538000  0.35862000  0.09582000  1.0
  C  C101  1  0.64138000  0.49462000  0.40418000  1.0
  C  C102  1  0.48700000  0.92480000  0.77870000  1.0
  C  C103  1  0.07520000  0.51300000  0.72131000  1.0
  C  C104  1  0.51300000  0.07520000  0.22131000  1.0
  C  C105  1  0.92480000  0.48700000  0.27869000  1.0
  C  C106  1  0.31643000  0.21646000  0.88627000  1.0
  C  C107  1  0.78354000  0.68357000  0.61373000  1.0
  C  C108  1  0.68358000  0.78354000  0.11373000  1.0
  C  C109  1  0.21645000  0.31643000  0.38627000  1.0
  C  C110  1  0.51518000  0.55438000  0.85993000  1.0
  C  C111  1  0.44562000  0.48482000  0.64007000  1.0
  C  C112  1  0.48481000  0.44562000  0.14007000  1.0
  C  C113  1  0.55438000  0.51518000  0.35993000  1.0
  C  C114  1  0.42024000  0.02034000  0.64021000  1.0
  C  C115  1  0.97966000  0.57975000  0.85979000  1.0
  C  C116  1  0.57975000  0.97965000  0.35979000  1.0
  C  C117  1  0.02035000  0.42025000  0.14021000  1.0
  C  C118  1  0.37850000  0.65239000  0.96407000  1.0
  C  C119  1  0.34760000  0.62150000  0.53593000  1.0
  C  C120  1  0.62150000  0.34761000  0.03593000  1.0
  C  C121  1  0.65240000  0.37850000  0.46407000  1.0
  C  C122  1  0.42091000  0.48433000  0.87600000  1.0
  C  C123  1  0.51567000  0.57910000  0.62400000  1.0
  C  C124  1  0.57909000  0.51567000  0.12400000  1.0
  C  C125  1  0.48433000  0.42091000  0.37600000  1.0
  C  C126  1  0.28909000  0.57849000  0.97675000  1.0
  C  C127  1  0.42151000  0.71091000  0.52325000  1.0
  C  C128  1  0.71091000  0.42151000  0.02325000  1.0
  C  C129  1  0.57849000  0.28909000  0.47675000  1.0
  C  C130  1  0.01007000  0.21827000  0.91600000  1.0
  C  C131  1  0.78173000  0.98992000  0.58400000  1.0
  C  C132  1  0.98993000  0.78173000  0.08400000  1.0
  C  C133  1  0.21827000  0.01007000  0.41600000  1.0
  C  C134  1  0.84999000  0.08541000  0.01824000  1.0
  C  C135  1  0.91459000  0.15001000  0.48176000  1.0
  C  C136  1  0.15001000  0.91459000  0.98177000  1.0
  C  C137  1  0.08541000  0.84998000  0.51824000  1.0
  C  C138  1  0.93700000  0.20957000  0.06739000  1.0
  C  C139  1  0.79043000  0.06300000  0.43261000  1.0
  C  C140  1  0.06300000  0.79043000  0.93261000  1.0
  C  C141  1  0.20957000  0.93700000  0.56739000  1.0
  C  C142  1  0.92946000  0.13364000  0.93093000  1.0
  C  C143  1  0.86636000  0.07054000  0.56907000  1.0
  C  C144  1  0.07054000  0.86636000  0.06907000  1.0
  C  C145  1  0.13364000  0.92945000  0.43092000  1.0
  C  C146  1  0.85323000  0.12498000  0.08778000  1.0
  C  C147  1  0.87502000  0.14677000  0.41222000  1.0
  C  C148  1  0.14677000  0.87502000  0.91222000  1.0
  C  C149  1  0.12498000  0.85323000  0.58778000  1.0
  C  C150  1  0.72377000  0.27624000  0.75000000  1.0
  C  C151  1  0.27624000  0.72377000  0.25000000  1.0
  C  C152  1  0.78710000  0.06097000  0.79680000  1.0
  C  C153  1  0.93903000  0.21290000  0.70320000  1.0
  C  C154  1  0.21290000  0.93903000  0.20320000  1.0
  C  C155  1  0.06097000  0.78710000  0.29679000  1.0
  C  C156  1  0.99976000  0.00024000  0.75000000  1.0
  C  C157  1  0.00024000  0.99976000  0.25000000  1.0
  C  C158  1  0.87896000  0.96978000  0.79687000  1.0
  C  C159  1  0.03023000  0.12104000  0.70313000  1.0
  C  C160  1  0.12104000  0.03023000  0.20313000  1.0
  C  C161  1  0.96977000  0.87896000  0.29687000  1.0
  C  C162  1  0.81733000  0.18268000  0.75000000  1.0
  C  C163  1  0.18267000  0.81733000  0.25000000  1.0
  N  N164  1  0.55494000  0.82888000  0.91124000  1.0
  N  N165  1  0.17112000  0.44506000  0.58876000  1.0
  N  N166  1  0.44506000  0.17112000  0.08876000  1.0
  N  N167  1  0.82888000  0.55494000  0.41124000  1.0
  N  N168  1  0.30868000  0.49566000  0.93332000  1.0
  N  N169  1  0.50434000  0.69132000  0.56668000  1.0
  N  N170  1  0.69133000  0.50434000  0.06668000  1.0
  N  N171  1  0.49566000  0.30868000  0.43332000  1.0
  N  N172  1  0.01525000  0.25540000  0.98329000  1.0
  N  N173  1  0.74461000  0.98475000  0.51671000  1.0
  N  N174  1  0.98475000  0.74461000  0.01671000  1.0
  N  N175  1  0.25539000  0.01525000  0.48328000  1.0
  N  N176  1  0.64708000  0.35293000  0.75000000  1.0
  N  N177  1  0.35292000  0.64709000  0.25000000  1.0
  O  O178  1  0.36267000  0.10933000  0.59737000  1.0
  O  O179  1  0.89068000  0.63733000  0.90263000  1.0
  O  O180  1  0.63732000  0.89067000  0.40263000  1.0
  O  O181  1  0.10933000  0.36267000  0.09737000  1.0
  O  O182  1  0.26622000  0.30824000  0.83922000  1.0
  O  O183  1  0.69176000  0.73378000  0.66078000  1.0
  O  O184  1  0.73379000  0.69176000  0.16078000  1.0
  O  O185  1  0.30824000  0.26622000  0.33922000  1.0
  O  O186  1  0.30610000  0.20376000  0.96863000  1.0
  O  O187  1  0.79624000  0.69390000  0.53137000  1.0
  O  O188  1  0.69390000  0.79623000  0.03137000  1.0
  O  O189  1  0.20376000  0.30610000  0.46863000  1.0
  O  O190  1  0.46849000  0.92990000  0.61263000  1.0
  O  O191  1  0.07011000  0.53151000  0.88737000  1.0
  O  O192  1  0.53150000  0.07009000  0.38737000  1.0
  O  O193  1  0.92991000  0.46849000  0.11263000  1.0
