# generated using pymatgen
data_ZnH20C28(NO4)2
_symmetry_space_group_name_H-M   'P 1'
_cell_length_a   9.06170000
_cell_length_b   10.70040000
_cell_length_c   12.46100000
_cell_angle_alpha   96.08910000
_cell_angle_beta   108.76300000
_cell_angle_gamma   92.23440000
_symmetry_Int_Tables_number   1
_chemical_formula_structural   ZnH20C28(NO4)2
_chemical_formula_sum   'Zn2 H40 C56 N4 O16'
_cell_volume   1134.16617612
_cell_formula_units_Z   2
loop_
 _symmetry_equiv_pos_site_id
 _symmetry_equiv_pos_as_xyz
  1  'x, y, z'
loop_
 _atom_site_type_symbol
 _atom_site_label
 _atom_site_symmetry_multiplicity
 _atom_site_fract_x
 _atom_site_fract_y
 _atom_site_fract_z
 _atom_site_occupancy
  Zn  Zn0  1  0.08181000  0.84526000  0.90680000  1.0
  Zn  Zn1  1  0.91820000  0.15474000  0.09320000  1.0
  H  H2  1  0.50678000  0.87399000  0.69427000  1.0
  H  H3  1  0.49321000  0.12601000  0.30574000  1.0
  H  H4  1  0.49744000  0.74358000  0.53696000  1.0
  H  H5  1  0.50256000  0.25641000  0.46305000  1.0
  H  H6  1  0.02432000  0.26966000  0.80488000  1.0
  H  H7  1  0.97568000  0.73034000  0.19512000  1.0
  H  H8  1  0.90798000  0.17934000  0.44083000  1.0
  H  H9  1  0.09202000  0.82065000  0.55917000  1.0
  H  H10  1  0.72291000  0.00250000  0.44555000  1.0
  H  H11  1  0.27707000  0.99750000  0.55445000  1.0
  H  H12  1  0.32867000  0.44814000  0.49122000  1.0
  H  H13  1  0.67133000  0.55185000  0.50878000  1.0
  H  H14  1  0.15935000  0.26074000  0.49001000  1.0
  H  H15  1  0.84064000  0.73926000  0.50999000  1.0
  H  H16  1  0.01174000  0.46627000  0.74970000  1.0
  H  H17  1  0.98825000  0.53372000  0.25030000  1.0
  H  H18  1  0.79510000  0.70656000  0.70287000  1.0
  H  H19  1  0.20491000  0.29343000  0.29713000  1.0
  H  H20  1  0.61407000  0.51163000  0.66047000  1.0
  H  H21  1  0.38594000  0.48837000  0.33953000  1.0
  H  H22  1  0.79640000  0.46671000  0.01779000  1.0
  H  H23  1  0.20360000  0.53330000  0.98221000  1.0
  H  H24  1  0.97557000  0.65878000  0.04301000  1.0
  H  H25  1  0.02443000  0.34122000  0.95699000  1.0
  H  H26  1  0.51290000  0.33399000  0.72405000  1.0
  H  H27  1  0.48710000  0.66601000  0.27595000  1.0
  H  H28  1  0.66504000  0.27415000  0.83081000  1.0
  H  H29  1  0.33496000  0.72586000  0.16919000  1.0
  H  H30  1  0.39413000  0.41433000  0.86827000  1.0
  H  H31  1  0.60587000  0.58567000  0.13174000  1.0
  H  H32  1  0.55928000  0.38295000  0.98146000  1.0
  H  H33  1  0.44072000  0.61705000  0.01855000  1.0
  H  H34  1  0.17580000  0.96850000  0.72718000  1.0
  H  H35  1  0.82421000  0.03151000  0.27282000  1.0
  H  H36  1  0.32188000  0.16492000  0.71153000  1.0
  H  H37  1  0.67814000  0.83509000  0.28848000  1.0
  H  H38  1  0.48042000  0.23603000  0.07976000  1.0
  H  H39  1  0.51958000  0.76398000  0.92025000  1.0
  H  H40  1  0.32921000  0.03775000  0.07981000  1.0
  H  H41  1  0.67079000  0.96225000  0.92020000  1.0
  C  C42  1  0.87207000  0.07369000  0.84590000  1.0
  C  C43  1  0.12793000  0.92631000  0.15409000  1.0
  C  C44  1  0.85913000  0.11044000  0.72996000  1.0
  C  C45  1  0.14086000  0.88956000  0.27004000  1.0
  C  C46  1  0.95496000  0.21316000  0.72545000  1.0
  C  C47  1  0.04503000  0.78684000  0.27455000  1.0
  C  C48  1  0.97328000  0.23987000  0.62236000  1.0
  C  C49  1  0.02671000  0.76013000  0.37764000  1.0
  C  C50  1  0.89448000  0.15979000  0.52160000  1.0
  C  C51  1  0.10551000  0.84021000  0.47839000  1.0
  C  C52  1  0.79232000  0.06073000  0.52418000  1.0
  C  C53  1  0.20767000  0.93927000  0.47582000  1.0
  C  C54  1  0.77154000  0.03623000  0.62682000  1.0
  C  C55  1  0.22844000  0.96377000  0.37318000  1.0
  C  C56  1  0.65080000  0.93658000  0.62072000  1.0
  C  C57  1  0.34919000  0.06342000  0.37928000  1.0
  C  C58  1  0.36737000  0.67278000  0.61771000  1.0
  C  C59  1  0.63263000  0.32721000  0.38229000  1.0
  C  C60  1  0.26419000  0.56345000  0.61869000  1.0
  C  C61  1  0.73581000  0.43654000  0.38130000  1.0
  C  C62  1  0.25707000  0.45161000  0.54653000  1.0
  C  C63  1  0.74293000  0.54839000  0.45347000  1.0
  C  C64  1  0.16286000  0.34645000  0.54645000  1.0
  C  C65  1  0.83714000  0.65355000  0.45355000  1.0
  C  C66  1  0.07474000  0.35002000  0.62103000  1.0
  C  C67  1  0.92526000  0.64997000  0.37896000  1.0
  C  C68  1  0.08332000  0.46122000  0.69400000  1.0
  C  C69  1  0.91667000  0.53878000  0.30600000  1.0
  C  C70  1  0.17504000  0.56856000  0.69286000  1.0
  C  C71  1  0.82496000  0.43143000  0.30714000  1.0
  C  C72  1  0.15895000  0.68488000  0.76607000  1.0
  C  C73  1  0.84105000  0.31511000  0.23393000  1.0
  C  C74  1  0.79077000  0.65120000  0.77045000  1.0
  C  C75  1  0.20924000  0.34880000  0.22954000  1.0
  C  C76  1  0.68966000  0.54280000  0.74766000  1.0
  C  C77  1  0.31034000  0.45720000  0.25233000  1.0
  C  C78  1  0.68742000  0.47226000  0.83572000  1.0
  C  C79  1  0.31258000  0.52774000  0.16428000  1.0
  C  C80  1  0.79010000  0.51758000  0.94517000  1.0
  C  C81  1  0.20990000  0.48242000  0.05482000  1.0
  C  C82  1  0.88957000  0.62496000  0.96027000  1.0
  C  C83  1  0.11044000  0.37505000  0.03973000  1.0
  C  C84  1  0.58636000  0.35096000  0.81431000  1.0
  C  C85  1  0.41364000  0.64905000  0.18570000  1.0
  C  C86  1  0.48635000  0.34852000  0.89354000  1.0
  C  C87  1  0.51365000  0.65149000  0.10646000  1.0
  C  C88  1  0.24522000  0.03109000  0.80296000  1.0
  C  C89  1  0.75478000  0.96892000  0.19704000  1.0
  C  C90  1  0.32692000  0.14091000  0.79547000  1.0
  C  C91  1  0.67308000  0.85909000  0.20454000  1.0
  C  C92  1  0.40957000  0.22148000  0.89491000  1.0
  C  C93  1  0.59044000  0.77852000  0.10510000  1.0
  C  C94  1  0.41273000  0.18082000  0.99890000  1.0
  C  C95  1  0.58727000  0.81919000  0.00110000  1.0
  C  C96  1  0.32958000  0.06914000  0.99971000  1.0
  C  C97  1  0.67042000  0.93087000  0.00029000  1.0
  N  N98  1  0.89213000  0.69189000  0.87522000  1.0
  N  N99  1  0.10788000  0.30811000  0.12478000  1.0
  N  N100  1  0.24319000  0.99590000  0.90330000  1.0
  N  N101  1  0.75681000  0.00410000  0.09670000  1.0
  O  O102  1  0.89946000  0.96139000  0.86242000  1.0
  O  O103  1  0.10054000  0.03861000  0.13758000  1.0
  O  O104  1  0.85912000  0.16056000  0.92019000  1.0
  O  O105  1  0.14088000  0.83943000  0.07981000  1.0
  O  O106  1  0.58496000  0.95128000  0.70065000  1.0
  O  O107  1  0.41503000  0.04872000  0.29936000  1.0
  O  O108  1  0.61184000  0.84766000  0.54042000  1.0
  O  O109  1  0.38815000  0.15234000  0.45958000  1.0
  O  O110  1  0.42360000  0.66405000  0.53181000  1.0
  O  O111  1  0.57640000  0.33595000  0.46820000  1.0
  O  O112  1  0.39942000  0.76525000  0.69402000  1.0
  O  O113  1  0.60058000  0.23474000  0.30598000  1.0
  O  O114  1  0.07152000  0.76658000  0.71823000  1.0
  O  O115  1  0.92849000  0.23343000  0.28177000  1.0
  O  O116  1  0.21827000  0.68896000  0.87417000  1.0
  O  O117  1  0.78172000  0.31103000  0.12583000  1.0
