# generated using pymatgen
data_CaH9C6(N3O2)3
_symmetry_space_group_name_H-M   'P 1'
_cell_length_a   7.56367000
_cell_length_b   9.62718000
_cell_length_c   9.62714000
_cell_angle_alpha   95.41640000
_cell_angle_beta   100.52400000
_cell_angle_gamma   100.52400000
_symmetry_Int_Tables_number   1
_chemical_formula_structural   CaH9C6(N3O2)3
_chemical_formula_sum   'Ca2 H18 C12 N18 O12'
_cell_volume   671.68753367
_cell_formula_units_Z   2
loop_
 _symmetry_equiv_pos_site_id
 _symmetry_equiv_pos_as_xyz
  1  'x, y, z'
loop_
 _atom_site_type_symbol
 _atom_site_label
 _atom_site_symmetry_multiplicity
 _atom_site_fract_x
 _atom_site_fract_y
 _atom_site_fract_z
 _atom_site_occupancy
  Ca  Ca0  1  0.01546000  0.99787000  0.06407000  1.0
  Ca  Ca1  1  0.51546000  0.06407000  0.99787000  1.0
  H  H2  1  0.53942000  0.84763000  0.66791000  1.0
  H  H3  1  0.03943000  0.66791000  0.84763000  1.0
  H  H4  1  0.63409000  0.99667000  0.58870000  1.0
  H  H5  1  0.13409000  0.58871000  0.99667000  1.0
  H  H6  1  0.91123000  0.48187000  0.35660000  1.0
  H  H7  1  0.41124000  0.35661000  0.48187000  1.0
  H  H8  1  0.24221000  0.89531000  0.29670000  1.0
  H  H9  1  0.74221000  0.29670000  0.89531000  1.0
  H  H10  1  0.06133000  0.90207000  0.34547000  1.0
  H  H11  1  0.56133000  0.34546000  0.90206000  1.0
  H  H12  1  0.82108000  0.74378000  0.16185000  1.0
  H  H13  1  0.32108000  0.16184000  0.74378000  1.0
  H  H14  1  0.68965000  0.76041000  0.02046000  1.0
  H  H15  1  0.18965000  0.02046000  0.76041000  1.0
  H  H16  1  0.00917000  0.11897000  0.43929000  1.0
  H  H17  1  0.50916000  0.43928000  0.11897000  1.0
  H  H18  1  0.02942000  0.27163000  0.34936000  1.0
  H  H19  1  0.52941000  0.34936000  0.27162000  1.0
  C  C20  1  0.80926000  0.96073000  0.78096000  1.0
  C  C21  1  0.30926000  0.78097000  0.96073000  1.0
  C  C22  1  0.66585000  0.90675000  0.64321000  1.0
  C  C23  1  0.16586000  0.64321000  0.90675000  1.0
  C  C24  1  0.81721000  0.63679000  0.46523000  1.0
  C  C25  1  0.31721000  0.46524000  0.63679000  1.0
  C  C26  1  0.85119000  0.40923000  0.54104000  1.0
  C  C27  1  0.35120000  0.54104000  0.40923000  1.0
  C  C28  1  0.93814000  0.20236000  0.40267000  1.0
  C  C29  1  0.43814000  0.40267000  0.20236000  1.0
  C  C30  1  0.76122000  0.13652000  0.29250000  1.0
  C  C31  1  0.26123000  0.29250000  0.13651000  1.0
  N  N32  1  0.73151000  0.81315000  0.54693000  1.0
  N  N33  1  0.23152000  0.54693000  0.81315000  1.0
  N  N34  1  0.84600000  0.73733000  0.37677000  1.0
  N  N35  1  0.34601000  0.37678000  0.73734000  1.0
  N  N36  1  0.79113000  0.85014000  0.43253000  1.0
  N  N37  1  0.29113000  0.43253000  0.85014000  1.0
  N  N38  1  0.74382000  0.68124000  0.57316000  1.0
  N  N39  1  0.24383000  0.57316000  0.68124000  1.0
  N  N40  1  0.85268000  0.50202000  0.44143000  1.0
  N  N41  1  0.35268000  0.44142000  0.50202000  1.0
  N  N42  1  0.80522000  0.42887000  0.66786000  1.0
  N  N43  1  0.30522000  0.66786000  0.42888000  1.0
  N  N44  1  0.90267000  0.28172000  0.52602000  1.0
  N  N45  1  0.40267000  0.52602000  0.28173000  1.0
  N  N46  1  0.83108000  0.31052000  0.72861000  1.0
  N  N47  1  0.33108000  0.72861000  0.31052000  1.0
  N  N48  1  0.88756000  0.22119000  0.64642000  1.0
  N  N49  1  0.38755000  0.64642000  0.22119000  1.0
  O  O50  1  0.96848000  0.93431000  0.79417000  1.0
  O  O51  1  0.46850000  0.79417000  0.93431000  1.0
  O  O52  1  0.15159000  0.95799000  0.30094000  1.0
  O  O53  1  0.65159000  0.30093000  0.95799000  1.0
  O  O54  1  0.81975000  0.76422000  0.06352000  1.0
  O  O55  1  0.31975000  0.06352000  0.76422000  1.0
  O  O56  1  0.61022000  0.16058000  0.31293000  1.0
  O  O57  1  0.11020000  0.31294000  0.16058000  1.0
  O  O58  1  0.78438000  0.06400000  0.18097000  1.0
  O  O59  1  0.28437000  0.18098000  0.06401000  1.0
  O  O60  1  0.75586000  0.02845000  0.88025000  1.0
  O  O61  1  0.25587000  0.88024000  0.02845000  1.0
