# generated using pymatgen
data_CuH28C46(N3O2)4
_symmetry_space_group_name_H-M   'P 1'
_cell_length_a   7.42299000
_cell_length_b   10.92290000
_cell_length_c   12.85110000
_cell_angle_alpha   110.55600000
_cell_angle_beta   91.07520000
_cell_angle_gamma   96.94120000
_symmetry_Int_Tables_number   1
_chemical_formula_structural   CuH28C46(N3O2)4
_chemical_formula_sum   'Cu1 H28 C46 N12 O8'
_cell_volume   966.37926557
_cell_formula_units_Z   1
loop_
 _symmetry_equiv_pos_site_id
 _symmetry_equiv_pos_as_xyz
  1  'x, y, z'
loop_
 _atom_site_type_symbol
 _atom_site_label
 _atom_site_symmetry_multiplicity
 _atom_site_fract_x
 _atom_site_fract_y
 _atom_site_fract_z
 _atom_site_occupancy
  Cu  Cu0  1  0.00000000  0.50000000  0.50000000  1.0
  H  H1  1  0.73774000  0.82336000  0.45684000  1.0
  H  H2  1  0.26226000  0.17664000  0.54316000  1.0
  H  H3  1  0.37476000  0.65881000  0.53860000  1.0
  H  H4  1  0.62525000  0.34119000  0.46139000  1.0
  H  H5  1  0.66604000  0.67281000  0.64708000  1.0
  H  H6  1  0.33396000  0.32718000  0.35292000  1.0
  H  H7  1  0.67136000  0.53838000  0.77222000  1.0
  H  H8  1  0.32864000  0.46162000  0.22778000  1.0
  H  H9  1  0.10814000  0.39349000  0.66717000  1.0
  H  H10  1  0.89185000  0.60651000  0.33283000  1.0
  H  H11  1  0.12442000  0.01678000  0.92541000  1.0
  H  H12  1  0.87557000  0.98322000  0.07459000  1.0
  H  H13  1  0.82553000  0.86742000  0.89020000  1.0
  H  H14  1  0.17447000  0.13258000  0.10980000  1.0
  H  H15  1  0.57483000  0.90574000  0.77366000  1.0
  H  H16  1  0.42517000  0.09426000  0.22634000  1.0
  H  H17  1  0.89617000  0.21904000  0.73216000  1.0
  H  H18  1  0.10383000  0.78097000  0.26785000  1.0
  H  H19  1  0.49865000  0.15915000  0.06288000  1.0
  H  H20  1  0.50135000  0.84085000  0.93712000  1.0
  H  H21  1  0.75675000  0.18056000  0.20334000  1.0
  H  H22  1  0.24325000  0.81943000  0.79665000  1.0
  H  H23  1  0.03673000  0.33210000  0.21173000  1.0
  H  H24  1  0.96327000  0.66790000  0.78827000  1.0
  H  H25  1  0.83137000  0.44342000  0.96056000  1.0
  H  H26  1  0.16863000  0.55658000  0.03943000  1.0
  H  H27  1  0.57277000  0.07338000  0.67933000  1.0
  H  H28  1  0.42723000  0.92663000  0.32067000  1.0
  C  C29  1  0.01319000  0.76250000  0.55374000  1.0
  C  C30  1  0.98682000  0.23750000  0.44626000  1.0
  C  C31  1  0.01320000  0.88787000  0.52920000  1.0
  C  C32  1  0.98680000  0.11213000  0.47080000  1.0
  C  C33  1  0.85407000  0.90044000  0.47637000  1.0
  C  C34  1  0.14593000  0.09956000  0.52364000  1.0
  C  C35  1  0.16081000  0.98946000  0.55340000  1.0
  C  C36  1  0.83919000  0.01055000  0.44660000  1.0
  C  C37  1  0.32817000  0.98417000  0.61676000  1.0
  C  C38  1  0.67183000  0.01583000  0.38324000  1.0
  C  C39  1  0.38452000  0.60157000  0.59229000  1.0
  C  C40  1  0.61549000  0.39843000  0.40771000  1.0
  C  C41  1  0.54467000  0.61011000  0.65454000  1.0
  C  C42  1  0.45533000  0.38989000  0.34545000  1.0
  C  C43  1  0.54850000  0.53587000  0.72311000  1.0
  C  C44  1  0.45150000  0.46413000  0.27689000  1.0
  C  C45  1  0.38906000  0.45652000  0.72889000  1.0
  C  C46  1  0.61094000  0.54348000  0.27112000  1.0
  C  C47  1  0.23388000  0.45409000  0.66433000  1.0
  C  C48  1  0.76612000  0.54591000  0.33567000  1.0
  C  C49  1  0.37513000  0.37414000  0.79898000  1.0
  C  C50  1  0.62487000  0.62586000  0.20103000  1.0
  C  C51  1  0.49357000  0.29776000  0.92480000  1.0
  C  C52  1  0.50643000  0.70224000  0.07520000  1.0
  C  C53  1  0.20436000  0.21979000  0.84935000  1.0
  C  C54  1  0.79564000  0.78021000  0.15066000  1.0
  C  C55  1  0.03193000  0.13064000  0.83359000  1.0
  C  C56  1  0.96807000  0.86937000  0.16641000  1.0
  C  C57  1  0.01038000  0.03032000  0.87810000  1.0
  C  C58  1  0.98962000  0.96967000  0.12190000  1.0
  C  C59  1  0.84556000  0.94803000  0.85851000  1.0
  C  C60  1  0.15444000  0.05197000  0.14149000  1.0
  C  C61  1  0.70668000  0.96763000  0.79445000  1.0
  C  C62  1  0.29332000  0.03237000  0.20555000  1.0
  C  C63  1  0.88507000  0.14317000  0.76952000  1.0
  C  C64  1  0.11492000  0.85683000  0.23048000  1.0
  C  C65  1  0.64453000  0.30101000  0.00266000  1.0
  C  C66  1  0.35547000  0.69899000  0.99734000  1.0
  C  C67  1  0.62547000  0.22407000  0.07023000  1.0
  C  C68  1  0.37453000  0.77593000  0.92976000  1.0
  C  C69  1  0.76759000  0.23451000  0.14613000  1.0
  C  C70  1  0.23241000  0.76549000  0.85387000  1.0
  C  C71  1  0.92556000  0.32058000  0.15071000  1.0
  C  C72  1  0.07444000  0.67941000  0.84929000  1.0
  C  C73  1  0.81046000  0.38303000  0.01265000  1.0
  C  C74  1  0.18954000  0.61697000  0.98735000  1.0
  N  N75  1  0.23174000  0.52291000  0.59601000  1.0
  N  N76  1  0.76826000  0.47709000  0.40399000  1.0
  N  N77  1  0.21465000  0.29908000  0.78994000  1.0
  N  N78  1  0.78534000  0.70092000  0.21006000  1.0
  N  N79  1  0.33939000  0.21545000  0.91863000  1.0
  N  N80  1  0.66060000  0.78455000  0.08138000  1.0
  N  N81  1  0.51914000  0.37750000  0.86503000  1.0
  N  N82  1  0.48086000  0.62250000  0.13497000  1.0
  N  N83  1  0.72731000  0.06342000  0.75097000  1.0
  N  N84  1  0.27269000  0.93658000  0.24903000  1.0
  N  N85  1  0.94913000  0.39267000  0.08478000  1.0
  N  N86  1  0.05087000  0.60732000  0.91522000  1.0
  O  O87  1  0.08377000  0.67026000  0.47861000  1.0
  O  O88  1  0.91623000  0.32974000  0.52139000  1.0
  O  O89  1  0.93090000  0.74682000  0.63287000  1.0
  O  O90  1  0.06910000  0.25318000  0.36712000  1.0
  O  O91  1  0.46033000  0.08209000  0.62938000  1.0
  O  O92  1  0.53966000  0.91792000  0.37063000  1.0
  O  O93  1  0.33629000  0.89653000  0.65655000  1.0
  O  O94  1  0.66370000  0.10347000  0.34345000  1.0
