# generated using pymatgen
data_TbH11(C5O3)3
_symmetry_space_group_name_H-M   'P 1'
_cell_length_a   9.01872000
_cell_length_b   9.57430851
_cell_length_c   12.88550000
_cell_angle_alpha   107.28905102
_cell_angle_beta   93.87150000
_cell_angle_gamma   116.69214885
_symmetry_Int_Tables_number   1
_chemical_formula_structural   TbH11(C5O3)3
_chemical_formula_sum   'Tb2 H22 C30 O18'
_cell_volume   922.42459983
_cell_formula_units_Z   2
loop_
 _symmetry_equiv_pos_site_id
 _symmetry_equiv_pos_as_xyz
  1  'x, y, z'
loop_
 _atom_site_type_symbol
 _atom_site_label
 _atom_site_symmetry_multiplicity
 _atom_site_fract_x
 _atom_site_fract_y
 _atom_site_fract_z
 _atom_site_occupancy
  Tb  Tb0  1  0.29739000  0.05028000  0.51887000  1.0
  Tb  Tb1  1  0.70262000  0.94972000  0.48113000  1.0
  H  H2  1  0.13113000  0.25923000  0.49538000  1.0
  H  H3  1  0.86887000  0.74077000  0.50462000  1.0
  H  H4  1  0.30413000  0.36461000  0.59014000  1.0
  H  H5  1  0.69586000  0.63538000  0.40986000  1.0
  H  H6  1  0.52226000  0.14472000  0.36194000  1.0
  H  H7  1  0.47774000  0.85528000  0.63806000  1.0
  H  H8  1  0.44140000  0.26830000  0.39515000  1.0
  H  H9  1  0.55860000  0.73170000  0.60485000  1.0
  H  H10  1  0.13505000  0.66571000  0.00118000  1.0
  H  H11  1  0.86496000  0.33431000  0.99882000  1.0
  H  H12  1  0.97223000  0.72388000  0.87045000  1.0
  H  H13  1  0.02778000  0.27614000  0.12955000  1.0
  H  H14  1  0.78267000  0.83860000  0.93894000  1.0
  H  H15  1  0.21733000  0.16140000  0.06107000  1.0
  H  H16  1  0.76368000  0.90107000  0.13897000  1.0
  H  H17  1  0.23632000  0.09893000  0.86103000  1.0
  H  H18  1  0.17181000  0.43903000  0.42369000  1.0
  H  H19  1  0.82818000  0.56096000  0.57631000  1.0
  H  H20  1  0.67038000  0.27553000  0.23817000  1.0
  H  H21  1  0.32962000  0.72447000  0.76183000  1.0
  H  H22  1  0.79520000  0.50172000  0.16209000  1.0
  H  H23  1  0.20479000  0.49828000  0.83790000  1.0
  C  C24  1  0.93130000  0.87408000  0.30227000  1.0
  C  C25  1  0.06869000  0.12591000  0.69773000  1.0
  C  C26  1  0.94102000  0.82459000  0.18210000  1.0
  C  C27  1  0.05898000  0.17541000  0.81790000  1.0
  C  C28  1  0.04242000  0.75502000  0.14063000  1.0
  C  C29  1  0.95759000  0.24499000  0.85937000  1.0
  C  C30  1  0.05458000  0.71956000  0.02963000  1.0
  C  C31  1  0.94542000  0.28045000  0.97038000  1.0
  C  C32  1  0.96205000  0.75082000  0.95711000  1.0
  C  C33  1  0.03795000  0.24919000  0.04289000  1.0
  C  C34  1  0.85557000  0.81459000  0.99551000  1.0
  C  C35  1  0.14444000  0.18542000  0.00449000  1.0
  C  C36  1  0.84519000  0.85044000  0.10683000  1.0
  C  C37  1  0.15480000  0.14955000  0.89317000  1.0
  C  C38  1  0.05419000  0.59821000  0.25091000  1.0
  C  C39  1  0.94581000  0.40179000  0.74909000  1.0
  C  C40  1  0.16001000  0.58070000  0.32567000  1.0
  C  C41  1  0.83999000  0.41930000  0.67433000  1.0
  C  C42  1  0.08831000  0.45216000  0.36676000  1.0
  C  C43  1  0.91168000  0.54783000  0.63324000  1.0
  C  C44  1  0.91149000  0.34271000  0.33762000  1.0
  C  C45  1  0.08852000  0.65729000  0.66238000  1.0
  C  C46  1  0.80755000  0.36234000  0.26350000  1.0
  C  C47  1  0.19244000  0.63766000  0.73651000  1.0
  C  C48  1  0.87721000  0.48882000  0.22027000  1.0
  C  C49  1  0.12278000  0.51118000  0.77973000  1.0
  C  C50  1  0.34573000  0.70601000  0.36864000  1.0
  C  C51  1  0.65427000  0.29399000  0.63136000  1.0
  C  C52  1  0.83626000  0.21117000  0.38611000  1.0
  C  C53  1  0.16374000  0.78883000  0.61389000  1.0
  O  O54  1  0.06305000  0.93157000  0.37824000  1.0
  O  O55  1  0.93694000  0.06843000  0.62177000  1.0
  O  O56  1  0.78881000  0.85798000  0.32038000  1.0
  O  O57  1  0.21117000  0.14200000  0.67962000  1.0
  O  O58  1  0.13658000  0.71914000  0.20816000  1.0
  O  O59  1  0.86341000  0.28085000  0.79184000  1.0
  O  O60  1  0.38872000  0.86202000  0.41629000  1.0
  O  O61  1  0.61129000  0.13798000  0.58371000  1.0
  O  O62  1  0.45741000  0.66090000  0.36483000  1.0
  O  O63  1  0.54258000  0.33910000  0.63517000  1.0
  O  O64  1  0.93005000  0.20282000  0.46068000  1.0
  O  O65  1  0.06995000  0.79717000  0.53932000  1.0
  O  O66  1  0.67641000  0.10445000  0.35526000  1.0
  O  O67  1  0.32359000  0.89555000  0.64475000  1.0
  O  O68  1  0.25407000  0.28735000  0.51266000  1.0
  O  O69  1  0.74592000  0.71263000  0.48734000  1.0
  O  O70  1  0.41918000  0.15393000  0.37894000  1.0
  O  O71  1  0.58082000  0.84607000  0.62106000  1.0
