# generated using pymatgen
data_Ag2H14C10S3N2
_symmetry_space_group_name_H-M   'P 1'
_cell_length_a   9.48678000
_cell_length_b   10.41900000
_cell_length_c   15.70840000
_cell_angle_alpha   96.48700000
_cell_angle_beta   90.03770000
_cell_angle_gamma   117.04400000
_symmetry_Int_Tables_number   1
_chemical_formula_structural   Ag2H14C10S3N2
_chemical_formula_sum   'Ag8 H56 C40 S12 N8'
_cell_volume   1371.65944354
_cell_formula_units_Z   4
loop_
 _symmetry_equiv_pos_site_id
 _symmetry_equiv_pos_as_xyz
  1  'x, y, z'
loop_
 _atom_site_type_symbol
 _atom_site_label
 _atom_site_symmetry_multiplicity
 _atom_site_fract_x
 _atom_site_fract_y
 _atom_site_fract_z
 _atom_site_occupancy
  Ag  Ag0  1  0.50588000  0.14044000  0.51823000  1.0
  Ag  Ag1  1  0.63453000  0.14042000  0.01834000  1.0
  Ag  Ag2  1  0.49411000  0.85956000  0.48177000  1.0
  Ag  Ag3  1  0.36547000  0.85958000  0.98166000  1.0
  Ag  Ag4  1  0.40454000  0.93687000  0.65552000  1.0
  Ag  Ag5  1  0.53232000  0.93672000  0.15546000  1.0
  Ag  Ag6  1  0.59546000  0.06313000  0.34448000  1.0
  Ag  Ag7  1  0.46768000  0.06327000  0.84454000  1.0
  H  H8  1  0.76769000  0.42749000  0.62504000  1.0
  H  H9  1  0.65973000  0.42790000  0.12514000  1.0
  H  H10  1  0.23231000  0.57251000  0.37496000  1.0
  H  H11  1  0.34028000  0.57210000  0.87487000  1.0
  H  H12  1  0.02465000  0.57901000  0.71097000  1.0
  H  H13  1  0.55471000  0.57963000  0.21123000  1.0
  H  H14  1  0.97535000  0.42099000  0.28903000  1.0
  H  H15  1  0.44530000  0.42038000  0.78877000  1.0
  H  H16  1  0.05782000  0.51626000  0.85697000  1.0
  H  H17  1  0.45872000  0.51646000  0.35708000  1.0
  H  H18  1  0.94218000  0.48374000  0.14304000  1.0
  H  H19  1  0.54129000  0.48354000  0.64292000  1.0
  H  H20  1  0.83393000  0.30062000  0.90860000  1.0
  H  H21  1  0.46623000  0.30016000  0.40838000  1.0
  H  H22  1  0.16606000  0.69938000  0.09140000  1.0
  H  H23  1  0.53376000  0.69983000  0.59162000  1.0
  H  H24  1  0.18463000  0.42436000  0.62195000  1.0
  H  H25  1  0.23967000  0.42450000  0.12220000  1.0
  H  H26  1  0.81536000  0.57564000  0.37805000  1.0
  H  H27  1  0.76033000  0.57550000  0.87780000  1.0
  H  H28  1  0.04008000  0.42450000  0.55017000  1.0
  H  H29  1  0.38406000  0.42475000  0.05029000  1.0
  H  H30  1  0.95992000  0.57550000  0.44983000  1.0
  H  H31  1  0.61594000  0.57525000  0.94971000  1.0
  H  H32  1  0.30204000  0.49441000  0.48373000  1.0
  H  H33  1  0.19155000  0.49452000  0.98397000  1.0
  H  H34  1  0.69796000  0.50560000  0.51627000  1.0
  H  H35  1  0.80845000  0.50549000  0.01603000  1.0
  H  H36  1  0.14927000  0.33165000  0.42659000  1.0
  H  H37  1  0.18159000  0.33170000  0.92687000  1.0
  H  H38  1  0.85074000  0.66836000  0.57341000  1.0
  H  H39  1  0.81842000  0.66831000  0.07312000  1.0
  H  H40  1  0.28919000  0.32204000  0.49764000  1.0
  H  H41  1  0.03235000  0.32214000  0.99799000  1.0
  H  H42  1  0.71082000  0.67797000  0.50236000  1.0
  H  H43  1  0.96765000  0.67786000  0.00200000  1.0
  H  H44  1  0.20627000  0.20193000  0.61371000  1.0
  H  H45  1  0.99570000  0.20189000  0.11371000  1.0
  H  H46  1  0.79373000  0.79807000  0.38629000  1.0
  H  H47  1  0.00430000  0.79811000  0.88628000  1.0
  H  H48  1  0.02660000  0.03782000  0.60494000  1.0
  H  H49  1  0.01178000  0.03794000  0.10518000  1.0
  H  H50  1  0.97340000  0.96219000  0.39505000  1.0
  H  H51  1  0.98822000  0.96206000  0.89481000  1.0
  H  H52  1  0.12442000  0.13811000  0.75919000  1.0
  H  H53  1  0.01413000  0.13873000  0.25931000  1.0
  H  H54  1  0.87558000  0.86189000  0.24080000  1.0
  H  H55  1  0.98586000  0.86126000  0.74068000  1.0
  H  H56  1  0.93613000  0.13096000  0.73773000  1.0
  H  H57  1  0.19529000  0.13157000  0.23807000  1.0
  H  H58  1  0.06387000  0.86903000  0.26227000  1.0
  H  H59  1  0.80470000  0.86843000  0.76193000  1.0
  H  H60  1  0.11226000  0.29933000  0.74471000  1.0
  H  H61  1  0.18726000  0.29989000  0.24473000  1.0
  H  H62  1  0.88774000  0.70067000  0.25529000  1.0
  H  H63  1  0.81273000  0.70011000  0.75526000  1.0
  C  C64  1  0.66307000  0.28965000  0.72379000  1.0
  C  C65  1  0.62626000  0.28957000  0.22368000  1.0
  C  C66  1  0.33693000  0.71034000  0.27621000  1.0
  C  C67  1  0.37374000  0.71042000  0.77632000  1.0
  C  C68  1  0.78616000  0.40480000  0.68883000  1.0
  C  C69  1  0.61845000  0.40502000  0.18885000  1.0
  C  C70  1  0.21383000  0.59520000  0.31117000  1.0
  C  C71  1  0.38156000  0.59498000  0.81115000  1.0
  C  C72  1  0.92925000  0.48725000  0.73622000  1.0
  C  C73  1  0.55814000  0.48763000  0.23636000  1.0
  C  C74  1  0.07075000  0.51274000  0.26378000  1.0
  C  C75  1  0.44186000  0.51237000  0.76364000  1.0
  C  C76  1  0.94866000  0.45248000  0.81734000  1.0
  C  C77  1  0.50398000  0.45263000  0.31740000  1.0
  C  C78  1  0.05134000  0.54751000  0.18266000  1.0
  C  C79  1  0.49602000  0.54737000  0.68260000  1.0
  C  C80  1  0.82416000  0.33410000  0.84634000  1.0
  C  C81  1  0.50967000  0.33386000  0.34620000  1.0
  C  C82  1  0.17584000  0.66589000  0.15366000  1.0
  C  C83  1  0.49033000  0.66614000  0.65380000  1.0
  C  C84  1  0.85594000  0.14738000  0.54347000  1.0
  C  C85  1  0.29167000  0.14767000  0.04359000  1.0
  C  C86  1  0.14406000  0.85262000  0.45653000  1.0
  C  C87  1  0.70833000  0.85233000  0.95641000  1.0
  C  C88  1  0.11289000  0.37056000  0.56160000  1.0
  C  C89  1  0.25745000  0.37074000  0.06181000  1.0
  C  C90  1  0.88710000  0.62944000  0.43840000  1.0
  C  C91  1  0.74256000  0.62926000  0.93819000  1.0
  C  C92  1  0.21958000  0.37989000  0.48775000  1.0
  C  C93  1  0.15969000  0.38002000  0.98803000  1.0
  C  C94  1  0.78042000  0.62012000  0.51226000  1.0
  C  C95  1  0.84031000  0.61998000  0.01197000  1.0
  C  C96  1  0.08016000  0.15467000  0.62724000  1.0
  C  C97  1  0.07478000  0.15484000  0.12737000  1.0
  C  C98  1  0.91983000  0.84534000  0.37275000  1.0
  C  C99  1  0.92522000  0.84516000  0.87262000  1.0
  C  C100  1  0.06141000  0.18248000  0.72290000  1.0
  C  C101  1  0.12143000  0.18298000  0.22306000  1.0
  C  C102  1  0.93859000  0.81752000  0.27710000  1.0
  C  C103  1  0.87856000  0.81702000  0.77694000  1.0
  S  S104  1  0.47265000  0.19585000  0.67307000  1.0
  S  S105  1  0.72308000  0.19582000  0.17313000  1.0
  S  S106  1  0.52735000  0.80415000  0.32693000  1.0
  S  S107  1  0.27692000  0.80417000  0.82687000  1.0
  S  S108  1  0.78914000  0.23235000  0.47537000  1.0
  S  S109  1  0.44307000  0.23262000  0.97548000  1.0
  S  S110  1  0.21086000  0.76766000  0.52463000  1.0
  S  S111  1  0.55693000  0.76738000  0.02452000  1.0
  S  S112  1  0.74131000  0.97965000  0.57444000  1.0
  S  S113  1  0.23909000  0.98001000  0.07464000  1.0
  S  S114  1  0.25869000  0.02035000  0.42555000  1.0
  S  S115  1  0.76090000  0.01999000  0.92535000  1.0
  N  N116  1  0.68472000  0.25418000  0.80131000  1.0
  N  N117  1  0.56897000  0.25383000  0.30111000  1.0
  N  N118  1  0.31527000  0.74581000  0.19869000  1.0
  N  N119  1  0.43103000  0.74617000  0.69890000  1.0
  N  N120  1  0.00785000  0.21998000  0.57479000  1.0
  N  N121  1  0.21223000  0.22017000  0.07494000  1.0
  N  N122  1  0.99214000  0.78003000  0.42521000  1.0
  N  N123  1  0.78778000  0.77983000  0.92506000  1.0
