# generated using pymatgen
data_UH4C5N2O7
_symmetry_space_group_name_H-M   'P 1'
_cell_length_a   5.69661000
_cell_length_b   8.37475820
_cell_length_c   9.84223000
_cell_angle_alpha   73.91940929
_cell_angle_beta   82.16390000
_cell_angle_gamma   76.28376709
_symmetry_Int_Tables_number   1
_chemical_formula_structural   UH4C5N2O7
_chemical_formula_sum   'U2 H8 C10 N4 O14'
_cell_volume   437.05405823
_cell_formula_units_Z   2
loop_
 _symmetry_equiv_pos_site_id
 _symmetry_equiv_pos_as_xyz
  1  'x, y, z'
loop_
 _atom_site_type_symbol
 _atom_site_label
 _atom_site_symmetry_multiplicity
 _atom_site_fract_x
 _atom_site_fract_y
 _atom_site_fract_z
 _atom_site_occupancy
  U  U0  1  0.78651000  0.21458000  0.43258000  1.0
  U  U1  1  0.21349000  0.78542000  0.56742000  1.0
  H  H2  1  0.71167000  0.92254000  0.64412000  1.0
  H  H3  1  0.28832000  0.07746000  0.35587000  1.0
  H  H4  1  0.32568000  0.44774000  0.06279000  1.0
  H  H5  1  0.67431000  0.55226000  0.93721000  1.0
  H  H6  1  0.21210000  0.92504000  0.12574000  1.0
  H  H7  1  0.78791000  0.07496000  0.87426000  1.0
  H  H8  1  0.83528000  0.90327000  0.25369000  1.0
  H  H9  1  0.16472000  0.09673000  0.74631000  1.0
  C  C10  1  0.63081000  0.63024000  0.32704000  1.0
  C  C11  1  0.36919000  0.36976000  0.67297000  1.0
  C  C12  1  0.85729000  0.64956000  0.23648000  1.0
  C  C13  1  0.14271000  0.35044000  0.76352000  1.0
  C  C14  1  0.00697000  0.51274000  0.18232000  1.0
  C  C15  1  0.99303000  0.48726000  0.81768000  1.0
  C  C16  1  0.29620000  0.69559000  0.07262000  1.0
  C  C17  1  0.70383000  0.30441000  0.92737000  1.0
  C  C18  1  0.93665000  0.79811000  0.21040000  1.0
  C  C19  1  0.06335000  0.20189000  0.78960000  1.0
  N  N20  1  0.21368000  0.54788000  0.09982000  1.0
  N  N21  1  0.78632000  0.45212000  0.90018000  1.0
  N  N22  1  0.14574000  0.82039000  0.13108000  1.0
  N  N23  1  0.85425000  0.17961000  0.86892000  1.0
  O  O24  1  0.97628000  0.31093000  0.50446000  1.0
  O  O25  1  0.02372000  0.68907000  0.49554000  1.0
  O  O26  1  0.59752000  0.12618000  0.34801000  1.0
  O  O27  1  0.40247000  0.87382000  0.65199000  1.0
  O  O28  1  0.55701000  0.49144000  0.34963000  1.0
  O  O29  1  0.44299000  0.50856000  0.65037000  1.0
  O  O30  1  0.51742000  0.75487000  0.37537000  1.0
  O  O31  1  0.48258000  0.24513000  0.62463000  1.0
  O  O32  1  0.96770333  0.36563000  0.20324000  1.0
  O  O33  1  0.03225000  0.63437000  0.79676000  1.0
  O  O34  1  0.48945000  0.71812000  0.00326000  1.0
  O  O35  1  0.51054000  0.28188000  0.99674000  1.0
  O  O36  1  0.85942000  0.97065000  0.62280000  1.0
  O  O37  1  0.14058000  0.02935000  0.37720000  1.0
