# generated using pymatgen
data_CdH11C20N5O4
_symmetry_space_group_name_H-M   'P 1'
_cell_length_a   9.68124000
_cell_length_b   10.07060000
_cell_length_c   11.38020000
_cell_angle_alpha   109.53000000
_cell_angle_beta   100.09100000
_cell_angle_gamma   108.65000000
_symmetry_Int_Tables_number   1
_chemical_formula_structural   CdH11C20N5O4
_chemical_formula_sum   'Cd2 H22 C40 N10 O8'
_cell_volume   940.03413661
_cell_formula_units_Z   2
loop_
 _symmetry_equiv_pos_site_id
 _symmetry_equiv_pos_as_xyz
  1  'x, y, z'
loop_
 _atom_site_type_symbol
 _atom_site_label
 _atom_site_symmetry_multiplicity
 _atom_site_fract_x
 _atom_site_fract_y
 _atom_site_fract_z
 _atom_site_occupancy
  Cd  Cd0  1  0.83206000  0.69687000  0.60813000  1.0
  Cd  Cd1  1  0.16795000  0.30313000  0.39187000  1.0
  H  H2  1  0.03428000  0.43791000  0.19225000  1.0
  H  H3  1  0.96572000  0.56209000  0.80775000  1.0
  H  H4  1  0.10065000  0.87079000  0.51611000  1.0
  H  H5  1  0.89935000  0.12921000  0.48389000  1.0
  H  H6  1  0.29504000  0.13418000  0.57669000  1.0
  H  H7  1  0.70496000  0.86582000  0.42330000  1.0
  H  H8  1  0.31062000  0.35608000  0.77252000  1.0
  H  H9  1  0.68937000  0.64392000  0.22748000  1.0
  H  H10  1  0.81770000  0.18191000  0.12111000  1.0
  H  H11  1  0.18230000  0.81809000  0.87889000  1.0
  H  H12  1  0.63196000  0.90519000  0.03273000  1.0
  H  H13  1  0.36804000  0.09481000  0.96727000  1.0
  H  H14  1  0.64123000  0.71084000  0.83012000  1.0
  H  H15  1  0.35877000  0.28916000  0.16988000  1.0
  H  H16  1  0.11727000  0.69056000  0.31387000  1.0
  H  H17  1  0.88273000  0.30943000  0.68613000  1.0
  H  H18  1  0.45642000  0.12574000  0.43448000  1.0
  H  H19  1  0.54358000  0.87426000  0.56551000  1.0
  H  H20  1  0.56784000  0.03192000  0.25711000  1.0
  H  H21  1  0.43215000  0.96808000  0.74289000  1.0
  H  H22  1  0.44057000  0.74840000  0.09943000  1.0
  H  H23  1  0.55943000  0.25160000  0.90057000  1.0
  C  C24  1  0.11117000  0.96832000  0.60170000  1.0
  C  C25  1  0.88883000  0.03168000  0.39829000  1.0
  C  C26  1  0.22035000  0.11686000  0.63591000  1.0
  C  C27  1  0.77965000  0.88314000  0.36409000  1.0
  C  C28  1  0.22892000  0.23846000  0.74371000  1.0
  C  C29  1  0.77108000  0.76154000  0.25628000  1.0
  C  C30  1  0.12966000  0.20925000  0.81751000  1.0
  C  C31  1  0.87034000  0.79075000  0.18249000  1.0
  C  C32  1  0.13395000  0.32535000  0.93397000  1.0
  C  C33  1  0.86605000  0.67465000  0.06603000  1.0
  C  C34  1  0.03426000  0.28951000  0.00546000  1.0
  C  C35  1  0.96574000  0.71049000  0.99454000  1.0
  C  C36  1  0.81629000  0.09474000  0.03204000  1.0
  C  C37  1  0.18371000  0.90527000  0.96796000  1.0
  C  C38  1  0.92152000  0.13774000  0.96610000  1.0
  C  C39  1  0.07848000  0.86226000  0.03390000  1.0
  C  C40  1  0.71408000  0.94204000  0.98365000  1.0
  C  C41  1  0.28593000  0.05796000  0.01635000  1.0
  C  C42  1  0.71808000  0.83281000  0.87031000  1.0
  C  C43  1  0.28192000  0.16719000  0.12968000  1.0
  C  C44  1  0.91657000  0.01955000  0.85023000  1.0
  C  C45  1  0.08343000  0.98045000  0.14977000  1.0
  C  C46  1  0.02152000  0.05561000  0.77668000  1.0
  C  C47  1  0.97847000  0.94439000  0.22332000  1.0
  C  C48  1  0.19410000  0.53634000  0.10196000  1.0
  C  C49  1  0.80590000  0.46366000  0.89804000  1.0
  C  C50  1  0.26964000  0.69797000  0.19440000  1.0
  C  C51  1  0.73036000  0.30203000  0.80560000  1.0
  C  C52  1  0.21756000  0.76219000  0.29807000  1.0
  C  C53  1  0.78244000  0.23781000  0.70194000  1.0
  C  C54  1  0.40617000  0.00448000  0.36510000  1.0
  C  C55  1  0.59383000  0.99552000  0.63490000  1.0
  C  C56  1  0.46715000  0.95187000  0.26538000  1.0
  C  C57  1  0.53285000  0.04813000  0.73461000  1.0
  C  C58  1  0.39820000  0.79678000  0.17896000  1.0
  C  C59  1  0.60180000  0.20322000  0.82104000  1.0
  C  C60  1  0.51114000  0.45366000  0.54209000  1.0
  C  C61  1  0.48886000  0.54633000  0.45791000  1.0
  C  C62  1  0.97363000  0.50281000  0.43170000  1.0
  C  C63  1  0.02637000  0.49718000  0.56831000  1.0
  N  N64  1  0.01502000  0.93919000  0.66956000  1.0
  N  N65  1  0.98497000  0.06081000  0.33044000  1.0
  N  N66  1  0.81632000  0.87116000  0.80648000  1.0
  N  N67  1  0.18368000  0.12884000  0.19351000  1.0
  N  N68  1  0.23165000  0.47821000  0.99428000  1.0
  N  N69  1  0.76835000  0.52179000  0.00572000  1.0
  N  N70  1  0.07410000  0.42596000  0.11197000  1.0
  N  N71  1  0.92590000  0.57404000  0.88803000  1.0
  N  N72  1  0.28331000  0.91147000  0.38137000  1.0
  N  N73  1  0.71669000  0.08854000  0.61863000  1.0
  O  O74  1  0.64505000  0.49413000  0.61590000  1.0
  O  O75  1  0.35496000  0.50587000  0.38411000  1.0
  O  O76  1  0.39339000  0.34288000  0.53129000  1.0
  O  O77  1  0.60662000  0.65712000  0.46871000  1.0
  O  O78  1  0.90644000  0.58930000  0.42361000  1.0
  O  O79  1  0.09356000  0.41070000  0.57639000  1.0
  O  O80  1  0.00342000  0.41840000  0.33643000  1.0
  O  O81  1  0.99658000  0.58160000  0.66358000  1.0
