# generated using pymatgen
data_NaH4C6N3O8
_symmetry_space_group_name_H-M   'P 1'
_cell_length_a   3.74109000
_cell_length_b   11.94590000
_cell_length_c   11.95050000
_cell_angle_alpha   116.09400000
_cell_angle_beta   90.46660000
_cell_angle_gamma   90.53440000
_symmetry_Int_Tables_number   1
_chemical_formula_structural   NaH4C6N3O8
_chemical_formula_sum   'Na2 H8 C12 N6 O16'
_cell_volume   479.57416971
_cell_formula_units_Z   2
loop_
 _symmetry_equiv_pos_site_id
 _symmetry_equiv_pos_as_xyz
  1  'x, y, z'
loop_
 _atom_site_type_symbol
 _atom_site_label
 _atom_site_symmetry_multiplicity
 _atom_site_fract_x
 _atom_site_fract_y
 _atom_site_fract_z
 _atom_site_occupancy
  Na  Na0  1  0.49960000  0.49993000  0.49989000  1.0
  Na  Na1  1  0.00008000  0.99999000  0.99999000  1.0
  H  H2  1  0.53417000  0.85582000  0.77991000  1.0
  H  H3  1  0.46607000  0.22020000  0.14427000  1.0
  H  H4  1  0.46570000  0.14417000  0.22002000  1.0
  H  H5  1  0.53415000  0.77985000  0.85574000  1.0
  H  H6  1  0.74943000  0.38286000  0.92104000  1.0
  H  H7  1  0.25116000  0.07899000  0.61712000  1.0
  H  H8  1  0.25049000  0.61705000  0.07895000  1.0
  H  H9  1  0.74935000  0.92113000  0.38293000  1.0
  C  C10  1  0.99980000  0.36660000  0.63332000  1.0
  C  C11  1  0.99980000  0.63336000  0.36665000  1.0
  C  C12  1  0.85473000  0.41206000  0.75915000  1.0
  C  C13  1  0.14552000  0.24087000  0.58797000  1.0
  C  C14  1  0.14499000  0.58789000  0.24085000  1.0
  C  C15  1  0.85458000  0.75920000  0.41207000  1.0
  C  C16  1  0.85818000  0.34406000  0.82759000  1.0
  C  C17  1  0.14221000  0.17242000  0.65596000  1.0
  C  C18  1  0.14183000  0.65590000  0.17242000  1.0
  C  C19  1  0.85812000  0.82766000  0.34408000  1.0
  C  C20  1  0.00029000  0.22463000  0.77538000  1.0
  C  C21  1  0.99992000  0.77537000  0.22460000  1.0
  N  N22  1  0.70648000  0.53616000  0.82123000  1.0
  N  N23  1  0.29341000  0.17884000  0.46384000  1.0
  N  N24  1  0.29305000  0.46378000  0.17883000  1.0
  N  N25  1  0.70674000  0.82127000  0.53622000  1.0
  N  N26  1  0.00020000  0.15320000  0.84662000  1.0
  N  N27  1  0.00008000  0.84678000  0.15332000  1.0
  O  O28  1  0.99944000  0.42844000  0.57155000  1.0
  O  O29  1  0.99974000  0.57154000  0.42843000  1.0
  O  O30  1  0.59895000  0.58911000  0.75757000  1.0
  O  O31  1  0.40037000  0.24250000  0.41075000  1.0
  O  O32  1  0.40079000  0.41088000  0.24253000  1.0
  O  O33  1  0.59904000  0.75756000  0.58917000  1.0
  O  O34  1  0.68949000  0.58466000  0.93683000  1.0
  O  O35  1  0.31139000  0.06322000  0.41546000  1.0
  O  O36  1  0.31009000  0.41523000  0.06322000  1.0
  O  O37  1  0.68980000  0.93691000  0.58466000  1.0
  O  O38  1  0.83518000  0.19483000  0.94656000  1.0
  O  O39  1  0.16516000  0.05323000  0.80494000  1.0
  O  O40  1  0.16494000  0.80502000  0.05332000  1.0
  O  O41  1  0.83544000  0.94682000  0.19511000  1.0
  O  O42  1  0.53148000  0.86592000  0.86592000  1.0
  O  O43  1  0.46859000  0.13410000  0.13402000  1.0
