# generated using pymatgen
data_Ho2PH13C11NO16
_symmetry_space_group_name_H-M   'P 1'
_cell_length_a   9.82400000
_cell_length_b   10.30680000
_cell_length_c   11.16130000
_cell_angle_alpha   96.64970000
_cell_angle_beta   90.96910000
_cell_angle_gamma   107.62400000
_symmetry_Int_Tables_number   1
_chemical_formula_structural   Ho2PH13C11NO16
_chemical_formula_sum   'Ho4 P2 H26 C22 N2 O32'
_cell_volume   1068.22314301
_cell_formula_units_Z   2
loop_
 _symmetry_equiv_pos_site_id
 _symmetry_equiv_pos_as_xyz
  1  'x, y, z'
loop_
 _atom_site_type_symbol
 _atom_site_label
 _atom_site_symmetry_multiplicity
 _atom_site_fract_x
 _atom_site_fract_y
 _atom_site_fract_z
 _atom_site_occupancy
  Ho  Ho0  1  0.17344000  0.37936000  0.04978000  1.0
  Ho  Ho1  1  0.82656000  0.62063000  0.95022000  1.0
  Ho  Ho2  1  0.37528000  0.93678000  0.24405000  1.0
  Ho  Ho3  1  0.62472000  0.06322000  0.75595000  1.0
  P  P4  1  0.06140000  0.63500000  0.21177000  1.0
  P  P5  1  0.93860000  0.36500000  0.78822000  1.0
  H  H6  1  0.60294000  0.79794000  0.26130000  1.0
  H  H7  1  0.39706000  0.20206000  0.73870000  1.0
  H  H8  1  0.46006000  0.68171000  0.23088000  1.0
  H  H9  1  0.53994000  0.31829000  0.76912000  1.0
  H  H10  1  0.97615000  0.76451000  0.36411000  1.0
  H  H11  1  0.02386000  0.23549000  0.63588000  1.0
  H  H12  1  0.07324000  0.67162000  0.43025000  1.0
  H  H13  1  0.92677000  0.32839000  0.56975000  1.0
  H  H14  1  0.78351000  0.49390000  0.20887000  1.0
  H  H15  1  0.21649000  0.50610000  0.79113000  1.0
  H  H16  1  0.88633000  0.60525000  0.58223000  1.0
  H  H17  1  0.11368000  0.39476000  0.41777000  1.0
  H  H18  1  0.90790000  0.20165000  0.16284000  1.0
  H  H19  1  0.09210000  0.79835000  0.83716000  1.0
  H  H20  1  0.87795000  0.14759000  0.02170000  1.0
  H  H21  1  0.12204000  0.85240000  0.97830000  1.0
  H  H22  1  0.31264000  0.67924000  0.00062000  1.0
  H  H23  1  0.68736000  0.32075000  0.99938000  1.0
  H  H24  1  0.15932000  0.64431000  0.94228000  1.0
  H  H25  1  0.84069000  0.35569000  0.05772000  1.0
  H  H26  1  0.56984000  0.33402000  0.23583000  1.0
  H  H27  1  0.43016000  0.66598000  0.76418000  1.0
  H  H28  1  0.65475000  0.44304000  0.62219000  1.0
  H  H29  1  0.34526000  0.55698000  0.37781000  1.0
  H  H30  1  0.48784000  0.30190000  0.44574000  1.0
  H  H31  1  0.51216000  0.69810000  0.55426000  1.0
  C  C32  1  0.20533000  0.09093000  0.09293000  1.0
  C  C33  1  0.79467000  0.90906000  0.90707000  1.0
  C  C34  1  0.24525000  0.17788000  0.21903000  1.0
  C  C35  1  0.75474000  0.82212000  0.78097000  1.0
  C  C36  1  0.42614000  0.95910000  0.52230000  1.0
  C  C37  1  0.57386000  0.04090000  0.47771000  1.0
  C  C38  1  0.52408000  0.07776000  0.02371000  1.0
  C  C39  1  0.47593000  0.92224000  0.97628000  1.0
  C  C40  1  0.98996000  0.66180000  0.35988000  1.0
  C  C41  1  0.01004000  0.33820000  0.64012000  1.0
  C  C42  1  0.85300000  0.56180000  0.38864000  1.0
  C  C43  1  0.14700000  0.43820000  0.61136000  1.0
  C  C44  1  0.81448000  0.54488000  0.50690000  1.0
  C  C45  1  0.18552000  0.45512000  0.49310000  1.0
  C  C46  1  0.63201000  0.39341000  0.31642000  1.0
  C  C47  1  0.36799000  0.60660000  0.68358000  1.0
  C  C48  1  0.68327000  0.45336000  0.52919000  1.0
  C  C49  1  0.31673000  0.54665000  0.47082000  1.0
  C  C50  1  0.48507000  0.45580000  0.93744000  1.0
  C  C51  1  0.51492000  0.54419000  0.06255000  1.0
  C  C52  1  0.59047000  0.37595000  0.43274000  1.0
  C  C53  1  0.40953000  0.62406000  0.56726000  1.0
  N  N54  1  0.75895000  0.48473000  0.29808000  1.0
  N  N55  1  0.24104000  0.51528000  0.70192000  1.0
  O  O56  1  0.17209000  0.14770000  0.00790000  1.0
  O  O57  1  0.82792000  0.85229000  0.99210000  1.0
  O  O58  1  0.22669000  0.29482000  0.22791000  1.0
  O  O59  1  0.77330000  0.70517000  0.77210000  1.0
  O  O60  1  0.21192000  0.96875000  0.08651000  1.0
  O  O61  1  0.78807000  0.03124000  0.91349000  1.0
  O  O62  1  0.29371000  0.12612000  0.30120000  1.0
  O  O63  1  0.70628000  0.87386000  0.69880000  1.0
  O  O64  1  0.20653000  0.74351000  0.21928000  1.0
  O  O65  1  0.79347000  0.25648000  0.78072000  1.0
  O  O66  1  0.32391000  0.91005000  0.44364000  1.0
  O  O67  1  0.67609000  0.08995000  0.55636000  1.0
  O  O68  1  0.50311000  0.77163000  0.28205000  1.0
  O  O69  1  0.49689000  0.22837000  0.71795000  1.0
  O  O70  1  0.57951000  0.05277000  0.36602000  1.0
  O  O71  1  0.42050000  0.94723000  0.63399000  1.0
  O  O72  1  0.51609000  0.11140000  0.13484000  1.0
  O  O73  1  0.48391000  0.88861000  0.86516000  1.0
  O  O74  1  0.43226000  0.84052000  0.05422000  1.0
  O  O75  1  0.56775000  0.15949000  0.94578000  1.0
  O  O76  1  0.07330000  0.48914000  0.19015000  1.0
  O  O77  1  0.92669000  0.51086000  0.80985000  1.0
  O  O78  1  0.95308000  0.65567000  0.12129000  1.0
  O  O79  1  0.04692000  0.34434000  0.87871000  1.0
  O  O80  1  0.35957000  0.37754000  0.91143000  1.0
  O  O81  1  0.64042000  0.62245000  0.08856000  1.0
  O  O82  1  0.92739000  0.22978000  0.08307000  1.0
  O  O83  1  0.07261000  0.77022000  0.91693000  1.0
  O  O84  1  0.40863000  0.53043000  0.12933000  1.0
  O  O85  1  0.59136000  0.46957000  0.87066000  1.0
  O  O86  1  0.23223000  0.59985000  0.96195000  1.0
  O  O87  1  0.76777000  0.40015000  0.03805000  1.0
