# generated using pymatgen
data_MgH9C16O3
_symmetry_space_group_name_H-M   'P 1'
_cell_length_a   6.78856000
_cell_length_b   32.37370000
_cell_length_c   32.37186102
_cell_angle_alpha   119.49488831
_cell_angle_beta   94.03445863
_cell_angle_gamma   93.99220000
_symmetry_Int_Tables_number   1
_chemical_formula_structural   MgH9C16O3
_chemical_formula_sum   'Mg6 H54 C96 O18'
_cell_volume   6132.32007927
_cell_formula_units_Z   6
loop_
 _symmetry_equiv_pos_site_id
 _symmetry_equiv_pos_as_xyz
  1  'x, y, z'
loop_
 _atom_site_type_symbol
 _atom_site_label
 _atom_site_symmetry_multiplicity
 _atom_site_fract_x
 _atom_site_fract_y
 _atom_site_fract_z
 _atom_site_occupancy
  Mg  Mg0  1  0.36937000  0.67472000  0.36940000  1.0
  Mg  Mg1  1  0.69457000  0.69483000  0.32532000  1.0
  Mg  Mg2  1  0.99989000  0.63069000  0.30528000  1.0
  Mg  Mg3  1  0.63063000  0.32528000  0.63060000  1.0
  Mg  Mg4  1  0.30543000  0.30517000  0.67468000  1.0
  Mg  Mg5  1  0.00011000  0.36931000  0.69472000  1.0
  H  H6  1  0.95733000  0.17235000  0.61844000  1.0
  H  H7  1  0.98055000  0.11349000  0.63235000  1.0
  H  H8  1  0.94177000  0.04750000  0.59226000  1.0
  H  H9  1  0.89007000  0.08246000  0.50902000  1.0
  H  H10  1  0.95626000  0.05396000  0.42580000  1.0
  H  H11  1  0.75845000  0.98023000  0.35860000  1.0
  H  H12  1  0.49380000  0.93588000  0.37505000  1.0
  H  H13  1  0.74971000  0.81553000  0.41788000  1.0
  H  H14  1  0.64407000  0.89460000  0.43870000  1.0
  H  H15  1  0.78468000  0.44614000  0.82759000  1.0
  H  H16  1  0.86676000  0.51890000  0.88656000  1.0
  H  H17  1  0.89355000  0.54472000  0.95257000  1.0
  H  H18  1  0.80654000  0.42627000  0.91740000  1.0
  H  H19  1  0.90121000  0.37159000  0.94597000  1.0
  H  H20  1  0.77746000  0.37823000  0.01978000  1.0
  H  H21  1  0.55758000  0.43913000  0.06414000  1.0
  H  H22  1  0.93403000  0.60253000  0.18455000  1.0
  H  H23  1  0.74946000  0.54429000  0.10547000  1.0
  H  H24  1  0.33877000  0.38137000  0.55391000  1.0
  H  H25  1  0.34853000  0.36766000  0.48121000  1.0
  H  H26  1  0.34979000  0.40780000  0.45534000  1.0
  H  H27  1  0.38145000  0.49104000  0.57348000  1.0
  H  H28  1  0.53096000  0.57426000  0.62812000  1.0
  H  H29  1  0.39968000  0.64143000  0.62158000  1.0
  H  H30  1  0.11835000  0.62493000  0.56081000  1.0
  H  H31  1  0.33166000  0.58213000  0.39765000  1.0
  H  H32  1  0.20506000  0.56127000  0.45586000  1.0
  H  H33  1  0.04267000  0.82764000  0.38155000  1.0
  H  H34  1  0.01944000  0.88651000  0.36766000  1.0
  H  H35  1  0.05821000  0.95250000  0.40774000  1.0
  H  H36  1  0.10992000  0.91754000  0.49098000  1.0
  H  H37  1  0.04374000  0.94604000  0.57420000  1.0
  H  H38  1  0.24155000  0.01978000  0.64140000  1.0
  H  H39  1  0.50621000  0.06412000  0.62495000  1.0
  H  H40  1  0.25029000  0.18447000  0.58212000  1.0
  H  H41  1  0.35593000  0.10540000  0.56130000  1.0
  H  H42  1  0.21532000  0.55385000  0.17241000  1.0
  H  H43  1  0.13323000  0.48110000  0.11344000  1.0
  H  H44  1  0.10644000  0.45528000  0.04743000  1.0
  H  H45  1  0.19346000  0.57373000  0.08260000  1.0
  H  H46  1  0.09879000  0.62841000  0.05403000  1.0
  H  H47  1  0.22256000  0.62178000  0.98023000  1.0
  H  H48  1  0.44242000  0.56087000  0.93586000  1.0
  H  H49  1  0.06597000  0.39747000  0.81545000  1.0
  H  H50  1  0.25054000  0.45570000  0.89453000  1.0
  H  H51  1  0.66123000  0.61863000  0.44609000  1.0
  H  H52  1  0.65147000  0.63234000  0.51879000  1.0
  H  H53  1  0.65021000  0.59220000  0.54466000  1.0
  H  H54  1  0.61855000  0.50896000  0.42652000  1.0
  H  H55  1  0.46903000  0.42574000  0.37188000  1.0
  H  H56  1  0.60031000  0.35857000  0.37842000  1.0
  H  H57  1  0.88165000  0.37507000  0.43919000  1.0
  H  H58  1  0.66834000  0.41787000  0.60235000  1.0
  H  H59  1  0.79494000  0.43873000  0.54414000  1.0
  C  C60  1  0.54032000  0.22360000  0.61238000  1.0
  C  C61  1  0.74401000  0.21914000  0.62261000  1.0
  C  C62  1  0.80026000  0.17402000  0.61063000  1.0
  C  C63  1  0.66566000  0.13254000  0.58916000  1.0
  C  C64  1  0.73193000  0.08600000  0.57818000  1.0
  C  C65  1  0.89308000  0.08222000  0.60225000  1.0
  C  C66  1  0.61345000  0.04190000  0.53832000  1.0
  C  C67  1  0.46382000  0.01652000  0.54808000  1.0
  C  C68  1  0.34889000  0.97402000  0.50921000  1.0
  C  C69  1  0.80266000  0.05060000  0.47971000  1.0
  C  C70  1  0.83957000  0.03463000  0.43339000  1.0
  C  C71  1  0.72692000  0.99280000  0.39522000  1.0
  C  C72  1  0.58014000  0.96798000  0.40428000  1.0
  C  C73  1  0.59462000  0.81871000  0.40994000  1.0
  C  C74  1  0.53431000  0.86286000  0.42147000  1.0
  C  C75  1  0.09770000  0.74018000  0.35434000  1.0
  C  C76  1  0.31676000  0.38864000  0.77632000  1.0
  C  C77  1  0.52484000  0.40339000  0.78079000  1.0
  C  C78  1  0.62604000  0.43659000  0.82590000  1.0
  C  C79  1  0.53295000  0.45655000  0.86738000  1.0
  C  C80  1  0.64569000  0.49211000  0.91394000  1.0
  C  C81  1  0.81046000  0.52001000  0.91780000  1.0
  C  C82  1  0.57124000  0.49634000  0.95804000  1.0
  C  C83  1  0.44758000  0.53161000  0.98349000  1.0
  C  C84  1  0.37545000  0.53532000  0.02606000  1.0
  C  C85  1  0.75107000  0.42889000  0.94929000  1.0
  C  C86  1  0.80388000  0.39853000  0.96528000  1.0
  C  C87  1  0.73349000  0.40228000  0.00719000  1.0
  C  C88  1  0.61172000  0.43620000  0.03200000  1.0
  C  C89  1  0.77579000  0.59139000  0.18136000  1.0
  C  C90  1  0.67145000  0.55876000  0.13721000  1.0
  C  C91  1  0.35745000  0.61427000  0.25988000  1.0
  C  C92  1  0.92797000  0.38755000  0.61126000  1.0
  C  C93  1  0.12137000  0.37729000  0.59655000  1.0
  C  C94  1  0.18958000  0.38924000  0.56338000  1.0
  C  C95  1  0.07658000  0.41077000  0.54339000  1.0
  C  C96  1  0.15403000  0.42181000  0.50787000  1.0
  C  C97  1  0.29116000  0.39777000  0.48004000  1.0
  C  C98  1  0.07530000  0.46168000  0.50361000  1.0
  C  C99  1  0.91591000  0.45192000  0.46845000  1.0
  C  C100  1  0.83962000  0.49078000  0.46480000  1.0
  C  C101  1  0.32309000  0.52031000  0.57090000  1.0
  C  C102  1  0.40639000  0.56663000  0.60123000  1.0
  C  C103  1  0.33170000  0.60479000  0.59755000  1.0
  C  C104  1  0.17564000  0.59572000  0.56370000  1.0
  C  C105  1  0.18451000  0.59009000  0.40875000  1.0
  C  C106  1  0.11263000  0.57854000  0.44136000  1.0
  C  C107  1  0.74343000  0.64579000  0.38582000  1.0
  C  C108  1  0.45968000  0.77640000  0.38762000  1.0
  C  C109  1  0.25599000  0.78086000  0.37739000  1.0
  C  C110  1  0.19975000  0.82598000  0.38937000  1.0
  C  C111  1  0.33435000  0.86746000  0.41084000  1.0
  C  C112  1  0.26807000  0.91400000  0.42182000  1.0
  C  C113  1  0.10691000  0.91778000  0.39775000  1.0
  C  C114  1  0.38655000  0.95811000  0.46168000  1.0
  C  C115  1  0.53618000  0.98348000  0.45192000  1.0
  C  C116  1  0.65111000  0.02598000  0.49079000  1.0
  C  C117  1  0.19734000  0.94940000  0.52029000  1.0
  C  C118  1  0.16043000  0.96537000  0.56661000  1.0
  C  C119  1  0.27308000  0.00721000  0.60478000  1.0
  C  C120  1  0.41987000  0.03202000  0.59572000  1.0
  C  C121  1  0.40539000  0.18129000  0.59006000  1.0
  C  C122  1  0.46570000  0.13714000  0.57853000  1.0
  C  C123  1  0.90230000  0.25982000  0.64566000  1.0
  C  C124  1  0.68324000  0.61136000  0.22368000  1.0
  C  C125  1  0.47517000  0.59661000  0.21921000  1.0
  C  C126  1  0.37396000  0.56341000  0.17410000  1.0
  C  C127  1  0.46705000  0.54344000  0.13262000  1.0
  C  C128  1  0.35431000  0.50789000  0.08606000  1.0
  C  C129  1  0.18954000  0.47999000  0.08220000  1.0
  C  C130  1  0.42876000  0.50366000  0.04196000  1.0
  C  C131  1  0.55242000  0.46839000  0.01651000  1.0
  C  C132  1  0.62455000  0.46468000  0.97394000  1.0
  C  C133  1  0.24893000  0.57111000  0.05071000  1.0
  C  C134  1  0.19612000  0.60147000  0.03472000  1.0
  C  C135  1  0.26652000  0.59772000  0.99282000  1.0
  C  C136  1  0.38828000  0.56380000  0.96800000  1.0
  C  C137  1  0.22421000  0.40861000  0.81864000  1.0
  C  C138  1  0.32855000  0.44124000  0.86279000  1.0
  C  C139  1  0.64256000  0.38573000  0.74012000  1.0
  C  C140  1  0.07203000  0.61245000  0.38874000  1.0
  C  C141  1  0.87864000  0.62271000  0.40345000  1.0
  C  C142  1  0.81042000  0.61077000  0.43662000  1.0
  C  C143  1  0.92341000  0.58923000  0.45661000  1.0
  C  C144  1  0.84597000  0.57819000  0.49213000  1.0
  C  C145  1  0.70884000  0.60223000  0.51996000  1.0
  C  C146  1  0.92471000  0.53832000  0.49639000  1.0
  C  C147  1  0.08409000  0.54808000  0.53155000  1.0
  C  C148  1  0.16037000  0.50921000  0.53519000  1.0
  C  C149  1  0.67690000  0.47969000  0.42910000  1.0
  C  C150  1  0.59360000  0.43337000  0.39877000  1.0
  C  C151  1  0.66829000  0.39521000  0.40245000  1.0
  C  C152  1  0.82436000  0.40428000  0.43630000  1.0
  C  C153  1  0.81549000  0.40991000  0.59125000  1.0
  C  C154  1  0.88737000  0.42146000  0.55864000  1.0
  C  C155  1  0.25657000  0.35421000  0.61418000  1.0
  O  O156  1  0.92286000  0.74542000  0.34217000  1.0
  O  O157  1  0.13897000  0.69878000  0.34695000  1.0
  O  O158  1  0.52686000  0.73471000  0.37727000  1.0
  O  O159  1  0.17735000  0.59693000  0.25462000  1.0
  O  O160  1  0.44011000  0.64829000  0.30127000  1.0
  O  O161  1  0.79204000  0.64274000  0.26537000  1.0
  O  O162  1  0.58075000  0.65791000  0.40319000  1.0
  O  O163  1  0.79207000  0.65318000  0.35181000  1.0
  O  O164  1  0.14959000  0.62278000  0.35739000  1.0
  O  O165  1  0.07714000  0.25458000  0.65782000  1.0
  O  O166  1  0.86103000  0.30122000  0.65305000  1.0
  O  O167  1  0.47315000  0.26529000  0.62273000  1.0
  O  O168  1  0.82266000  0.40307000  0.74538000  1.0
  O  O169  1  0.55989000  0.35170000  0.69873000  1.0
  O  O170  1  0.20796000  0.35726000  0.73463000  1.0
  O  O171  1  0.41926000  0.34209000  0.59681000  1.0
  O  O172  1  0.20793000  0.34682000  0.64819000  1.0
  O  O173  1  0.85041000  0.37722000  0.64261000  1.0
