# generated using pymatgen
data_Zn3H16C44(I2O3)4
_symmetry_space_group_name_H-M   'P 1'
_cell_length_a   18.57080000
_cell_length_b   29.24600000
_cell_length_c   29.24568624
_cell_angle_alpha   84.21201443
_cell_angle_beta   71.48943592
_cell_angle_gamma   71.48790000
_symmetry_Int_Tables_number   1
_chemical_formula_structural   Zn3H16C44(I2O3)4
_chemical_formula_sum   'Zn6 H32 C88 I16 O24'
_cell_volume   14282.84004658
_cell_formula_units_Z   2
loop_
 _symmetry_equiv_pos_site_id
 _symmetry_equiv_pos_as_xyz
  1  'x, y, z'
loop_
 _atom_site_type_symbol
 _atom_site_label
 _atom_site_symmetry_multiplicity
 _atom_site_fract_x
 _atom_site_fract_y
 _atom_site_fract_z
 _atom_site_occupancy
  Zn  Zn0  1  0.00003000  0.46712000  0.53290000  1.0
  Zn  Zn1  1  0.56977000  0.00001000  0.99999000  1.0
  Zn  Zn2  1  0.43023000  0.99999000  0.00001000  1.0
  Zn  Zn3  1  0.46711000  0.53289000  0.53289000  1.0
  Zn  Zn4  1  0.99995000  0.53290000  0.46712000  1.0
  Zn  Zn5  1  0.53289000  0.46711000  0.46711000  1.0
  H  H6  1  0.40022000  0.21500000  0.12899000  1.0
  H  H7  1  0.61521000  0.12894000  0.78500000  1.0
  H  H8  1  0.74414000  0.78498000  0.87104000  1.0
  H  H9  1  0.52907000  0.87105000  0.21500000  1.0
  H  H10  1  0.59984000  0.87104000  0.78498000  1.0
  H  H11  1  0.38488000  0.21500000  0.87105000  1.0
  H  H12  1  0.25579000  0.12899000  0.21500000  1.0
  H  H13  1  0.47085000  0.78501000  0.12894000  1.0
  H  H14  1  0.39693000  0.22413000  0.21299000  1.0
  H  H15  1  0.37900000  0.22407000  0.78706000  1.0
  H  H16  1  0.83404000  0.77592000  0.78700000  1.0
  H  H17  1  0.39002000  0.77586000  0.21301000  1.0
  H  H18  1  0.60305000  0.78700000  0.77591000  1.0
  H  H19  1  0.62111000  0.21301000  0.77586000  1.0
  H  H20  1  0.16595000  0.21299000  0.22413000  1.0
  H  H21  1  0.60988000  0.78706000  0.22406000  1.0
  H  H22  1  0.16938000  0.38346000  0.27370000  1.0
  H  H23  1  0.55280000  0.27368000  0.61655000  1.0
  H  H24  1  0.82653000  0.61656000  0.72632000  1.0
  H  H25  1  0.44316000  0.72632000  0.38342000  1.0
  H  H26  1  0.83059000  0.72632000  0.61656000  1.0
  H  H27  1  0.44709000  0.38342000  0.72632000  1.0
  H  H28  1  0.17346000  0.27370000  0.38346000  1.0
  H  H29  1  0.55697000  0.61655000  0.27368000  1.0
  H  H30  1  0.10557000  0.44703000  0.33751000  1.0
  H  H31  1  0.55263000  0.33749000  0.55298000  1.0
  H  H32  1  0.89015000  0.55298000  0.66251000  1.0
  H  H33  1  0.44302000  0.66251000  0.44700000  1.0
  H  H34  1  0.89436000  0.66251000  0.55298000  1.0
  H  H35  1  0.44746000  0.44700000  0.66251000  1.0
  H  H36  1  0.10989000  0.33751000  0.44703000  1.0
  H  H37  1  0.55691000  0.55298000  0.33749000  1.0
  C  C38  1  0.06596000  0.43404000  0.43404000  1.0
  C  C39  1  0.49993000  0.28669000  0.71330000  1.0
  C  C40  1  0.51789000  0.90090000  0.14626000  1.0
  C  C41  1  0.58120000  0.90090000  0.85370000  1.0
  C  C42  1  0.43495000  0.14626000  0.90090000  1.0
  C  C43  1  0.33581000  0.09912000  0.14630000  1.0
  C  C44  1  0.48213000  0.85370000  0.09906000  1.0
  C  C45  1  0.41877000  0.14630000  0.09912000  1.0
  C  C46  1  0.56511000  0.09906000  0.85370000  1.0
  C  C47  1  0.66420000  0.85370000  0.90090000  1.0
  C  C48  1  0.78670000  0.71330000  0.71330000  1.0
  C  C49  1  0.38302000  0.18207000  0.13445000  1.0
  C  C50  1  0.56511000  0.13441000  0.81794000  1.0
  C  C51  1  0.69952000  0.81793000  0.86557000  1.0
  C  C52  1  0.51740000  0.86559000  0.18205000  1.0
  C  C53  1  0.61697000  0.86557000  0.81793000  1.0
  C  C54  1  0.43496000  0.18205000  0.86559000  1.0
  C  C55  1  0.30046000  0.13445000  0.18207000  1.0
  C  C56  1  0.50008000  0.71330000  0.28669000  1.0
  C  C57  1  0.48253000  0.81794000  0.13441000  1.0
  C  C58  1  0.32360000  0.17640000  0.17640000  1.0
  C  C59  1  0.21329000  0.28671000  0.28671000  1.0
  C  C60  1  0.50004000  0.17637000  0.82363000  1.0
  C  C61  1  0.67638000  0.82362000  0.82362000  1.0
  C  C62  1  0.49996000  0.82363000  0.17637000  1.0
  C  C63  1  0.39592000  0.10408000  0.10408000  1.0
  C  C64  1  0.50002000  0.10402000  0.89592000  1.0
  C  C65  1  0.60408000  0.89592000  0.89592000  1.0
  C  C66  1  0.50003000  0.89592000  0.10403000  1.0
  C  C67  1  0.33241000  0.23577000  0.22873000  1.0
  C  C68  1  0.43185000  0.23572000  0.77131000  1.0
  C  C69  1  0.79690000  0.76425000  0.77128000  1.0
  C  C70  1  0.43883000  0.76424000  0.22873000  1.0
  C  C71  1  0.66757000  0.77128000  0.76425000  1.0
  C  C72  1  0.56819000  0.22873000  0.76424000  1.0
  C  C73  1  0.20309000  0.22873000  0.23577000  1.0
  C  C74  1  0.56111000  0.77131000  0.23572000  1.0
  C  C75  1  0.29634000  0.27110000  0.26449000  1.0
  C  C76  1  0.43254000  0.27105000  0.73553000  1.0
  C  C77  1  0.83193000  0.72892000  0.73551000  1.0
  C  C78  1  0.43922000  0.72890000  0.26450000  1.0
  C  C79  1  0.70364000  0.73551000  0.72892000  1.0
  C  C80  1  0.56738000  0.26450000  0.72890000  1.0
  C  C81  1  0.16807000  0.26449000  0.27111000  1.0
  C  C82  1  0.56088000  0.73553000  0.27105000  1.0
  C  C83  1  0.28587000  0.21412000  0.21413000  1.0
  C  C84  1  0.50005000  0.21410000  0.78590000  1.0
  C  C85  1  0.71411000  0.78589000  0.78589000  1.0
  C  C86  1  0.50006000  0.43403000  0.56597000  1.0
  C  C87  1  0.49995000  0.78590000  0.21410000  1.0
  C  C88  1  0.15624000  0.37349000  0.31173000  1.0
  C  C89  1  0.52966000  0.31172000  0.62651000  1.0
  C  C90  1  0.84147000  0.62651000  0.68828000  1.0
  C  C91  1  0.46796000  0.68828000  0.37348000  1.0
  C  C92  1  0.84374000  0.68828000  0.62651000  1.0
  C  C93  1  0.93403000  0.56597000  0.56597000  1.0
  C  C94  1  0.47027000  0.37348000  0.68828000  1.0
  C  C95  1  0.15854000  0.31173000  0.37349000  1.0
  C  C96  1  0.53211000  0.62651000  0.31172000  1.0
  C  C97  1  0.49993000  0.56597000  0.43404000  1.0
  C  C98  1  0.12073000  0.40898000  0.34719000  1.0
  C  C99  1  0.52971000  0.34718000  0.59102000  1.0
  C  C100  1  0.87690000  0.59103000  0.65282000  1.0
  C  C101  1  0.46784000  0.65282000  0.40896000  1.0
  C  C102  1  0.87926000  0.65282000  0.59102000  1.0
  C  C103  1  0.47038000  0.40896000  0.65282000  1.0
  C  C104  1  0.12310000  0.34718000  0.40898000  1.0
  C  C105  1  0.53209000  0.59102000  0.34718000  1.0
  C  C106  1  0.10395000  0.39605000  0.39605000  1.0
  C  C107  1  0.50005000  0.39604000  0.60396000  1.0
  C  C108  1  0.89604000  0.60396000  0.60396000  1.0
  C  C109  1  0.49996000  0.60396000  0.39604000  1.0
  C  C110  1  0.17540000  0.32460000  0.32460000  1.0
  C  C111  1  0.49993000  0.32459000  0.67540000  1.0
  C  C112  1  0.82459000  0.67541000  0.67541000  1.0
  C  C113  1  0.50008000  0.67540000  0.32459000  1.0
  C  C114  1  0.50000000  0.06572000  0.93423000  1.0
  C  C115  1  0.56577000  0.93423000  0.93423000  1.0
  C  C116  1  0.50004000  0.93424000  0.06573000  1.0
  C  C117  1  0.43424000  0.06576000  0.06576000  1.0
  C  C118  1  0.86024000  0.50000000  0.50000000  1.0
  C  C119  1  0.36023000  0.49996000  0.50003000  1.0
  C  C120  1  0.13976000  0.50000000  0.50000000  1.0
  C  C121  1  0.63979000  0.50003000  0.49996000  1.0
  C  C122  1  0.78273000  0.50003000  0.49997000  1.0
  C  C123  1  0.28271000  0.50000000  0.50000000  1.0
  C  C124  1  0.21727000  0.49997000  0.50003000  1.0
  C  C125  1  0.71729000  0.50000000  0.50000000  1.0
  I  I126  1  0.50543000  0.16000000  0.03704000  1.0
  I  I127  1  0.66540000  0.03697000  0.83999000  1.0
  I  I128  1  0.70230000  0.83997000  0.96302000  1.0
  I  I129  1  0.54233000  0.96301000  0.16000000  1.0
  I  I130  1  0.49470000  0.96302000  0.83997000  1.0
  I  I131  1  0.33466000  0.16000000  0.96301000  1.0
  I  I132  1  0.29753000  0.03704000  0.16000000  1.0
  I  I133  1  0.45764000  0.83999000  0.03697000  1.0
  I  I134  1  0.37110000  0.30022000  0.28590000  1.0
  I  I135  1  0.32865000  0.30017000  0.71417000  1.0
  I  I136  1  0.95720000  0.69978000  0.71412000  1.0
  I  I137  1  0.34311000  0.69972000  0.28591000  1.0
  I  I138  1  0.62889000  0.71412000  0.69978000  1.0
  I  I139  1  0.67126000  0.28591000  0.69972000  1.0
  I  I140  1  0.04278000  0.28589000  0.30022000  1.0
  I  I141  1  0.65702000  0.71417000  0.30016000  1.0
  O  O142  1  0.05123000  0.42002000  0.47805000  1.0
  O  O143  1  0.47131000  0.47804000  0.57999000  1.0
  O  O144  1  0.94922000  0.58000000  0.52196000  1.0
  O  O145  1  0.52919000  0.52195000  0.42003000  1.0
  O  O146  1  0.94882000  0.52196000  0.58000000  1.0
  O  O147  1  0.52884000  0.42002000  0.52195000  1.0
  O  O148  1  0.05070000  0.47805000  0.42003000  1.0
  O  O149  1  0.47065000  0.57999000  0.47805000  1.0
  O  O150  1  0.89067000  0.47071000  0.52911000  1.0
  O  O151  1  0.36136000  0.52907000  0.52932000  1.0
  O  O152  1  0.89043000  0.52930000  0.47089000  1.0
  O  O153  1  0.41974000  0.47088000  0.47071000  1.0
  O  O154  1  0.10938000  0.47089000  0.52930000  1.0
  O  O155  1  0.63868000  0.47071000  0.47088000  1.0
  O  O156  1  0.10952000  0.52911000  0.47071000  1.0
  O  O157  1  0.58026000  0.52932000  0.52907000  1.0
  O  O158  1  0.44576000  0.04534000  0.94303000  1.0
  O  O159  1  0.49114000  0.94300000  0.95464000  1.0
  O  O160  1  0.43417000  0.95465000  0.05697000  1.0
  O  O161  1  0.38878000  0.05699000  0.04536000  1.0
  O  O162  1  0.55420000  0.05697000  0.95465000  1.0
  O  O163  1  0.50887000  0.04536000  0.05699000  1.0
  O  O164  1  0.56587000  0.94303000  0.04534000  1.0
  O  O165  1  0.61121000  0.95465000  0.94300000  1.0
