# generated using pymatgen
data_AlH12C27(NO4)3
_symmetry_space_group_name_H-M   'P 1'
_cell_length_a   4.20849000
_cell_length_b   15.70760000
_cell_length_c   15.76760000
_cell_angle_alpha   60.15390000
_cell_angle_beta   87.26070000
_cell_angle_gamma   86.82070000
_symmetry_Int_Tables_number   1
_chemical_formula_structural   AlH12C27(NO4)3
_chemical_formula_sum   'Al1 H12 C27 N3 O12'
_cell_volume   902.43673512
_cell_formula_units_Z   1
loop_
 _symmetry_equiv_pos_site_id
 _symmetry_equiv_pos_as_xyz
  1  'x, y, z'
loop_
 _atom_site_type_symbol
 _atom_site_label
 _atom_site_symmetry_multiplicity
 _atom_site_fract_x
 _atom_site_fract_y
 _atom_site_fract_z
 _atom_site_occupancy
  Al  Al0  1  0.92797000  0.50220000  0.49993000  1.0
  H  H1  1  0.12809000  0.75482000  0.52289000  1.0
  H  H2  1  0.15764000  0.84991000  0.61135000  1.0
  H  H3  1  0.64305000  0.60253000  0.84580000  1.0
  H  H4  1  0.69041000  0.04568000  0.60466000  1.0
  H  H5  1  0.20080000  0.23745000  0.75350000  1.0
  H  H6  1  0.22353000  0.05329000  0.84947000  1.0
  H  H7  1  0.66527000  0.84961000  0.04799000  1.0
  H  H8  1  0.23095000  0.51544000  0.23339000  1.0
  H  H9  1  0.25528000  0.60409000  0.04989000  1.0
  H  H10  1  0.27616000  0.42202000  0.79273000  1.0
  H  H11  1  0.33019000  0.27846000  0.42471000  1.0
  H  H12  1  0.26905000  0.79875000  0.28016000  1.0
  C  C13  1  0.43660000  0.57559000  0.35175000  1.0
  C  C14  1  0.39533000  0.57704000  0.57422000  1.0
  C  C15  1  0.44124000  0.35344000  0.57469000  1.0
  C  C16  1  0.45345000  0.93059000  0.78641000  1.0
  C  C17  1  0.42602000  0.78637000  0.78678000  1.0
  C  C18  1  0.45775000  0.78635000  0.93037000  1.0
  C  C19  1  0.24164000  0.72248000  0.59349000  1.0
  C  C20  1  0.25788000  0.77523000  0.64245000  1.0
  C  C21  1  0.40363000  0.73178000  0.73355000  1.0
  C  C22  1  0.53224000  0.63562000  0.77476000  1.0
  C  C23  1  0.52458000  0.58357000  0.72479000  1.0
  C  C24  1  0.38076000  0.62775000  0.63283000  1.0
  C  C25  1  0.58839000  0.08815000  0.63741000  1.0
  C  C26  1  0.58720000  0.19045000  0.58519000  1.0
  C  C27  1  0.44467000  0.24418000  0.62749000  1.0
  C  C28  1  0.31039000  0.19457000  0.72213000  1.0
  C  C29  1  0.32256000  0.09261000  0.77529000  1.0
  C  C30  1  0.45688000  0.03893000  0.73234000  1.0
  C  C31  1  0.57362000  0.77595000  0.08912000  1.0
  C  C32  1  0.56594000  0.72634000  0.19101000  1.0
  C  C33  1  0.44066000  0.63193000  0.24294000  1.0
  C  C34  1  0.32689000  0.58848000  0.19190000  1.0
  C  C35  1  0.34071000  0.63736000  0.09038000  1.0
  C  C36  1  0.46036000  0.73210000  0.03834000  1.0
  C  C37  1  0.67968000  0.48227000  0.77226000  1.0
  C  C38  1  0.73970000  0.23939000  0.48463000  1.0
  C  C39  1  0.69221000  0.77725000  0.24111000  1.0
  N  N40  1  0.43161000  0.88497000  0.73388000  1.0
  N  N41  1  0.43927000  0.73366000  0.88485000  1.0
  N  N42  1  0.46751000  0.88495000  0.88449000  1.0
  O  O43  1  0.19982000  0.39734000  0.58993000  1.0
  O  O44  1  0.20977000  0.51721000  0.39452000  1.0
  O  O45  1  0.16910000  0.59380000  0.51627000  1.0
  O  O46  1  0.68225000  0.39396000  0.51934000  1.0
  O  O47  1  0.64139000  0.52100000  0.58689000  1.0
  O  O48  1  0.66474000  0.58991000  0.39317000  1.0
  O  O49  1  0.51389000  0.40432000  0.79672000  1.0
  O  O50  1  0.96413000  0.47389000  0.79214000  1.0
  O  O51  1  0.56491000  0.29223000  0.40689000  1.0
  O  O52  1  0.02870000  0.22599000  0.47657000  1.0
  O  O53  1  0.50030000  0.80300000  0.29368000  1.0
  O  O54  1  0.97579000  0.79775000  0.22844000  1.0
