# generated using pymatgen
data_CuH15C19(NO)4
_symmetry_space_group_name_H-M   'P 1'
_cell_length_a   8.27894000
_cell_length_b   11.16400000
_cell_length_c   11.16400000
_cell_angle_alpha   100.06300000
_cell_angle_beta   109.98600000
_cell_angle_gamma   109.98700000
_symmetry_Int_Tables_number   1
_chemical_formula_structural   CuH15C19(NO)4
_chemical_formula_sum   'Cu2 H30 C38 N8 O8'
_cell_volume   860.20838511
_cell_formula_units_Z   2
loop_
 _symmetry_equiv_pos_site_id
 _symmetry_equiv_pos_as_xyz
  1  'x, y, z'
loop_
 _atom_site_type_symbol
 _atom_site_label
 _atom_site_symmetry_multiplicity
 _atom_site_fract_x
 _atom_site_fract_y
 _atom_site_fract_z
 _atom_site_occupancy
  Cu  Cu0  1  0.00000000  0.50000000  0.00000000  1.0
  Cu  Cu1  1  0.00000000  0.00000000  0.50000000  1.0
  H  H2  1  0.83813000  0.67015000  0.14223000  1.0
  H  H3  1  0.16188000  0.85777000  0.32985000  1.0
  H  H4  1  0.16187000  0.32985000  0.85777000  1.0
  H  H5  1  0.83812000  0.14223000  0.67015000  1.0
  H  H6  1  0.63772000  0.44941000  0.73147000  1.0
  H  H7  1  0.36229000  0.26853000  0.55059000  1.0
  H  H8  1  0.36228000  0.55059000  0.26853000  1.0
  H  H9  1  0.63771000  0.73147000  0.44941000  1.0
  H  H10  1  0.39691000  0.56654000  0.75611000  1.0
  H  H11  1  0.60310000  0.24389000  0.43346000  1.0
  H  H12  1  0.60309000  0.43346000  0.24389000  1.0
  H  H13  1  0.39690000  0.75611000  0.56654000  1.0
  H  H14  1  0.58388000  0.74171000  0.13395000  1.0
  H  H15  1  0.41612000  0.86605000  0.25829000  1.0
  H  H16  1  0.41612000  0.25829000  0.86605000  1.0
  H  H17  1  0.58388000  0.13395000  0.74171000  1.0
  H  H18  1  0.38156000  0.69103000  0.97643000  1.0
  H  H19  1  0.61845000  0.02357000  0.30897000  1.0
  H  H20  1  0.61845000  0.30897000  0.02357000  1.0
  H  H21  1  0.38155000  0.97643000  0.69103000  1.0
  H  H22  1  0.39858000  0.81721000  0.81722000  1.0
  H  H23  1  0.60142000  0.18279000  0.18278000  1.0
  H  H24  1  0.87412000  0.95355000  0.20535000  1.0
  H  H25  1  0.12588000  0.79465000  0.04644000  1.0
  H  H26  1  0.12588000  0.04644000  0.79465000  1.0
  H  H27  1  0.87411000  0.20536000  0.95356000  1.0
  H  H28  1  0.03056000  0.16850000  0.16850000  1.0
  H  H29  1  0.96944000  0.83150000  0.83150000  1.0
  H  H30  1  0.97363000  0.66410000  0.66410000  1.0
  H  H31  1  0.02636000  0.33590000  0.33590000  1.0
  C  C32  1  0.75652000  0.62674000  0.03332000  1.0
  C  C33  1  0.24347000  0.96668000  0.37326000  1.0
  C  C34  1  0.24347000  0.37326000  0.96668000  1.0
  C  C35  1  0.75653000  0.03332000  0.62674000  1.0
  C  C36  1  0.64617000  0.51533000  0.81918000  1.0
  C  C37  1  0.35384000  0.18081000  0.48467000  1.0
  C  C38  1  0.35383000  0.48467000  0.18081000  1.0
  C  C39  1  0.64616000  0.81919000  0.51533000  1.0
  C  C40  1  0.52698000  0.57263000  0.83031000  1.0
  C  C41  1  0.47302000  0.16969000  0.42737000  1.0
  C  C42  1  0.47301000  0.42737000  0.16969000  1.0
  C  C43  1  0.52698000  0.83031000  0.57263000  1.0
  C  C44  1  0.53781000  0.73543000  0.02760000  1.0
  C  C45  1  0.46219000  0.97240000  0.26457000  1.0
  C  C46  1  0.46219000  0.26457000  0.97240000  1.0
  C  C47  1  0.53781000  0.02760000  0.73543000  1.0
  C  C48  1  0.53912000  0.89339000  0.89339000  1.0
  C  C49  1  0.46089000  0.10661000  0.10661000  1.0
  C  C50  1  0.62748000  0.87092000  0.01270000  1.0
  C  C51  1  0.37252000  0.98730000  0.12908000  1.0
  C  C52  1  0.37252000  0.12908000  0.98730000  1.0
  C  C53  1  0.62748000  0.01270000  0.87092000  1.0
  C  C54  1  0.80457000  0.97059000  0.11191000  1.0
  C  C55  1  0.19543000  0.88809000  0.02941000  1.0
  C  C56  1  0.19543000  0.02941000  0.88809000  1.0
  C  C57  1  0.80457000  0.11191000  0.97059000  1.0
  C  C58  1  0.89210000  0.09127000  0.09127000  1.0
  C  C59  1  0.10790000  0.90873000  0.90873000  1.0
  C  C60  1  0.96687000  0.44897000  0.74017000  1.0
  C  C61  1  0.03314000  0.25983000  0.55104000  1.0
  C  C62  1  0.03313000  0.55103000  0.25983000  1.0
  C  C63  1  0.96686000  0.74017000  0.44896000  1.0
  C  C64  1  0.99228000  0.47515000  0.61818000  1.0
  C  C65  1  0.00772000  0.38182000  0.52485000  1.0
  C  C66  1  0.00772000  0.52485000  0.38181000  1.0
  C  C67  1  0.99227000  0.61818000  0.47515000  1.0
  C  C68  1  0.98631000  0.59223000  0.59223000  1.0
  C  C69  1  0.01369000  0.40777000  0.40777000  1.0
  N  N70  1  0.78849000  0.54982000  0.94672000  1.0
  N  N71  1  0.21151000  0.05328000  0.45018000  1.0
  N  N72  1  0.21151000  0.45018000  0.05328000  1.0
  N  N73  1  0.78849000  0.94672000  0.54982000  1.0
  N  N74  1  0.59882000  0.64201000  0.96606000  1.0
  N  N75  1  0.40118000  0.03394000  0.35799000  1.0
  N  N76  1  0.40118000  0.35800000  0.03394000  1.0
  N  N77  1  0.59882000  0.96606000  0.64201000  1.0
  O  O78  1  0.06333000  0.55161000  0.85000000  1.0
  O  O79  1  0.93668000  0.15000000  0.44839000  1.0
  O  O80  1  0.93667000  0.44839000  0.15000000  1.0
  O  O81  1  0.06332000  0.85000000  0.55161000  1.0
  O  O82  1  0.85180000  0.33506000  0.72892000  1.0
  O  O83  1  0.14820000  0.27109000  0.66495000  1.0
  O  O84  1  0.14820000  0.66494000  0.27108000  1.0
  O  O85  1  0.85180000  0.72891000  0.33506000  1.0
