# generated using pymatgen
data_SmH7C8SO7
_symmetry_space_group_name_H-M   'P 1'
_cell_length_a   7.97832000
_cell_length_b   9.93881000
_cell_length_c   14.34630000
_cell_angle_alpha   90.00050000
_cell_angle_beta   90.00060000
_cell_angle_gamma   103.13500000
_symmetry_Int_Tables_number   1
_chemical_formula_structural   SmH7C8SO7
_chemical_formula_sum   'Sm4 H28 C32 S4 O28'
_cell_volume   1107.82756496
_cell_formula_units_Z   4
loop_
 _symmetry_equiv_pos_site_id
 _symmetry_equiv_pos_as_xyz
  1  'x, y, z'
loop_
 _atom_site_type_symbol
 _atom_site_label
 _atom_site_symmetry_multiplicity
 _atom_site_fract_x
 _atom_site_fract_y
 _atom_site_fract_z
 _atom_site_occupancy
  Sm  Sm0  1  0.60031000  0.59784000  0.11645000  1.0
  Sm  Sm1  1  0.89969000  0.40216000  0.61645000  1.0
  Sm  Sm2  1  0.39969000  0.40216000  0.88355000  1.0
  Sm  Sm3  1  0.10031000  0.59784000  0.38355000  1.0
  H  H4  1  0.50853000  0.49266000  0.31923000  1.0
  H  H5  1  0.99147000  0.50734000  0.81923000  1.0
  H  H6  1  0.49146000  0.50734000  0.68077000  1.0
  H  H7  1  0.00853000  0.49266000  0.18077000  1.0
  H  H8  1  0.70408000  0.48641000  0.30276000  1.0
  H  H9  1  0.79591000  0.51359000  0.80276000  1.0
  H  H10  1  0.29591000  0.51359000  0.69725000  1.0
  H  H11  1  0.20409000  0.48641000  0.19724000  1.0
  H  H12  1  0.31883000  0.24334000  0.30063000  1.0
  H  H13  1  0.18117000  0.75665000  0.80063000  1.0
  H  H14  1  0.68117000  0.75666000  0.69937000  1.0
  H  H15  1  0.81884000  0.24334000  0.19937000  1.0
  H  H16  1  0.15336000  0.99707000  0.36709000  1.0
  H  H17  1  0.34665000  0.00293000  0.86709000  1.0
  H  H18  1  0.84664000  0.00293000  0.63291000  1.0
  H  H19  1  0.65335000  0.99707000  0.13291000  1.0
  H  H20  1  0.97221000  0.29200000  0.00910000  1.0
  H  H21  1  0.52779000  0.70800000  0.50910000  1.0
  H  H22  1  0.02779000  0.70800000  0.99090000  1.0
  H  H23  1  0.47221000  0.29200000  0.49089000  1.0
  H  H24  1  0.81470000  0.27615000  0.91753000  1.0
  H  H25  1  0.68530000  0.72385000  0.41753000  1.0
  H  H26  1  0.18530000  0.72385000  0.08247000  1.0
  H  H27  1  0.31471000  0.27615000  0.58247000  1.0
  H  H28  1  0.76723000  0.17550000  0.01965000  1.0
  H  H29  1  0.73277000  0.82450000  0.51965000  1.0
  H  H30  1  0.23276000  0.82450000  0.98035000  1.0
  H  H31  1  0.26723000  0.17550000  0.48035000  1.0
  C  C32  1  0.28239000  0.29461000  0.10631000  1.0
  C  C33  1  0.21761000  0.70539000  0.60630000  1.0
  C  C34  1  0.71761000  0.70539000  0.89369000  1.0
  C  C35  1  0.78239000  0.29461000  0.39369000  1.0
  C  C36  1  0.20876000  0.17495000  0.16586000  1.0
  C  C37  1  0.29125000  0.82504000  0.66585000  1.0
  C  C38  1  0.79125000  0.82504000  0.83414000  1.0
  C  C39  1  0.70875000  0.17495000  0.33415000  1.0
  C  C40  1  0.23617000  0.16153000  0.26063000  1.0
  C  C41  1  0.26384000  0.83847000  0.76063000  1.0
  C  C42  1  0.76383000  0.83847000  0.73937000  1.0
  C  C43  1  0.73617000  0.16152000  0.23937000  1.0
  C  C44  1  0.14884000  0.03209000  0.29546000  1.0
  C  C45  1  0.35117000  0.96791000  0.79546000  1.0
  C  C46  1  0.85116000  0.96791000  0.70454000  1.0
  C  C47  1  0.64883000  0.03209000  0.20454000  1.0
  C  C48  1  0.05410000  0.94923000  0.22716000  1.0
  C  C49  1  0.44592000  0.05077000  0.72716000  1.0
  C  C50  1  0.94591000  0.05077000  0.77284000  1.0
  C  C51  1  0.55409000  0.94923000  0.27284000  1.0
  C  C52  1  0.94368000  0.80913000  0.23849000  1.0
  C  C53  1  0.55631000  0.19088000  0.73849000  1.0
  C  C54  1  0.05633000  0.19087000  0.76152000  1.0
  C  C55  1  0.44367000  0.80912000  0.26152000  1.0
  C  C56  1  0.75719000  0.38489000  0.03679000  1.0
  C  C57  1  0.74281000  0.61511000  0.53679000  1.0
  C  C58  1  0.24281000  0.61511000  0.96321000  1.0
  C  C59  1  0.25719000  0.38490000  0.46320000  1.0
  C  C60  1  0.83526000  0.27710000  0.99307000  1.0
  C  C61  1  0.66473000  0.72290000  0.49307000  1.0
  C  C62  1  0.16473000  0.72289000  0.00693000  1.0
  C  C63  1  0.33526000  0.27711000  0.50692000  1.0
  S  S64  1  0.07526000  0.02920000  0.12013000  1.0
  S  S65  1  0.42474000  0.97080000  0.62013000  1.0
  S  S66  1  0.92474000  0.97079000  0.87987000  1.0
  S  S67  1  0.57525000  0.02920000  0.37987000  1.0
  O  O68  1  0.35704000  0.40649000  0.14814000  1.0
  O  O69  1  0.14296000  0.59350000  0.64815000  1.0
  O  O70  1  0.64297000  0.59351000  0.85186000  1.0
  O  O71  1  0.85703000  0.40649000  0.35186000  1.0
  O  O72  1  0.26548000  0.28010000  0.01852000  1.0
  O  O73  1  0.23452000  0.71990000  0.51851000  1.0
  O  O74  1  0.73452000  0.71990000  0.98149000  1.0
  O  O75  1  0.76548000  0.28010000  0.48149000  1.0
  O  O76  1  0.95438000  0.74734000  0.31572000  1.0
  O  O77  1  0.54562000  0.25266000  0.81571000  1.0
  O  O78  1  0.04561000  0.25267000  0.68428000  1.0
  O  O79  1  0.45438000  0.74733000  0.18428000  1.0
  O  O80  1  0.84581000  0.75911000  0.17140000  1.0
  O  O81  1  0.65420000  0.24089000  0.67139000  1.0
  O  O82  1  0.15418000  0.24088000  0.82859000  1.0
  O  O83  1  0.34581000  0.75912000  0.32859000  1.0
  O  O84  1  0.82507000  0.45662000  0.10682000  1.0
  O  O85  1  0.67493000  0.54339000  0.60682000  1.0
  O  O86  1  0.17493000  0.54339000  0.89318000  1.0
  O  O87  1  0.32506000  0.45662000  0.39318000  1.0
  O  O88  1  0.61482000  0.40506000  0.00424000  1.0
  O  O89  1  0.88518000  0.59494000  0.50424000  1.0
  O  O90  1  0.38518000  0.59494000  0.99576000  1.0
  O  O91  1  0.11481000  0.40505000  0.49576000  1.0
  O  O92  1  0.60974000  0.52637000  0.27861000  1.0
  O  O93  1  0.89025000  0.47363000  0.77861000  1.0
  O  O94  1  0.39025000  0.47363000  0.72139000  1.0
  O  O95  1  0.10974000  0.52637000  0.22139000  1.0
