# generated using pymatgen
data_CuH22C18IN4
_symmetry_space_group_name_H-M   'P 1'
_cell_length_a   8.69757000
_cell_length_b   8.93831000
_cell_length_c   12.01940000
_cell_angle_alpha   91.63310000
_cell_angle_beta   98.04900000
_cell_angle_gamma   100.46500000
_symmetry_Int_Tables_number   1
_chemical_formula_structural   CuH22C18IN4
_chemical_formula_sum   'Cu2 H44 C36 I2 N8'
_cell_volume   908.41547766
_cell_formula_units_Z   2
loop_
 _symmetry_equiv_pos_site_id
 _symmetry_equiv_pos_as_xyz
  1  'x, y, z'
loop_
 _atom_site_type_symbol
 _atom_site_label
 _atom_site_symmetry_multiplicity
 _atom_site_fract_x
 _atom_site_fract_y
 _atom_site_fract_z
 _atom_site_occupancy
  Cu  Cu0  1  0.78848000  0.20976000  0.73372000  1.0
  Cu  Cu1  1  0.21152000  0.79024000  0.26628000  1.0
  H  H2  1  0.28321000  0.19014000  0.44528000  1.0
  H  H3  1  0.71679000  0.80985000  0.55472000  1.0
  H  H4  1  0.58796000  0.07284000  0.26675000  1.0
  H  H5  1  0.41204000  0.92716000  0.73325000  1.0
  H  H6  1  0.56325000  0.26407000  0.25400000  1.0
  H  H7  1  0.43676000  0.73593000  0.74600000  1.0
  H  H8  1  0.39549000  0.11688000  0.25110000  1.0
  H  H9  1  0.60451000  0.88312000  0.74890000  1.0
  H  H10  1  0.49527000  0.23507000  0.76998000  1.0
  H  H11  1  0.50473000  0.76493000  0.23002000  1.0
  H  H12  1  0.30137000  0.15672000  0.70081000  1.0
  H  H13  1  0.69863000  0.84328000  0.29919000  1.0
  H  H14  1  0.37754000  0.35332000  0.69625000  1.0
  H  H15  1  0.62246000  0.64668000  0.30375000  1.0
  H  H16  1  0.78951000  0.71378000  0.95079000  1.0
  H  H17  1  0.21050000  0.28622000  0.04922000  1.0
  H  H18  1  0.85919000  0.52354000  0.67050000  1.0
  H  H19  1  0.14082000  0.47646000  0.32951000  1.0
  H  H20  1  0.81621000  0.69726000  0.72346000  1.0
  H  H21  1  0.18380000  0.30274000  0.27654000  1.0
  H  H22  1  0.66100000  0.54194000  0.67160000  1.0
  H  H23  1  0.33900000  0.45806000  0.32840000  1.0
  H  H24  1  0.87832000  0.44059000  0.19040000  1.0
  H  H25  1  0.12168000  0.55941000  0.80961000  1.0
  H  H26  1  0.67735000  0.46086000  0.16466000  1.0
  H  H27  1  0.32266000  0.53913000  0.83534000  1.0
  H  H28  1  0.83153000  0.62385000  0.17194000  1.0
  H  H29  1  0.16848000  0.37615000  0.82807000  1.0
  H  H30  1  0.86426000  0.22417000  0.09827000  1.0
  H  H31  1  0.13573000  0.77582000  0.90173000  1.0
  H  H32  1  0.88263000  0.15053000  0.96392000  1.0
  H  H33  1  0.11737000  0.84947000  0.03608000  1.0
  H  H34  1  0.50435000  0.27588000  0.97626000  1.0
  H  H35  1  0.49564000  0.72413000  0.02373000  1.0
  H  H36  1  0.75136000  0.90374000  0.03315000  1.0
  H  H37  1  0.24864000  0.09626000  0.96684000  1.0
  H  H38  1  0.11395000  0.28550000  0.58227000  1.0
  H  H39  1  0.88604000  0.71450000  0.41773000  1.0
  H  H40  1  0.72871000  0.45138000  0.39301000  1.0
  H  H41  1  0.27128000  0.54862000  0.60700000  1.0
  H  H42  1  0.81488000  0.14200000  0.38135000  1.0
  H  H43  1  0.18512000  0.85799000  0.61865000  1.0
  H  H44  1  0.87587000  0.11419000  0.52510000  1.0
  H  H45  1  0.12413000  0.88581000  0.47491000  1.0
  C  C46  1  0.47844000  0.21193000  0.59131000  1.0
  C  C47  1  0.52156000  0.78807000  0.40869000  1.0
  C  C48  1  0.40646000  0.19357000  0.47815000  1.0
  C  C49  1  0.59354000  0.80643000  0.52186000  1.0
  C  C50  1  0.52455000  0.17534000  0.41466000  1.0
  C  C51  1  0.47545000  0.82466000  0.58535000  1.0
  C  C52  1  0.51836000  0.15618000  0.29066000  1.0
  C  C53  1  0.48165000  0.84382000  0.70935000  1.0
  C  C54  1  0.40949000  0.23984000  0.69474000  1.0
  C  C55  1  0.59051000  0.76016000  0.30526000  1.0
  C  C56  1  0.78835000  0.51505000  0.83428000  1.0
  C  C57  1  0.21165000  0.48495000  0.16572000  1.0
  C  C58  1  0.78984000  0.59351000  0.93758000  1.0
  C  C59  1  0.21016000  0.40649000  0.06243000  1.0
  C  C60  1  0.79601000  0.48688000  0.01961000  1.0
  C  C61  1  0.20399000  0.51312000  0.98039000  1.0
  C  C62  1  0.78096000  0.57271000  0.71915000  1.0
  C  C63  1  0.21904000  0.42729000  0.28085000  1.0
  C  C64  1  0.79589000  0.50338000  0.14297000  1.0
  C  C65  1  0.20412000  0.49662000  0.85703000  1.0
  C  C66  1  0.80543000  0.20510000  0.01057000  1.0
  C  C67  1  0.19456000  0.79490000  0.98943000  1.0
  C  C68  1  0.64585000  0.10127000  0.00388000  1.0
  C  C69  1  0.35414000  0.89874000  0.99612000  1.0
  C  C70  1  0.50341000  0.15480000  0.98663000  1.0
  C  C71  1  0.49659000  0.84521000  0.01337000  1.0
  C  C72  1  0.64044000  0.94548000  0.01730000  1.0
  C  C73  1  0.35955000  0.05453000  0.98269000  1.0
  C  C74  1  0.06468000  0.37970000  0.54539000  1.0
  C  C75  1  0.93532000  0.62030000  0.45461000  1.0
  C  C76  1  0.91242000  0.34996000  0.48394000  1.0
  C  C77  1  0.08758000  0.65004000  0.51605000  1.0
  C  C78  1  0.84853000  0.47208000  0.43923000  1.0
  C  C79  1  0.15147000  0.52792000  0.56077000  1.0
  C  C80  1  0.81950000  0.18862000  0.46762000  1.0
  C  C81  1  0.18051000  0.81138000  0.53238000  1.0
  I  I82  1  0.97534000  0.02268000  0.75788000  1.0
  I  I83  1  0.02467000  0.97732000  0.24212000  1.0
  N  N84  1  0.63296000  0.20384000  0.59766000  1.0
  N  N85  1  0.36704000  0.79615000  0.40234000  1.0
  N  N86  1  0.65871000  0.18084000  0.48958000  1.0
  N  N87  1  0.34130000  0.81915000  0.51043000  1.0
  N  N88  1  0.79460000  0.36751000  0.85154000  1.0
  N  N89  1  0.20540000  0.63250000  0.14846000  1.0
  N  N90  1  0.79966000  0.35234000  0.96476000  1.0
  N  N91  1  0.20034000  0.64766000  0.03524000  1.0
