# generated using pymatgen
data_CuH18C22(N2O3)2
_symmetry_space_group_name_H-M   'P 1'
_cell_length_a   10.00720000
_cell_length_b   10.48630000
_cell_length_c   11.25760000
_cell_angle_alpha   107.21000000
_cell_angle_beta   97.96900000
_cell_angle_gamma   92.91980000
_symmetry_Int_Tables_number   1
_chemical_formula_structural   CuH18C22(N2O3)2
_chemical_formula_sum   'Cu2 H36 C44 N8 O12'
_cell_volume   1112.27271364
_cell_formula_units_Z   2
loop_
 _symmetry_equiv_pos_site_id
 _symmetry_equiv_pos_as_xyz
  1  'x, y, z'
loop_
 _atom_site_type_symbol
 _atom_site_label
 _atom_site_symmetry_multiplicity
 _atom_site_fract_x
 _atom_site_fract_y
 _atom_site_fract_z
 _atom_site_occupancy
  Cu  Cu0  1  0.86319000  0.15629000  0.51136000  1.0
  Cu  Cu1  1  0.13683000  0.84370000  0.48864000  1.0
  H  H2  1  0.27616000  0.41303000  0.06403000  1.0
  H  H3  1  0.72384000  0.58696000  0.93598000  1.0
  H  H4  1  0.41328000  0.14287000  0.51369000  1.0
  H  H5  1  0.58674000  0.85712000  0.48631000  1.0
  H  H6  1  0.49092000  0.83713000  0.21121000  1.0
  H  H7  1  0.50907000  0.16287000  0.78879000  1.0
  H  H8  1  0.16599000  0.47023000  0.61491000  1.0
  H  H9  1  0.83402000  0.52975000  0.38511000  1.0
  H  H10  1  0.37479000  0.63145000  0.69289000  1.0
  H  H11  1  0.62522000  0.36853000  0.30713000  1.0
  H  H12  1  0.60167000  0.54751000  0.66795000  1.0
  H  H13  1  0.39834000  0.45250000  0.33206000  1.0
  H  H14  1  0.00175000  0.38110000  0.70982000  1.0
  H  H15  1  0.99826000  0.61890000  0.29019000  1.0
  H  H16  1  0.31703000  0.63918000  0.20941000  1.0
  H  H17  1  0.68297000  0.36081000  0.79059000  1.0
  H  H18  1  0.23333000  0.69849000  0.08910000  1.0
  H  H19  1  0.76667000  0.30151000  0.91091000  1.0
  H  H20  1  0.11164000  0.25231000  0.03754000  1.0
  H  H21  1  0.88835000  0.74769000  0.96247000  1.0
  H  H22  1  0.97930000  0.03112000  0.91614000  1.0
  H  H23  1  0.02069000  0.96887000  0.08386000  1.0
  H  H24  1  0.87162000  0.99457000  0.69224000  1.0
  H  H25  1  0.12836000  0.00544000  0.30776000  1.0
  H  H26  1  0.68773000  0.94423000  0.32435000  1.0
  H  H27  1  0.31226000  0.05579000  0.67565000  1.0
  H  H28  1  0.50736000  0.57952000  0.08990000  1.0
  H  H29  1  0.49264000  0.42048000  0.91010000  1.0
  H  H30  1  0.42273000  0.62849000  0.96296000  1.0
  H  H31  1  0.57726000  0.37151000  0.03703000  1.0
  H  H32  1  0.68325000  0.02215000  0.96709000  1.0
  H  H33  1  0.31675000  0.97784000  0.03290000  1.0
  H  H34  1  0.82708000  0.24215000  0.08909000  1.0
  H  H35  1  0.17293000  0.75785000  0.91089000  1.0
  H  H36  1  0.90405000  0.28714000  0.31915000  1.0
  H  H37  1  0.09596000  0.71287000  0.68084000  1.0
  C  C38  1  0.65869000  0.29402000  0.57103000  1.0
  C  C39  1  0.34136000  0.70595000  0.42897000  1.0
  C  C40  1  0.52125000  0.34071000  0.58881000  1.0
  C  C41  1  0.47877000  0.65929000  0.41118000  1.0
  C  C42  1  0.40480000  0.25009000  0.55217000  1.0
  C  C43  1  0.59521000  0.74991000  0.44783000  1.0
  C  C44  1  0.27672000  0.29689000  0.56171000  1.0
  C  C45  1  0.72328000  0.70311000  0.43829000  1.0
  C  C46  1  0.15349000  0.19708000  0.52286000  1.0
  C  C47  1  0.84650000  0.80291000  0.47713000  1.0
  C  C48  1  0.26607000  0.43463000  0.61099000  1.0
  C  C49  1  0.73394000  0.56536000  0.38901000  1.0
  C  C50  1  0.38288000  0.52445000  0.65336000  1.0
  C  C51  1  0.61713000  0.47555000  0.34666000  1.0
  C  C52  1  0.50979000  0.47830000  0.64078000  1.0
  C  C53  1  0.49021000  0.52172000  0.35923000  1.0
  C  C54  1  0.00276000  0.30491000  0.75766000  1.0
  C  C55  1  0.99724000  0.69510000  0.24234000  1.0
  C  C56  1  0.07078000  0.33284000  0.88088000  1.0
  C  C57  1  0.92922000  0.66717000  0.11913000  1.0
  C  C58  1  0.13862000  0.47208000  0.94102000  1.0
  C  C59  1  0.86138000  0.52792000  0.05899000  1.0
  C  C60  1  0.30289000  0.62693000  0.10838000  1.0
  C  C61  1  0.69711000  0.37307000  0.89162000  1.0
  C  C62  1  0.06321000  0.23363000  0.94041000  1.0
  C  C63  1  0.93678000  0.76637000  0.05960000  1.0
  C  C64  1  0.98922000  0.11102000  0.87357000  1.0
  C  C65  1  0.01077000  0.88899000  0.12642000  1.0
  C  C66  1  0.92773000  0.08938000  0.74972000  1.0
  C  C67  1  0.07225000  0.91063000  0.25028000  1.0
  C  C68  1  0.71275000  0.00564000  0.26590000  1.0
  C  C69  1  0.28725000  0.99437000  0.73410000  1.0
  C  C70  1  0.67064000  0.96766000  0.13575000  1.0
  C  C71  1  0.32935000  0.03234000  0.86425000  1.0
  C  C72  1  0.59537000  0.83371000  0.06517000  1.0
  C  C73  1  0.40462000  0.16628000  0.93483000  1.0
  C  C74  1  0.43796000  0.64935000  0.06573000  1.0
  C  C75  1  0.56204000  0.35065000  0.93427000  1.0
  C  C76  1  0.71323000  0.05168000  0.06912000  1.0
  C  C77  1  0.28676000  0.94831000  0.93088000  1.0
  C  C78  1  0.79395000  0.17034000  0.13455000  1.0
  C  C79  1  0.20605000  0.82965000  0.86544000  1.0
  C  C80  1  0.83579000  0.19876000  0.26394000  1.0
  C  C81  1  0.16420000  0.80124000  0.73606000  1.0
  N  N82  1  0.93552000  0.18517000  0.69289000  1.0
  N  N83  1  0.06448000  0.81484000  0.30711000  1.0
  N  N84  1  0.23833000  0.49284000  0.04109000  1.0
  N  N85  1  0.76167000  0.50716000  0.95892000  1.0
  N  N86  1  0.79654000  0.11708000  0.32754000  1.0
  N  N87  1  0.20346000  0.88292000  0.67246000  1.0
  N  N88  1  0.50160000  0.78591000  0.12153000  1.0
  N  N89  1  0.49839000  0.21410000  0.87847000  1.0
  O  O90  1  0.75776000  0.37850000  0.58514000  1.0
  O  O91  1  0.24224000  0.62151000  0.41484000  1.0
  O  O92  1  0.66710000  0.16536000  0.54201000  1.0
  O  O93  1  0.33288000  0.83463000  0.45799000  1.0
  O  O94  1  0.03969000  0.24160000  0.49355000  1.0
  O  O95  1  0.96030000  0.75841000  0.50644000  1.0
  O  O96  1  0.10033000  0.56397000  0.89927000  1.0
  O  O97  1  0.89967000  0.43603000  0.10073000  1.0
  O  O98  1  0.62096000  0.76972000  0.95961000  1.0
  O  O99  1  0.37904000  0.23028000  0.04038000  1.0
  O  O100  1  0.16804000  0.07883000  0.52321000  1.0
  O  O101  1  0.83198000  0.92116000  0.47679000  1.0
