# generated using pymatgen
data_CdH24C32(NO3)2
_symmetry_space_group_name_H-M   'P 1'
_cell_length_a   9.54291000
_cell_length_b   12.44530000
_cell_length_c   13.82574258
_cell_angle_alpha   114.66426519
_cell_angle_beta   94.61295505
_cell_angle_gamma   97.81890000
_symmetry_Int_Tables_number   1
_chemical_formula_structural   CdH24C32(NO3)2
_chemical_formula_sum   'Cd2 H48 C64 N4 O12'
_cell_volume   1461.06527251
_cell_formula_units_Z   2
loop_
 _symmetry_equiv_pos_site_id
 _symmetry_equiv_pos_as_xyz
  1  'x, y, z'
loop_
 _atom_site_type_symbol
 _atom_site_label
 _atom_site_symmetry_multiplicity
 _atom_site_fract_x
 _atom_site_fract_y
 _atom_site_fract_z
 _atom_site_occupancy
  Cd  Cd0  1  0.60652000  0.11673000  0.16792000  1.0
  Cd  Cd1  1  0.39346000  0.88324000  0.83205000  1.0
  H  H2  1  0.11882000  0.35262000  0.23345000  1.0
  H  H3  1  0.88119000  0.64740000  0.76657000  1.0
  H  H4  1  0.73754000  0.49441000  0.48845000  1.0
  H  H5  1  0.26245000  0.50554000  0.51155000  1.0
  H  H6  1  0.87325000  0.96039000  0.82113000  1.0
  H  H7  1  0.12673000  0.03957000  0.17882000  1.0
  H  H8  1  0.53616000  0.21945000  0.99409000  1.0
  H  H9  1  0.46384000  0.78055000  0.00590000  1.0
  H  H10  1  0.34787000  0.96593000  0.21464000  1.0
  H  H11  1  0.65213000  0.03408000  0.78536000  1.0
  H  H12  1  0.37709000  0.42593000  0.28223000  1.0
  H  H13  1  0.62292000  0.57409000  0.71779000  1.0
  H  H14  1  0.15831000  0.96657000  0.29920000  1.0
  H  H15  1  0.84169000  0.03346000  0.70083000  1.0
  H  H16  1  0.08911000  0.31741000  0.38278000  1.0
  H  H17  1  0.91089000  0.68255000  0.61720000  1.0
  H  H18  1  0.92364000  0.22201000  0.15223000  1.0
  H  H19  1  0.07635000  0.77798000  0.84776000  1.0
  H  H20  1  0.86147000  0.96442000  0.13194000  1.0
  H  H21  1  0.13849000  0.03556000  0.86801000  1.0
  H  H22  1  0.65691000  0.33755000  0.90415000  1.0
  H  H23  1  0.34311000  0.66248000  0.09587000  1.0
  H  H24  1  0.77997000  0.02555000  0.32016000  1.0
  H  H25  1  0.22003000  0.97444000  0.67980000  1.0
  H  H26  1  0.39429000  0.42779000  0.97133000  1.0
  H  H27  1  0.60572000  0.57220000  0.02868000  1.0
  H  H28  1  0.49177000  0.79288000  0.40796000  1.0
  H  H29  1  0.50823000  0.20713000  0.59204000  1.0
  H  H30  1  0.13580000  0.35056000  0.92216000  1.0
  H  H31  1  0.86423000  0.64944000  0.07786000  1.0
  H  H32  1  0.29411000  0.65117000  0.30242000  1.0
  H  H33  1  0.70591000  0.34885000  0.69757000  1.0
  H  H34  1  0.92178000  0.39580000  0.93884000  1.0
  H  H35  1  0.07822000  0.60422000  0.06118000  1.0
  H  H36  1  0.83562000  0.53971000  0.32999000  1.0
  H  H37  1  0.16441000  0.46031000  0.67004000  1.0
  H  H38  1  0.81265000  0.47687000  0.18612000  1.0
  H  H39  1  0.18738000  0.52315000  0.81391000  1.0
  H  H40  1  0.74205000  0.88724000  0.41121000  1.0
  H  H41  1  0.25796000  0.11277000  0.58878000  1.0
  H  H42  1  0.60360000  0.43017000  0.27278000  1.0
  H  H43  1  0.39642000  0.56984000  0.72724000  1.0
  H  H44  1  0.58370000  0.58475000  0.32043000  1.0
  H  H45  1  0.41633000  0.41527000  0.67960000  1.0
  H  H46  1  0.90581000  0.86777000  0.27199000  1.0
  H  H47  1  0.09419000  0.13227000  0.72807000  1.0
  H  H48  1  0.04636000  0.55717000  0.28297000  1.0
  H  H49  1  0.95365000  0.44285000  0.71704000  1.0
  C  C50  1  0.17797000  0.36854000  0.17500000  1.0
  C  C51  1  0.82205000  0.63147000  0.82502000  1.0
  C  C52  1  0.85153000  0.95845000  0.97373000  1.0
  C  C53  1  0.14845000  0.04154000  0.02623000  1.0
  C  C54  1  0.69160000  0.92301000  0.94868000  1.0
  C  C55  1  0.30837000  0.07697000  0.05127000  1.0
  C  C56  1  0.39676000  0.87206000  0.31206000  1.0
  C  C57  1  0.60325000  0.12795000  0.68794000  1.0
  C  C58  1  0.85289000  0.49805000  0.49469000  1.0
  C  C59  1  0.14711000  0.50191000  0.50531000  1.0
  C  C60  1  0.92991000  0.97846000  0.89942000  1.0
  C  C61  1  0.07006000  0.02152000  0.10053000  1.0
  C  C62  1  0.40328000  0.43664000  0.13146000  1.0
  C  C63  1  0.59674000  0.56338000  0.86856000  1.0
  C  C64  1  0.90362000  0.39552000  0.42826000  1.0
  C  C65  1  0.09637000  0.60443000  0.57173000  1.0
  C  C66  1  0.80136000  0.28716000  0.34540000  1.0
  C  C67  1  0.19862000  0.71280000  0.65460000  1.0
  C  C68  1  0.65193000  0.24880000  0.00839000  1.0
  C  C69  1  0.34807000  0.75121000  0.99161000  1.0
  C  C70  1  0.24689000  0.81726000  0.30399000  1.0
  C  C71  1  0.75312000  0.18276000  0.69602000  1.0
  C  C72  1  0.94798000  0.31355000  0.04877000  1.0
  C  C73  1  0.05202000  0.68645000  0.95124000  1.0
  C  C74  1  0.43082000  0.94725000  0.26126000  1.0
  C  C75  1  0.56918000  0.05276000  0.73873000  1.0
  C  C76  1  0.10507000  0.34918000  0.07519000  1.0
  C  C77  1  0.89494000  0.65082000  0.92482000  1.0
  C  C78  1  0.32510000  0.41176000  0.20378000  1.0
  C  C79  1  0.67492000  0.58826000  0.79624000  1.0
  C  C80  1  0.13420000  0.87636000  0.29490000  1.0
  C  C81  1  0.86580000  0.12366000  0.70512000  1.0
  C  C82  1  0.05156000  0.39816000  0.43446000  1.0
  C  C83  1  0.94843000  0.60180000  0.56553000  1.0
  C  C84  1  0.86996000  0.25006000  0.09661000  1.0
  C  C85  1  0.13004000  0.74994000  0.90339000  1.0
  C  C86  1  0.92301000  0.97964000  0.07441000  1.0
  C  C87  1  0.07696000  0.02035000  0.92555000  1.0
  C  C88  1  0.72011000  0.31222000  0.95759000  1.0
  C  C89  1  0.27989000  0.68779000  0.04241000  1.0
  C  C90  1  0.67388000  0.97846000  0.31840000  1.0
  C  C91  1  0.32612000  0.02153000  0.68158000  1.0
  C  C92  1  0.33361000  0.41176000  0.02900000  1.0
  C  C93  1  0.66641000  0.58824000  0.97102000  1.0
  C  C94  1  0.51194000  0.85013000  0.36666000  1.0
  C  C95  1  0.48807000  0.14989000  0.63334000  1.0
  C  C96  1  0.18712000  0.36931000  0.00217000  1.0
  C  C97  1  0.81290000  0.63069000  0.99785000  1.0
  C  C98  1  0.21070000  0.70219000  0.29983000  1.0
  C  C99  1  0.78931000  0.29783000  0.70017000  1.0
  C  C100  1  0.86841000  0.34460000  0.97738000  1.0
  C  C101  1  0.13159000  0.65541000  0.02263000  1.0
  C  C102  1  0.77951000  0.54260000  0.25863000  1.0
  C  C103  1  0.22052000  0.45742000  0.74140000  1.0
  C  C104  1  0.65126000  0.90347000  0.36964000  1.0
  C  C105  1  0.34874000  0.09652000  0.63034000  1.0
  C  C106  1  0.95816000  0.70749000  0.27798000  1.0
  C  C107  1  0.04185000  0.29254000  0.72205000  1.0
  C  C108  1  0.62131000  0.51035000  0.25696000  1.0
  C  C109  1  0.37872000  0.48966000  0.74307000  1.0
  C  C110  1  0.99233000  0.82255000  0.28128000  1.0
  C  C111  1  0.00768000  0.17748000  0.71876000  1.0
  C  C112  1  0.06875000  0.64720000  0.28730000  1.0
  C  C113  1  0.93127000  0.35282000  0.71272000  1.0
  N  N114  1  0.72634000  0.21856000  0.07723000  1.0
  N  N115  1  0.27366000  0.78144000  0.92277000  1.0
  N  N116  1  0.56485000  0.99908000  0.26457000  1.0
  N  N117  1  0.43515000  0.00092000  0.73541000  1.0
  O  O118  1  0.63374000  0.88632000  0.85106000  1.0
  O  O119  1  0.36624000  0.11362000  0.14888000  1.0
  O  O120  1  0.67120000  0.29811000  0.32859000  1.0
  O  O121  1  0.32877000  0.70185000  0.67143000  1.0
  O  O122  1  0.84949000  0.19252000  0.29208000  1.0
  O  O123  1  0.15048000  0.80744000  0.70790000  1.0
  O  O124  1  0.62087000  0.93352000  0.02553000  1.0
  O  O125  1  0.37910000  0.06647000  0.97442000  1.0
  O  O126  1  0.54605000  0.48537000  0.15340000  1.0
  O  O127  1  0.45397000  0.51465000  0.84663000  1.0
  O  O128  1  0.81558000  0.66145000  0.26437000  1.0
  O  O129  1  0.18444000  0.33858000  0.73567000  1.0
