# generated using pymatgen
data_Ag2H22C19S3N4O5
_symmetry_space_group_name_H-M   'P 1'
_cell_length_a   7.15326000
_cell_length_b   12.52550000
_cell_length_c   14.21100000
_cell_angle_alpha   67.39750000
_cell_angle_beta   84.61430000
_cell_angle_gamma   89.64610000
_symmetry_Int_Tables_number   1
_chemical_formula_structural   Ag2H22C19S3N4O5
_chemical_formula_sum   'Ag4 H44 C38 S6 N8 O10'
_cell_volume   1169.67467212
_cell_formula_units_Z   2
loop_
 _symmetry_equiv_pos_site_id
 _symmetry_equiv_pos_as_xyz
  1  'x, y, z'
loop_
 _atom_site_type_symbol
 _atom_site_label
 _atom_site_symmetry_multiplicity
 _atom_site_fract_x
 _atom_site_fract_y
 _atom_site_fract_z
 _atom_site_occupancy
  Ag  Ag0  1  0.83125000  0.93279000  0.48566000  1.0
  Ag  Ag1  1  0.16875000  0.06720000  0.51434000  1.0
  Ag  Ag2  1  0.49142000  0.94818000  0.61415000  1.0
  Ag  Ag3  1  0.50858000  0.05182000  0.38585000  1.0
  H  H4  1  0.94686000  0.09139000  0.24802000  1.0
  H  H5  1  0.05314000  0.90861000  0.75198000  1.0
  H  H6  1  0.33510000  0.66606000  0.74507000  1.0
  H  H7  1  0.66490000  0.33394000  0.25493000  1.0
  H  H8  1  0.52708000  0.64641000  0.66467000  1.0
  H  H9  1  0.47292000  0.35360000  0.33533000  1.0
  H  H10  1  0.80231000  0.52125000  0.72717000  1.0
  H  H11  1  0.19770000  0.47876000  0.27283000  1.0
  H  H12  1  0.97989000  0.73514000  0.44348000  1.0
  H  H13  1  0.02011000  0.26486000  0.55652000  1.0
  H  H14  1  0.97207000  0.58992000  0.52944000  1.0
  H  H15  1  0.02794000  0.41008000  0.47056000  1.0
  H  H16  1  0.74592000  0.32668000  0.86891000  1.0
  H  H17  1  0.25409000  0.67332000  0.13109000  1.0
  H  H18  1  0.78087000  0.70544000  0.28739000  1.0
  H  H19  1  0.21913000  0.29456000  0.71261000  1.0
  H  H20  1  0.94060000  0.70584000  0.18495000  1.0
  H  H21  1  0.05939000  0.29416000  0.81506000  1.0
  H  H22  1  0.24003000  0.03218000  0.16111000  1.0
  H  H23  1  0.75997000  0.96782000  0.83889000  1.0
  H  H24  1  0.08634000  0.10811000  0.06694000  1.0
  H  H25  1  0.91365000  0.89189000  0.93305000  1.0
  H  H26  1  0.78475000  0.67817000  0.94941000  1.0
  H  H27  1  0.21524000  0.32183000  0.05059000  1.0
  H  H28  1  0.61123000  0.67843000  0.14951000  1.0
  H  H29  1  0.38877000  0.32157000  0.85049000  1.0
  H  H30  1  0.55324000  0.26432000  0.10935000  1.0
  H  H31  1  0.44676000  0.73568000  0.89065000  1.0
  H  H32  1  0.78963000  0.26522000  0.13563000  1.0
  H  H33  1  0.21037000  0.73478000  0.86437000  1.0
  H  H34  1  0.72796000  0.20585000  0.04705000  1.0
  H  H35  1  0.27204000  0.79414000  0.95295000  1.0
  H  H36  1  0.07903000  0.60525000  0.34997000  1.0
  H  H37  1  0.92096000  0.39474000  0.65004000  1.0
  H  H38  1  0.73357000  0.48530000  0.08956000  1.0
  H  H39  1  0.26642000  0.51470000  0.91044000  1.0
  H  H40  1  0.45346000  0.63867000  0.42988000  1.0
  H  H41  1  0.54655000  0.36133000  0.57011000  1.0
  H  H42  1  0.42207000  0.59251000  0.32319000  1.0
  H  H43  1  0.57793000  0.40748000  0.67681000  1.0
  H  H44  1  0.64632000  0.94517000  0.07357000  1.0
  H  H45  1  0.35368000  0.05483000  0.92643000  1.0
  H  H46  1  0.47491000  0.85825000  0.03992000  1.0
  H  H47  1  0.52509000  0.14175000  0.96009000  1.0
  C  C48  1  0.26078000  0.79907000  0.52731000  1.0
  C  C49  1  0.73922000  0.20093000  0.47269000  1.0
  C  C50  1  0.85081000  0.92969000  0.25252000  1.0
  C  C51  1  0.14919000  0.07031000  0.74748000  1.0
  C  C52  1  0.38203000  0.67572000  0.66633000  1.0
  C  C53  1  0.61797000  0.32428000  0.33367000  1.0
  C  C54  1  0.79560000  0.61067000  0.82978000  1.0
  C  C55  1  0.20440000  0.38933000  0.17022000  1.0
  C  C56  1  0.78505000  0.51232000  0.80682000  1.0
  C  C57  1  0.21495000  0.48768000  0.19318000  1.0
  C  C58  1  0.06854000  0.66083000  0.47822000  1.0
  C  C59  1  0.93146000  0.33916000  0.52178000  1.0
  C  C60  1  0.25395000  0.60781000  0.62937000  1.0
  C  C61  1  0.74605000  0.39220000  0.37063000  1.0
  C  C62  1  0.75398000  0.40394000  0.88646000  1.0
  C  C63  1  0.24603000  0.59606000  0.11354000  1.0
  C  C64  1  0.73414000  0.39199000  0.98915000  1.0
  C  C65  1  0.26586000  0.60802000  0.01085000  1.0
  C  C66  1  0.82662000  0.75421000  0.20602000  1.0
  C  C67  1  0.17338000  0.24579000  0.79398000  1.0
  C  C68  1  0.05541000  0.92206000  0.12148000  1.0
  C  C69  1  0.94459000  0.07794000  0.87852000  1.0
  C  C70  1  0.09780000  0.03153000  0.13758000  1.0
  C  C71  1  0.90220000  0.96847000  0.86242000  1.0
  C  C72  1  0.77673000  0.60102000  0.93176000  1.0
  C  C73  1  0.22327000  0.39898000  0.06824000  1.0
  C  C74  1  0.66700000  0.76255000  0.14248000  1.0
  C  C75  1  0.33300000  0.23745000  0.85752000  1.0
  C  C76  1  0.69951000  0.27554000  0.07448000  1.0
  C  C77  1  0.30050000  0.72446000  0.92551000  1.0
  C  C78  1  0.17179000  0.62670000  0.39756000  1.0
  C  C79  1  0.82822000  0.37329000  0.60244000  1.0
  C  C80  1  0.74678000  0.49243000  0.01018000  1.0
  C  C81  1  0.25322000  0.50757000  0.98982000  1.0
  C  C82  1  0.35752000  0.61896000  0.38299000  1.0
  C  C83  1  0.64249000  0.38104000  0.61701000  1.0
  C  C84  1  0.59290000  0.86007000  0.08240000  1.0
  C  C85  1  0.40710000  0.13993000  0.91760000  1.0
  S  S86  1  0.83439000  0.74980000  0.73044000  1.0
  S  S87  1  0.16561000  0.25020000  0.26957000  1.0
  S  S88  1  0.19768000  0.92103000  0.42754000  1.0
  S  S89  1  0.80232000  0.07897000  0.57246000  1.0
  S  S90  1  0.67725000  0.88378000  0.35005000  1.0
  S  S91  1  0.32275000  0.11622000  0.64994000  1.0
  N  N92  1  0.37272000  0.79587000  0.59580000  1.0
  N  N93  1  0.62728000  0.20413000  0.40420000  1.0
  N  N94  1  0.19013000  0.68933000  0.54176000  1.0
  N  N95  1  0.80987000  0.31066000  0.45824000  1.0
  N  N96  1  0.95577000  0.02641000  0.21889000  1.0
  N  N97  1  0.04423000  0.97359000  0.78111000  1.0
  N  N98  1  0.90743000  0.86523000  0.19470000  1.0
  N  N99  1  0.09257000  0.13477000  0.80531000  1.0
  O  O100  1  0.02924000  0.78662000  0.73320000  1.0
  O  O101  1  0.97076000  0.21338000  0.26681000  1.0
  O  O102  1  0.80996000  0.73597000  0.63380000  1.0
  O  O103  1  0.19004000  0.26403000  0.36620000  1.0
  O  O104  1  0.69583000  0.82495000  0.75564000  1.0
  O  O105  1  0.30417000  0.17506000  0.24436000  1.0
  O  O106  1  0.13101000  0.88671000  0.05844000  1.0
  O  O107  1  0.86899000  0.11329000  0.94156000  1.0
  O  O108  1  0.21201000  0.50379000  0.66563000  1.0
  O  O109  1  0.78799000  0.49620000  0.33437000  1.0
