# generated using pymatgen
data_CdH28C22(SN5)2
_symmetry_space_group_name_H-M   'P 1'
_cell_length_a   11.13190000
_cell_length_b   15.29670000
_cell_length_c   15.30070267
_cell_angle_alpha   114.30192818
_cell_angle_beta   104.04391476
_cell_angle_gamma   104.02100000
_symmetry_Int_Tables_number   1
_chemical_formula_structural   CdH28C22(SN5)2
_chemical_formula_sum   'Cd3 H84 C66 S6 N30'
_cell_volume   2124.10672068
_cell_formula_units_Z   3
loop_
 _symmetry_equiv_pos_site_id
 _symmetry_equiv_pos_as_xyz
  1  'x, y, z'
loop_
 _atom_site_type_symbol
 _atom_site_label
 _atom_site_symmetry_multiplicity
 _atom_site_fract_x
 _atom_site_fract_y
 _atom_site_fract_z
 _atom_site_occupancy
  Cd  Cd0  1  0.50000000  0.50000000  0.00000000  1.0
  Cd  Cd1  1  0.50000000  0.00000000  0.50000000  1.0
  Cd  Cd2  1  0.00000000  0.50000000  0.50000000  1.0
  H  H3  1  0.61403000  0.76734000  0.13525000  1.0
  H  H4  1  0.26895000  0.88836000  0.55262000  1.0
  H  H5  1  0.88496000  0.97294000  0.23090000  1.0
  H  H6  1  0.92641000  0.99083000  0.35829000  1.0
  H  H7  1  0.75890000  0.96307000  0.28167000  1.0
  H  H8  1  0.78850000  0.54225000  0.22823000  1.0
  H  H9  1  0.95474000  0.61234000  0.24986000  1.0
  H  H10  1  0.83082000  0.53014000  0.12090000  1.0
  H  H11  1  0.17409000  0.01942000  0.31084000  1.0
  H  H12  1  0.08145000  0.89049000  0.20441000  1.0
  H  H13  1  0.26017000  0.93856000  0.26434000  1.0
  H  H14  1  0.01593000  0.68811000  0.45503000  1.0
  H  H15  1  0.88971000  0.73563000  0.42818000  1.0
  H  H16  1  0.02358000  0.80556000  0.55284000  1.0
  H  H17  1  0.47899000  0.86480000  0.63224000  1.0
  H  H18  1  0.71603000  0.44714000  0.33559000  1.0
  H  H19  1  0.65429000  0.76902000  0.74210000  1.0
  H  H20  1  0.56830000  0.64162000  0.63263000  1.0
  H  H21  1  0.47745000  0.71832000  0.68148000  1.0
  H  H22  1  0.56030000  0.77173000  0.31407000  1.0
  H  H23  1  0.70485000  0.75003000  0.36262000  1.0
  H  H24  1  0.70992000  0.87904000  0.40927000  1.0
  H  H25  1  0.86342000  0.68893000  0.70837000  1.0
  H  H26  1  0.87719000  0.79540000  0.68581000  1.0
  H  H27  1  0.99586000  0.73531000  0.67386000  1.0
  H  H28  1  0.56058000  0.54496000  0.23320000  1.0
  H  H29  1  0.46130000  0.57179000  0.30758000  1.0
  H  H30  1  0.47038000  0.44708000  0.25279000  1.0
  H  H31  1  0.84690000  0.36779000  0.23271000  1.0
  H  H32  1  0.38017000  0.66427000  0.11158000  1.0
  H  H33  1  0.91269000  0.25778000  0.02715000  1.0
  H  H34  1  0.93626000  0.36738000  0.00937000  1.0
  H  H35  1  0.79639000  0.31841000  0.03700000  1.0
  H  H36  1  0.24615000  0.68583000  0.45767000  1.0
  H  H37  1  0.34235000  0.63739000  0.38760000  1.0
  H  H38  1  0.30088000  0.59075000  0.46998000  1.0
  H  H39  1  0.15530000  0.29143000  0.98056000  1.0
  H  H40  1  0.19159000  0.31376000  0.10948000  1.0
  H  H41  1  0.32220000  0.32588000  0.06141000  1.0
  H  H42  1  0.32707000  0.76659000  0.31173000  1.0
  H  H43  1  0.15346000  0.69204000  0.26414000  1.0
  H  H44  1  0.21724000  0.74687000  0.19423000  1.0
  H  H45  1  0.38599000  0.23267000  0.86476000  1.0
  H  H46  1  0.73105000  0.11164000  0.44738000  1.0
  H  H47  1  0.11504000  0.02706000  0.76910000  1.0
  H  H48  1  0.07360000  0.00917000  0.64171000  1.0
  H  H49  1  0.24110000  0.03693000  0.71833000  1.0
  H  H50  1  0.21151000  0.45775000  0.77178000  1.0
  H  H51  1  0.04526000  0.38765000  0.75014000  1.0
  H  H52  1  0.16918000  0.46986000  0.87910000  1.0
  H  H53  1  0.82591000  0.98057000  0.68916000  1.0
  H  H54  1  0.91855000  0.10951000  0.79560000  1.0
  H  H55  1  0.73983000  0.06143000  0.73566000  1.0
  H  H56  1  0.98407000  0.31189000  0.54497000  1.0
  H  H57  1  0.11029000  0.26437000  0.57182000  1.0
  H  H58  1  0.97643000  0.19444000  0.44717000  1.0
  H  H59  1  0.52101000  0.13521000  0.36776000  1.0
  H  H60  1  0.28397000  0.55285000  0.66441000  1.0
  H  H61  1  0.34571000  0.23098000  0.25790000  1.0
  H  H62  1  0.43169000  0.35837000  0.36736000  1.0
  H  H63  1  0.52255000  0.28168000  0.31852000  1.0
  H  H64  1  0.43969000  0.22826000  0.68592000  1.0
  H  H65  1  0.29515000  0.24997000  0.63738000  1.0
  H  H66  1  0.29008000  0.12096000  0.59073000  1.0
  H  H67  1  0.13658000  0.31107000  0.29163000  1.0
  H  H68  1  0.12281000  0.20460000  0.31419000  1.0
  H  H69  1  0.00414000  0.26468000  0.32614000  1.0
  H  H70  1  0.43942000  0.45504000  0.76680000  1.0
  H  H71  1  0.53870000  0.42820000  0.69241000  1.0
  H  H72  1  0.52962000  0.55291000  0.74720000  1.0
  H  H73  1  0.15311000  0.63222000  0.76730000  1.0
  H  H74  1  0.61983000  0.33573000  0.88842000  1.0
  H  H75  1  0.08731000  0.74222000  0.97285000  1.0
  H  H76  1  0.06374000  0.63262000  0.99063000  1.0
  H  H77  1  0.20361000  0.68158000  0.96300000  1.0
  H  H78  1  0.75385000  0.31417000  0.54233000  1.0
  H  H79  1  0.65766000  0.36261000  0.61240000  1.0
  H  H80  1  0.69913000  0.40925000  0.53002000  1.0
  H  H81  1  0.84470000  0.70858000  0.01944000  1.0
  H  H82  1  0.80841000  0.68624000  0.89052000  1.0
  H  H83  1  0.67780000  0.67413000  0.93859000  1.0
  H  H84  1  0.67293000  0.23342000  0.68827000  1.0
  H  H85  1  0.84654000  0.30796000  0.73586000  1.0
  H  H86  1  0.78276000  0.25313000  0.80577000  1.0
  C  C87  1  0.81413000  0.67478000  0.20609000  1.0
  C  C88  1  0.89809000  0.78260000  0.26642000  1.0
  C  C89  1  0.81847000  0.83290000  0.23934000  1.0
  C  C90  1  0.84827000  0.94553000  0.27931000  1.0
  C  C91  1  0.84891000  0.58534000  0.20114000  1.0
  C  C92  1  0.07523000  0.81864000  0.43164000  1.0
  C  C93  1  0.03467000  0.83149000  0.34503000  1.0
  C  C94  1  0.15367000  0.89913000  0.35131000  1.0
  C  C95  1  0.16844000  0.93888000  0.27878000  1.0
  C  C96  1  0.99729000  0.75907000  0.46894000  1.0
  C  C97  1  0.42248000  0.65470000  0.90680000  1.0
  C  C98  1  0.60801000  0.79384000  0.46873000  1.0
  C  C99  1  0.63169000  0.73349000  0.51622000  1.0
  C  C100  1  0.57925000  0.76061000  0.59363000  1.0
  C  C101  1  0.56917000  0.72064000  0.66630000  1.0
  C  C102  1  0.64776000  0.79880000  0.38426000  1.0
  C  C103  1  0.64335000  0.56818000  0.38698000  1.0
  C  C104  1  0.68954000  0.65479000  0.48641000  1.0
  C  C105  1  0.80230000  0.64846000  0.54765000  1.0
  C  C106  1  0.88975000  0.72098000  0.65987000  1.0
  C  C107  1  0.52805000  0.53097000  0.29020000  1.0
  C  C108  1  0.51588000  0.09317000  0.74776000  1.0
  C  C109  1  0.13949000  0.53112000  0.32524000  1.0
  C  C110  1  0.11573000  0.48352000  0.21744000  1.0
  C  C111  1  0.98590000  0.40616000  0.16718000  1.0
  C  C112  1  0.90328000  0.33357000  0.05456000  1.0
  C  C113  1  0.26361000  0.61568000  0.41468000  1.0
  C  C114  1  0.25634000  0.61277000  0.18127000  1.0
  C  C115  1  0.20337000  0.51332000  0.16854000  1.0
  C  C116  1  0.25481000  0.45211000  0.10088000  1.0
  C  C117  1  0.23009000  0.33988000  0.06111000  1.0
  C  C118  1  0.23760000  0.70948000  0.24074000  1.0
  C  C119  1  0.76793000  0.25213000  0.34531000  1.0
  C  C120  1  0.18587000  0.32522000  0.79391000  1.0
  C  C121  1  0.10191000  0.21739000  0.73358000  1.0
  C  C122  1  0.18154000  0.16710000  0.76066000  1.0
  C  C123  1  0.15173000  0.05447000  0.72069000  1.0
  C  C124  1  0.15109000  0.41466000  0.79886000  1.0
  C  C125  1  0.92477000  0.18135000  0.56836000  1.0
  C  C126  1  0.96533000  0.16850000  0.65497000  1.0
  C  C127  1  0.84634000  0.10087000  0.64870000  1.0
  C  C128  1  0.83156000  0.06111000  0.72122000  1.0
  C  C129  1  0.00271000  0.24093000  0.53106000  1.0
  C  C130  1  0.57752000  0.34530000  0.09320000  1.0
  C  C131  1  0.39199000  0.20616000  0.53127000  1.0
  C  C132  1  0.36831000  0.26651000  0.48378000  1.0
  C  C133  1  0.42075000  0.23939000  0.40637000  1.0
  C  C134  1  0.43082000  0.27935000  0.33369000  1.0
  C  C135  1  0.35224000  0.20120000  0.61574000  1.0
  C  C136  1  0.35665000  0.43182000  0.61302000  1.0
  C  C137  1  0.31046000  0.34521000  0.51359000  1.0
  C  C138  1  0.19769000  0.35154000  0.45235000  1.0
  C  C139  1  0.11025000  0.27902000  0.34013000  1.0
  C  C140  1  0.47194000  0.46902000  0.70979000  1.0
  C  C141  1  0.48411000  0.90682000  0.25223000  1.0
  C  C142  1  0.86051000  0.46889000  0.67476000  1.0
  C  C143  1  0.88426000  0.51647000  0.78255000  1.0
  C  C144  1  0.01409000  0.59384000  0.83282000  1.0
  C  C145  1  0.09672000  0.66643000  0.94544000  1.0
  C  C146  1  0.73639000  0.38432000  0.58532000  1.0
  C  C147  1  0.74366000  0.38724000  0.81873000  1.0
  C  C148  1  0.79662000  0.48667000  0.83145000  1.0
  C  C149  1  0.74520000  0.54789000  0.89912000  1.0
  C  C150  1  0.76991000  0.66013000  0.93889000  1.0
  C  C151  1  0.76240000  0.29052000  0.75926000  1.0
  C  C152  1  0.23208000  0.74790000  0.65469000  1.0
  S  S153  1  0.39268000  0.71244000  0.84103000  1.0
  S  S154  1  0.55204000  0.15898000  0.87123000  1.0
  S  S155  1  0.68032000  0.12865000  0.28751000  1.0
  S  S156  1  0.60732000  0.28756000  0.15897000  1.0
  S  S157  1  0.44795000  0.84100000  0.12875000  1.0
  S  S158  1  0.31970000  0.87136000  0.71249000  1.0
  N  N159  1  0.69171000  0.66063000  0.14729000  1.0
  N  N160  1  0.69778000  0.75712000  0.16819000  1.0
  N  N161  1  0.25901000  0.92436000  0.43518000  1.0
  N  N162  1  0.20901000  0.87469000  0.48199000  1.0
  N  N163  1  0.44528000  0.61481000  0.95767000  1.0
  N  N164  1  0.54449000  0.85271000  0.51341000  1.0
  N  N165  1  0.52977000  0.83186000  0.58904000  1.0
  N  N166  1  0.82370000  0.56456000  0.48898000  1.0
  N  N167  1  0.72676000  0.51775000  0.39259000  1.0
  N  N168  1  0.48752000  0.04230000  0.65700000  1.0
  N  N169  1  0.03121000  0.48653000  0.33940000  1.0
  N  N170  1  0.94090000  0.41087000  0.24295000  1.0
  N  N171  1  0.33468000  0.51084000  0.07558000  1.0
  N  N172  1  0.33402000  0.60722000  0.12518000  1.0
  N  N173  1  0.83063000  0.34286000  0.38525000  1.0
  N  N174  1  0.30830000  0.33937000  0.85272000  1.0
  N  N175  1  0.30222000  0.24288000  0.83181000  1.0
  N  N176  1  0.74100000  0.07565000  0.56483000  1.0
  N  N177  1  0.79099000  0.12531000  0.51801000  1.0
  N  N178  1  0.55473000  0.38520000  0.04234000  1.0
  N  N179  1  0.45550000  0.14729000  0.48659000  1.0
  N  N180  1  0.47022000  0.16813000  0.41095000  1.0
  N  N181  1  0.17630000  0.43544000  0.51102000  1.0
  N  N182  1  0.27324000  0.48225000  0.60741000  1.0
  N  N183  1  0.51247000  0.95769000  0.34299000  1.0
  N  N184  1  0.96879000  0.51347000  0.66060000  1.0
  N  N185  1  0.05910000  0.58913000  0.75705000  1.0
  N  N186  1  0.66531000  0.48915000  0.92441000  1.0
  N  N187  1  0.66598000  0.39278000  0.87482000  1.0
  N  N188  1  0.16936000  0.65717000  0.61474000  1.0
