# generated using pymatgen
data_ZnH28C20(N5O4)2
_symmetry_space_group_name_H-M   'P 1'
_cell_length_a   7.37970000
_cell_length_b   10.35510000
_cell_length_c   18.50600000
_cell_angle_alpha   95.38250000
_cell_angle_beta   89.99990000
_cell_angle_gamma   90.00000000
_symmetry_Int_Tables_number   1
_chemical_formula_structural   ZnH28C20(N5O4)2
_chemical_formula_sum   'Zn2 H56 C40 N20 O16'
_cell_volume   1407.94722714
_cell_formula_units_Z   2
loop_
 _symmetry_equiv_pos_site_id
 _symmetry_equiv_pos_as_xyz
  1  'x, y, z'
loop_
 _atom_site_type_symbol
 _atom_site_label
 _atom_site_symmetry_multiplicity
 _atom_site_fract_x
 _atom_site_fract_y
 _atom_site_fract_z
 _atom_site_occupancy
  Zn  Zn0  1  0.90214000  0.96121000  0.26670000  1.0
  Zn  Zn1  1  0.40215000  0.03879000  0.73330000  1.0
  H  H2  1  0.79030000  0.78884000  0.05808000  1.0
  H  H3  1  0.29030000  0.21116000  0.94192000  1.0
  H  H4  1  0.65879000  0.66217000  0.09221000  1.0
  H  H5  1  0.15880000  0.33782000  0.90779000  1.0
  H  H6  1  0.65854000  0.82174000  0.13847000  1.0
  H  H7  1  0.15854000  0.17825000  0.86153000  1.0
  H  H8  1  0.41336000  0.73046000  0.15690000  1.0
  H  H9  1  0.91336000  0.26954000  0.84310000  1.0
  H  H10  1  0.06348000  0.64479000  0.09003000  1.0
  H  H11  1  0.56348000  0.35522000  0.90997000  1.0
  H  H12  1  0.05609000  0.47913000  0.17520000  1.0
  H  H13  1  0.55610000  0.52087000  0.82480000  1.0
  H  H14  1  0.24724000  0.58285000  0.27604000  1.0
  H  H15  1  0.74724000  0.41714000  0.72396000  1.0
  H  H16  1  0.44437000  0.56180000  0.22079000  1.0
  H  H17  1  0.94436000  0.43820000  0.77921000  1.0
  H  H18  1  0.32794000  0.42478000  0.24663000  1.0
  H  H19  1  0.82794000  0.57522000  0.75337000  1.0
  H  H20  1  0.18909000  0.43048000  0.05033000  1.0
  H  H21  1  0.68910000  0.56951000  0.94967000  1.0
  H  H22  1  0.28682000  0.33247000  0.11385000  1.0
  H  H23  1  0.78682000  0.66753000  0.88614000  1.0
  H  H24  1  0.40911000  0.46634000  0.08578000  1.0
  H  H25  1  0.90911000  0.53366000  0.91422000  1.0
  H  H26  1  0.94828000  0.85512000  0.93189000  1.0
  H  H27  1  0.44828000  0.14488000  0.06811000  1.0
  H  H28  1  0.10096000  0.91158000  0.86604000  1.0
  H  H29  1  0.60096000  0.08842000  0.13396000  1.0
  H  H30  1  0.37031000  0.10933000  0.42243000  1.0
  H  H31  1  0.87031000  0.89067000  0.57757000  1.0
  H  H32  1  0.52182000  0.12947000  0.49773000  1.0
  H  H33  1  0.02182000  0.87053000  0.50227000  1.0
  H  H34  1  0.44578000  0.26756000  0.45661000  1.0
  H  H35  1  0.94577000  0.73244000  0.54339000  1.0
  H  H36  1  0.18213000  0.25642000  0.40359000  1.0
  H  H37  1  0.68213000  0.74358000  0.59641000  1.0
  H  H38  1  0.80672000  0.32867000  0.44708000  1.0
  H  H39  1  0.30672000  0.67133000  0.55292000  1.0
  H  H40  1  0.03636000  0.39514000  0.31776000  1.0
  H  H41  1  0.53635000  0.60486000  0.68224000  1.0
  H  H42  1  0.70967000  0.36443000  0.28348000  1.0
  H  H43  1  0.20966000  0.63558000  0.71652000  1.0
  H  H44  1  0.77638000  0.52989000  0.28483000  1.0
  H  H45  1  0.27638000  0.47011000  0.71517000  1.0
  H  H46  1  0.64553000  0.47643000  0.35742000  1.0
  H  H47  1  0.14553000  0.52357000  0.64258000  1.0
  H  H48  1  0.12382000  0.52895000  0.43261000  1.0
  H  H49  1  0.62382000  0.47106000  0.56739000  1.0
  H  H50  1  0.89200000  0.56906000  0.44870000  1.0
  H  H51  1  0.39199000  0.43094000  0.55130000  1.0
  H  H52  1  0.00658000  0.62511000  0.37305000  1.0
  H  H53  1  0.50658000  0.37489000  0.62695000  1.0
  H  H54  1  0.67702000  0.17543000  0.62409000  1.0
  H  H55  1  0.17702000  0.82457000  0.37591000  1.0
  H  H56  1  0.81071000  0.14249000  0.69986000  1.0
  H  H57  1  0.31071000  0.85751000  0.30014000  1.0
  C  C58  1  0.33700000  0.77117000  0.05626000  1.0
  C  C59  1  0.83700000  0.22883000  0.94374000  1.0
  C  C60  1  0.22073000  0.84364000  0.95211000  1.0
  C  C61  1  0.72073000  0.15636000  0.04789000  1.0
  C  C62  1  0.40014000  0.88062000  0.92871000  1.0
  C  C63  1  0.90014000  0.11938000  0.07129000  1.0
  C  C64  1  0.55533000  0.85802000  0.97511000  1.0
  C  C65  1  0.05532000  0.14198000  0.02489000  1.0
  C  C66  1  0.66408000  0.76617000  0.08512000  1.0
  C  C67  1  0.16408000  0.23382000  0.91488000  1.0
  C  C68  1  0.14754000  0.65533000  0.13925000  1.0
  C  C69  1  0.64754000  0.34466000  0.86075000  1.0
  C  C70  1  0.03134000  0.73471000  0.19658000  1.0
  C  C71  1  0.53134000  0.26529000  0.80342000  1.0
  C  C72  1  0.18945000  0.51860000  0.16218000  1.0
  C  C73  1  0.68945000  0.48140000  0.83781000  1.0
  C  C74  1  0.30824000  0.52307000  0.23020000  1.0
  C  C75  1  0.80824000  0.47693000  0.76979000  1.0
  C  C76  1  0.27321000  0.43232000  0.09948000  1.0
  C  C77  1  0.77321000  0.56768000  0.90052000  1.0
  C  C78  1  0.08649000  0.22586000  0.50304000  1.0
  C  C79  1  0.58649000  0.77414000  0.49696000  1.0
  C  C80  1  0.95186000  0.18247000  0.61040000  1.0
  C  C81  1  0.45186000  0.81753000  0.38960000  1.0
  C  C82  1  0.12514000  0.15192000  0.64028000  1.0
  C  C83  1  0.62514000  0.84808000  0.35972000  1.0
  C  C84  1  0.28252000  0.14774000  0.59355000  1.0
  C  C85  1  0.78252000  0.85226000  0.40645000  1.0
  C  C86  1  0.40618000  0.17152000  0.47160000  1.0
  C  C87  1  0.90619000  0.82848000  0.52839000  1.0
  C  C88  1  0.90745000  0.30634000  0.40420000  1.0
  C  C89  1  0.40745000  0.69366000  0.59580000  1.0
  C  C90  1  0.84674000  0.18407000  0.35653000  1.0
  C  C91  1  0.34674000  0.81594000  0.64347000  1.0
  C  C92  1  0.93084000  0.42237000  0.35866000  1.0
  C  C93  1  0.43083000  0.57763000  0.64134000  1.0
  C  C94  1  0.75544000  0.44950000  0.31858000  1.0
  C  C95  1  0.25544000  0.55051000  0.68142000  1.0
  C  C96  1  0.99306000  0.54293000  0.40605000  1.0
  C  C97  1  0.49306000  0.45707000  0.59395000  1.0
  N  N98  1  0.51392000  0.80148000  0.03916000  1.0
  N  N99  1  0.01392000  0.19852000  0.96084000  1.0
  N  N100  1  0.19514000  0.78750000  0.01383000  1.0
  N  N101  1  0.69514000  0.21251000  0.98617000  1.0
  N  N102  1  0.31280000  0.71913000  0.11932000  1.0
  N  N103  1  0.81280000  0.28087000  0.88068000  1.0
  N  N104  1  0.07659000  0.86723000  0.91233000  1.0
  N  N105  1  0.57659000  0.13277000  0.08767000  1.0
  N  N106  1  0.44359000  0.93634000  0.86884000  1.0
  N  N107  1  0.94359000  0.06366000  0.13116000  1.0
  N  N108  1  0.25453000  0.18026000  0.52298000  1.0
  N  N109  1  0.75453000  0.81974000  0.47702000  1.0
  N  N110  1  0.93835000  0.22271000  0.54348000  1.0
  N  N111  1  0.43835000  0.77730000  0.45652000  1.0
  N  N112  1  0.07846000  0.27698000  0.43904000  1.0
  N  N113  1  0.57846000  0.72302000  0.56096000  1.0
  N  N114  1  0.80124000  0.16857000  0.64786000  1.0
  N  N115  1  0.30124000  0.83143000  0.35214000  1.0
  N  N116  1  0.15395000  0.11446000  0.70734000  1.0
  N  N117  1  0.65395000  0.88554000  0.29266000  1.0
  O  O118  1  0.09320000  0.84746000  0.22117000  1.0
  O  O119  1  0.59320000  0.15254000  0.77883000  1.0
  O  O120  1  0.88489000  0.68603000  0.21376000  1.0
  O  O121  1  0.38489000  0.31397000  0.78625000  1.0
  O  O122  1  0.31018000  0.96103000  0.82592000  1.0
  O  O123  1  0.81018000  0.03897000  0.17408000  1.0
  O  O124  1  0.71425000  0.88428000  0.96112000  1.0
  O  O125  1  0.21425000  0.11571000  0.03888000  1.0
  O  O126  1  0.97872000  0.12623000  0.32032000  1.0
  O  O127  1  0.47872000  0.87378000  0.67968000  1.0
  O  O128  1  0.68469000  0.15106000  0.35559000  1.0
  O  O129  1  0.18469000  0.84895000  0.64440000  1.0
  O  O130  1  0.02451000  0.11590000  0.75257000  1.0
  O  O131  1  0.52451000  0.88410000  0.24743000  1.0
  O  O132  1  0.43661000  0.11578000  0.61335000  1.0
  O  O133  1  0.93661000  0.88422000  0.38665000  1.0
