# generated using pymatgen
data_ZnH16C8(N5O3)2
_symmetry_space_group_name_H-M   'P 1'
_cell_length_a   6.37474000
_cell_length_b   7.77273000
_cell_length_c   8.39115000
_cell_angle_alpha   113.53600000
_cell_angle_beta   106.27300000
_cell_angle_gamma   93.53570000
_symmetry_Int_Tables_number   1
_chemical_formula_structural   ZnH16C8(N5O3)2
_chemical_formula_sum   'Zn1 H16 C8 N10 O6'
_cell_volume   358.72776109
_cell_formula_units_Z   1
loop_
 _symmetry_equiv_pos_site_id
 _symmetry_equiv_pos_as_xyz
  1  'x, y, z'
loop_
 _atom_site_type_symbol
 _atom_site_label
 _atom_site_symmetry_multiplicity
 _atom_site_fract_x
 _atom_site_fract_y
 _atom_site_fract_z
 _atom_site_occupancy
  Zn  Zn0  1  0.50000000  0.50000000  0.00000000  1.0
  H  H1  1  0.29691000  0.81769000  0.10410000  1.0
  H  H2  1  0.70309000  0.18231000  0.89590000  1.0
  H  H3  1  0.17490000  0.64694000  0.12758000  1.0
  H  H4  1  0.82510000  0.35306000  0.87241000  1.0
  H  H5  1  0.46574000  0.68495000  0.42679000  1.0
  H  H6  1  0.53426000  0.31505000  0.57321000  1.0
  H  H7  1  0.66045000  0.79647000  0.65041000  1.0
  H  H8  1  0.33954000  0.20353000  0.34959000  1.0
  H  H9  1  0.27179000  0.74502000  0.75855000  1.0
  H  H10  1  0.72820000  0.25498000  0.24145000  1.0
  H  H11  1  0.01237000  0.76880000  0.79628000  1.0
  H  H12  1  0.98764000  0.23120000  0.20373000  1.0
  H  H13  1  0.03859000  0.08202000  0.76702000  1.0
  H  H14  1  0.96141000  0.91798000  0.23299000  1.0
  H  H15  1  0.30468000  0.06103000  0.74622000  1.0
  H  H16  1  0.69532000  0.93897000  0.25377000  1.0
  C  C17  1  0.78879000  0.68443000  0.43706000  1.0
  C  C18  1  0.21122000  0.31556000  0.56293000  1.0
  C  C19  1  0.12447000  0.80877000  0.73346000  1.0
  C  C20  1  0.87553000  0.19123000  0.26655000  1.0
  C  C21  1  0.18766000  0.02472000  0.80742000  1.0
  C  C22  1  0.81234000  0.97527000  0.19257000  1.0
  C  C23  1  0.28844000  0.13109000  0.01623000  1.0
  C  C24  1  0.71157000  0.86891000  0.98377000  1.0
  N  N25  1  0.62782000  0.72066000  0.50970000  1.0
  N  N26  1  0.37215000  0.27933000  0.49031000  1.0
  N  N27  1  0.01062000  0.72100000  0.53491000  1.0
  N  N28  1  0.98938000  0.27901000  0.46509000  1.0
  N  N29  1  0.12632000  0.67061000  0.41495000  1.0
  N  N30  1  0.87368000  0.32939000  0.58505000  1.0
  N  N31  1  0.98207000  0.60253000  0.25122000  1.0
  N  N32  1  0.01793000  0.39747000  0.74878000  1.0
  N  N33  1  0.77184000  0.60658000  0.25666000  1.0
  N  N34  1  0.22815000  0.39342000  0.74333000  1.0
  O  O35  1  0.36454000  0.31024000  0.08859000  1.0
  O  O36  1  0.63547000  0.68976000  0.91141000  1.0
  O  O37  1  0.28788000  0.03952000  0.11289000  1.0
  O  O38  1  0.71213000  0.96048000  0.88711000  1.0
  O  O39  1  0.31834000  0.70308000  0.12815000  1.0
  O  O40  1  0.68166000  0.29692000  0.87185000  1.0
