# generated using pymatgen
data_Ag4Mo4H8C12N10O13
_symmetry_space_group_name_H-M   'P 1'
_cell_length_a   9.61646000
_cell_length_b   11.16870000
_cell_length_c   12.21200000
_cell_angle_alpha   71.91180000
_cell_angle_beta   88.35690000
_cell_angle_gamma   88.48870000
_symmetry_Int_Tables_number   1
_chemical_formula_structural   Ag4Mo4H8C12N10O13
_chemical_formula_sum   'Ag8 Mo8 H16 C24 N20 O26'
_cell_volume   1246.06629385
_cell_formula_units_Z   2
loop_
 _symmetry_equiv_pos_site_id
 _symmetry_equiv_pos_as_xyz
  1  'x, y, z'
loop_
 _atom_site_type_symbol
 _atom_site_label
 _atom_site_symmetry_multiplicity
 _atom_site_fract_x
 _atom_site_fract_y
 _atom_site_fract_z
 _atom_site_occupancy
  Ag  Ag0  1  0.18768000  0.01266000  0.45719000  1.0
  Ag  Ag1  1  0.81232000  0.98734000  0.54281000  1.0
  Ag  Ag2  1  0.57651000  0.99897000  0.37064000  1.0
  Ag  Ag3  1  0.42349000  0.00104000  0.62936000  1.0
  Ag  Ag4  1  0.46469000  0.39795000  0.66366000  1.0
  Ag  Ag5  1  0.53531000  0.60205000  0.33634000  1.0
  Ag  Ag6  1  0.14912000  0.61870000  0.42080000  1.0
  Ag  Ag7  1  0.85088000  0.38130000  0.57920000  1.0
  Mo  Mo8  1  0.32941000  0.92071000  0.18627000  1.0
  Mo  Mo9  1  0.67059000  0.07929000  0.81373000  1.0
  Mo  Mo10  1  0.30289000  0.11189000  0.90566000  1.0
  Mo  Mo11  1  0.69711000  0.88811000  0.09434000  1.0
  Mo  Mo12  1  0.09093000  0.85267000  0.02836000  1.0
  Mo  Mo13  1  0.90907000  0.14733000  0.97164000  1.0
  Mo  Mo14  1  0.94413000  0.93805000  0.25305000  1.0
  Mo  Mo15  1  0.05587000  0.06195000  0.74695000  1.0
  H  H16  1  0.88844000  0.62552000  0.28156000  1.0
  H  H17  1  0.11156000  0.37448000  0.71844000  1.0
  H  H18  1  0.78685000  0.51993000  0.15330000  1.0
  H  H19  1  0.21315000  0.48007000  0.84670000  1.0
  H  H20  1  0.89686000  0.31131000  0.14578000  1.0
  H  H21  1  0.10315000  0.68870000  0.85422000  1.0
  H  H22  1  0.09351000  0.22171000  0.27259000  1.0
  H  H23  1  0.90649000  0.77829000  0.72741000  1.0
  H  H24  1  0.65586000  0.35120000  0.86738000  1.0
  H  H25  1  0.34414000  0.64880000  0.13262000  1.0
  H  H26  1  0.75651000  0.45604000  0.99809000  1.0
  H  H27  1  0.24349000  0.54396000  0.00191000  1.0
  H  H28  1  0.68802000  0.68402000  0.97291000  1.0
  H  H29  1  0.31198000  0.31598000  0.02709000  1.0
  H  H30  1  0.52660000  0.79311000  0.81749000  1.0
  H  H31  1  0.47339000  0.20688000  0.18251000  1.0
  C  C32  1  0.20752000  0.32453000  0.42454000  1.0
  C  C33  1  0.79248000  0.67547000  0.57546000  1.0
  C  C34  1  0.09518000  0.37587000  0.34434000  1.0
  C  C35  1  0.90482000  0.62413000  0.65566000  1.0
  C  C36  1  0.93130000  0.53614000  0.27720000  1.0
  C  C37  1  0.06870000  0.46386000  0.72280000  1.0
  C  C38  1  0.87548000  0.47574000  0.20489000  1.0
  C  C39  1  0.12452000  0.52426000  0.79511000  1.0
  C  C40  1  0.93473000  0.36232000  0.20145000  1.0
  C  C41  1  0.06528000  0.63769000  0.79855000  1.0
  C  C42  1  0.04614000  0.31115000  0.27276000  1.0
  C  C43  1  0.95386000  0.68885000  0.72724000  1.0
  C  C44  1  0.41041000  0.68812000  0.66577000  1.0
  C  C45  1  0.58959000  0.31188000  0.33423000  1.0
  C  C46  1  0.50675000  0.63007000  0.75919000  1.0
  C  C47  1  0.49325000  0.36993000  0.24081000  1.0
  C  C48  1  0.62911000  0.44872000  0.85940000  1.0
  C  C49  1  0.37089000  0.55128000  0.14059000  1.0
  C  C50  1  0.68423000  0.50818000  0.93273000  1.0
  C  C51  1  0.31577000  0.49182000  0.06727000  1.0
  C  C52  1  0.64733000  0.63323000  0.91815000  1.0
  C  C53  1  0.35267000  0.36676000  0.08185000  1.0
  C  C54  1  0.55676000  0.69516000  0.83043000  1.0
  C  C55  1  0.44324000  0.30484000  0.16957000  1.0
  N  N56  1  0.25524000  0.20413000  0.45886000  1.0
  N  N57  1  0.74477000  0.79587000  0.54114000  1.0
  N  N58  1  0.35512000  0.20009000  0.53521000  1.0
  N  N59  1  0.64488000  0.79991000  0.46479000  1.0
  N  N60  1  0.36641000  0.31418000  0.54580000  1.0
  N  N61  1  0.63359000  0.68582000  0.45420000  1.0
  N  N62  1  0.27632000  0.39343000  0.47711000  1.0
  N  N63  1  0.72368000  0.60657000  0.52289000  1.0
  N  N64  1  0.03963000  0.48898000  0.34487000  1.0
  N  N65  1  0.96037000  0.51102000  0.65513000  1.0
  N  N66  1  0.34838000  0.62153000  0.60708000  1.0
  N  N67  1  0.65162000  0.37847000  0.39292000  1.0
  N  N68  1  0.26472000  0.70222000  0.53321000  1.0
  N  N69  1  0.73528000  0.29778000  0.46679000  1.0
  N  N70  1  0.27435000  0.81582000  0.54502000  1.0
  N  N71  1  0.72566000  0.18418000  0.45498000  1.0
  N  N72  1  0.36640000  0.80965000  0.62803000  1.0
  N  N73  1  0.63360000  0.19035000  0.37197000  1.0
  N  N74  1  0.54311000  0.50772000  0.77409000  1.0
  N  N75  1  0.45689000  0.49228000  0.22591000  1.0
  O  O76  1  0.27795000  0.89277000  0.01726000  1.0
  O  O77  1  0.72205000  0.10723000  0.98274000  1.0
  O  O78  1  0.05014000  0.86693000  0.88521000  1.0
  O  O79  1  0.94986000  0.13307000  0.11479000  1.0
  O  O80  1  0.33789000  0.76140000  0.26306000  1.0
  O  O81  1  0.66211000  0.23860000  0.73694000  1.0
  O  O82  1  0.51651000  0.93191000  0.12519000  1.0
  O  O83  1  0.48349000  0.06809000  0.87481000  1.0
  O  O84  1  0.12596000  0.92983000  0.17401000  1.0
  O  O85  1  0.87404000  0.07017000  0.82599000  1.0
  O  O86  1  0.24681000  0.04120000  0.77615000  1.0
  O  O87  1  0.75319000  0.95880000  0.22385000  1.0
  O  O88  1  0.09038000  0.69483000  0.09834000  1.0
  O  O89  1  0.90962000  0.30517000  0.90166000  1.0
  O  O90  1  0.95149000  0.78125000  0.33528000  1.0
  O  O91  1  0.04851000  0.21875000  0.66472000  1.0
  O  O92  1  0.30053000  0.27054000  0.83462000  1.0
  O  O93  1  0.69947000  0.72947000  0.16538000  1.0
  O  O94  1  0.31507000  0.10705000  0.05213000  1.0
  O  O95  1  0.68493000  0.89295000  0.94787000  1.0
  O  O96  1  0.34932000  0.99635000  0.29025000  1.0
  O  O97  1  0.65068000  0.00366000  0.70975000  1.0
  O  O98  1  0.98109000  0.01578000  0.35257000  1.0
  O  O99  1  0.01891000  0.98422000  0.64743000  1.0
  O  O100  1  0.09025000  0.08869000  0.92363000  1.0
  O  O101  1  0.90975000  0.91131000  0.07637000  1.0
