# generated using pymatgen
data_BaH9C7NO7
_symmetry_space_group_name_H-M   'P 1'
_cell_length_a   6.57769000
_cell_length_b   11.10430000
_cell_length_c   13.58270000
_cell_angle_alpha   90.00010000
_cell_angle_beta   90.00000000
_cell_angle_gamma   93.99190000
_symmetry_Int_Tables_number   1
_chemical_formula_structural   BaH9C7NO7
_chemical_formula_sum   'Ba4 H36 C28 N4 O28'
_cell_volume   989.68223698
_cell_formula_units_Z   4
loop_
 _symmetry_equiv_pos_site_id
 _symmetry_equiv_pos_as_xyz
  1  'x, y, z'
loop_
 _atom_site_type_symbol
 _atom_site_label
 _atom_site_symmetry_multiplicity
 _atom_site_fract_x
 _atom_site_fract_y
 _atom_site_fract_z
 _atom_site_occupancy
  Ba  Ba0  1  0.07625000  0.07166000  0.63688000  1.0
  Ba  Ba1  1  0.42374000  0.92834000  0.13688000  1.0
  Ba  Ba2  1  0.92375000  0.92833000  0.36312000  1.0
  Ba  Ba3  1  0.57625000  0.07166000  0.86312000  1.0
  H  H4  1  0.94963000  0.77877000  0.58533000  1.0
  H  H5  1  0.55037000  0.22123000  0.08533000  1.0
  H  H6  1  0.05037000  0.22123000  0.41467000  1.0
  H  H7  1  0.44963000  0.77877000  0.91467000  1.0
  H  H8  1  0.73250000  0.47171000  0.65430000  1.0
  H  H9  1  0.76750000  0.52829000  0.15430000  1.0
  H  H10  1  0.26750000  0.52829000  0.34570000  1.0
  H  H11  1  0.23250000  0.47171000  0.84570000  1.0
  H  H12  1  0.00155000  0.39852000  0.58830000  1.0
  H  H13  1  0.49845000  0.60148000  0.08830000  1.0
  H  H14  1  0.99845000  0.60148000  0.41170000  1.0
  H  H15  1  0.50155000  0.39852000  0.91170000  1.0
  H  H16  1  0.15263000  0.61183000  0.58913000  1.0
  H  H17  1  0.34737000  0.38817000  0.08913000  1.0
  H  H18  1  0.84737000  0.38817000  0.41087000  1.0
  H  H19  1  0.65263000  0.61183000  0.91087000  1.0
  H  H20  1  0.38023000  0.96704000  0.42351000  1.0
  H  H21  1  0.11977000  0.03296000  0.92351000  1.0
  H  H22  1  0.61977000  0.03296000  0.57649000  1.0
  H  H23  1  0.88023000  0.96704000  0.07649000  1.0
  H  H24  1  0.37810000  0.10474000  0.44141000  1.0
  H  H25  1  0.12190000  0.89526000  0.94141000  1.0
  H  H26  1  0.62190000  0.89526000  0.55859000  1.0
  H  H27  1  0.87810000  0.10474000  0.05859000  1.0
  H  H28  1  0.88930000  0.86789000  0.81093000  1.0
  H  H29  1  0.61070000  0.13211000  0.31093000  1.0
  H  H30  1  0.11070000  0.13211000  0.18907000  1.0
  H  H31  1  0.38930000  0.86789000  0.68907000  1.0
  H  H32  1  0.18654000  0.79569000  0.55883000  1.0
  H  H33  1  0.31345000  0.20431000  0.05883000  1.0
  H  H34  1  0.81345000  0.20431000  0.44117000  1.0
  H  H35  1  0.68655000  0.79569000  0.94116000  1.0
  H  H36  1  0.77814000  0.83790000  0.71300000  1.0
  H  H37  1  0.72186000  0.16210000  0.21300000  1.0
  H  H38  1  0.22186000  0.16210000  0.28700000  1.0
  H  H39  1  0.27814000  0.83790000  0.78700000  1.0
  C  C40  1  0.57056000  0.45936000  0.63813000  1.0
  C  C41  1  0.92943000  0.54064000  0.13813000  1.0
  C  C42  1  0.42944000  0.54064000  0.36187000  1.0
  C  C43  1  0.07057000  0.45936000  0.86187000  1.0
  C  C44  1  0.47405000  0.34341000  0.63368000  1.0
  C  C45  1  0.02595000  0.65659000  0.13368000  1.0
  C  C46  1  0.52595000  0.65659000  0.36632000  1.0
  C  C47  1  0.97405000  0.34341000  0.86632000  1.0
  C  C48  1  0.16403000  0.41921000  0.60082000  1.0
  C  C49  1  0.33597000  0.58079000  0.10082000  1.0
  C  C50  1  0.83597000  0.58079000  0.39918000  1.0
  C  C51  1  0.66403000  0.41921000  0.89918000  1.0
  C  C52  1  0.59460000  0.23377000  0.64844000  1.0
  C  C53  1  0.90540000  0.76623000  0.14844000  1.0
  C  C54  1  0.40540000  0.76623000  0.35156000  1.0
  C  C55  1  0.09460000  0.23377000  0.85156000  1.0
  C  C56  1  0.55892000  0.68471000  0.62096000  1.0
  C  C57  1  0.94108000  0.31529000  0.12096000  1.0
  C  C58  1  0.44108000  0.31529000  0.37904000  1.0
  C  C59  1  0.05892000  0.68471000  0.87904000  1.0
  C  C60  1  0.45701000  0.55903000  0.62106000  1.0
  C  C61  1  0.04299000  0.44097000  0.12106000  1.0
  C  C62  1  0.54299000  0.44097000  0.37894000  1.0
  C  C63  1  0.95701000  0.55903000  0.87894000  1.0
  C  C64  1  0.24882000  0.53779000  0.60219000  1.0
  C  C65  1  0.25117000  0.46221000  0.10219000  1.0
  C  C66  1  0.75118000  0.46220000  0.39781000  1.0
  C  C67  1  0.74883000  0.53780000  0.89781000  1.0
  N  N68  1  0.27313000  0.32325000  0.61593000  1.0
  N  N69  1  0.22686000  0.67675000  0.11592000  1.0
  N  N70  1  0.72687000  0.67675000  0.38407000  1.0
  N  N71  1  0.77313000  0.32325000  0.88408000  1.0
  O  O72  1  0.05402000  0.83110000  0.55039000  1.0
  O  O73  1  0.44598000  0.16890000  0.05039000  1.0
  O  O74  1  0.94598000  0.16890000  0.44961000  1.0
  O  O75  1  0.55402000  0.83110000  0.94961000  1.0
  O  O76  1  0.82293000  0.90767000  0.75557000  1.0
  O  O77  1  0.67707000  0.09233000  0.25557000  1.0
  O  O78  1  0.17707000  0.09233000  0.24443000  1.0
  O  O79  1  0.32293000  0.90767000  0.74443000  1.0
  O  O80  1  0.29740000  0.02751000  0.45559000  1.0
  O  O81  1  0.20260000  0.97249000  0.95559000  1.0
  O  O82  1  0.70260000  0.97249000  0.54441000  1.0
  O  O83  1  0.79740000  0.02751000  0.04441000  1.0
  O  O84  1  0.49345000  0.13081000  0.65709000  1.0
  O  O85  1  0.00654000  0.86919000  0.15709000  1.0
  O  O86  1  0.50654000  0.86919000  0.34291000  1.0
  O  O87  1  0.99346000  0.13081000  0.84291000  1.0
  O  O88  1  0.78593000  0.24828000  0.65226000  1.0
  O  O89  1  0.71407000  0.75172000  0.15226000  1.0
  O  O90  1  0.21407000  0.75172000  0.34774000  1.0
  O  O91  1  0.28594000  0.24828000  0.84774000  1.0
  O  O92  1  0.74244000  0.69873000  0.64974000  1.0
  O  O93  1  0.75756000  0.30127000  0.14974000  1.0
  O  O94  1  0.25756000  0.30127000  0.35026000  1.0
  O  O95  1  0.24244000  0.69873000  0.85026000  1.0
  O  O96  1  0.45432000  0.77116000  0.59143000  1.0
  O  O97  1  0.04567000  0.22884000  0.09143000  1.0
  O  O98  1  0.54568000  0.22884000  0.40857000  1.0
  O  O99  1  0.95432000  0.77116000  0.90857000  1.0
