# generated using pymatgen
data_NiH16C14(NO3)2
_symmetry_space_group_name_H-M   'P 1'
_cell_length_a   7.20906000
_cell_length_b   9.06641000
_cell_length_c   11.65850000
_cell_angle_alpha   72.05720000
_cell_angle_beta   83.25300000
_cell_angle_gamma   75.61720000
_symmetry_Int_Tables_number   1
_chemical_formula_structural   NiH16C14(NO3)2
_chemical_formula_sum   'Ni2 H32 C28 N4 O12'
_cell_volume   701.52727028
_cell_formula_units_Z   2
loop_
 _symmetry_equiv_pos_site_id
 _symmetry_equiv_pos_as_xyz
  1  'x, y, z'
loop_
 _atom_site_type_symbol
 _atom_site_label
 _atom_site_symmetry_multiplicity
 _atom_site_fract_x
 _atom_site_fract_y
 _atom_site_fract_z
 _atom_site_occupancy
  Ni  Ni0  1  0.00000000  0.50000000  0.50000000  1.0
  Ni  Ni1  1  0.50000000  0.50000000  0.00000000  1.0
  H  H2  1  0.06458000  0.64971000  0.26275000  1.0
  H  H3  1  0.93541000  0.35029000  0.73726000  1.0
  H  H4  1  0.91186000  0.53240000  0.29098000  1.0
  H  H5  1  0.08814000  0.46760000  0.70903000  1.0
  H  H6  1  0.32624000  0.37404000  0.38348000  1.0
  H  H7  1  0.67376000  0.62595000  0.61652000  1.0
  H  H8  1  0.35132000  0.36088000  0.52792000  1.0
  H  H9  1  0.64868000  0.63911000  0.47208000  1.0
  H  H10  1  0.22891000  0.86083000  0.75088000  1.0
  H  H11  1  0.77109000  0.13916000  0.24913000  1.0
  H  H12  1  0.25134000  0.14399000  0.69387000  1.0
  H  H13  1  0.74865000  0.85601000  0.30613000  1.0
  H  H14  1  0.29054000  0.16705000  0.31874000  1.0
  H  H15  1  0.70947000  0.83295000  0.68126000  1.0
  H  H16  1  0.25195000  0.88640000  0.37527000  1.0
  H  H17  1  0.74806000  0.11359000  0.62474000  1.0
  H  H18  1  0.42888000  0.59737000  0.76252000  1.0
  H  H19  1  0.57112000  0.40263000  0.23747000  1.0
  H  H20  1  0.62720000  0.46699000  0.79920000  1.0
  H  H21  1  0.37280000  0.53301000  0.20080000  1.0
  H  H22  1  0.09559000  0.97348000  0.20489000  1.0
  H  H23  1  0.90442000  0.02652000  0.79511000  1.0
  H  H24  1  0.15195000  0.49886000  0.03526000  1.0
  H  H25  1  0.84805000  0.50114000  0.96474000  1.0
  H  H26  1  0.21135000  0.51956000  0.88911000  1.0
  H  H27  1  0.78866000  0.48044000  0.11089000  1.0
  H  H28  1  0.38310000  0.99198000  0.85885000  1.0
  H  H29  1  0.61689000  0.00803000  0.14114000  1.0
  H  H30  1  0.08137000  0.25996000  0.16931000  1.0
  H  H31  1  0.91863000  0.74005000  0.83069000  1.0
  H  H32  1  0.36706000  0.28041000  0.81982000  1.0
  H  H33  1  0.63294000  0.71959000  0.18018000  1.0
  C  C34  1  0.23973000  0.92828000  0.65608000  1.0
  C  C35  1  0.76027000  0.07172000  0.34392000  1.0
  C  C36  1  0.23478000  0.85656000  0.56600000  1.0
  C  C37  1  0.76522000  0.14344000  0.43400000  1.0
  C  C38  1  0.25559000  0.08518000  0.62502000  1.0
  C  C39  1  0.74441000  0.91481000  0.37498000  1.0
  C  C40  1  0.27166000  0.10015000  0.41294000  1.0
  C  C41  1  0.72835000  0.89984000  0.58706000  1.0
  C  C42  1  0.27000000  0.17255000  0.50335000  1.0
  C  C43  1  0.73000000  0.82745000  0.49665000  1.0
  C  C44  1  0.25295000  0.94395000  0.44443000  1.0
  C  C45  1  0.74706000  0.05605000  0.55557000  1.0
  C  C46  1  0.19889000  0.69449000  0.59645000  1.0
  C  C47  1  0.80111000  0.30550000  0.40355000  1.0
  C  C48  1  0.24140000  0.96388000  0.03416000  1.0
  C  C49  1  0.75860000  0.03612000  0.96584000  1.0
  C  C50  1  0.15482000  0.04119000  0.12059000  1.0
  C  C51  1  0.84519000  0.95881000  0.87941000  1.0
  C  C52  1  0.31239000  0.05300000  0.92464000  1.0
  C  C53  1  0.68761000  0.94700000  0.07536000  1.0
  C  C54  1  0.14780000  0.20199000  0.10056000  1.0
  C  C55  1  0.85220000  0.79801000  0.89944000  1.0
  C  C56  1  0.22783000  0.28833000  0.99294000  1.0
  C  C57  1  0.77217000  0.71168000  0.00706000  1.0
  C  C58  1  0.30524000  0.21359000  0.90360000  1.0
  C  C59  1  0.69476000  0.78641000  0.09640000  1.0
  C  C60  1  0.27897000  0.78724000  0.06407000  1.0
  C  C61  1  0.72103000  0.21276000  0.93593000  1.0
  N  N62  1  0.27549000  0.33489000  0.47103000  1.0
  N  N63  1  0.72451000  0.66510000  0.52897000  1.0
  N  N64  1  0.23988000  0.44839000  0.97569000  1.0
  N  N65  1  0.76013000  0.55162000  0.02431000  1.0
  O  O66  1  0.96058000  0.61019000  0.31810000  1.0
  O  O67  1  0.03942000  0.38981000  0.68191000  1.0
  O  O68  1  0.17053000  0.64831000  0.50855000  1.0
  O  O69  1  0.82946000  0.35169000  0.49145000  1.0
  O  O70  1  0.19596000  0.60966000  0.70842000  1.0
  O  O71  1  0.80404000  0.39034000  0.29158000  1.0
  O  O72  1  0.55639000  0.58023000  0.79456000  1.0
  O  O73  1  0.44362000  0.41977000  0.20544000  1.0
  O  O74  1  0.35334000  0.72360000  0.98022000  1.0
  O  O75  1  0.64667000  0.27641000  0.01977000  1.0
  O  O76  1  0.24720000  0.70802000  0.17308000  1.0
  O  O77  1  0.75279000  0.29199000  0.82692000  1.0
