# generated using pymatgen
data_HgH11C11Br2N3
_symmetry_space_group_name_H-M   'P 1'
_cell_length_a   8.32779000
_cell_length_b   12.79100000
_cell_length_c   12.87230000
_cell_angle_alpha   90.00000000
_cell_angle_beta   98.47780000
_cell_angle_gamma   90.00000000
_symmetry_Int_Tables_number   1
_chemical_formula_structural   HgH11C11Br2N3
_chemical_formula_sum   'Hg4 H44 C44 Br8 N12'
_cell_volume   1356.18454126
_cell_formula_units_Z   4
loop_
 _symmetry_equiv_pos_site_id
 _symmetry_equiv_pos_as_xyz
  1  'x, y, z'
loop_
 _atom_site_type_symbol
 _atom_site_label
 _atom_site_symmetry_multiplicity
 _atom_site_fract_x
 _atom_site_fract_y
 _atom_site_fract_z
 _atom_site_occupancy
  Hg  Hg0  1  0.26082000  0.67392000  0.74874000  1.0
  Hg  Hg1  1  0.23918000  0.17393000  0.75126000  1.0
  Hg  Hg2  1  0.73918000  0.32608000  0.25126000  1.0
  Hg  Hg3  1  0.76082000  0.82607000  0.24874000  1.0
  H  H4  1  0.30402000  0.78535000  0.96719000  1.0
  H  H5  1  0.19598000  0.28535000  0.53281000  1.0
  H  H6  1  0.69597000  0.21465000  0.03281000  1.0
  H  H7  1  0.80402000  0.71465000  0.46719000  1.0
  H  H8  1  0.15426000  0.55021000  0.14332000  1.0
  H  H9  1  0.34574000  0.05021000  0.35668000  1.0
  H  H10  1  0.84573000  0.44979000  0.85668000  1.0
  H  H11  1  0.65427000  0.94979000  0.64332000  1.0
  H  H12  1  0.28519000  0.37252000  0.14273000  1.0
  H  H13  1  0.21481000  0.87252000  0.35727000  1.0
  H  H14  1  0.71481000  0.62748000  0.85727000  1.0
  H  H15  1  0.78519000  0.12748000  0.64273000  1.0
  H  H16  1  0.40080000  0.31662000  0.98148000  1.0
  H  H17  1  0.09920000  0.81662000  0.51852000  1.0
  H  H18  1  0.59920000  0.68338000  0.01852000  1.0
  H  H19  1  0.90080000  0.18338000  0.48148000  1.0
  H  H20  1  0.38662000  0.44054000  0.83149000  1.0
  H  H21  1  0.11338000  0.94054000  0.66852000  1.0
  H  H22  1  0.61338000  0.55946000  0.16851000  1.0
  H  H23  1  0.88662000  0.05946000  0.33148000  1.0
  H  H24  1  0.98920000  0.67387000  0.93438000  1.0
  H  H25  1  0.51080000  0.17388000  0.56562000  1.0
  H  H26  1  0.01080000  0.32612000  0.06562000  1.0
  H  H27  1  0.48920000  0.82613000  0.43438000  1.0
  H  H28  1  0.08279000  0.70713000  0.06288000  1.0
  H  H29  1  0.41721000  0.20712000  0.43712000  1.0
  H  H30  1  0.91720000  0.29287000  0.93712000  1.0
  H  H31  1  0.58280000  0.79287000  0.56289000  1.0
  H  H32  1  0.31390000  0.94917000  0.87507000  1.0
  H  H33  1  0.18610000  0.44917000  0.62492000  1.0
  H  H34  1  0.68610000  0.05082000  0.12492000  1.0
  H  H35  1  0.81389000  0.55082000  0.37508000  1.0
  H  H36  1  0.85905000  0.80844000  0.92767000  1.0
  H  H37  1  0.64096000  0.30844000  0.57234000  1.0
  H  H38  1  0.14095000  0.19156000  0.07234000  1.0
  H  H39  1  0.35904000  0.69156000  0.42766000  1.0
  H  H40  1  0.72376000  0.97523000  0.86916000  1.0
  H  H41  1  0.77625000  0.47523000  0.63084000  1.0
  H  H42  1  0.27624000  0.02477000  0.13084000  1.0
  H  H43  1  0.22375000  0.52477000  0.36916000  1.0
  H  H44  1  0.88994000  0.12334000  0.81391000  1.0
  H  H45  1  0.61006000  0.62334000  0.68610000  1.0
  H  H46  1  0.11005000  0.87666000  0.18610000  1.0
  H  H47  1  0.38994000  0.37666000  0.31390000  1.0
  C  C48  1  0.19953000  0.58641000  0.98692000  1.0
  C  C49  1  0.30047000  0.08641000  0.51308000  1.0
  C  C50  1  0.80046000  0.41358000  0.01308000  1.0
  C  C51  1  0.69954000  0.91359000  0.48692000  1.0
  C  C52  1  0.20616000  0.52231000  0.07541000  1.0
  C  C53  1  0.29384000  0.02231000  0.42459000  1.0
  C  C54  1  0.79384000  0.47770000  0.92459000  1.0
  C  C55  1  0.70617000  0.97770000  0.57541000  1.0
  C  C56  1  0.27833000  0.42408000  0.07474000  1.0
  C  C57  1  0.22167000  0.92409000  0.42526000  1.0
  C  C58  1  0.72166000  0.57591000  0.92526000  1.0
  C  C59  1  0.77834000  0.07591000  0.57474000  1.0
  C  C60  1  0.34301000  0.39259000  0.98592000  1.0
  C  C61  1  0.15699000  0.89259000  0.51408000  1.0
  C  C62  1  0.65699000  0.60742000  0.01407000  1.0
  C  C63  1  0.84302000  0.10741000  0.48592000  1.0
  C  C64  1  0.33488000  0.46147000  0.90163000  1.0
  C  C65  1  0.16513000  0.96148000  0.59837000  1.0
  C  C66  1  0.66512000  0.53852000  0.09837000  1.0
  C  C67  1  0.83488000  0.03852000  0.40163000  1.0
  C  C68  1  0.10738000  0.68809000  0.98307000  1.0
  C  C69  1  0.39262000  0.18809000  0.51693000  1.0
  C  C70  1  0.89262000  0.31191000  0.01693000  1.0
  C  C71  1  0.60738000  0.81191000  0.48307000  1.0
  C  C72  1  0.18284000  0.95187000  0.87509000  1.0
  C  C73  1  0.31716000  0.45187000  0.62491000  1.0
  C  C74  1  0.81716000  0.04812000  0.12491000  1.0
  C  C75  1  0.68284000  0.54813000  0.37509000  1.0
  C  C76  1  0.09974000  0.86401000  0.90659000  1.0
  C  C77  1  0.40026000  0.36401000  0.59341000  1.0
  C  C78  1  0.90026000  0.13599000  0.09341000  1.0
  C  C79  1  0.59974000  0.63599000  0.40659000  1.0
  C  C80  1  0.93077000  0.87274000  0.90360000  1.0
  C  C81  1  0.56923000  0.37275000  0.59640000  1.0
  C  C82  1  0.06923000  0.12726000  0.09640000  1.0
  C  C83  1  0.43077000  0.62725000  0.40360000  1.0
  C  C84  1  0.85410000  0.96604000  0.87075000  1.0
  C  C85  1  0.64590000  0.46604000  0.62926000  1.0
  C  C86  1  0.14590000  0.03396000  0.12926000  1.0
  C  C87  1  0.35410000  0.53396000  0.37074000  1.0
  C  C88  1  0.94474000  0.04866000  0.84000000  1.0
  C  C89  1  0.55526000  0.54866000  0.66000000  1.0
  C  C90  1  0.05526000  0.95134000  0.16000000  1.0
  C  C91  1  0.44473000  0.45134000  0.34000000  1.0
  Br  Br92  1  0.96047000  0.67806000  0.66348000  1.0
  Br  Br93  1  0.53953000  0.17806000  0.83652000  1.0
  Br  Br94  1  0.03953000  0.32194000  0.33652000  1.0
  Br  Br95  1  0.46047000  0.82194000  0.16348000  1.0
  Br  Br96  1  0.50401000  0.80360000  0.77469000  1.0
  Br  Br97  1  0.99600000  0.30362000  0.72530000  1.0
  Br  Br98  1  0.49599000  0.19639000  0.22532000  1.0
  Br  Br99  1  0.00401000  0.69639000  0.27468000  1.0
  N  N100  1  0.26453000  0.55603000  0.90192000  1.0
  N  N101  1  0.23547000  0.05603000  0.59809000  1.0
  N  N102  1  0.73547000  0.44397000  0.09808000  1.0
  N  N103  1  0.76453000  0.94397000  0.40191000  1.0
  N  N104  1  0.18579000  0.77307000  0.93520000  1.0
  N  N105  1  0.31421000  0.27308000  0.56480000  1.0
  N  N106  1  0.81420000  0.22692000  0.06480000  1.0
  N  N107  1  0.68579000  0.72692000  0.43520000  1.0
  N  N108  1  0.10608000  0.04024000  0.84193000  1.0
  N  N109  1  0.39392000  0.54024000  0.65807000  1.0
  N  N110  1  0.89392000  0.95976000  0.15807000  1.0
  N  N111  1  0.60607000  0.45976000  0.34192000  1.0
