# generated using pymatgen
data_EuH9C23N4(OF3)6
_symmetry_space_group_name_H-M   'P 1'
_cell_length_a   10.86210000
_cell_length_b   12.35070000
_cell_length_c   14.15630000
_cell_angle_alpha   109.38600000
_cell_angle_beta   93.18120000
_cell_angle_gamma   115.31100000
_symmetry_Int_Tables_number   1
_chemical_formula_structural   EuH9C23N4(OF3)6
_chemical_formula_sum   'Eu2 H18 C46 N8 O12 F36'
_cell_volume   1575.48871653
_cell_formula_units_Z   2
loop_
 _symmetry_equiv_pos_site_id
 _symmetry_equiv_pos_as_xyz
  1  'x, y, z'
loop_
 _atom_site_type_symbol
 _atom_site_label
 _atom_site_symmetry_multiplicity
 _atom_site_fract_x
 _atom_site_fract_y
 _atom_site_fract_z
 _atom_site_occupancy
  Eu  Eu0  1  0.47692000  0.47615000  0.74131000  1.0
  Eu  Eu1  1  0.52308000  0.52385000  0.25869000  1.0
  H  H2  1  0.67504000  0.34155000  0.11049000  1.0
  H  H3  1  0.32496000  0.65845000  0.88951000  1.0
  H  H4  1  0.26327000  0.58715000  0.36257000  1.0
  H  H5  1  0.73673000  0.41285000  0.63743000  1.0
  H  H6  1  0.32110000  0.65530000  0.68554000  1.0
  H  H7  1  0.67890000  0.34470000  0.31446000  1.0
  H  H8  1  0.79121000  0.32378000  0.95945000  1.0
  H  H9  1  0.20879000  0.67622000  0.04055000  1.0
  H  H10  1  0.73683000  0.41143000  0.83287000  1.0
  H  H11  1  0.26318000  0.58857000  0.16713000  1.0
  H  H12  1  0.87108000  0.92900000  0.89522000  1.0
  H  H13  1  0.12892000  0.07100000  0.10478000  1.0
  H  H14  1  0.98665000  0.22441000  0.76536000  1.0
  H  H15  1  0.01335000  0.77559000  0.23464000  1.0
  H  H16  1  0.20543000  0.67204000  0.53420000  1.0
  H  H17  1  0.79457000  0.32796000  0.46580000  1.0
  H  H18  1  0.28927000  0.01038000  0.51255000  1.0
  H  H19  1  0.71073000  0.98962000  0.48745000  1.0
  C  C20  1  0.64778000  0.80982000  0.84647000  1.0
  C  C21  1  0.35222000  0.19018000  0.15353000  1.0
  C  C22  1  0.78565000  0.83025000  0.86108000  1.0
  C  C23  1  0.21435000  0.16975000  0.13892000  1.0
  C  C24  1  0.81473000  0.72540000  0.83335000  1.0
  C  C25  1  0.18527000  0.27460000  0.16664000  1.0
  C  C26  1  0.96951000  0.75587000  0.85415000  1.0
  C  C27  1  0.03049000  0.24413000  0.14585000  1.0
  C  C28  1  0.62306000  0.92982000  0.88352000  1.0
  C  C29  1  0.37694000  0.07018000  0.11648000  1.0
  C  C30  1  0.19693000  0.25220000  0.79360000  1.0
  C  C31  1  0.80307000  0.74780000  0.20640000  1.0
  C  C32  1  0.09443000  0.28240000  0.76398000  1.0
  C  C33  1  0.90557000  0.71760000  0.23602000  1.0
  C  C34  1  0.12723000  0.38219000  0.72815000  1.0
  C  C35  1  0.87277000  0.61781000  0.27185000  1.0
  C  C36  1  0.00075000  0.39317000  0.68554000  1.0
  C  C37  1  0.99925000  0.60683000  0.31446000  1.0
  C  C38  1  0.15467000  0.14245000  0.83392000  1.0
  C  C39  1  0.84533000  0.85755000  0.16608000  1.0
  C  C40  1  0.27983000  0.18744000  0.53331000  1.0
  C  C41  1  0.72017000  0.81256000  0.46669000  1.0
  C  C42  1  0.33665000  0.11444000  0.55748000  1.0
  C  C43  1  0.66335000  0.88556000  0.44252000  1.0
  C  C44  1  0.45621000  0.17493000  0.63690000  1.0
  C  C45  1  0.54379000  0.82507000  0.36310000  1.0
  C  C46  1  0.50912000  0.08873000  0.66405000  1.0
  C  C47  1  0.49088000  0.91127000  0.33595000  1.0
  C  C48  1  0.16082000  0.12067000  0.43623000  1.0
  C  C49  1  0.83918000  0.87933000  0.56377000  1.0
  C  C50  1  0.69102000  0.41401000  0.89938000  1.0
  C  C51  1  0.30898000  0.58599000  0.10062000  1.0
  C  C52  1  0.72174000  0.36718000  0.96947000  1.0
  C  C53  1  0.27826000  0.63282000  0.03053000  1.0
  C  C54  1  0.65869000  0.37717000  0.05257000  1.0
  C  C55  1  0.34130000  0.62283000  0.94743000  1.0
  C  C56  1  0.54812000  0.47134000  0.99336000  1.0
  C  C57  1  0.45188000  0.52866000  0.00664000  1.0
  C  C58  1  0.33889000  0.62044000  0.60900000  1.0
  C  C59  1  0.66111000  0.37956000  0.39100000  1.0
  C  C60  1  0.27608000  0.63006000  0.52586000  1.0
  C  C61  1  0.72391000  0.36994000  0.47414000  1.0
  C  C62  1  0.30806000  0.58423000  0.43181000  1.0
  C  C63  1  0.69194000  0.41577000  0.56819000  1.0
  C  C64  1  0.45127000  0.52787000  0.50556000  1.0
  C  C65  1  0.54873000  0.47213000  0.49444000  1.0
  N  N66  1  0.60067000  0.46236000  0.90921000  1.0
  N  N67  1  0.39933000  0.53764000  0.09079000  1.0
  N  N68  1  0.57545000  0.43331000  0.06684000  1.0
  N  N69  1  0.42455000  0.56669000  0.93316000  1.0
  N  N70  1  0.42326000  0.56564000  0.59845000  1.0
  N  N71  1  0.57674000  0.43436000  0.40155000  1.0
  N  N72  1  0.39924000  0.53673000  0.42191000  1.0
  N  N73  1  0.60076000  0.46327000  0.57809000  1.0
  O  O74  1  0.53674000  0.70201000  0.80929000  1.0
  O  O75  1  0.46326000  0.29799000  0.19071000  1.0
  O  O76  1  0.72855000  0.60500000  0.79144000  1.0
  O  O77  1  0.27145000  0.39500000  0.20856000  1.0
  O  O78  1  0.32389000  0.30323000  0.78993000  1.0
  O  O79  1  0.67611000  0.69677000  0.21007000  1.0
  O  O80  1  0.24585000  0.46384000  0.72631000  1.0
  O  O81  1  0.75415000  0.53616000  0.27369000  1.0
  O  O82  1  0.31554000  0.30631000  0.58130000  1.0
  O  O83  1  0.68446000  0.69369000  0.41870000  1.0
  O  O84  1  0.52958000  0.29511000  0.69232000  1.0
  O  O85  1  0.47042000  0.70489000  0.30768000  1.0
  F  F86  1  0.05989000  0.88377000  0.91082000  1.0
  F  F87  1  0.94011000  0.11623000  0.08918000  1.0
  F  F88  1  0.00885000  0.72108000  0.76366000  1.0
  F  F89  1  0.99116000  0.27892000  0.23634000  1.0
  F  F90  1  0.98816000  0.68619000  0.90611000  1.0
  F  F91  1  0.01184000  0.31381000  0.09389000  1.0
  F  F92  1  0.50716000  0.90774000  0.82197000  1.0
  F  F93  1  0.49284000  0.09226000  0.17803000  1.0
  F  F94  1  0.60176000  0.95422000  0.98093000  1.0
  F  F95  1  0.39824000  0.04578000  0.01907000  1.0
  F  F96  1  0.73228000  0.04044000  0.88547000  1.0
  F  F97  1  0.26772000  0.95956000  0.11453000  1.0
  F  F98  1  0.03988000  0.49424000  0.65586000  1.0
  F  F99  1  0.96012000  0.50576000  0.34414000  1.0
  F  F100  1  0.92427000  0.40978000  0.75789000  1.0
  F  F101  1  0.07573000  0.59022000  0.24211000  1.0
  F  F102  1  0.91187000  0.28249000  0.60203000  1.0
  F  F103  1  0.08813000  0.71751000  0.39797000  1.0
  F  F104  1  0.02625000  0.10606000  0.85674000  1.0
  F  F105  1  0.97375000  0.89394000  0.14326000  1.0
  F  F106  1  0.24938000  0.18224000  0.92137000  1.0
  F  F107  1  0.75062000  0.81776000  0.07863000  1.0
  F  F108  1  0.15191000  0.03468000  0.76318000  1.0
  F  F109  1  0.84809000  0.96532000  0.23682000  1.0
  F  F110  1  0.04658000  0.13301000  0.46014000  1.0
  F  F111  1  0.95342000  0.86699000  0.53986000  1.0
  F  F112  1  0.20445000  0.17887000  0.36871000  1.0
  F  F113  1  0.79555000  0.82113000  0.63129000  1.0
  F  F114  1  0.11880000  0.99140000  0.38570000  1.0
  F  F115  1  0.88120000  0.00860000  0.61430000  1.0
  F  F116  1  0.49947000  0.09871000  0.76169000  1.0
  F  F117  1  0.50053000  0.90129000  0.23831000  1.0
  F  F118  1  0.64663000  0.12923000  0.66078000  1.0
  F  F119  1  0.35337000  0.87077000  0.33922000  1.0
  F  F120  1  0.43624000  0.95988000  0.60054000  1.0
  F  F121  1  0.56376000  0.04012000  0.39946000  1.0
