# generated using pymatgen
data_Zn6H40C79Br7(NO8)3
_symmetry_space_group_name_H-M   'P 1'
_cell_length_a   18.36420000
_cell_length_b   18.58430000
_cell_length_c   18.65010000
_cell_angle_alpha   109.39400000
_cell_angle_beta   108.58500000
_cell_angle_gamma   108.79600000
_symmetry_Int_Tables_number   1
_chemical_formula_structural   Zn6H40C79Br7(NO8)3
_chemical_formula_sum   'Zn6 H40 C79 Br7 N3 O24'
_cell_volume   4996.22061825
_cell_formula_units_Z   1
loop_
 _symmetry_equiv_pos_site_id
 _symmetry_equiv_pos_as_xyz
  1  'x, y, z'
loop_
 _atom_site_type_symbol
 _atom_site_label
 _atom_site_symmetry_multiplicity
 _atom_site_fract_x
 _atom_site_fract_y
 _atom_site_fract_z
 _atom_site_occupancy
  Zn  Zn0  1  0.93786000  0.48620000  0.93499000  1.0
  Zn  Zn1  1  0.06509000  0.47900000  0.05023000  1.0
  Zn  Zn2  1  0.50001000  0.05458000  0.07377000  1.0
  Zn  Zn3  1  0.50508000  0.93743000  0.94519000  1.0
  Zn  Zn4  1  0.94360000  0.92750000  0.48502000  1.0
  Zn  Zn5  1  0.07477000  0.06121000  0.49997000  1.0
  H  H6  1  0.62988000  0.46953000  0.99671000  1.0
  H  H7  1  0.12325000  0.32076000  0.87065000  1.0
  H  H8  1  0.83246000  0.22742000  0.82940000  1.0
  H  H9  1  0.66702000  0.02830000  0.56335000  1.0
  H  H10  1  0.10988000  0.20838000  0.74045000  1.0
  H  H11  1  0.37389000  0.95453000  0.72249000  1.0
  H  H12  1  0.28665000  0.01389000  0.94597000  1.0
  H  H13  1  0.17676000  0.05445000  0.96425000  1.0
  H  H14  1  0.95095000  0.17448000  0.02181000  1.0
  H  H15  1  0.08545000  0.08106000  0.85423000  1.0
  H  H16  1  0.10089000  0.05977000  0.72397000  1.0
  H  H17  1  0.18500000  0.72961000  0.19896000  1.0
  H  H18  1  0.69050000  0.87355000  0.09121000  1.0
  H  H19  1  0.72694000  0.16388000  0.20066000  1.0
  H  H20  1  0.95810000  0.17482000  0.43966000  1.0
  H  H21  1  0.85032000  0.07867000  0.05540000  1.0
  H  H22  1  0.72326000  0.09357000  0.05528000  1.0
  H  H23  1  0.53999000  0.24069000  0.02389000  1.0
  H  H24  1  0.51869000  0.35979000  0.00827000  1.0
  H  H25  1  0.75711000  0.45531000  0.99322000  1.0
  H  H26  1  0.91186000  0.57965000  0.18483000  1.0
  H  H27  1  0.20082000  0.83160000  0.73458000  1.0
  H  H28  1  0.30195000  0.88189000  0.27589000  1.0
  H  H29  1  0.09683000  0.76392000  0.59387000  1.0
  H  H30  1  0.02099000  0.69752000  0.61432000  1.0
  H  H31  1  0.09553000  0.66596000  0.58858000  1.0
  H  H32  1  0.61127000  0.04847000  0.66121000  1.0
  H  H33  1  0.60513000  0.10466000  0.78735000  1.0
  H  H34  1  0.68842000  0.20743000  0.81692000  1.0
  H  H35  1  0.71716000  0.13397000  0.84506000  1.0
  H  H36  1  0.89050000  0.37624000  0.38863000  1.0
  H  H37  1  0.80376000  0.39774000  0.28632000  1.0
  H  H38  1  0.71869000  0.28942000  0.23571000  1.0
  H  H39  1  0.16273000  0.96152000  0.40550000  1.0
  H  H40  1  0.80658000  0.31078000  0.21079000  1.0
  H  H41  1  0.90168000  0.69223000  0.29411000  1.0
  H  H42  1  0.23779000  0.69816000  0.09790000  1.0
  H  H43  1  0.05249000  0.61030000  0.67903000  1.0
  H  H44  1  0.27431000  0.85812000  0.87726000  1.0
  H  H45  1  0.92831000  0.28860000  0.99960000  1.0
  C  C46  1  0.03818000  0.60423000  0.13787000  1.0
  C  C47  1  0.71051000  0.40844000  0.00051000  1.0
  C  C48  1  0.17974000  0.78040000  0.24382000  1.0
  C  C49  1  0.86115000  0.38910000  0.99172000  1.0
  C  C50  1  0.24541000  0.86489000  0.28684000  1.0
  C  C51  1  0.23735000  0.92902000  0.34535000  1.0
  C  C52  1  0.16654000  0.91016000  0.36042000  1.0
  C  C53  1  0.09763000  0.82328000  0.31678000  1.0
  C  C54  1  0.10539000  0.75725000  0.25714000  1.0
  C  C55  1  0.03685000  0.66997000  0.20962000  1.0
  C  C56  1  0.96457000  0.64667000  0.22267000  1.0
  C  C57  1  0.81172000  0.26161000  0.01612000  1.0
  C  C58  1  0.95831000  0.71005000  0.28335000  1.0
  C  C59  1  0.02143000  0.79706000  0.32873000  1.0
  C  C60  1  0.10291000  0.62718000  0.80672000  1.0
  C  C61  1  0.99738000  0.34299000  0.89574000  1.0
  C  C62  1  0.09895000  0.65594000  0.74696000  1.0
  C  C63  1  0.15778000  0.74252000  0.77246000  1.0
  C  C64  1  0.22432000  0.79445000  0.85815000  1.0
  C  C65  1  0.22934000  0.76604000  0.91970000  1.0
  C  C66  1  0.16260000  0.68243000  0.89698000  1.0
  C  C67  1  0.16561000  0.66198000  0.96488000  1.0
  C  C68  1  0.67668000  0.21127000  0.02849000  1.0
  C  C69  1  0.23606000  0.71610000  0.04776000  1.0
  C  C70  1  0.30490000  0.79303000  0.06717000  1.0
  C  C71  1  0.30273000  0.81916000  0.00581000  1.0
  C  C72  1  0.82458000  0.18458000  0.76799000  1.0
  C  C73  1  0.09381000  0.58908000  0.95913000  1.0
  C  C74  1  0.74157000  0.11793000  0.70209000  1.0
  C  C75  1  0.73233000  0.07164000  0.61875000  1.0
  C  C76  1  0.80425000  0.08337000  0.60666000  1.0
  C  C77  1  0.89170000  0.13887000  0.67697000  1.0
  C  C78  1  0.89920000  0.19686000  0.75654000  1.0
  C  C79  1  0.66252000  0.27837000  0.01856000  1.0
  C  C80  1  0.98492000  0.26569000  0.82383000  1.0
  C  C81  1  0.05900000  0.26853000  0.81812000  1.0
  C  C82  1  0.05138000  0.20662000  0.74418000  1.0
  C  C83  1  0.96957000  0.14313000  0.67420000  1.0
  C  C84  1  0.38626000  0.97967000  0.87327000  1.0
  C  C85  1  0.88267000  0.24714000  0.01196000  1.0
  C  C86  1  0.60950000  0.14236000  0.03137000  1.0
  C  C87  1  0.63705000  0.98966000  0.09806000  1.0
  C  C88  1  0.38071000  0.89485000  0.02254000  1.0
  C  C89  1  0.14864000  0.01695000  0.61281000  1.0
  C  C90  1  0.72452000  0.33898000  0.00714000  1.0
  C  C91  1  0.00421000  0.85943000  0.38604000  1.0
  C  C92  1  0.92483000  0.01718000  0.37017000  1.0
  C  C93  1  0.97258000  0.07848000  0.60297000  1.0
  C  C94  1  0.24689000  0.02408000  0.89716000  1.0
  C  C95  1  0.18530000  0.04736000  0.90749000  1.0
  C  C96  1  0.13352000  0.06191000  0.84540000  1.0
  C  C97  1  0.89582000  0.18295000  0.02505000  1.0
  C  C98  1  0.14284000  0.05085000  0.77270000  1.0
  C  C99  1  0.20490000  0.02589000  0.75926000  1.0
  C  C100  1  0.25978000  0.01378000  0.82386000  1.0
  C  C101  1  0.79674000  0.32834000  0.00449000  1.0
  C  C102  1  0.32182000  0.98837000  0.80847000  1.0
  C  C103  1  0.32698000  0.97457000  0.73296000  1.0
  C  C104  1  0.27317000  0.98711000  0.67071000  1.0
  C  C105  1  0.21292000  0.01232000  0.68253000  1.0
  C  C106  1  0.77772000  0.16558000  0.25193000  1.0
  C  C107  1  0.83853000  0.24557000  0.32638000  1.0
  C  C108  1  0.90142000  0.24491000  0.39507000  1.0
  C  C109  1  0.83872000  0.12839000  0.04308000  1.0
  C  C110  1  0.90731000  0.17126000  0.38659000  1.0
  C  C111  1  0.84975000  0.09108000  0.30819000  1.0
  C  C112  1  0.58761000  0.28725000  0.01713000  1.0
  C  C113  1  0.78059000  0.08785000  0.24098000  1.0
  C  C114  1  0.72030000  0.00520000  0.16404000  1.0
  C  C115  1  0.73516000  0.93445000  0.15145000  1.0
  C  C116  1  0.80431000  0.93962000  0.21689000  1.0
  C  C117  1  0.85935000  0.01540000  0.29590000  1.0
  C  C118  1  0.76786000  0.13755000  0.04403000  1.0
  C  C119  1  0.75070000  0.20254000  0.02931000  1.0
  C  C120  1  0.08825000  0.72196000  0.62352000  1.0
  C  C121  1  0.67028000  0.13830000  0.79451000  1.0
  C  C122  1  0.78952000  0.32987000  0.26326000  1.0
  C  C123  1  0.57606000  0.35397000  0.00886000  1.0
  C  C124  1  0.63889000  0.41588000  0.00178000  1.0
  Br  Br125  1  0.32875000  0.04618000  0.40602000  1.0
  Br  Br126  1  0.03314000  0.50465000  0.75811000  1.0
  Br  Br127  1  0.40349000  0.85704000  0.17980000  1.0
  Br  Br128  1  0.78094000  0.03169000  0.48915000  1.0
  Br  Br129  1  0.28320000  0.96334000  0.56800000  1.0
  Br  Br130  1  0.98136000  0.35094000  0.50127000  1.0
  Br  Br131  1  0.82000000  0.83931000  0.19277000  1.0
  N  N132  1  0.15198000  0.77251000  0.71426000  1.0
  N  N133  1  0.66867000  0.09789000  0.71266000  1.0
  N  N134  1  0.83898000  0.32157000  0.33511000  1.0
  O  O135  1  0.98458000  0.58283000  0.06246000  1.0
  O  O136  1  0.17671000  0.07642000  0.59289000  1.0
  O  O137  1  0.94342000  0.82834000  0.40505000  1.0
  O  O138  1  0.09256000  0.57532000  0.15708000  1.0
  O  O139  1  0.04861000  0.94010000  0.41306000  1.0
  O  O140  1  0.89403000  0.96554000  0.39602000  1.0
  O  O141  1  0.00602000  0.07200000  0.40362000  1.0
  O  O142  1  0.92758000  0.99699000  0.57688000  1.0
  O  O143  1  0.02574000  0.10938000  0.57762000  1.0
  O  O144  1  0.83338000  0.41016000  0.93301000  1.0
  O  O145  1  0.94141000  0.41647000  0.03998000  1.0
  O  O146  1  0.41402000  0.92642000  0.84490000  1.0
  O  O147  1  0.95200000  0.37893000  0.87508000  1.0
  O  O148  1  0.05618000  0.37147000  0.97355000  1.0
  O  O149  1  0.01438000  0.57320000  0.91911000  1.0
  O  O150  1  0.11778000  0.55168000  0.00090000  1.0
  O  O151  1  0.41067000  0.02597000  0.95251000  1.0
  O  O152  1  0.58463000  0.16358000  0.08899000  1.0
  O  O153  1  0.58125000  0.06508000  0.97506000  1.0
  O  O154  1  0.59839000  0.02936000  0.12509000  1.0
  O  O155  1  0.60767000  0.93593000  0.01777000  1.0
  O  O156  1  0.40346000  0.97236000  0.07699000  1.0
  O  O157  1  0.41917000  0.87519000  0.97943000  1.0
  O  O158  1  0.06980000  0.96060000  0.57935000  1.0
