# generated using pymatgen
data_FeH11C17N3O4
_symmetry_space_group_name_H-M   'P 1'
_cell_length_a   8.69951000
_cell_length_b   9.03790000
_cell_length_c   10.66930000
_cell_angle_alpha   112.37700000
_cell_angle_beta   90.16800000
_cell_angle_gamma   102.14800000
_symmetry_Int_Tables_number   1
_chemical_formula_structural   FeH11C17N3O4
_chemical_formula_sum   'Fe2 H22 C34 N6 O8'
_cell_volume   755.13169495
_cell_formula_units_Z   2
loop_
 _symmetry_equiv_pos_site_id
 _symmetry_equiv_pos_as_xyz
  1  'x, y, z'
loop_
 _atom_site_type_symbol
 _atom_site_label
 _atom_site_symmetry_multiplicity
 _atom_site_fract_x
 _atom_site_fract_y
 _atom_site_fract_z
 _atom_site_occupancy
  Fe  Fe0  1  0.68855000  0.60800000  0.88771000  1.0
  Fe  Fe1  1  0.31144000  0.39198000  0.11229000  1.0
  H  H2  1  0.00963000  0.60501000  0.00496000  1.0
  H  H3  1  0.99038000  0.39498000  0.99504000  1.0
  H  H4  1  0.30010000  0.64234000  0.68806000  1.0
  H  H5  1  0.69990000  0.35766000  0.31193000  1.0
  H  H6  1  0.08024000  0.73601000  0.60039000  1.0
  H  H7  1  0.91975000  0.26399000  0.39962000  1.0
  H  H8  1  0.86759000  0.73597000  0.15973000  1.0
  H  H9  1  0.13241000  0.26402000  0.84028000  1.0
  H  H10  1  0.84035000  0.92094000  0.39092000  1.0
  H  H11  1  0.15966000  0.07907000  0.60908000  1.0
  H  H12  1  0.46450000  0.05754000  0.22152000  1.0
  H  H13  1  0.53551000  0.94248000  0.77847000  1.0
  H  H14  1  0.50709000  0.86237000  0.99617000  1.0
  H  H15  1  0.49291000  0.13764000  0.00383000  1.0
  H  H16  1  0.80298000  0.06549000  0.57985000  1.0
  H  H17  1  0.19703000  0.93450000  0.42015000  1.0
  H  H18  1  0.81881000  0.31010000  0.78994000  1.0
  H  H19  1  0.18119000  0.68989000  0.21007000  1.0
  H  H20  1  0.49576000  0.47685000  0.62420000  1.0
  H  H21  1  0.50424000  0.52315000  0.37580000  1.0
  H  H22  1  0.46756000  0.24188000  0.40283000  1.0
  H  H23  1  0.53245000  0.75813000  0.59716000  1.0
  C  C24  1  0.80154000  0.77382000  0.71446000  1.0
  C  C25  1  0.19846000  0.22617000  0.28555000  1.0
  C  C26  1  0.93325000  0.71165000  0.75319000  1.0
  C  C27  1  0.06675000  0.28836000  0.24682000  1.0
  C  C28  1  0.03003000  0.63144000  0.91483000  1.0
  C  C29  1  0.96996000  0.36855000  0.08516000  1.0
  C  C30  1  0.17316000  0.62248000  0.85620000  1.0
  C  C31  1  0.82683000  0.37751000  0.14379000  1.0
  C  C32  1  0.19192000  0.65445000  0.73800000  1.0
  C  C33  1  0.80808000  0.34555000  0.26200000  1.0
  C  C34  1  0.07155000  0.70392000  0.68906000  1.0
  C  C35  1  0.92845000  0.29608000  0.31094000  1.0
  C  C36  1  0.29805000  0.56728000  0.91438000  1.0
  C  C37  1  0.70196000  0.43272000  0.08563000  1.0
  C  C38  1  0.77804000  0.80761000  0.17749000  1.0
  C  C39  1  0.22196000  0.19239000  0.82252000  1.0
  C  C40  1  0.76140000  0.91250000  0.30797000  1.0
  C  C41  1  0.23859000  0.08751000  0.69203000  1.0
  C  C42  1  0.64789000  0.00775000  0.33057000  1.0
  C  C43  1  0.35211000  0.99227000  0.66942000  1.0
  C  C44  1  0.55405000  0.98713000  0.21468000  1.0
  C  C45  1  0.44595000  0.01286000  0.78531000  1.0
  C  C46  1  0.57697000  0.87863000  0.08719000  1.0
  C  C47  1  0.42305000  0.12138000  0.91280000  1.0
  C  C48  1  0.64153000  0.13513000  0.46552000  1.0
  C  C49  1  0.35847000  0.86488000  0.53447000  1.0
  C  C50  1  0.73667000  0.15539000  0.58046000  1.0
  C  C51  1  0.26331000  0.84460000  0.41954000  1.0
  C  C52  1  0.74538000  0.29153000  0.70017000  1.0
  C  C53  1  0.25462000  0.70846000  0.29983000  1.0
  C  C54  1  0.56404000  0.38423000  0.60762000  1.0
  C  C55  1  0.43597000  0.61579000  0.39239000  1.0
  C  C56  1  0.55006000  0.25178000  0.48410000  1.0
  C  C57  1  0.44994000  0.74824000  0.51592000  1.0
  N  N58  1  0.68626000  0.78634000  0.06633000  1.0
  N  N59  1  0.31375000  0.21365000  0.93368000  1.0
  N  N60  1  0.90795000  0.66406000  0.86029000  1.0
  N  N61  1  0.09204000  0.33596000  0.13971000  1.0
  N  N62  1  0.66365000  0.40821000  0.71468000  1.0
  N  N63  1  0.33636000  0.59178000  0.28531000  1.0
  O  O64  1  0.67545000  0.75346000  0.77776000  1.0
  O  O65  1  0.32454000  0.24655000  0.22223000  1.0
  O  O66  1  0.81852000  0.84270000  0.63237000  1.0
  O  O67  1  0.18147000  0.15730000  0.36764000  1.0
  O  O68  1  0.42213000  0.55563000  0.85455000  1.0
  O  O69  1  0.57786000  0.44435000  0.14544000  1.0
  O  O70  1  0.25957000  0.53290000  0.01763000  1.0
  O  O71  1  0.74045000  0.46709000  0.98236000  1.0
