# generated using pymatgen
data_ZnH8C10(N3O2)2
_symmetry_space_group_name_H-M   'P 1'
_cell_length_a   7.01032000
_cell_length_b   9.44189000
_cell_length_c   18.19690000
_cell_angle_alpha   89.99990000
_cell_angle_beta   90.00010000
_cell_angle_gamma   90.00000000
_symmetry_Int_Tables_number   1
_chemical_formula_structural   ZnH8C10(N3O2)2
_chemical_formula_sum   'Zn4 H32 C40 N24 O16'
_cell_volume   1204.46500847
_cell_formula_units_Z   4
loop_
 _symmetry_equiv_pos_site_id
 _symmetry_equiv_pos_as_xyz
  1  'x, y, z'
loop_
 _atom_site_type_symbol
 _atom_site_label
 _atom_site_symmetry_multiplicity
 _atom_site_fract_x
 _atom_site_fract_y
 _atom_site_fract_z
 _atom_site_occupancy
  Zn  Zn0  1  0.99922000  0.25050000  0.18621000  1.0
  Zn  Zn1  1  0.49922000  0.74950000  0.81379000  1.0
  Zn  Zn2  1  0.49922000  0.24950000  0.68621000  1.0
  Zn  Zn3  1  0.99922000  0.75050000  0.31379000  1.0
  H  H4  1  0.69813000  0.12505000  0.27226000  1.0
  H  H5  1  0.19813000  0.87495000  0.72774000  1.0
  H  H6  1  0.19813000  0.37495000  0.77226000  1.0
  H  H7  1  0.69814000  0.62505000  0.22774000  1.0
  H  H8  1  0.95722000  0.58579000  0.59757000  1.0
  H  H9  1  0.45723000  0.41421000  0.40243000  1.0
  H  H10  1  0.45722000  0.91421000  0.09757000  1.0
  H  H11  1  0.95722000  0.08579000  0.90243000  1.0
  H  H12  1  0.98333000  0.16199000  0.48282000  1.0
  H  H13  1  0.48333000  0.83801000  0.51717000  1.0
  H  H14  1  0.48333000  0.33801000  0.98283000  1.0
  H  H15  1  0.98333000  0.66199000  0.01717000  1.0
  H  H16  1  0.99195000  0.20235000  0.38807000  1.0
  H  H17  1  0.49195000  0.79765000  0.61193000  1.0
  H  H18  1  0.49195000  0.29765000  0.88807000  1.0
  H  H19  1  0.99195000  0.70234000  0.11193000  1.0
  H  H20  1  0.82138000  0.45417000  0.09652000  1.0
  H  H21  1  0.32138000  0.54583000  0.90348000  1.0
  H  H22  1  0.32138000  0.04583000  0.59652000  1.0
  H  H23  1  0.82138000  0.95417000  0.40348000  1.0
  H  H24  1  0.59037000  0.50590000  0.06506000  1.0
  H  H25  1  0.09038000  0.49410000  0.93494000  1.0
  H  H26  1  0.09038000  0.99410000  0.56506000  1.0
  H  H27  1  0.59038000  0.00590000  0.43494000  1.0
  H  H28  1  0.96044000  0.76860000  0.49584000  1.0
  H  H29  1  0.46044000  0.23140000  0.50416000  1.0
  H  H30  1  0.46044000  0.73140000  0.99584000  1.0
  H  H31  1  0.96044000  0.26860000  0.00416000  1.0
  H  H32  1  0.33439000  0.10563000  0.27593000  1.0
  H  H33  1  0.83439000  0.89437000  0.72407000  1.0
  H  H34  1  0.83439000  0.39437000  0.77593000  1.0
  H  H35  1  0.33439000  0.60563000  0.22407000  1.0
  C  C36  1  0.58864000  0.36110000  0.14561000  1.0
  C  C37  1  0.08864000  0.63890000  0.85439000  1.0
  C  C38  1  0.08864000  0.13891000  0.64561000  1.0
  C  C39  1  0.58864000  0.86110000  0.35439000  1.0
  C  C40  1  0.60662000  0.18873000  0.23684000  1.0
  C  C41  1  0.10662000  0.81127000  0.76316000  1.0
  C  C42  1  0.10662000  0.31127000  0.73684000  1.0
  C  C43  1  0.60662000  0.68873000  0.26316000  1.0
  C  C44  1  0.98050000  0.47624000  0.39784000  1.0
  C  C45  1  0.48050000  0.52376000  0.60216000  1.0
  C  C46  1  0.48051000  0.02377000  0.89784000  1.0
  C  C47  1  0.98050000  0.97624000  0.10216000  1.0
  C  C48  1  0.96335000  0.55301000  0.53995000  1.0
  C  C49  1  0.46335000  0.44699000  0.46005000  1.0
  C  C50  1  0.46335000  0.94699000  0.03995000  1.0
  C  C51  1  0.96335000  0.05301000  0.96005000  1.0
  C  C52  1  0.99139000  0.44074000  0.31776000  1.0
  C  C53  1  0.49138000  0.55926000  0.68224000  1.0
  C  C54  1  0.49138000  0.05927000  0.81776000  1.0
  C  C55  1  0.99138000  0.94074000  0.18224000  1.0
  C  C56  1  0.97429000  0.37244000  0.45541000  1.0
  C  C57  1  0.47429000  0.62756000  0.54459000  1.0
  C  C58  1  0.47429000  0.12756000  0.95541000  1.0
  C  C59  1  0.97429000  0.87244000  0.04459000  1.0
  C  C60  1  0.96678000  0.65562000  0.48431000  1.0
  C  C61  1  0.46678000  0.34438000  0.51568000  1.0
  C  C62  1  0.46678000  0.84438000  0.98432000  1.0
  C  C63  1  0.96678000  0.15562000  0.01569000  1.0
  C  C64  1  0.25161000  0.43245000  0.09955000  1.0
  C  C65  1  0.75161000  0.56755000  0.90045000  1.0
  C  C66  1  0.75161000  0.06756000  0.59955000  1.0
  C  C67  1  0.25161000  0.93244000  0.40045000  1.0
  C  C68  1  0.38434000  0.34828000  0.14801000  1.0
  C  C69  1  0.88434000  0.65172000  0.85199000  1.0
  C  C70  1  0.88434000  0.15172000  0.64801000  1.0
  C  C71  1  0.38434000  0.84828000  0.35199000  1.0
  C  C72  1  0.40942000  0.17755000  0.23925000  1.0
  C  C73  1  0.90942000  0.82245000  0.76075000  1.0
  C  C74  1  0.90942000  0.32245000  0.73925000  1.0
  C  C75  1  0.40942000  0.67755000  0.26075000  1.0
  N  N76  1  0.69561000  0.27704000  0.19033000  1.0
  N  N77  1  0.19561000  0.72295000  0.80967000  1.0
  N  N78  1  0.19561000  0.22296000  0.69033000  1.0
  N  N79  1  0.69561000  0.77704000  0.30967000  1.0
  N  N80  1  0.97377000  0.23330000  0.44127000  1.0
  N  N81  1  0.47377000  0.76670000  0.55873000  1.0
  N  N82  1  0.47377000  0.26670000  0.94127000  1.0
  N  N83  1  0.97377000  0.73330000  0.05873000  1.0
  N  N84  1  0.30321000  0.25724000  0.19385000  1.0
  N  N85  1  0.80321000  0.74276000  0.80615000  1.0
  N  N86  1  0.80321000  0.24276000  0.69385000  1.0
  N  N87  1  0.30321000  0.75724000  0.30615000  1.0
  N  N88  1  0.67566000  0.45346000  0.10154000  1.0
  N  N89  1  0.17566000  0.54654000  0.89846000  1.0
  N  N90  1  0.17566000  0.04654000  0.60154000  1.0
  N  N91  1  0.67566000  0.95346000  0.39846000  1.0
  N  N92  1  0.96773000  0.41449000  0.52695000  1.0
  N  N93  1  0.46773000  0.58551000  0.47305000  1.0
  N  N94  1  0.46773000  0.08551000  0.02695000  1.0
  N  N95  1  0.96773000  0.91449000  0.97305000  1.0
  N  N96  1  0.97676000  0.61442000  0.41415000  1.0
  N  N97  1  0.47676000  0.38558000  0.58585000  1.0
  N  N98  1  0.47676000  0.88558000  0.91415000  1.0
  N  N99  1  0.97676000  0.11442000  0.08585000  1.0
  O  O100  1  0.99736000  0.30994000  0.30009000  1.0
  O  O101  1  0.49736000  0.69006000  0.69991000  1.0
  O  O102  1  0.49736000  0.19006000  0.80009000  1.0
  O  O103  1  0.99736000  0.80994000  0.19991000  1.0
  O  O104  1  0.99371000  0.54160000  0.27155000  1.0
  O  O105  1  0.49370000  0.45839000  0.72845000  1.0
  O  O106  1  0.49370000  0.95840000  0.77155000  1.0
  O  O107  1  0.99370000  0.04160000  0.22845000  1.0
  O  O108  1  0.07277000  0.41818000  0.11273000  1.0
  O  O109  1  0.57277000  0.58182000  0.88727000  1.0
  O  O110  1  0.57278000  0.08182000  0.61273000  1.0
  O  O111  1  0.07277000  0.91818000  0.38727000  1.0
  O  O112  1  0.32254000  0.50952000  0.05012000  1.0
  O  O113  1  0.82255000  0.49048000  0.94988000  1.0
  O  O114  1  0.82255000  0.99049000  0.55012000  1.0
  O  O115  1  0.32255000  0.00951000  0.44988000  1.0
