# generated using pymatgen
data_MnH14C20(NO2)2
_symmetry_space_group_name_H-M   'P 1'
_cell_length_a   8.86069000
_cell_length_b   9.83124000
_cell_length_c   12.24010000
_cell_angle_alpha   95.30450000
_cell_angle_beta   100.15400000
_cell_angle_gamma   112.78500000
_symmetry_Int_Tables_number   1
_chemical_formula_structural   MnH14C20(NO2)2
_chemical_formula_sum   'Mn2 H28 C40 N4 O8'
_cell_volume   952.35576515
_cell_formula_units_Z   2
loop_
 _symmetry_equiv_pos_site_id
 _symmetry_equiv_pos_as_xyz
  1  'x, y, z'
loop_
 _atom_site_type_symbol
 _atom_site_label
 _atom_site_symmetry_multiplicity
 _atom_site_fract_x
 _atom_site_fract_y
 _atom_site_fract_z
 _atom_site_occupancy
  Mn  Mn0  1  0.96599000  0.11612000  0.13241000  1.0
  Mn  Mn1  1  0.03402000  0.88388000  0.86759000  1.0
  H  H2  1  0.62497000  0.25678000  0.61934000  1.0
  H  H3  1  0.37503000  0.74322000  0.38066000  1.0
  H  H4  1  0.44418000  0.95747000  0.79902000  1.0
  H  H5  1  0.55582000  0.04253000  0.20098000  1.0
  H  H6  1  0.61049000  0.96336000  0.98508000  1.0
  H  H7  1  0.38952000  0.03664000  0.01492000  1.0
  H  H8  1  0.32137000  0.97854000  0.64505000  1.0
  H  H9  1  0.67863000  0.02146000  0.35495000  1.0
  H  H10  1  0.85915000  0.36723000  0.77902000  1.0
  H  H11  1  0.14085000  0.63278000  0.22098000  1.0
  H  H12  1  0.49553000  0.28031000  0.46430000  1.0
  H  H13  1  0.50447000  0.71969000  0.53571000  1.0
  H  H14  1  0.00855000  0.35292000  0.96717000  1.0
  H  H15  1  0.99146000  0.64708000  0.03283000  1.0
  H  H16  1  0.08803000  0.87046000  0.48882000  1.0
  H  H17  1  0.91197000  0.12954000  0.51118000  1.0
  H  H18  1  0.32884000  0.26808000  0.27507000  1.0
  H  H19  1  0.67116000  0.73192000  0.72494000  1.0
  H  H20  1  0.93436000  0.88103000  0.29919000  1.0
  H  H21  1  0.06564000  0.11897000  0.70081000  1.0
  H  H22  1  0.25025000  0.51890000  0.42638000  1.0
  H  H23  1  0.74973000  0.48110000  0.57362000  1.0
  H  H24  1  0.71644000  0.31927000  0.38969000  1.0
  H  H25  1  0.28355000  0.68072000  0.61031000  1.0
  H  H26  1  0.44697000  0.30078000  0.83906000  1.0
  H  H27  1  0.55303000  0.69923000  0.16094000  1.0
  H  H28  1  0.31889000  0.44356000  0.13887000  1.0
  H  H29  1  0.68111000  0.55645000  0.86113000  1.0
  C  C30  1  0.55209000  0.16624000  0.65917000  1.0
  C  C31  1  0.44790000  0.83376000  0.34083000  1.0
  C  C32  1  0.63937000  0.16079000  0.76991000  1.0
  C  C33  1  0.36063000  0.83921000  0.23009000  1.0
  C  C34  1  0.56948000  0.04713000  0.83140000  1.0
  C  C35  1  0.43052000  0.95287000  0.16860000  1.0
  C  C36  1  0.66163000  0.05000000  0.93595000  1.0
  C  C37  1  0.33837000  0.95000000  0.06405000  1.0
  C  C38  1  0.39380000  0.06946000  0.60497000  1.0
  C  C39  1  0.60620000  0.93054000  0.39503000  1.0
  C  C40  1  0.80057000  0.27332000  0.82065000  1.0
  C  C41  1  0.19944000  0.72668000  0.17935000  1.0
  C  C42  1  0.37253000  0.18807000  0.43139000  1.0
  C  C43  1  0.62747000  0.81193000  0.56861000  1.0
  C  C44  1  0.30647000  0.07482000  0.49421000  1.0
  C  C45  1  0.69353000  0.92518000  0.50579000  1.0
  C  C46  1  0.88369000  0.26700000  0.92620000  1.0
  C  C47  1  0.11632000  0.73300000  0.07380000  1.0
  C  C48  1  0.14561000  0.96147000  0.44454000  1.0
  C  C49  1  0.85439000  0.03852000  0.55547000  1.0
  C  C50  1  0.28023000  0.18300000  0.32611000  1.0
  C  C51  1  0.71977000  0.81700000  0.67389000  1.0
  C  C52  1  0.06000000  0.96608000  0.33923000  1.0
  C  C53  1  0.93999000  0.03392000  0.66077000  1.0
  C  C54  1  0.96412000  0.31553000  0.29029000  1.0
  C  C55  1  0.03587000  0.68447000  0.70971000  1.0
  C  C56  1  0.98161000  0.41199000  0.39771000  1.0
  C  C57  1  0.01838000  0.58800000  0.60229000  1.0
  C  C58  1  0.14189000  0.51302000  0.45964000  1.0
  C  C59  1  0.85809000  0.48698000  0.54035000  1.0
  C  C60  1  0.83971000  0.39915000  0.43891000  1.0
  C  C61  1  0.16027000  0.60085000  0.56108000  1.0
  C  C62  1  0.23659000  0.20413000  0.97669000  1.0
  C  C63  1  0.76342000  0.79587000  0.02331000  1.0
  C  C64  1  0.37089000  0.35773000  0.98786000  1.0
  C  C65  1  0.62912000  0.64228000  0.01214000  1.0
  C  C66  1  0.47140000  0.38926000  0.90889000  1.0
  C  C67  1  0.52860000  0.61075000  0.09111000  1.0
  C  C68  1  0.39967000  0.46932000  0.07908000  1.0
  C  C69  1  0.60034000  0.53068000  0.92092000  1.0
  N  N70  1  0.81711000  0.15641000  0.98364000  1.0
  N  N71  1  0.18290000  0.84359000  0.01636000  1.0
  N  N72  1  0.12508000  0.07476000  0.28002000  1.0
  N  N73  1  0.87492000  0.92524000  0.71998000  1.0
  O  O74  1  0.83889000  0.18758000  0.25995000  1.0
  O  O75  1  0.16110000  0.81242000  0.74005000  1.0
  O  O76  1  0.07775000  0.36006000  0.23467000  1.0
  O  O77  1  0.92225000  0.63994000  0.76533000  1.0
  O  O78  1  0.17104000  0.17120000  0.06044000  1.0
  O  O79  1  0.82896000  0.82881000  0.93957000  1.0
  O  O80  1  0.19915000  0.11191000  0.88526000  1.0
  O  O81  1  0.80086000  0.88809000  0.11475000  1.0
