# generated using pymatgen
data_ZnH4C17N2(ClO2)4
_symmetry_space_group_name_H-M   'P 1'
_cell_length_a   7.95362000
_cell_length_b   8.81297000
_cell_length_c   22.63647122
_cell_angle_alpha   96.40509343
_cell_angle_beta   93.89224782
_cell_angle_gamma   99.79710000
_symmetry_Int_Tables_number   1
_chemical_formula_structural   ZnH4C17N2(ClO2)4
_chemical_formula_sum   'Zn2 H8 C34 N4 Cl8 O16'
_cell_volume   1547.67956750
_cell_formula_units_Z   2
loop_
 _symmetry_equiv_pos_site_id
 _symmetry_equiv_pos_as_xyz
  1  'x, y, z'
loop_
 _atom_site_type_symbol
 _atom_site_label
 _atom_site_symmetry_multiplicity
 _atom_site_fract_x
 _atom_site_fract_y
 _atom_site_fract_z
 _atom_site_occupancy
  Zn  Zn0  1  0.66277000  0.02479000  0.49391000  1.0
  Zn  Zn1  1  0.31357000  0.99482000  0.48388000  1.0
  H  H2  1  0.11553000  0.21486000  0.06852000  1.0
  H  H3  1  0.93389000  0.43534000  0.95851000  1.0
  H  H4  1  0.54372000  0.35700000  0.67220000  1.0
  H  H5  1  0.58336000  0.63272000  0.36430000  1.0
  H  H6  1  0.29177000  0.47755000  0.49608000  1.0
  H  H7  1  0.68055000  0.54019000  0.48189000  1.0
  H  H8  1  0.61038000  0.66422000  0.77024000  1.0
  H  H9  1  0.66679000  0.23242000  0.24251000  1.0
  C  C10  1  0.43683000  0.71501000  0.49752000  1.0
  C  C11  1  0.42510000  0.84283000  0.26343000  1.0
  C  C12  1  0.48515000  0.01713000  0.76834000  1.0
  C  C13  1  0.43896000  0.74533000  0.21106000  1.0
  C  C14  1  0.50739000  0.17067000  0.79568000  1.0
  C  C15  1  0.49916000  0.60532000  0.21426000  1.0
  C  C16  1  0.41928000  0.54392000  0.49343000  1.0
  C  C17  1  0.55338000  0.47300000  0.48439000  1.0
  C  C18  1  0.49808000  0.07730000  0.60451000  1.0
  C  C19  1  0.47540000  0.90404000  0.37673000  1.0
  C  C20  1  0.66778000  0.54628000  0.13299000  1.0
  C  C21  1  0.53886000  0.30231000  0.48064000  1.0
  C  C22  1  0.35676000  0.17430000  0.88507000  1.0
  C  C23  1  0.36606000  0.40426000  0.13508000  1.0
  C  C24  1  0.67330000  0.27526000  0.88873000  1.0
  C  C25  1  0.37288000  0.33610000  0.07267000  1.0
  C  C26  1  0.66947000  0.33357000  0.95233000  1.0
  C  C27  1  0.52294000  0.37001000  0.04257000  1.0
  C  C28  1  0.51712000  0.30606000  0.98155000  1.0
  C  C29  1  0.67463000  0.46540000  0.07237000  1.0
  C  C30  1  0.36320000  0.21774000  0.95061000  1.0
  C  C31  1  0.22745000  0.24125000  0.04376000  1.0
  C  C32  1  0.52762000  0.29420000  0.76097000  1.0
  C  C33  1  0.81896000  0.41828000  0.98230000  1.0
  C  C34  1  0.22047000  0.18238000  0.98300000  1.0
  C  C35  1  0.82294000  0.48580000  0.04183000  1.0
  C  C36  1  0.54651000  0.45897000  0.78857000  1.0
  C  C37  1  0.61648000  0.41880000  0.28002000  1.0
  C  C38  1  0.54950000  0.56321000  0.26998000  1.0
  C  C39  1  0.52590000  0.26147000  0.69903000  1.0
  C  C40  1  0.54024000  0.66440000  0.32139000  1.0
  C  C41  1  0.50030000  0.10923000  0.67137000  1.0
  C  C42  1  0.47840000  0.80239000  0.31880000  1.0
  C  C43  1  0.47825000  0.98629000  0.70583000  1.0
  N  N44  1  0.51052000  0.51369000  0.15869000  1.0
  N  N45  1  0.51484000  0.20068000  0.85935000  1.0
  N  N46  1  0.04950000  0.02962000  0.47372000  1.0
  N  N47  1  0.92680000  0.99148000  0.50403000  1.0
  Cl  Cl48  1  0.03103000  0.06750000  0.95300000  1.0
  Cl  Cl49  1  0.01608000  0.59152000  0.07274000  1.0
  Cl  Cl50  1  0.44410000  0.79862000  0.67105000  1.0
  Cl  Cl51  1  0.35050000  0.01339000  0.25954000  1.0
  Cl  Cl52  1  0.46807000  0.86761000  0.81158000  1.0
  Cl  Cl53  1  0.38738000  0.80031000  0.14260000  1.0
  Cl  Cl54  1  0.00190000  0.13881000  0.42013000  1.0
  Cl  Cl55  1  0.97328000  0.88268000  0.55788000  1.0
  O  O56  1  0.58694000  0.79325000  0.49682000  1.0
  O  O57  1  0.22535000  0.12079000  0.85282000  1.0
  O  O58  1  0.24251000  0.37383000  0.16417000  1.0
  O  O59  1  0.80332000  0.29302000  0.86219000  1.0
  O  O60  1  0.50321000  0.50250000  0.83762000  1.0
  O  O61  1  0.61568000  0.55882000  0.75164000  1.0
  O  O62  1  0.65735000  0.38680000  0.32961000  1.0
  O  O63  1  0.62808000  0.32409000  0.22937000  1.0
  O  O64  1  0.39000000  0.21897000  0.47080000  1.0
  O  O65  1  0.29887000  0.77070000  0.49982000  1.0
  O  O66  1  0.67932000  0.25272000  0.48933000  1.0
  O  O67  1  0.64032000  0.06358000  0.58434000  1.0
  O  O68  1  0.33049000  0.91319000  0.39562000  1.0
  O  O69  1  0.35474000  0.06901000  0.57492000  1.0
  O  O70  1  0.62180000  0.96479000  0.40273000  1.0
  O  O71  1  0.78530000  0.64108000  0.16077000  1.0
