# generated using pymatgen
data_CuH12C8(N4Cl)2
_symmetry_space_group_name_H-M   'P 1'
_cell_length_a   8.44407000
_cell_length_b   8.68701000
_cell_length_c   9.60259000
_cell_angle_alpha   89.99990000
_cell_angle_beta   105.29200000
_cell_angle_gamma   89.99960000
_symmetry_Int_Tables_number   1
_chemical_formula_structural   CuH12C8(N4Cl)2
_chemical_formula_sum   'Cu2 H24 C16 N16 Cl4'
_cell_volume   679.44640099
_cell_formula_units_Z   2
loop_
 _symmetry_equiv_pos_site_id
 _symmetry_equiv_pos_as_xyz
  1  'x, y, z'
loop_
 _atom_site_type_symbol
 _atom_site_label
 _atom_site_symmetry_multiplicity
 _atom_site_fract_x
 _atom_site_fract_y
 _atom_site_fract_z
 _atom_site_occupancy
  Cu  Cu0  1  0.99999000  0.50000000  0.50000000  1.0
  Cu  Cu1  1  0.00000000  0.00000000  0.00000000  1.0
  H  H2  1  0.87345000  0.74940000  0.20433000  1.0
  H  H3  1  0.12655000  0.24939000  0.29567000  1.0
  H  H4  1  0.12655000  0.25061000  0.79567000  1.0
  H  H5  1  0.87344000  0.75061000  0.70432000  1.0
  H  H6  1  0.38192000  0.65332000  0.53085000  1.0
  H  H7  1  0.61808000  0.15331000  0.96915000  1.0
  H  H8  1  0.61808000  0.34668000  0.46915000  1.0
  H  H9  1  0.38191000  0.84669000  0.03084000  1.0
  H  H10  1  0.49007000  0.79133000  0.45442000  1.0
  H  H11  1  0.50993000  0.29133000  0.04558000  1.0
  H  H12  1  0.50993000  0.20867000  0.54558000  1.0
  H  H13  1  0.49006000  0.70868000  0.95441000  1.0
  H  H14  1  0.51397000  0.86575000  0.71168000  1.0
  H  H15  1  0.48604000  0.36575000  0.78832000  1.0
  H  H16  1  0.48604000  0.13425000  0.28833000  1.0
  H  H17  1  0.51397000  0.63425000  0.21167000  1.0
  H  H18  1  0.17273000  0.00220000  0.56264000  1.0
  H  H19  1  0.82728000  0.50219000  0.93739000  1.0
  H  H20  1  0.82729000  0.99781000  0.43739000  1.0
  H  H21  1  0.17272000  0.49781000  0.06261000  1.0
  H  H22  1  0.31013000  0.05154000  0.74206000  1.0
  H  H23  1  0.68989000  0.55154000  0.75796000  1.0
  H  H24  1  0.68989000  0.94845000  0.25796000  1.0
  H  H25  1  0.31012000  0.44846000  0.24204000  1.0
  C  C26  1  0.99987000  0.78263000  0.25093000  1.0
  C  C27  1  0.00013000  0.28262000  0.24907000  1.0
  C  C28  1  0.00013000  0.21738000  0.74907000  1.0
  C  C29  1  0.99985000  0.71738000  0.75092000  1.0
  C  C30  1  0.38503000  0.77546000  0.50043000  1.0
  C  C31  1  0.61497000  0.27545000  0.99957000  1.0
  C  C32  1  0.61497000  0.22454000  0.49957000  1.0
  C  C33  1  0.38503000  0.72455000  0.00042000  1.0
  C  C34  1  0.39860000  0.87922000  0.62767000  1.0
  C  C35  1  0.60140000  0.37922000  0.87234000  1.0
  C  C36  1  0.60141000  0.12078000  0.37234000  1.0
  C  C37  1  0.39860000  0.62078000  0.12765000  1.0
  C  C38  1  0.28795000  0.98216000  0.64436000  1.0
  C  C39  1  0.71206000  0.48215000  0.85566000  1.0
  C  C40  1  0.71207000  0.01784000  0.35566000  1.0
  C  C41  1  0.28795000  0.51785000  0.14434000  1.0
  N  N42  1  0.09628000  0.72676000  0.37281000  1.0
  N  N43  1  0.90372000  0.22675000  0.12720000  1.0
  N  N44  1  0.90372000  0.27324000  0.62720000  1.0
  N  N45  1  0.09628000  0.77325000  0.87280000  1.0
  N  N46  1  0.23745000  0.80091000  0.38336000  1.0
  N  N47  1  0.76255000  0.30090000  0.11664000  1.0
  N  N48  1  0.76255000  0.19910000  0.61664000  1.0
  N  N49  1  0.23744000  0.69910000  0.88335000  1.0
  N  N50  1  0.23292000  0.89853000  0.27724000  1.0
  N  N51  1  0.76708000  0.39853000  0.22277000  1.0
  N  N52  1  0.76708000  0.10147000  0.72277000  1.0
  N  N53  1  0.23291000  0.60147000  0.77723000  1.0
  N  N54  1  0.08153000  0.88758000  0.19158000  1.0
  N  N55  1  0.91847000  0.38757000  0.30842000  1.0
  N  N56  1  0.91848000  0.11243000  0.80842000  1.0
  N  N57  1  0.08152000  0.61243000  0.69157000  1.0
  Cl  Cl58  1  0.25058000  0.37878000  0.53482000  1.0
  Cl  Cl59  1  0.74942000  0.87878000  0.96519000  1.0
  Cl  Cl60  1  0.74941000  0.62122000  0.46518000  1.0
  Cl  Cl61  1  0.25058000  0.12122000  0.03482000  1.0
