# generated using pymatgen
data_CuH10C10IN4
_symmetry_space_group_name_H-M   'P 1'
_cell_length_a   3.94855000
_cell_length_b   16.52080000
_cell_length_c   17.63270000
_cell_angle_alpha   89.27120000
_cell_angle_beta   83.89010000
_cell_angle_gamma   83.13660000
_symmetry_Int_Tables_number   1
_chemical_formula_structural   CuH10C10IN4
_chemical_formula_sum   'Cu4 H40 C40 I4 N16'
_cell_volume   1135.50776914
_cell_formula_units_Z   4
loop_
 _symmetry_equiv_pos_site_id
 _symmetry_equiv_pos_as_xyz
  1  'x, y, z'
loop_
 _atom_site_type_symbol
 _atom_site_label
 _atom_site_symmetry_multiplicity
 _atom_site_fract_x
 _atom_site_fract_y
 _atom_site_fract_z
 _atom_site_occupancy
  Cu  Cu0  1  0.43978000  0.97498000  0.78674000  1.0
  Cu  Cu1  1  0.20153000  0.02508000  0.21315000  1.0
  Cu  Cu2  1  0.16396000  0.52514000  0.28664000  1.0
  Cu  Cu3  1  0.97656000  0.47488000  0.71318000  1.0
  H  H4  1  0.05603000  0.69223000  0.75462000  1.0
  H  H5  1  0.50279000  0.30790000  0.24590000  1.0
  H  H6  1  0.49760000  0.80788000  0.25463000  1.0
  H  H7  1  0.55979000  0.19195000  0.74583000  1.0
  H  H8  1  0.10683000  0.66844000  0.89400000  1.0
  H  H9  1  0.66938000  0.33130000  0.10678000  1.0
  H  H10  1  0.52504000  0.83148000  0.39401000  1.0
  H  H11  1  0.74999000  0.16865000  0.60672000  1.0
  H  H12  1  0.24083000  0.87129000  0.99995000  1.0
  H  H13  1  0.11146000  0.12839000  0.99969000  1.0
  H  H14  1  0.86165000  0.62861000  0.49986000  1.0
  H  H15  1  0.98902000  0.37163000  0.49966000  1.0
  H  H16  1  0.32141000  0.95616000  0.93989000  1.0
  H  H17  1  0.21796000  0.04350000  0.05986000  1.0
  H  H18  1  0.02687000  0.54379000  0.43971000  1.0
  H  H19  1  0.01082000  0.45645000  0.55991000  1.0
  H  H20  1  0.62027000  0.91631000  0.00497000  1.0
  H  H21  1  0.54067000  0.08343000  0.99532000  1.0
  H  H22  1  0.28614000  0.58359000  0.50478000  1.0
  H  H23  1  0.37343000  0.41656000  0.49534000  1.0
  H  H24  1  0.88090000  0.71617000  0.64307000  1.0
  H  H25  1  0.24203000  0.28396000  0.35718000  1.0
  H  H26  1  0.34694000  0.78393000  0.14295000  1.0
  H  H27  1  0.27652000  0.21598000  0.85716000  1.0
  H  H28  1  0.73822000  0.76960000  0.51520000  1.0
  H  H29  1  0.02570000  0.23063000  0.48475000  1.0
  H  H30  1  0.26046000  0.73027000  0.01498000  1.0
  H  H31  1  0.00845000  0.26942000  0.98480000  1.0
  H  H32  1  0.43668000  0.04460000  0.55176000  1.0
  H  H33  1  0.03444000  0.95578000  0.44796000  1.0
  H  H34  1  0.23146000  0.45539000  0.05188000  1.0
  H  H35  1  0.74037000  0.54411000  0.94812000  1.0
  H  H36  1  0.35741000  0.05779000  0.65403000  1.0
  H  H37  1  0.06682000  0.94246000  0.34572000  1.0
  H  H38  1  0.16439000  0.44239000  0.15414000  1.0
  H  H39  1  0.76020000  0.55757000  0.84588000  1.0
  H  H40  1  0.04782000  0.02160000  0.60130000  1.0
  H  H41  1  0.67064000  0.97895000  0.39815000  1.0
  H  H42  1  0.81926000  0.47848000  0.10118000  1.0
  H  H43  1  0.40024000  0.52101000  0.89810000  1.0
  C  C44  1  0.61956000  0.84336000  0.90554000  1.0
  C  C45  1  0.36883000  0.15638000  0.09461000  1.0
  C  C46  1  0.21208000  0.65666000  0.40545000  1.0
  C  C47  1  0.27447000  0.34353000  0.59459000  1.0
  C  C48  1  0.73579000  0.80844000  0.77730000  1.0
  C  C49  1  0.32159000  0.19161000  0.22287000  1.0
  C  C50  1  0.29281000  0.69173000  0.27725000  1.0
  C  C51  1  0.26279000  0.30830000  0.72286000  1.0
  C  C52  1  0.92784000  0.73624000  0.79700000  1.0
  C  C53  1  0.46119000  0.26374000  0.20343000  1.0
  C  C54  1  0.41329000  0.76384000  0.29698000  1.0
  C  C55  1  0.47417000  0.23613000  0.70337000  1.0
  C  C56  1  0.95606000  0.72294000  0.87423000  1.0
  C  C57  1  0.55368000  0.27681000  0.12633000  1.0
  C  C58  1  0.42851000  0.77703000  0.37421000  1.0
  C  C59  1  0.57957000  0.22308000  0.62627000  1.0
  C  C60  1  0.44084000  0.90069000  0.96552000  1.0
  C  C61  1  0.30694000  0.09900000  0.03444000  1.0
  C  C62  1  0.09095000  0.59925000  0.46537000  1.0
  C  C63  1  0.15522000  0.40096000  0.53443000  1.0
  C  C64  1  0.47795000  0.93386000  0.61652000  1.0
  C  C65  1  0.02854000  0.06645000  0.38318000  1.0
  C  C66  1  0.16168000  0.56624000  0.11646000  1.0
  C  C67  1  0.84587000  0.43354000  0.88322000  1.0
  C  C68  1  0.68276000  0.83195000  0.69817000  1.0
  C  C69  1  0.21338000  0.16821000  0.30187000  1.0
  C  C70  1  0.26368000  0.66824000  0.19810000  1.0
  C  C71  1  0.13168000  0.33172000  0.80188000  1.0
  C  C72  1  0.76577000  0.77879000  0.63641000  1.0
  C  C73  1  0.18216000  0.22141000  0.36367000  1.0
  C  C74  1  0.29420000  0.72134000  0.13632000  1.0
  C  C75  1  0.15420000  0.27853000  0.86366000  1.0
  C  C76  1  0.68747000  0.80859000  0.56540000  1.0
  C  C77  1  0.06283000  0.19170000  0.43449000  1.0
  C  C78  1  0.24705000  0.69141000  0.06526000  1.0
  C  C79  1  0.00603000  0.30831000  0.93451000  1.0
  C  C80  1  0.32455000  0.01978000  0.60541000  1.0
  C  C81  1  0.94950000  0.98059000  0.39423000  1.0
  C  C82  1  0.09404000  0.48030000  0.10542000  1.0
  C  C83  1  0.68075000  0.51938000  0.89430000  1.0
  I  I84  1  0.88274000  0.06450000  0.82575000  1.0
  I  I85  1  0.77095000  0.93540000  0.17445000  1.0
  I  I86  1  0.69643000  0.43565000  0.32569000  1.0
  I  I87  1  0.45653000  0.56459000  0.67442000  1.0
  N  N88  1  0.80196000  0.77532000  0.92842000  1.0
  N  N89  1  0.50655000  0.22430000  0.07199000  1.0
  N  N90  1  0.32678000  0.72464000  0.42837000  1.0
  N  N91  1  0.48004000  0.27562000  0.57194000  1.0
  N  N92  1  0.58450000  0.86243000  0.83171000  1.0
  N  N93  1  0.27857000  0.13751000  0.16832000  1.0
  N  N94  1  0.19559000  0.63771000  0.33163000  1.0
  N  N95  1  0.16572000  0.36241000  0.66832000  1.0
  N  N96  1  0.54354000  0.88523000  0.55505000  1.0
  N  N97  1  0.98456000  0.11513000  0.44463000  1.0
  N  N98  1  0.17977000  0.61476000  0.05492000  1.0
  N  N99  1  0.85121000  0.38488000  0.94469000  1.0
  N  N100  1  0.54006000  0.91004000  0.68809000  1.0
  N  N101  1  0.13855000  0.09014000  0.31181000  1.0
  N  N102  1  0.19915000  0.59014000  0.18803000  1.0
  N  N103  1  0.97886000  0.40981000  0.81181000  1.0
