# generated using pymatgen
data_NaH7C6O7
_symmetry_space_group_name_H-M   'P 1'
_cell_length_a   7.45071000
_cell_length_b   9.65991000
_cell_length_c   11.67240000
_cell_angle_alpha   90.00000000
_cell_angle_beta   90.00000000
_cell_angle_gamma   105.56600000
_symmetry_Int_Tables_number   1
_chemical_formula_structural   NaH7C6O7
_chemical_formula_sum   'Na4 H28 C24 O28'
_cell_volume   809.28663915
_cell_formula_units_Z   4
loop_
 _symmetry_equiv_pos_site_id
 _symmetry_equiv_pos_as_xyz
  1  'x, y, z'
loop_
 _atom_site_type_symbol
 _atom_site_label
 _atom_site_symmetry_multiplicity
 _atom_site_fract_x
 _atom_site_fract_y
 _atom_site_fract_z
 _atom_site_occupancy
  Na  Na0  1  0.10430000  0.09179000  0.12251000  1.0
  Na  Na1  1  0.89570000  0.40820000  0.62251000  1.0
  Na  Na2  1  0.89570000  0.90821000  0.87749000  1.0
  Na  Na3  1  0.10430000  0.59179000  0.37749000  1.0
  H  H4  1  0.80846000  0.36616000  0.19308000  1.0
  H  H5  1  0.19154000  0.13384000  0.69308000  1.0
  H  H6  1  0.19154000  0.63384000  0.80692000  1.0
  H  H7  1  0.80846000  0.86616000  0.30692000  1.0
  H  H8  1  0.73410000  0.17677000  0.19013000  1.0
  H  H9  1  0.26590000  0.32323000  0.69013000  1.0
  H  H10  1  0.26590000  0.82323000  0.80987000  1.0
  H  H11  1  0.73410000  0.67677000  0.30987000  1.0
  H  H12  1  0.64904000  0.04473000  0.37049000  1.0
  H  H13  1  0.35097000  0.45527000  0.87049000  1.0
  H  H14  1  0.35097000  0.95527000  0.62951000  1.0
  H  H15  1  0.64903000  0.54473000  0.12951000  1.0
  H  H16  1  0.57469000  0.16195000  0.46308000  1.0
  H  H17  1  0.42531000  0.33805000  0.96308000  1.0
  H  H18  1  0.42531000  0.83805000  0.53692000  1.0
  H  H19  1  0.57469000  0.66195000  0.03692000  1.0
  H  H20  1  0.69790000  0.41596000  0.40843000  1.0
  H  H21  1  0.30210000  0.08404000  0.90843000  1.0
  H  H22  1  0.30210000  0.58404000  0.59157000  1.0
  H  H23  1  0.69790000  0.91597000  0.09158000  1.0
  H  H24  1  0.34072000  0.35558000  0.32777000  1.0
  H  H25  1  0.65928000  0.14442000  0.82777000  1.0
  H  H26  1  0.65928000  0.64442000  0.67223000  1.0
  H  H27  1  0.34072000  0.85558000  0.17223000  1.0
  H  H28  1  0.83341000  0.92855000  0.61144000  1.0
  H  H29  1  0.16659000  0.57144000  0.11144000  1.0
  H  H30  1  0.16659000  0.07144000  0.38856000  1.0
  H  H31  1  0.83341000  0.42856000  0.88856000  1.0
  C  C32  1  0.52441000  0.27504000  0.24052000  1.0
  C  C33  1  0.47559000  0.22497000  0.74052000  1.0
  C  C34  1  0.47559000  0.72496000  0.75948000  1.0
  C  C35  1  0.52442000  0.77503000  0.25948000  1.0
  C  C36  1  0.72595000  0.27111000  0.23970000  1.0
  C  C37  1  0.27405000  0.22889000  0.73970000  1.0
  C  C38  1  0.27405000  0.72889000  0.76030000  1.0
  C  C39  1  0.72595000  0.77111000  0.26030000  1.0
  C  C40  1  0.81338000  0.26793000  0.35934000  1.0
  C  C41  1  0.18661000  0.23207000  0.85934000  1.0
  C  C42  1  0.18661000  0.73207000  0.64065000  1.0
  C  C43  1  0.81339000  0.76793000  0.14066000  1.0
  C  C44  1  0.69922000  0.13699000  0.42757000  1.0
  C  C45  1  0.30078000  0.36300000  0.92758000  1.0
  C  C46  1  0.30078000  0.86300000  0.57242000  1.0
  C  C47  1  0.69922000  0.63700000  0.07243000  1.0
  C  C48  1  0.80623000  0.09458000  0.52508000  1.0
  C  C49  1  0.19377000  0.40542000  0.02508000  1.0
  C  C50  1  0.19377000  0.90542000  0.47492000  1.0
  C  C51  1  0.80624000  0.59458000  0.97492000  1.0
  C  C52  1  0.01389000  0.25406000  0.34153000  1.0
  C  C53  1  0.98611000  0.24594000  0.84153000  1.0
  C  C54  1  0.98610000  0.74594000  0.65847000  1.0
  C  C55  1  0.01389000  0.75407000  0.15848000  1.0
  O  O56  1  0.48493000  0.36092000  0.32100000  1.0
  O  O57  1  0.51507000  0.13908000  0.82100000  1.0
  O  O58  1  0.51507000  0.63909000  0.67900000  1.0
  O  O59  1  0.48493000  0.86091000  0.17900000  1.0
  O  O60  1  0.41005000  0.20718000  0.17108000  1.0
  O  O61  1  0.58995000  0.29281000  0.67108000  1.0
  O  O62  1  0.58995000  0.79282000  0.82892000  1.0
  O  O63  1  0.41005000  0.70718000  0.32892000  1.0
  O  O64  1  0.75009000  0.95548000  0.55001000  1.0
  O  O65  1  0.24991000  0.54452000  0.05001000  1.0
  O  O66  1  0.24991000  0.04452000  0.44999000  1.0
  O  O67  1  0.75009000  0.45548000  0.94999000  1.0
  O  O68  1  0.93311000  0.18097000  0.57633000  1.0
  O  O69  1  0.06689000  0.31903000  0.07633000  1.0
  O  O70  1  0.06689000  0.81903000  0.42367000  1.0
  O  O71  1  0.93311000  0.68097000  0.92367000  1.0
  O  O72  1  0.02501000  0.12908000  0.31461000  1.0
  O  O73  1  0.97499000  0.37092000  0.81461000  1.0
  O  O74  1  0.97499000  0.87092000  0.68539000  1.0
  O  O75  1  0.02501000  0.62908000  0.18539000  1.0
  O  O76  1  0.15027000  0.36470000  0.35267000  1.0
  O  O77  1  0.84973000  0.13530000  0.85267000  1.0
  O  O78  1  0.84973000  0.63530000  0.64733000  1.0
  O  O79  1  0.15027000  0.86470000  0.14733000  1.0
  O  O80  1  0.82260000  0.40053000  0.41916000  1.0
  O  O81  1  0.17740000  0.09947000  0.91916000  1.0
  O  O82  1  0.17740000  0.59947000  0.58084000  1.0
  O  O83  1  0.82260000  0.90054000  0.08085000  1.0
