# generated using pymatgen
data_ErH4C12(O4F3)2
_symmetry_space_group_name_H-M   'P 1'
_cell_length_a   8.70205000
_cell_length_b   8.71588000
_cell_length_c   11.50680731
_cell_angle_alpha   67.80122073
_cell_angle_beta   67.81642799
_cell_angle_gamma   80.63610000
_symmetry_Int_Tables_number   1
_chemical_formula_structural   ErH4C12(O4F3)2
_chemical_formula_sum   'Er2 H8 C24 O16 F12'
_cell_volume   748.03863250
_cell_formula_units_Z   2
loop_
 _symmetry_equiv_pos_site_id
 _symmetry_equiv_pos_as_xyz
  1  'x, y, z'
loop_
 _atom_site_type_symbol
 _atom_site_label
 _atom_site_symmetry_multiplicity
 _atom_site_fract_x
 _atom_site_fract_y
 _atom_site_fract_z
 _atom_site_occupancy
  Er  Er0  1  0.34006000  0.34014000  0.01322000  1.0
  Er  Er1  1  0.65993000  0.65986000  0.98678000  1.0
  H  H2  1  0.35009000  0.98389000  0.18740000  1.0
  H  H3  1  0.01634000  0.64941000  0.81249000  1.0
  H  H4  1  0.64991000  0.01612000  0.81260000  1.0
  H  H5  1  0.98365000  0.35059000  0.18751000  1.0
  H  H6  1  0.35396000  0.97467000  0.05450000  1.0
  H  H7  1  0.02606000  0.64570000  0.94521000  1.0
  H  H8  1  0.64604000  0.02534000  0.94550000  1.0
  H  H9  1  0.97395000  0.35431000  0.05478000  1.0
  C  C10  1  0.63215000  0.63236000  0.74911000  1.0
  C  C11  1  0.36785000  0.36763000  0.25090000  1.0
  C  C12  1  0.63630000  0.63676000  0.61527000  1.0
  C  C13  1  0.36370000  0.36323000  0.38474000  1.0
  C  C14  1  0.74345000  0.53346000  0.55099000  1.0
  C  C15  1  0.46676000  0.25575000  0.44925000  1.0
  C  C16  1  0.25656000  0.46654000  0.44901000  1.0
  C  C17  1  0.53324000  0.74424000  0.55075000  1.0
  C  C18  1  0.75014000  0.53887000  0.42664000  1.0
  C  C19  1  0.46139000  0.24907000  0.57358000  1.0
  C  C20  1  0.24988000  0.46114000  0.57335000  1.0
  C  C21  1  0.53861000  0.75092000  0.42642000  1.0
  C  C22  1  0.64925000  0.64977000  0.35911000  1.0
  C  C23  1  0.35075000  0.35022000  0.64089000  1.0
  C  C24  1  0.66304000  0.66348000  0.22210000  1.0
  C  C25  1  0.33695000  0.33652000  0.77790000  1.0
  C  C26  1  0.01150000  0.88832000  0.11910000  1.0
  C  C27  1  0.11142000  0.98860000  0.88069000  1.0
  C  C28  1  0.98850000  0.11169000  0.88090000  1.0
  C  C29  1  0.88857000  0.01141000  0.11931000  1.0
  C  C30  1  0.12464000  0.87511000  0.99983000  1.0
  C  C31  1  0.87536000  0.12490000  0.00017000  1.0
  C  C32  1  0.25820000  0.74158000  0.99974000  1.0
  C  C33  1  0.74179000  0.25843000  0.00026000  1.0
  O  O34  1  0.76728000  0.57117000  0.16368000  1.0
  O  O35  1  0.42947000  0.23261000  0.83638000  1.0
  O  O36  1  0.23270000  0.42884000  0.83632000  1.0
  O  O37  1  0.57051000  0.76740000  0.16363000  1.0
  O  O38  1  0.53419000  0.53390000  0.85549000  1.0
  O  O39  1  0.46581000  0.46609000  0.14451000  1.0
  O  O40  1  0.21662000  0.60212000  0.01217000  1.0
  O  O41  1  0.39794000  0.78303000  0.98722000  1.0
  O  O42  1  0.78339000  0.39789000  0.98782000  1.0
  O  O43  1  0.60207000  0.21697000  0.01277000  1.0
  O  O44  1  0.72608000  0.72649000  0.75128000  1.0
  O  O45  1  0.27392000  0.27350000  0.24872000  1.0
  O  O46  1  0.31190000  0.04310000  0.11195000  1.0
  O  O47  1  0.95725000  0.68760000  0.88791000  1.0
  O  O48  1  0.68810000  0.95690000  0.88805000  1.0
  O  O49  1  0.04274000  0.31240000  0.11209000  1.0
  F  F50  1  0.84289000  0.42396000  0.61050000  1.0
  F  F51  1  0.57607000  0.15610000  0.38996000  1.0
  F  F52  1  0.15713000  0.57604000  0.38949000  1.0
  F  F53  1  0.42392000  0.84388000  0.61006000  1.0
  F  F54  1  0.85844000  0.43194000  0.37475000  1.0
  F  F55  1  0.56806000  0.14053000  0.62573000  1.0
  F  F56  1  0.14159000  0.56808000  0.62523000  1.0
  F  F57  1  0.43194000  0.85944000  0.37428000  1.0
  F  F58  1  0.02213000  0.78217000  0.23680000  1.0
  F  F59  1  0.21727000  0.97812000  0.76287000  1.0
  F  F60  1  0.97787000  0.21784000  0.76320000  1.0
  F  F61  1  0.78272000  0.02188000  0.23713000  1.0
