# generated using pymatgen
data_ZnH2C20N4Cl3O10
_symmetry_space_group_name_H-M   'P 1'
_cell_length_a   14.30460000
_cell_length_b   14.72990000
_cell_length_c   15.05260000
_cell_angle_alpha   89.97520000
_cell_angle_beta   88.69930000
_cell_angle_gamma   89.95600000
_symmetry_Int_Tables_number   1
_chemical_formula_structural   ZnH2C20N4Cl3O10
_chemical_formula_sum   'Zn2 H4 C40 N8 Cl6 O20'
_cell_volume   3170.84456877
_cell_formula_units_Z   2
loop_
 _symmetry_equiv_pos_site_id
 _symmetry_equiv_pos_as_xyz
  1  'x, y, z'
loop_
 _atom_site_type_symbol
 _atom_site_label
 _atom_site_symmetry_multiplicity
 _atom_site_fract_x
 _atom_site_fract_y
 _atom_site_fract_z
 _atom_site_occupancy
  Zn  Zn0  1  0.50034000  0.40111000  0.50001000  1.0
  Zn  Zn1  1  0.49982000  0.59651000  0.50017000  1.0
  H  H2  1  0.36314000  0.49833000  0.23484000  1.0
  H  H3  1  0.63656000  0.49451000  0.76540000  1.0
  H  H4  1  0.26851000  0.46998000  0.10153000  1.0
  H  H5  1  0.73057000  0.46465000  0.89891000  1.0
  C  C6  1  0.48349000  0.51153000  0.66828000  1.0
  C  C7  1  0.51644000  0.51208000  0.33195000  1.0
  C  C8  1  0.67732000  0.48599000  0.51827000  1.0
  C  C9  1  0.32290000  0.48524000  0.48187000  1.0
  C  C10  1  0.77791000  0.48602000  0.51730000  1.0
  C  C11  1  0.22230000  0.48512000  0.48252000  1.0
  C  C12  1  0.86359000  0.48704000  0.51121000  1.0
  C  C13  1  0.13662000  0.48644000  0.48847000  1.0
  C  C14  1  0.95706000  0.48751000  0.50363000  1.0
  C  C15  1  0.04314000  0.48732000  0.49596000  1.0
  C  C16  1  0.59598000  0.49436000  0.18112000  1.0
  C  C17  1  0.40370000  0.49539000  0.81913000  1.0
  C  C18  1  0.51341000  0.50184000  0.23267000  1.0
  C  C19  1  0.48637000  0.50118000  0.76758000  1.0
  C  C20  1  0.42673000  0.49460000  0.19358000  1.0
  C  C21  1  0.57289000  0.49224000  0.80666000  1.0
  C  C22  1  0.42022000  0.48421000  0.10141000  1.0
  C  C23  1  0.57922000  0.48201000  0.89888000  1.0
  C  C24  1  0.50343000  0.47868000  0.04747000  1.0
  C  C25  1  0.49592000  0.47853000  0.95286000  1.0
  C  C26  1  0.59311000  0.47780000  0.08862000  1.0
  C  C27  1  0.40622000  0.47931000  0.91175000  1.0
  C  C28  1  0.33194000  0.47563000  0.06036000  1.0
  C  C29  1  0.66726000  0.47180000  0.94003000  1.0
  C  C30  1  0.32596000  0.46923000  0.97026000  1.0
  C  C31  1  0.67313000  0.46576000  0.03018000  1.0
  C  C32  1  0.54882000  0.19798000  0.43852000  1.0
  C  C33  1  0.44974000  0.81306000  0.55980000  1.0
  C  C34  1  0.45142000  0.19800000  0.56139000  1.0
  C  C35  1  0.55000000  0.81298000  0.43985000  1.0
  C  C36  1  0.44172000  0.10262000  0.56231000  1.0
  C  C37  1  0.56009000  0.90837000  0.43945000  1.0
  C  C38  1  0.55831000  0.10256000  0.43740000  1.0
  C  C39  1  0.43968000  0.90846000  0.56016000  1.0
  C  C40  1  0.49997000  0.05401000  0.49983000  1.0
  C  C41  1  0.49991000  0.95724000  0.49980000  1.0
  C  C42  1  0.37667000  0.05252000  0.61808000  1.0
  C  C43  1  0.62605000  0.95830000  0.38482000  1.0
  C  C44  1  0.62322000  0.05236000  0.38151000  1.0
  C  C45  1  0.37371000  0.95848000  0.61471000  1.0
  N  N46  1  0.50020000  0.24446000  0.50001000  1.0
  N  N47  1  0.49987000  0.76622000  0.49985000  1.0
  N  N48  1  0.23435000  0.43894000  0.93814000  1.0
  N  N49  1  0.76407000  0.43361000  0.06242000  1.0
  N  N50  1  0.59031000  0.25532000  0.36627000  1.0
  N  N51  1  0.40721000  0.75729000  0.63250000  1.0
  N  N52  1  0.41007000  0.25524000  0.63379000  1.0
  N  N53  1  0.59237000  0.75717000  0.36710000  1.0
  Cl  Cl54  1  0.69954000  0.51332000  0.23390000  1.0
  Cl  Cl55  1  0.30055000  0.51574000  0.76603000  1.0
  Cl  Cl56  1  0.29686000  0.10651000  0.68518000  1.0
  Cl  Cl57  1  0.71344000  0.90400000  0.32710000  1.0
  Cl  Cl58  1  0.70299000  0.10626000  0.31434000  1.0
  Cl  Cl59  1  0.28616000  0.90432000  0.67229000  1.0
  O  O60  1  0.46703000  0.43903000  0.62624000  1.0
  O  O61  1  0.49854000  0.58959000  0.36532000  1.0
  O  O62  1  0.53361000  0.43962000  0.37392000  1.0
  O  O63  1  0.50072000  0.58923000  0.63505000  1.0
  O  O64  1  0.63694000  0.41007000  0.53355000  1.0
  O  O65  1  0.36113000  0.56130000  0.49778000  1.0
  O  O66  1  0.36369000  0.40953000  0.46632000  1.0
  O  O67  1  0.63872000  0.56204000  0.50275000  1.0
  O  O68  1  0.16376000  0.48059000  0.96411000  1.0
  O  O69  1  0.23533000  0.36978000  0.89123000  1.0
  O  O70  1  0.83559000  0.47322000  0.03573000  1.0
  O  O71  1  0.76158000  0.36505000  0.11019000  1.0
  O  O72  1  0.66278000  0.29616000  0.38171000  1.0
  O  O73  1  0.54475000  0.25595000  0.29763000  1.0
  O  O74  1  0.34131000  0.70812000  0.61370000  1.0
  O  O75  1  0.44441000  0.76656000  0.70507000  1.0
  O  O76  1  0.33765000  0.29633000  0.61852000  1.0
  O  O77  1  0.45567000  0.25549000  0.70241000  1.0
  O  O78  1  0.65833000  0.70789000  0.38570000  1.0
  O  O79  1  0.55491000  0.76651000  0.29465000  1.0
