# generated using pymatgen
data_Ag3H5C10SNO7
_symmetry_space_group_name_H-M   'P 1'
_cell_length_a   10.78150000
_cell_length_b   11.18292101
_cell_length_c   11.19890000
_cell_angle_alpha   90.00000000
_cell_angle_beta   90.00000000
_cell_angle_gamma   118.25593845
_symmetry_Int_Tables_number   1
_chemical_formula_structural   Ag3H5C10SNO7
_chemical_formula_sum   'Ag12 H20 C40 S4 N4 O28'
_cell_volume   1189.34449249
_cell_formula_units_Z   4
loop_
 _symmetry_equiv_pos_site_id
 _symmetry_equiv_pos_as_xyz
  1  'x, y, z'
loop_
 _atom_site_type_symbol
 _atom_site_label
 _atom_site_symmetry_multiplicity
 _atom_site_fract_x
 _atom_site_fract_y
 _atom_site_fract_z
 _atom_site_occupancy
  Ag  Ag0  1  0.50445000  0.83697000  0.18229000  1.0
  Ag  Ag1  1  0.99555000  0.16303000  0.68229000  1.0
  Ag  Ag2  1  0.49555000  0.16303000  0.81771000  1.0
  Ag  Ag3  1  0.00445000  0.83697000  0.31771000  1.0
  Ag  Ag4  1  0.86068000  0.98607000  0.29826000  1.0
  Ag  Ag5  1  0.63932000  0.01393000  0.79826000  1.0
  Ag  Ag6  1  0.13932000  0.01393000  0.70174000  1.0
  Ag  Ag7  1  0.36068000  0.98607000  0.20174000  1.0
  Ag  Ag8  1  0.73036000  0.85282000  0.99782000  1.0
  Ag  Ag9  1  0.76964000  0.14718000  0.49783000  1.0
  Ag  Ag10  1  0.26964000  0.14718000  0.00218000  1.0
  Ag  Ag11  1  0.23036000  0.85282000  0.50218000  1.0
  H  H12  1  0.15828000  0.44199000  0.06229000  1.0
  H  H13  1  0.34172000  0.55801000  0.56229000  1.0
  H  H14  1  0.84172000  0.55801000  0.93771000  1.0
  H  H15  1  0.65828000  0.44199000  0.43771000  1.0
  H  H16  1  0.92160000  0.58974000  0.26485000  1.0
  H  H17  1  0.57840000  0.41026000  0.76484000  1.0
  H  H18  1  0.07840000  0.41026000  0.73516000  1.0
  H  H19  1  0.42160000  0.58974000  0.23515000  1.0
  H  H20  1  0.71213000  0.36413000  0.25148000  1.0
  H  H21  1  0.78787000  0.63587000  0.75148000  1.0
  H  H22  1  0.28787000  0.63587000  0.74852000  1.0
  H  H23  1  0.21213000  0.36413000  0.24852000  1.0
  H  H24  1  0.42653000  0.66105000  0.92347000  1.0
  H  H25  1  0.07347000  0.33895000  0.42348000  1.0
  H  H26  1  0.57347000  0.33895000  0.07652000  1.0
  H  H27  1  0.92653000  0.66105000  0.57653000  1.0
  H  H28  1  0.73647000  0.59366000  0.08204000  1.0
  H  H29  1  0.76352000  0.40633000  0.58204000  1.0
  H  H30  1  0.26352000  0.40633000  0.91796000  1.0
  H  H31  1  0.23647000  0.59366000  0.41796000  1.0
  C  C32  1  0.68183000  0.13905000  0.15665000  1.0
  C  C33  1  0.81818000  0.86096000  0.65665000  1.0
  C  C34  1  0.31818000  0.86096000  0.84335000  1.0
  C  C35  1  0.18182000  0.13904000  0.34335000  1.0
  C  C36  1  0.81518000  0.27217000  0.15261000  1.0
  C  C37  1  0.68482000  0.72783000  0.65261000  1.0
  C  C38  1  0.18482000  0.72783000  0.84739000  1.0
  C  C39  1  0.31518000  0.27217000  0.34739000  1.0
  C  C40  1  0.94250000  0.29575000  0.09843000  1.0
  C  C41  1  0.55750000  0.70425000  0.59843000  1.0
  C  C42  1  0.05750000  0.70425000  0.90157000  1.0
  C  C43  1  0.44250000  0.29575000  0.40157000  1.0
  C  C44  1  0.06063000  0.42355000  0.10548000  1.0
  C  C45  1  0.43937000  0.57645000  0.60548000  1.0
  C  C46  1  0.93937000  0.57645000  0.89452000  1.0
  C  C47  1  0.56063000  0.42355000  0.39452000  1.0
  C  C48  1  0.05662000  0.53050000  0.16699000  1.0
  C  C49  1  0.44338000  0.46950000  0.66699000  1.0
  C  C50  1  0.94338000  0.46950000  0.83301000  1.0
  C  C51  1  0.55661000  0.53049000  0.33301000  1.0
  C  C52  1  0.92904000  0.50824000  0.21809000  1.0
  C  C53  1  0.57096000  0.49176000  0.71809000  1.0
  C  C54  1  0.07096000  0.49176000  0.78191000  1.0
  C  C55  1  0.42904000  0.50824000  0.28191000  1.0
  C  C56  1  0.81081000  0.38158000  0.21022000  1.0
  C  C57  1  0.68919000  0.61842000  0.71022000  1.0
  C  C58  1  0.18919000  0.61842000  0.78978000  1.0
  C  C59  1  0.31081000  0.38158000  0.28978000  1.0
  C  C60  1  0.18858000  0.66430000  0.17956000  1.0
  C  C61  1  0.31142000  0.33570000  0.67956000  1.0
  C  C62  1  0.81142000  0.33570000  0.82044000  1.0
  C  C63  1  0.68858000  0.66430000  0.32044000  1.0
  C  C64  1  0.45921000  0.58857000  0.95662000  1.0
  C  C65  1  0.04079000  0.41143000  0.45662000  1.0
  C  C66  1  0.54079000  0.41143000  0.04338000  1.0
  C  C67  1  0.95921000  0.58857000  0.54338000  1.0
  C  C68  1  0.63047000  0.55066000  0.04531000  1.0
  C  C69  1  0.86953000  0.44934000  0.54531000  1.0
  C  C70  1  0.36953000  0.44934000  0.95469000  1.0
  C  C71  1  0.13047000  0.55066000  0.45469000  1.0
  S  S72  1  0.96508000  0.16746000  0.02059000  1.0
  S  S73  1  0.53492000  0.83254000  0.52060000  1.0
  S  S74  1  0.03492000  0.83254000  0.97941000  1.0
  S  S75  1  0.46508000  0.16746000  0.47941000  1.0
  N  N76  1  0.59018000  0.63899000  0.00149000  1.0
  N  N77  1  0.90982000  0.36101000  0.50149000  1.0
  N  N78  1  0.40981000  0.36100000  0.99851000  1.0
  N  N79  1  0.09018000  0.63899000  0.49851000  1.0
  O  O80  1  0.68838000  0.03767000  0.20388000  1.0
  O  O81  1  0.81162000  0.96233000  0.70388000  1.0
  O  O82  1  0.31162000  0.96233000  0.79612000  1.0
  O  O83  1  0.18838000  0.03767000  0.29612000  1.0
  O  O84  1  0.57123000  0.13974000  0.12042000  1.0
  O  O85  1  0.92878000  0.86026000  0.62042000  1.0
  O  O86  1  0.42877000  0.86026000  0.87958000  1.0
  O  O87  1  0.07123000  0.13974000  0.37958000  1.0
  O  O88  1  0.82167000  0.07009000  0.97748000  1.0
  O  O89  1  0.67833000  0.92991000  0.47748000  1.0
  O  O90  1  0.17833000  0.92991000  0.02252000  1.0
  O  O91  1  0.32167000  0.07009000  0.52252000  1.0
  O  O92  1  0.02025000  0.10706000  0.10861000  1.0
  O  O93  1  0.47975000  0.89294000  0.60861000  1.0
  O  O94  1  0.97974000  0.89294000  0.89139000  1.0
  O  O95  1  0.52025000  0.10706000  0.39139000  1.0
  O  O96  1  0.06350000  0.23560000  0.92278000  1.0
  O  O97  1  0.43650000  0.76440000  0.42278000  1.0
  O  O98  1  0.93650000  0.76440000  0.07722000  1.0
  O  O99  1  0.56349000  0.23560000  0.57722000  1.0
  O  O100  1  0.29982000  0.66963000  0.13388000  1.0
  O  O101  1  0.20018000  0.33038000  0.63388000  1.0
  O  O102  1  0.70018000  0.33038000  0.86612000  1.0
  O  O103  1  0.79983000  0.66963000  0.36612000  1.0
  O  O104  1  0.18308000  0.76054000  0.23572000  1.0
  O  O105  1  0.31692000  0.23946000  0.73572000  1.0
  O  O106  1  0.81692000  0.23946000  0.76428000  1.0
  O  O107  1  0.68308000  0.76054000  0.26428000  1.0
