# generated using pymatgen
data_CdH24C36N6(O3F4)2
_symmetry_space_group_name_H-M   'P 1'
_cell_length_a   10.16370000
_cell_length_b   10.35710000
_cell_length_c   10.36330000
_cell_angle_alpha   71.95840000
_cell_angle_beta   77.48340000
_cell_angle_gamma   78.15230000
_symmetry_Int_Tables_number   1
_chemical_formula_structural   CdH24C36N6(O3F4)2
_chemical_formula_sum   'Cd1 H24 C36 N6 O6 F8'
_cell_volume   1001.33296948
_cell_formula_units_Z   1
loop_
 _symmetry_equiv_pos_site_id
 _symmetry_equiv_pos_as_xyz
  1  'x, y, z'
loop_
 _atom_site_type_symbol
 _atom_site_label
 _atom_site_symmetry_multiplicity
 _atom_site_fract_x
 _atom_site_fract_y
 _atom_site_fract_z
 _atom_site_occupancy
  Cd  Cd0  1  0.00000000  0.49999000  0.50000000  1.0
  H  H1  1  0.75755000  0.53633000  0.77010000  1.0
  H  H2  1  0.24245000  0.46367000  0.22991000  1.0
  H  H3  1  0.13923000  0.65778000  0.63704000  1.0
  H  H4  1  0.86077000  0.34222000  0.36295000  1.0
  H  H5  1  0.72462000  0.61323000  0.98276000  1.0
  H  H6  1  0.27538000  0.38677000  0.01725000  1.0
  H  H7  1  0.11984000  0.74621000  0.83724000  1.0
  H  H8  1  0.88016000  0.25381000  0.16274000  1.0
  H  H9  1  0.79646000  0.74435000  0.10544000  1.0
  H  H10  1  0.20355000  0.25566000  0.89455000  1.0
  H  H11  1  0.95979000  0.65769000  0.12999000  1.0
  H  H12  1  0.04022000  0.34232000  0.87001000  1.0
  H  H13  1  0.07722000  0.18231000  0.62265000  1.0
  H  H14  1  0.92278000  0.81767000  0.37736000  1.0
  H  H15  1  0.69570000  0.41811000  0.60830000  1.0
  H  H16  1  0.30431000  0.58188000  0.39170000  1.0
  H  H17  1  0.98350000  0.96817000  0.65411000  1.0
  H  H18  1  0.01650000  0.03182000  0.34590000  1.0
  H  H19  1  0.58454000  0.21397000  0.64091000  1.0
  H  H20  1  0.41547000  0.78603000  0.35908000  1.0
  H  H21  1  0.79713000  0.86638000  0.63838000  1.0
  H  H22  1  0.20286000  0.13362000  0.36162000  1.0
  H  H23  1  0.67385000  0.90493000  0.77487000  1.0
  H  H24  1  0.32615000  0.09506000  0.22514000  1.0
  C  C25  1  0.83609000  0.58156000  0.79040000  1.0
  C  C26  1  0.16392000  0.41844000  0.20961000  1.0
  C  C27  1  0.04764000  0.65135000  0.71472000  1.0
  C  C28  1  0.95236000  0.34866000  0.28527000  1.0
  C  C29  1  0.81817000  0.62559000  0.90808000  1.0
  C  C30  1  0.18183000  0.37441000  0.09192000  1.0
  C  C31  1  0.03671000  0.69953000  0.82812000  1.0
  C  C32  1  0.96328000  0.30048000  0.17188000  1.0
  C  C33  1  0.91938000  0.68745000  0.92844000  1.0
  C  C34  1  0.08062000  0.31257000  0.07154000  1.0
  C  C35  1  0.90328000  0.73622000  0.05479000  1.0
  C  C36  1  0.09672000  0.26378000  0.94520000  1.0
  C  C37  1  0.95366000  0.87098000  0.02632000  1.0
  C  C38  1  0.04635000  0.12903000  0.97369000  1.0
  C  C39  1  0.86699000  0.99578000  0.99402000  1.0
  C  C40  1  0.13302000  0.00422000  0.00598000  1.0
  C  C41  1  0.91195000  0.12088000  0.96939000  1.0
  C  C42  1  0.08805000  0.87913000  0.03062000  1.0
  C  C43  1  0.96857000  0.18457000  0.62772000  1.0
  C  C44  1  0.03143000  0.81540000  0.37229000  1.0
  C  C45  1  0.75528000  0.31568000  0.62056000  1.0
  C  C46  1  0.24473000  0.68431000  0.37943000  1.0
  C  C47  1  0.91562000  0.06558000  0.64554000  1.0
  C  C48  1  0.08438000  0.93440000  0.35447000  1.0
  C  C49  1  0.69439000  0.20145000  0.63846000  1.0
  C  C50  1  0.30561000  0.79855000  0.36154000  1.0
  C  C51  1  0.77594000  0.07306000  0.64952000  1.0
  C  C52  1  0.22406000  0.92694000  0.35047000  1.0
  C  C53  1  0.71584000  0.94610000  0.66580000  1.0
  C  C54  1  0.28415000  0.05390000  0.33420000  1.0
  C  C55  1  0.60503000  0.97239000  0.58139000  1.0
  C  C56  1  0.39495000  0.02762000  0.41861000  1.0
  C  C57  1  0.63004000  0.02001000  0.43827000  1.0
  C  C58  1  0.36996000  0.97999000  0.56173000  1.0
  C  C59  1  0.52865000  0.04705000  0.35859000  1.0
  C  C60  1  0.47134000  0.95296000  0.64141000  1.0
  N  N61  1  0.94885000  0.59443000  0.69431000  1.0
  N  N62  1  0.05115000  0.40558000  0.30569000  1.0
  N  N63  1  0.89055000  0.30828000  0.61378000  1.0
  N  N64  1  0.10946000  0.69170000  0.38623000  1.0
  N  N65  1  0.29784000  0.32812000  0.58374000  1.0
  N  N66  1  0.70216000  0.67188000  0.41625000  1.0
  O  O67  1  0.17925000  0.39119000  0.62464000  1.0
  O  O68  1  0.82076000  0.60881000  0.37536000  1.0
  O  O69  1  0.34053000  0.34498000  0.45712000  1.0
  O  O70  1  0.65945000  0.65500000  0.54288000  1.0
  O  O71  1  0.36558000  0.25178000  0.67420000  1.0
  O  O72  1  0.63444000  0.74824000  0.32579000  1.0
  F  F73  1  0.73613000  0.99573000  0.98437000  1.0
  F  F74  1  0.26387000  0.00428000  0.01564000  1.0
  F  F75  1  0.82176000  0.23845000  0.93902000  1.0
  F  F76  1  0.17824000  0.76156000  0.06098000  1.0
  F  F77  1  0.75921000  0.04043000  0.37305000  1.0
  F  F78  1  0.24078000  0.95957000  0.62696000  1.0
  F  F79  1  0.56200000  0.09230000  0.21980000  1.0
  F  F80  1  0.43799000  0.90770000  0.78020000  1.0
