# generated using pymatgen
data_Cu3H34C52(NO4)4
_symmetry_space_group_name_H-M   'P 1'
_cell_length_a   10.25890000
_cell_length_b   10.63700000
_cell_length_c   11.57910000
_cell_angle_alpha   83.77680000
_cell_angle_beta   85.52460000
_cell_angle_gamma   66.39570000
_symmetry_Int_Tables_number   1
_chemical_formula_structural   Cu3H34C52(NO4)4
_chemical_formula_sum   'Cu3 H34 C52 N4 O16'
_cell_volume   1150.18360775
_cell_formula_units_Z   1
loop_
 _symmetry_equiv_pos_site_id
 _symmetry_equiv_pos_as_xyz
  1  'x, y, z'
loop_
 _atom_site_type_symbol
 _atom_site_label
 _atom_site_symmetry_multiplicity
 _atom_site_fract_x
 _atom_site_fract_y
 _atom_site_fract_z
 _atom_site_occupancy
  Cu  Cu0  1  0.19656000  0.23378000  0.31057000  1.0
  Cu  Cu1  1  0.80355000  0.76652000  0.68953000  1.0
  Cu  Cu2  1  0.49997000  0.00006000  0.49997000  1.0
  H  H3  1  0.17101000  0.03259000  0.51137000  1.0
  H  H4  1  0.82891000  0.96754000  0.48863000  1.0
  H  H5  1  0.97354000  0.03472000  0.65650000  1.0
  H  H6  1  0.02633000  0.96536000  0.34343000  1.0
  H  H7  1  0.75002000  0.25124000  0.66115000  1.0
  H  H8  1  0.24984000  0.74881000  0.33878000  1.0
  H  H9  1  0.73718000  0.45846000  0.52892000  1.0
  H  H10  1  0.26270000  0.54163000  0.47108000  1.0
  H  H11  1  0.75951000  0.63001000  0.42843000  1.0
  H  H12  1  0.24033000  0.37005000  0.57162000  1.0
  H  H13  1  0.78911000  0.80549000  0.28413000  1.0
  H  H14  1  0.21063000  0.19465000  0.71595000  1.0
  H  H15  1  0.99997000  0.73488000  0.13961000  1.0
  H  H16  1  0.99979000  0.26539000  0.86048000  1.0
  H  H17  1  0.17135000  0.48835000  0.15097000  1.0
  H  H18  1  0.82856000  0.51196000  0.84916000  1.0
  H  H19  1  0.34683000  0.49886000  0.28115000  1.0
  H  H20  1  0.65325000  0.50106000  0.71886000  1.0
  H  H21  1  0.44486000  0.63324000  0.13504000  1.0
  H  H22  1  0.55519000  0.36662000  0.86489000  1.0
  H  H23  1  0.70423000  0.53630000  0.07997000  1.0
  H  H24  1  0.29583000  0.46359000  0.91997000  1.0
  H  H25  1  0.76457000  0.17960000  0.31763000  1.0
  H  H26  1  0.23552000  0.82035000  0.68240000  1.0
  H  H27  1  0.18845000  0.98533000  0.17800000  1.0
  H  H28  1  0.81161000  0.01449000  0.82193000  1.0
  H  H29  1  0.18693000  0.91500000  0.97967000  1.0
  H  H30  1  0.81314000  0.08490000  0.02023000  1.0
  H  H31  1  0.41518000  0.81780000  0.86344000  1.0
  H  H32  1  0.58490000  0.18212000  0.13649000  1.0
  H  H33  1  0.64613000  0.83411000  0.15039000  1.0
  H  H34  1  0.35397000  0.16539000  0.84968000  1.0
  H  H35  1  0.05491000  0.31371000  0.05991000  1.0
  H  H36  1  0.94525000  0.68615000  0.94012000  1.0
  C  C37  1  0.07201000  0.12328000  0.51855000  1.0
  C  C38  1  0.92792000  0.87685000  0.48146000  1.0
  C  C39  1  0.96201000  0.12621000  0.59853000  1.0
  C  C40  1  0.03788000  0.87389000  0.40143000  1.0
  C  C41  1  0.83880000  0.24664000  0.60106000  1.0
  C  C42  1  0.16108000  0.75344000  0.39890000  1.0
  C  C43  1  0.83023000  0.36168000  0.52665000  1.0
  C  C44  1  0.16966000  0.63843000  0.47335000  1.0
  C  C45  1  0.84875000  0.60042000  0.36502000  1.0
  C  C46  1  0.15110000  0.39971000  0.63505000  1.0
  C  C47  1  0.86686000  0.69956000  0.28410000  1.0
  C  C48  1  0.13293000  0.30061000  0.71598000  1.0
  C  C49  1  0.98330000  0.66127000  0.20557000  1.0
  C  C50  1  0.01652000  0.33896000  0.79452000  1.0
  C  C51  1  0.07958000  0.52443000  0.21105000  1.0
  C  C52  1  0.92030000  0.47584000  0.78906000  1.0
  C  C53  1  0.94950000  0.46503000  0.36616000  1.0
  C  C54  1  0.05042000  0.53514000  0.63391000  1.0
  C  C55  1  0.94462000  0.35172000  0.44897000  1.0
  C  C56  1  0.05532000  0.64842000  0.55109000  1.0
  C  C57  1  0.48719000  0.24928000  0.39047000  1.0
  C  C58  1  0.51291000  0.75072000  0.60961000  1.0
  C  C59  1  0.54959000  0.33318000  0.31052000  1.0
  C  C60  1  0.45050000  0.66677000  0.68951000  1.0
  C  C61  1  0.46019000  0.46079000  0.25811000  1.0
  C  C62  1  0.53988000  0.53913000  0.74188000  1.0
  C  C63  1  0.51505000  0.53430000  0.17577000  1.0
  C  C64  1  0.48502000  0.46559000  0.82418000  1.0
  C  C65  1  0.65970000  0.47997000  0.14382000  1.0
  C  C66  1  0.34037000  0.51992000  0.85613000  1.0
  C  C67  1  0.74966000  0.35162000  0.19503000  1.0
  C  C68  1  0.25042000  0.64829000  0.80495000  1.0
  C  C69  1  0.69451000  0.27976000  0.27917000  1.0
  C  C70  1  0.30558000  0.72019000  0.72083000  1.0
  C  C71  1  0.90373000  0.28705000  0.16098000  1.0
  C  C72  1  0.09637000  0.71284000  0.83900000  1.0
  C  C73  1  0.41833000  0.95429000  0.29645000  1.0
  C  C74  1  0.58169000  0.04584000  0.70339000  1.0
  C  C75  1  0.41765000  0.91034000  0.17862000  1.0
  C  C76  1  0.58243000  0.08931000  0.82140000  1.0
  C  C77  1  0.28810000  0.93393000  0.12962000  1.0
  C  C78  1  0.71198000  0.06577000  0.87037000  1.0
  C  C79  1  0.28760000  0.89731000  0.01751000  1.0
  C  C80  1  0.71247000  0.10247000  0.98244000  1.0
  C  C81  1  0.41479000  0.84238000  0.95225000  1.0
  C  C82  1  0.58528000  0.15741000  0.04771000  1.0
  C  C83  1  0.54431000  0.82001000  0.00030000  1.0
  C  C84  1  0.45577000  0.17964000  0.99972000  1.0
  C  C85  1  0.54528000  0.85157000  0.11406000  1.0
  C  C86  1  0.45481000  0.14795000  0.88600000  1.0
  C  C87  1  0.68192000  0.76941000  0.92986000  1.0
  C  C88  1  0.31812000  0.23046000  0.07014000  1.0
  N  N89  1  0.06163000  0.23260000  0.44474000  1.0
  N  N90  1  0.93833000  0.76757000  0.55532000  1.0
  N  N91  1  0.06334000  0.42941000  0.28996000  1.0
  N  N92  1  0.93663000  0.57082000  0.71015000  1.0
  O  O93  1  0.35603000  0.29789000  0.41738000  1.0
  O  O94  1  0.64408000  0.70216000  0.58275000  1.0
  O  O95  1  0.57666000  0.12699000  0.42270000  1.0
  O  O96  1  0.42341000  0.87300000  0.57736000  1.0
  O  O97  1  0.94414000  0.35764000  0.07467000  1.0
  O  O98  1  0.05602000  0.64232000  0.92542000  1.0
  O  O99  1  0.98574000  0.17744000  0.21067000  1.0
  O  O100  1  0.01429000  0.82237000  0.78923000  1.0
  O  O101  1  0.30086000  0.03384000  0.34409000  1.0
  O  O102  1  0.69912000  0.96638000  0.65561000  1.0
  O  O103  1  0.53520000  0.90976000  0.34834000  1.0
  O  O104  1  0.46483000  0.09066000  0.65146000  1.0
  O  O105  1  0.67016000  0.76714000  0.82032000  1.0
  O  O106  1  0.32979000  0.23324000  0.17961000  1.0
  O  O107  1  0.79593000  0.73438000  0.98247000  1.0
  O  O108  1  0.20417000  0.26522000  0.01751000  1.0
