# generated using pymatgen
data_ZnH10C13(N2Cl)2
_symmetry_space_group_name_H-M   'P 1'
_cell_length_a   5.18444000
_cell_length_b   12.26410000
_cell_length_c   21.64790000
_cell_angle_alpha   89.99980000
_cell_angle_beta   89.99990000
_cell_angle_gamma   100.64500000
_symmetry_Int_Tables_number   1
_chemical_formula_structural   ZnH10C13(N2Cl)2
_chemical_formula_sum   'Zn4 H40 C52 N16 Cl8'
_cell_volume   1352.73986868
_cell_formula_units_Z   4
loop_
 _symmetry_equiv_pos_site_id
 _symmetry_equiv_pos_as_xyz
  1  'x, y, z'
loop_
 _atom_site_type_symbol
 _atom_site_label
 _atom_site_symmetry_multiplicity
 _atom_site_fract_x
 _atom_site_fract_y
 _atom_site_fract_z
 _atom_site_occupancy
  Zn  Zn0  1  0.91229000  0.36587000  0.64744000  1.0
  Zn  Zn1  1  0.58772000  0.13413000  0.14744000  1.0
  Zn  Zn2  1  0.08771000  0.63414000  0.35256000  1.0
  Zn  Zn3  1  0.41229000  0.86587000  0.85256000  1.0
  H  H4  1  0.35979000  0.53608000  0.69441000  1.0
  H  H5  1  0.14023000  0.96392000  0.19442000  1.0
  H  H6  1  0.64023000  0.46392000  0.30558000  1.0
  H  H7  1  0.85977000  0.03609000  0.80558000  1.0
  H  H8  1  0.94615000  0.55481000  0.86253000  1.0
  H  H9  1  0.55386000  0.94520000  0.36252000  1.0
  H  H10  1  0.05384000  0.44519000  0.13748000  1.0
  H  H11  1  0.44614000  0.05481000  0.63748000  1.0
  H  H12  1  0.69969000  0.54798000  0.77566000  1.0
  H  H13  1  0.80031000  0.95203000  0.27566000  1.0
  H  H14  1  0.30032000  0.45202000  0.22434000  1.0
  H  H15  1  0.19969000  0.04797000  0.72434000  1.0
  H  H16  1  0.27582000  0.23442000  0.84647000  1.0
  H  H17  1  0.22419000  0.26559000  0.34646000  1.0
  H  H18  1  0.72417000  0.76558000  0.15353000  1.0
  H  H19  1  0.77582000  0.73441000  0.65354000  1.0
  H  H20  1  0.95278000  0.23728000  0.76154000  1.0
  H  H21  1  0.54724000  0.26273000  0.26153000  1.0
  H  H22  1  0.04721000  0.76273000  0.23846000  1.0
  H  H23  1  0.45277000  0.73727000  0.73847000  1.0
  H  H24  1  0.64053000  0.21813000  0.90576000  1.0
  H  H25  1  0.85945000  0.28188000  0.40576000  1.0
  H  H26  1  0.35944000  0.78187000  0.09424000  1.0
  H  H27  1  0.14055000  0.71813000  0.59424000  1.0
  H  H28  1  0.65999000  0.34377000  0.07811000  1.0
  H  H29  1  0.84000000  0.15622000  0.57812000  1.0
  H  H30  1  0.33999000  0.65622000  0.92188000  1.0
  H  H31  1  0.16002000  0.84378000  0.42189000  1.0
  H  H32  1  0.43022000  0.43174000  0.99673000  1.0
  H  H33  1  0.06975000  0.06826000  0.49673000  1.0
  H  H34  1  0.56975000  0.56826000  0.00327000  1.0
  H  H35  1  0.93026000  0.93174000  0.50328000  1.0
  H  H36  1  0.85033000  0.13068000  0.98860000  1.0
  H  H37  1  0.64966000  0.36932000  0.48860000  1.0
  H  H38  1  0.14966000  0.86931000  0.01140000  1.0
  H  H39  1  0.35033000  0.63069000  0.51140000  1.0
  H  H40  1  0.10968000  0.05172000  0.06706000  1.0
  H  H41  1  0.39033000  0.44827000  0.56706000  1.0
  H  H42  1  0.89033000  0.94827000  0.93294000  1.0
  H  H43  1  0.60968000  0.55173000  0.43294000  1.0
  C  C44  1  0.34800000  0.47173000  0.72957000  1.0
  C  C45  1  0.15201000  0.02827000  0.22957000  1.0
  C  C46  1  0.65202000  0.52827000  0.27043000  1.0
  C  C47  1  0.84799000  0.97173000  0.77042000  1.0
  C  C48  1  0.53674000  0.47765000  0.77552000  1.0
  C  C49  1  0.96327000  0.02236000  0.27551000  1.0
  C  C50  1  0.46328000  0.52235000  0.22448000  1.0
  C  C51  1  0.03673000  0.97765000  0.72448000  1.0
  C  C52  1  0.51771000  0.39145000  0.81907000  1.0
  C  C53  1  0.98229000  0.10856000  0.31906000  1.0
  C  C54  1  0.48229000  0.60855000  0.18093000  1.0
  C  C55  1  0.01772000  0.89145000  0.68093000  1.0
  C  C56  1  0.30170000  0.30373000  0.81424000  1.0
  C  C57  1  0.19832000  0.19628000  0.31424000  1.0
  C  C58  1  0.69829000  0.69628000  0.18576000  1.0
  C  C59  1  0.80169000  0.80372000  0.68576000  1.0
  C  C60  1  0.12214000  0.30406000  0.76706000  1.0
  C  C61  1  0.37788000  0.19595000  0.26706000  1.0
  C  C62  1  0.87786000  0.69595000  0.23294000  1.0
  C  C63  1  0.62212000  0.80406000  0.73294000  1.0
  C  C64  1  0.71416000  0.38844000  0.86659000  1.0
  C  C65  1  0.78583000  0.11158000  0.36659000  1.0
  C  C66  1  0.28582000  0.61157000  0.13341000  1.0
  C  C67  1  0.21418000  0.88843000  0.63342000  1.0
  C  C68  1  0.75486000  0.30171000  0.90497000  1.0
  C  C69  1  0.74513000  0.19830000  0.40497000  1.0
  C  C70  1  0.24511000  0.69829000  0.09503000  1.0
  C  C71  1  0.25488000  0.80170000  0.59503000  1.0
  C  C72  1  0.97994000  0.34481000  0.94002000  1.0
  C  C73  1  0.52006000  0.15519000  0.44002000  1.0
  C  C74  1  0.02005000  0.65518000  0.05998000  1.0
  C  C75  1  0.47995000  0.84482000  0.55998000  1.0
  C  C76  1  0.48053000  0.29929000  0.05702000  1.0
  C  C77  1  0.01947000  0.20070000  0.55702000  1.0
  C  C78  1  0.51946000  0.70071000  0.94299000  1.0
  C  C79  1  0.98054000  0.79930000  0.44299000  1.0
  C  C80  1  0.35064000  0.34846000  0.01234000  1.0
  C  C81  1  0.14936000  0.15153000  0.51234000  1.0
  C  C82  1  0.64935000  0.65153000  0.98766000  1.0
  C  C83  1  0.85065000  0.84847000  0.48767000  1.0
  C  C84  1  0.11720000  0.29070000  0.98632000  1.0
  C  C85  1  0.38277000  0.20930000  0.48632000  1.0
  C  C86  1  0.88278000  0.70930000  0.01368000  1.0
  C  C87  1  0.61722000  0.79070000  0.51368000  1.0
  C  C88  1  0.03006000  0.18120000  0.00641000  1.0
  C  C89  1  0.46994000  0.31880000  0.50641000  1.0
  C  C90  1  0.96993000  0.81879000  0.99359000  1.0
  C  C91  1  0.53007000  0.68121000  0.49358000  1.0
  C  C92  1  0.17455000  0.13627000  0.05060000  1.0
  C  C93  1  0.32545000  0.36373000  0.55061000  1.0
  C  C94  1  0.82545000  0.86372000  0.94940000  1.0
  C  C95  1  0.67455000  0.63628000  0.44939000  1.0
  N  N96  1  0.14456000  0.38612000  0.72474000  1.0
  N  N97  1  0.35546000  0.11388000  0.22474000  1.0
  N  N98  1  0.85545000  0.61388000  0.27526000  1.0
  N  N99  1  0.64454000  0.88612000  0.77526000  1.0
  N  N100  1  0.91096000  0.47585000  0.88078000  1.0
  N  N101  1  0.58904000  0.02416000  0.38077000  1.0
  N  N102  1  0.08903000  0.52414000  0.11922000  1.0
  N  N103  1  0.41097000  0.97585000  0.61922000  1.0
  N  N104  1  0.07236000  0.45233000  0.92470000  1.0
  N  N105  1  0.42764000  0.04767000  0.42469000  1.0
  N  N106  1  0.92763000  0.54766000  0.07531000  1.0
  N  N107  1  0.57237000  0.95233000  0.57531000  1.0
  N  N108  1  0.39472000  0.19428000  0.07627000  1.0
  N  N109  1  0.10528000  0.30571000  0.57627000  1.0
  N  N110  1  0.60528000  0.80571000  0.92373000  1.0
  N  N111  1  0.89473000  0.69430000  0.42373000  1.0
  Cl  Cl112  1  0.85702000  0.53507000  0.61755000  1.0
  Cl  Cl113  1  0.64299000  0.96492000  0.11755000  1.0
  Cl  Cl114  1  0.14299000  0.46493000  0.38245000  1.0
  Cl  Cl115  1  0.35701000  0.03507000  0.88244000  1.0
  Cl  Cl116  1  0.58030000  0.22450000  0.67279000  1.0
  Cl  Cl117  1  0.91971000  0.27550000  0.17278000  1.0
  Cl  Cl118  1  0.41970000  0.77551000  0.32721000  1.0
  Cl  Cl119  1  0.08030000  0.72450000  0.82721000  1.0
