# generated using pymatgen
data_CuH20C18(NO)4
_symmetry_space_group_name_H-M   'P 1'
_cell_length_a   7.18280000
_cell_length_b   8.52858000
_cell_length_c   17.12440000
_cell_angle_alpha   77.85750000
_cell_angle_beta   77.90210000
_cell_angle_gamma   65.12640000
_symmetry_Int_Tables_number   1
_chemical_formula_structural   CuH20C18(NO)4
_chemical_formula_sum   'Cu2 H40 C36 N8 O8'
_cell_volume   921.70842921
_cell_formula_units_Z   2
loop_
 _symmetry_equiv_pos_site_id
 _symmetry_equiv_pos_as_xyz
  1  'x, y, z'
loop_
 _atom_site_type_symbol
 _atom_site_label
 _atom_site_symmetry_multiplicity
 _atom_site_fract_x
 _atom_site_fract_y
 _atom_site_fract_z
 _atom_site_occupancy
  Cu  Cu0  1  0.00000000  0.50000000  0.50000000  1.0
  Cu  Cu1  1  0.00000000  0.00000000  0.00000000  1.0
  H  H2  1  0.50113000  0.33478000  0.46535000  1.0
  H  H3  1  0.30168000  0.16530000  0.03469000  1.0
  H  H4  1  0.49887000  0.66521000  0.53465000  1.0
  H  H5  1  0.69832000  0.83470000  0.96531000  1.0
  H  H6  1  0.81399000  0.90807000  0.38707000  1.0
  H  H7  1  0.10942000  0.59196000  0.11309000  1.0
  H  H8  1  0.18600000  0.09192000  0.61293000  1.0
  H  H9  1  0.89059000  0.40804000  0.88691000  1.0
  H  H10  1  0.82723000  0.07512000  0.42955000  1.0
  H  H11  1  0.33223000  0.42514000  0.07058000  1.0
  H  H12  1  0.17276000  0.92486000  0.57045000  1.0
  H  H13  1  0.66778000  0.57486000  0.92942000  1.0
  H  H14  1  0.44618000  0.96012000  0.35414000  1.0
  H  H15  1  0.76102000  0.53958000  0.14596000  1.0
  H  H16  1  0.55380000  0.03988000  0.64586000  1.0
  H  H17  1  0.23899000  0.46042000  0.85404000  1.0
  H  H18  1  0.05115000  0.19193000  0.41092000  1.0
  H  H19  1  0.65469000  0.30780000  0.08897000  1.0
  H  H20  1  0.94883000  0.80806000  0.58909000  1.0
  H  H21  1  0.34532000  0.69220000  0.91102000  1.0
  H  H22  1  0.88118000  0.75029000  0.25000000  1.0
  H  H23  1  0.11883000  0.24972000  0.75001000  1.0
  H  H24  1  0.38963000  0.58315000  0.36456000  1.0
  H  H25  1  0.33762000  0.91644000  0.13526000  1.0
  H  H26  1  0.61037000  0.41685000  0.63544000  1.0
  H  H27  1  0.66239000  0.08356000  0.86474000  1.0
  H  H28  1  0.19037000  0.74965000  0.24990000  1.0
  H  H29  1  0.80964000  0.25035000  0.75010000  1.0
  H  H30  1  0.99698000  0.07561000  0.28551000  1.0
  H  H31  1  0.35857000  0.42467000  0.21456000  1.0
  H  H32  1  0.00301000  0.92439000  0.71449000  1.0
  H  H33  1  0.64144000  0.57533000  0.78544000  1.0
  H  H34  1  0.77386000  0.27279000  0.29625000  1.0
  H  H35  1  0.34341000  0.22740000  0.20387000  1.0
  H  H36  1  0.22614000  0.72721000  0.70375000  1.0
  H  H37  1  0.65660000  0.77261000  0.79613000  1.0
  H  H38  1  0.76525000  0.10381000  0.25292000  1.0
  H  H39  1  0.12261000  0.39619000  0.24726000  1.0
  H  H40  1  0.23475000  0.89620000  0.74707000  1.0
  H  H41  1  0.87740000  0.60381000  0.75274000  1.0
  C  C42  1  0.42852000  0.26403000  0.44526000  1.0
  C  C43  1  0.13829000  0.23595000  0.05478000  1.0
  C  C44  1  0.57148000  0.73596000  0.55473000  1.0
  C  C45  1  0.86172000  0.76406000  0.94522000  1.0
  C  C46  1  0.76215000  0.05002000  0.38326000  1.0
  C  C47  1  0.19581000  0.45004000  0.11687000  1.0
  C  C48  1  0.23783000  0.94997000  0.61674000  1.0
  C  C49  1  0.80420000  0.54996000  0.88313000  1.0
  C  C50  1  0.39661000  0.07140000  0.38574000  1.0
  C  C51  1  0.85432000  0.42837000  0.11433000  1.0
  C  C52  1  0.60337000  0.92860000  0.61426000  1.0
  C  C53  1  0.14568000  0.57163000  0.88567000  1.0
  C  C54  1  0.20332000  0.18493000  0.41423000  1.0
  C  C55  1  0.80310000  0.31489000  0.08572000  1.0
  C  C56  1  0.79667000  0.81507000  0.58578000  1.0
  C  C57  1  0.19692000  0.68511000  0.91428000  1.0
  C  C58  1  0.76602000  0.56425000  0.38509000  1.0
  C  C59  1  0.71535000  0.93581000  0.11484000  1.0
  C  C60  1  0.23398000  0.43575000  0.61491000  1.0
  C  C61  1  0.28465000  0.06419000  0.88516000  1.0
  C  C62  1  0.64824000  0.65662000  0.31465000  1.0
  C  C63  1  0.61948000  0.84347000  0.18527000  1.0
  C  C64  1  0.35177000  0.34338000  0.68535000  1.0
  C  C65  1  0.38053000  0.15654000  0.81473000  1.0
  C  C66  1  0.72981000  0.75014000  0.24997000  1.0
  C  C67  1  0.27019000  0.24986000  0.75003000  1.0
  C  C68  1  0.45364000  0.65555000  0.31409000  1.0
  C  C69  1  0.42348000  0.84418000  0.18574000  1.0
  C  C70  1  0.54636000  0.34445000  0.68591000  1.0
  C  C71  1  0.57653000  0.15583000  0.81426000  1.0
  C  C72  1  0.34206000  0.74979000  0.24991000  1.0
  C  C73  1  0.65795000  0.25021000  0.75009000  1.0
  C  C74  1  0.82735000  0.13084000  0.29962000  1.0
  C  C75  1  0.25825000  0.36933000  0.20051000  1.0
  C  C76  1  0.17264000  0.86916000  0.70038000  1.0
  C  C77  1  0.74175000  0.63067000  0.79949000  1.0
  N  N78  1  0.22576000  0.30402000  0.45112000  1.0
  N  N79  1  0.98145000  0.19591000  0.04882000  1.0
  N  N80  1  0.77424000  0.69597000  0.54888000  1.0
  N  N81  1  0.01856000  0.80409000  0.95118000  1.0
  N  N82  1  0.53668000  0.12331000  0.40577000  1.0
  N  N83  1  0.06625000  0.37658000  0.09434000  1.0
  N  N84  1  0.46331000  0.87669000  0.59423000  1.0
  N  N85  1  0.93376000  0.62342000  0.90566000  1.0
  O  O86  1  0.90987000  0.61355000  0.39061000  1.0
  O  O87  1  0.91392000  0.88672000  0.10942000  1.0
  O  O88  1  0.09014000  0.38644000  0.60939000  1.0
  O  O89  1  0.08609000  0.11328000  0.89058000  1.0
  O  O90  1  0.72071000  0.45065000  0.43516000  1.0
  O  O91  1  0.60674000  0.04915000  0.06466000  1.0
  O  O92  1  0.27929000  0.54934000  0.56484000  1.0
  O  O93  1  0.39327000  0.95087000  0.93534000  1.0
