# generated using pymatgen
data_UH8C10(N2O5)2
_symmetry_space_group_name_H-M   'P 1'
_cell_length_a   8.56361000
_cell_length_b   8.91993324
_cell_length_c   13.14349809
_cell_angle_alpha   86.94599905
_cell_angle_beta   71.01020870
_cell_angle_gamma   61.31390536
_symmetry_Int_Tables_number   1
_chemical_formula_structural   UH8C10(N2O5)2
_chemical_formula_sum   'U2 H16 C20 N8 O20'
_cell_volume   826.39409753
_cell_formula_units_Z   2
loop_
 _symmetry_equiv_pos_site_id
 _symmetry_equiv_pos_as_xyz
  1  'x, y, z'
loop_
 _atom_site_type_symbol
 _atom_site_label
 _atom_site_symmetry_multiplicity
 _atom_site_fract_x
 _atom_site_fract_y
 _atom_site_fract_z
 _atom_site_occupancy
  U  U0  1  0.00001000  0.50000000  0.99999000  1.0
  U  U1  1  0.99999000  0.00000000  0.50001000  1.0
  H  H2  1  0.81766000  0.70867000  0.33061000  1.0
  H  H3  1  0.35625000  0.79134000  0.16990000  1.0
  H  H4  1  0.18236000  0.29131000  0.66937000  1.0
  H  H5  1  0.64376000  0.20861000  0.83011000  1.0
  H  H6  1  0.67990000  0.63382000  0.50835000  1.0
  H  H7  1  0.32187000  0.86662000  0.99193000  1.0
  H  H8  1  0.32012000  0.36619000  0.49163000  1.0
  H  H9  1  0.67813000  0.13331000  0.00807000  1.0
  H  H10  1  0.43847000  0.42705000  0.34957000  1.0
  H  H11  1  0.71487000  0.07319000  0.15019000  1.0
  H  H12  1  0.56155000  0.57296000  0.65041000  1.0
  H  H13  1  0.28509000  0.92687000  0.84985000  1.0
  H  H14  1  0.58448000  0.51425000  0.17975000  1.0
  H  H15  1  0.77790000  0.98611000  0.32020000  1.0
  H  H16  1  0.41553000  0.48576000  0.82023000  1.0
  H  H17  1  0.22210000  0.01394000  0.67983000  1.0
  C  C18  1  0.73120000  0.64760000  0.34157000  1.0
  C  C19  1  0.22000000  0.85201000  0.15851000  1.0
  C  C20  1  0.26882000  0.35239000  0.65841000  1.0
  C  C21  1  0.77999000  0.14796000  0.84150000  1.0
  C  C22  1  0.65345000  0.60240000  0.43915000  1.0
  C  C23  1  0.19480000  0.89756000  0.06095000  1.0
  C  C24  1  0.34658000  0.39760000  0.56083000  1.0
  C  C25  1  0.80519000  0.10241000  0.93906000  1.0
  C  C26  1  0.54295000  0.52293000  0.44792000  1.0
  C  C27  1  0.01367000  0.97709000  0.05212000  1.0
  C  C28  1  0.45707000  0.47706000  0.55206000  1.0
  C  C29  1  0.98631000  0.02291000  0.94790000  1.0
  C  C30  1  0.51966000  0.48943000  0.35209000  1.0
  C  C31  1  0.86091000  0.01076000  0.14779000  1.0
  C  C32  1  0.48034000  0.51058000  0.64790000  1.0
  C  C33  1  0.13907000  0.98927000  0.85224000  1.0
  C  C34  1  0.59882000  0.53663000  0.25576000  1.0
  C  C35  1  0.89072000  0.96371000  0.24424000  1.0
  C  C36  1  0.40119000  0.46338000  0.74423000  1.0
  C  C37  1  0.10927000  0.03632000  0.75578000  1.0
  N  N38  1  0.29788000  0.42793000  0.09922000  1.0
  N  N39  1  0.32495000  0.07200000  0.40010000  1.0
  N  N40  1  0.70213000  0.57206000  0.90076000  1.0
  N  N41  1  0.67503000  0.92800000  0.59992000  1.0
  N  N42  1  0.70042000  0.61714000  0.25176000  1.0
  N  N43  1  0.06880000  0.88297000  0.24822000  1.0
  N  N44  1  0.29960000  0.38286000  0.74822000  1.0
  N  N45  1  0.93118000  0.11704000  0.75180000  1.0
  O  O46  1  0.97770000  0.32260000  0.06254000  1.0
  O  O47  1  0.86211000  0.17738000  0.43764000  1.0
  O  O48  1  0.02231000  0.67740000  0.93744000  1.0
  O  O49  1  0.13787000  0.82262000  0.56239000  1.0
  O  O50  1  0.12283000  0.53979000  0.14494000  1.0
  O  O51  1  0.30718000  0.96043000  0.35431000  1.0
  O  O52  1  0.87717000  0.46024000  0.85503000  1.0
  O  O53  1  0.69282000  0.03956000  0.64571000  1.0
  O  O54  1  0.33806000  0.35334000  0.00586000  1.0
  O  O55  1  0.19781000  0.14625000  0.49364000  1.0
  O  O56  1  0.66194000  0.64663000  0.99413000  1.0
  O  O57  1  0.80218000  0.85376000  0.50637000  1.0
  O  O58  1  0.41887000  0.39390000  0.14121000  1.0
  O  O59  1  0.45374000  0.10620000  0.35799000  1.0
  O  O60  1  0.58113000  0.60608000  0.85878000  1.0
  O  O61  1  0.54626000  0.89380000  0.64201000  1.0
  O  O62  1  0.76464000  0.67350000  0.16024000  1.0
  O  O63  1  0.09821000  0.82717000  0.33970000  1.0
  O  O64  1  0.23537000  0.32650000  0.83974000  1.0
  O  O65  1  0.90179000  0.17283000  0.66032000  1.0
