# generated using pymatgen
data_Zn2H13C42N2O11F10
_symmetry_space_group_name_H-M   'P 1'
_cell_length_a   16.54720000
_cell_length_b   17.84380000
_cell_length_c   29.01300000
_cell_angle_alpha   90.22120000
_cell_angle_beta   89.85680000
_cell_angle_gamma   89.87400000
_symmetry_Int_Tables_number   1
_chemical_formula_structural   Zn2H13C42N2O11F10
_chemical_formula_sum   'Zn4 H26 C84 N4 O22 F20'
_cell_volume   8566.40984449
_cell_formula_units_Z   2
loop_
 _symmetry_equiv_pos_site_id
 _symmetry_equiv_pos_as_xyz
  1  'x, y, z'
loop_
 _atom_site_type_symbol
 _atom_site_label
 _atom_site_symmetry_multiplicity
 _atom_site_fract_x
 _atom_site_fract_y
 _atom_site_fract_z
 _atom_site_occupancy
  Zn  Zn0  1  0.58651000  0.50721000  0.49672000  1.0
  Zn  Zn1  1  0.41745000  0.50623000  0.49914000  1.0
  Zn  Zn2  1  0.41715000  0.50843000  0.88053000  1.0
  Zn  Zn3  1  0.58621000  0.50931000  0.88251000  1.0
  H  H4  1  0.28464000  0.58862000  0.55108000  1.0
  H  H5  1  0.29109000  0.41958000  0.45105000  1.0
  H  H6  1  0.71588000  0.58356000  0.55123000  1.0
  H  H7  1  0.71499000  0.42272000  0.44631000  1.0
  H  H8  1  0.62807000  0.74213000  0.49907000  1.0
  H  H9  1  0.36690000  0.74502000  0.49816000  1.0
  H  H10  1  0.62987000  0.26970000  0.49985000  1.0
  H  H11  1  0.36881000  0.26854000  0.50398000  1.0
  H  H12  1  0.36867000  0.50022000  0.02700000  1.0
  H  H13  1  0.62972000  0.50249000  0.02929000  1.0
  H  H14  1  0.36911000  0.49796000  0.35297000  1.0
  H  H15  1  0.63014000  0.50040000  0.34975000  1.0
  H  H16  1  0.71632000  0.58548000  0.82825000  1.0
  H  H17  1  0.71397000  0.42534000  0.93279000  1.0
  H  H18  1  0.28475000  0.59047000  0.82862000  1.0
  H  H19  1  0.29045000  0.42209000  0.92826000  1.0
  H  H20  1  0.36668000  0.74734000  0.87994000  1.0
  H  H21  1  0.62785000  0.74408000  0.87958000  1.0
  H  H22  1  0.36872000  0.27053000  0.87550000  1.0
  H  H23  1  0.62979000  0.27182000  0.87884000  1.0
  H  H24  1  0.39304000  0.55113000  0.61151000  1.0
  H  H25  1  0.39304000  0.55156000  0.76839000  1.0
  H  H26  1  0.60466000  0.41441000  0.57892000  1.0
  H  H27  1  0.69529000  0.28944000  0.60885000  1.0
  H  H28  1  0.69556000  0.29006000  0.76954000  1.0
  H  H29  1  0.60492000  0.41535000  0.80003000  1.0
  C  C30  1  0.49739000  0.65110000  0.49805000  1.0
  C  C31  1  0.50950000  0.49967000  0.59091000  1.0
  C  C32  1  0.49945000  0.36152000  0.50194000  1.0
  C  C33  1  0.50190000  0.49947000  0.40826000  1.0
  C  C34  1  0.49703000  0.65325000  0.88093000  1.0
  C  C35  1  0.50959000  0.50037000  0.78852000  1.0
  C  C36  1  0.49926000  0.36355000  0.87755000  1.0
  C  C37  1  0.50128000  0.50232000  0.97121000  1.0
  C  C38  1  0.25113000  0.55003000  0.52914000  1.0
  C  C39  1  0.16741000  0.54868000  0.52971000  1.0
  C  C40  1  0.12328000  0.49957000  0.50109000  1.0
  C  C41  1  0.17080000  0.45273000  0.47258000  1.0
  C  C42  1  0.25447000  0.45565000  0.47319000  1.0
  C  C43  1  0.03856000  0.49813000  0.50086000  1.0
  C  C44  1  0.96495000  0.49790000  0.50067000  1.0
  C  C45  1  0.88023000  0.49907000  0.50022000  1.0
  C  C46  1  0.83469000  0.54602000  0.52971000  1.0
  C  C47  1  0.75100000  0.54743000  0.52835000  1.0
  C  C48  1  0.75055000  0.45733000  0.46967000  1.0
  C  C49  1  0.83420000  0.45413000  0.47005000  1.0
  C  C50  1  0.49751000  0.73488000  0.49874000  1.0
  C  C51  1  0.57138000  0.77308000  0.49935000  1.0
  C  C52  1  0.57087000  0.85050000  0.50000000  1.0
  C  C53  1  0.49907000  0.89346000  0.50042000  1.0
  C  C54  1  0.42641000  0.85201000  0.50003000  1.0
  C  C55  1  0.42432000  0.77456000  0.49887000  1.0
  C  C56  1  0.49992000  0.97219000  0.50085000  1.0
  C  C57  1  0.50064000  0.04051000  0.50090000  1.0
  C  C58  1  0.50048000  0.11924000  0.50100000  1.0
  C  C59  1  0.57244000  0.16166000  0.50023000  1.0
  C  C60  1  0.57314000  0.23908000  0.50038000  1.0
  C  C61  1  0.49941000  0.27778000  0.50177000  1.0
  C  C62  1  0.42611000  0.23861000  0.50268000  1.0
  C  C63  1  0.42797000  0.16115000  0.50196000  1.0
  C  C64  1  0.50484000  0.48126000  0.73896000  1.0
  C  C65  1  0.56101000  0.43239000  0.71463000  1.0
  C  C66  1  0.44266000  0.51722000  0.71446000  1.0
  C  C67  1  0.61099000  0.37908000  0.73734000  1.0
  C  C68  1  0.66139000  0.32920000  0.71328000  1.0
  C  C69  1  0.50478000  0.48091000  0.64045000  1.0
  C  C70  1  0.44265000  0.51708000  0.66521000  1.0
  C  C71  1  0.56094000  0.43220000  0.66452000  1.0
  C  C72  1  0.61086000  0.37871000  0.64154000  1.0
  C  C73  1  0.66132000  0.32902000  0.66531000  1.0
  C  C74  1  0.49936000  0.50104000  0.02281000  1.0
  C  C75  1  0.42512000  0.50064000  0.04614000  1.0
  C  C76  1  0.42493000  0.50185000  0.09379000  1.0
  C  C77  1  0.49633000  0.50247000  0.12036000  1.0
  C  C78  1  0.56935000  0.50211000  0.09502000  1.0
  C  C79  1  0.57212000  0.50178000  0.04742000  1.0
  C  C80  1  0.49527000  0.50304000  0.16877000  1.0
  C  C81  1  0.49534000  0.50272000  0.21078000  1.0
  C  C82  1  0.49656000  0.50139000  0.25917000  1.0
  C  C83  1  0.42522000  0.50045000  0.28599000  1.0
  C  C84  1  0.42550000  0.49870000  0.33363000  1.0
  C  C85  1  0.49981000  0.49881000  0.35666000  1.0
  C  C86  1  0.57253000  0.49988000  0.33180000  1.0
  C  C87  1  0.56965000  0.50075000  0.28422000  1.0
  C  C88  1  0.75113000  0.54953000  0.85112000  1.0
  C  C89  1  0.83484000  0.54813000  0.84987000  1.0
  C  C90  1  0.87997000  0.50134000  0.87932000  1.0
  C  C91  1  0.83351000  0.45666000  0.90933000  1.0
  C  C92  1  0.74985000  0.45984000  0.90959000  1.0
  C  C93  1  0.96469000  0.50005000  0.87896000  1.0
  C  C94  1  0.03829000  0.50019000  0.87870000  1.0
  C  C95  1  0.12302000  0.50167000  0.87843000  1.0
  C  C96  1  0.16736000  0.55053000  0.84988000  1.0
  C  C97  1  0.25108000  0.55198000  0.85046000  1.0
  C  C98  1  0.25399000  0.45798000  0.90619000  1.0
  C  C99  1  0.17033000  0.45507000  0.90683000  1.0
  C  C100  1  0.49728000  0.73700000  0.87971000  1.0
  C  C101  1  0.42416000  0.77679000  0.87918000  1.0
  C  C102  1  0.42638000  0.85421000  0.87781000  1.0
  C  C103  1  0.49911000  0.89554000  0.87748000  1.0
  C  C104  1  0.57085000  0.85251000  0.87814000  1.0
  C  C105  1  0.57122000  0.77511000  0.87907000  1.0
  C  C106  1  0.50006000  0.97424000  0.87706000  1.0
  C  C107  1  0.50069000  0.04256000  0.87723000  1.0
  C  C108  1  0.50046000  0.12128000  0.87740000  1.0
  C  C109  1  0.42793000  0.16317000  0.87683000  1.0
  C  C110  1  0.42603000  0.24062000  0.87651000  1.0
  C  C111  1  0.49931000  0.27979000  0.87740000  1.0
  C  C112  1  0.57308000  0.24116000  0.87833000  1.0
  C  C113  1  0.57241000  0.16375000  0.87809000  1.0
  N  N114  1  0.29306000  0.50392000  0.50118000  1.0
  N  N115  1  0.71061000  0.50365000  0.49848000  1.0
  N  N116  1  0.71032000  0.50594000  0.88081000  1.0
  N  N117  1  0.29280000  0.50609000  0.87832000  1.0
  O  O118  1  0.56530000  0.61846000  0.50347000  1.0
  O  O119  1  0.42961000  0.61864000  0.49213000  1.0
  O  O120  1  0.44536000  0.52394000  0.57042000  1.0
  O  O121  1  0.57730000  0.49507000  0.56918000  1.0
  O  O122  1  0.43253000  0.39459000  0.51031000  1.0
  O  O123  1  0.56648000  0.39386000  0.49358000  1.0
  O  O124  1  0.57039000  0.51113000  0.42693000  1.0
  O  O125  1  0.43531000  0.48900000  0.42946000  1.0
  O  O126  1  0.42916000  0.62104000  0.88703000  1.0
  O  O127  1  0.56498000  0.62041000  0.87571000  1.0
  O  O128  1  0.57739000  0.49602000  0.81005000  1.0
  O  O129  1  0.44542000  0.52475000  0.80923000  1.0
  O  O130  1  0.56631000  0.39599000  0.88570000  1.0
  O  O131  1  0.43228000  0.39654000  0.86961000  1.0
  O  O132  1  0.43457000  0.49235000  0.95018000  1.0
  O  O133  1  0.56975000  0.51395000  0.95237000  1.0
  O  O134  1  0.38346000  0.55753000  0.64573000  1.0
  O  O135  1  0.38342000  0.55773000  0.73421000  1.0
  O  O136  1  0.61225000  0.36513000  0.59501000  1.0
  O  O137  1  0.70788000  0.27938000  0.64135000  1.0
  O  O138  1  0.70803000  0.27976000  0.73697000  1.0
  O  O139  1  0.61257000  0.36593000  0.78385000  1.0
  F  F140  1  0.13357000  0.40430000  0.44405000  1.0
  F  F141  1  0.12685000  0.59542000  0.55797000  1.0
  F  F142  1  0.87287000  0.40741000  0.44086000  1.0
  F  F143  1  0.87393000  0.59060000  0.55966000  1.0
  F  F144  1  0.35594000  0.89085000  0.50069000  1.0
  F  F145  1  0.64216000  0.88773000  0.50021000  1.0
  F  F146  1  0.35738000  0.12275000  0.50225000  1.0
  F  F147  1  0.64358000  0.12389000  0.49923000  1.0
  F  F148  1  0.63950000  0.50236000  0.11905000  1.0
  F  F149  1  0.35332000  0.50252000  0.11660000  1.0
  F  F150  1  0.63975000  0.50143000  0.25995000  1.0
  F  F151  1  0.35357000  0.50143000  0.26343000  1.0
  F  F152  1  0.87181000  0.41009000  0.93844000  1.0
  F  F153  1  0.87448000  0.59251000  0.82008000  1.0
  F  F154  1  0.13291000  0.40690000  0.93533000  1.0
  F  F155  1  0.12698000  0.59702000  0.82171000  1.0
  F  F156  1  0.64219000  0.88966000  0.87794000  1.0
  F  F157  1  0.35598000  0.89312000  0.87694000  1.0
  F  F158  1  0.64357000  0.12601000  0.87863000  1.0
  F  F159  1  0.35736000  0.12474000  0.87649000  1.0
