# generated using pymatgen
data_Zn3P2H32C52(NO6)2
_symmetry_space_group_name_H-M   'P 1'
_cell_length_a   22.16242561
_cell_length_b   22.16270000
_cell_length_c   22.16280000
_cell_angle_alpha   72.83700000
_cell_angle_beta   73.83753296
_cell_angle_gamma   115.24822243
_symmetry_Int_Tables_number   1
_chemical_formula_structural   Zn3P2H32C52(NO6)2
_chemical_formula_sum   'Zn12 P8 H128 C208 N8 O48'
_cell_volume   8314.90117569
_cell_formula_units_Z   4
loop_
 _symmetry_equiv_pos_site_id
 _symmetry_equiv_pos_as_xyz
  1  'x, y, z'
loop_
 _atom_site_type_symbol
 _atom_site_label
 _atom_site_symmetry_multiplicity
 _atom_site_fract_x
 _atom_site_fract_y
 _atom_site_fract_z
 _atom_site_occupancy
  Zn  Zn0  1  0.75000000  0.14794000  0.10207000  1.0
  Zn  Zn1  1  0.25000000  0.35206000  0.39794000  1.0
  Zn  Zn2  1  0.25000000  0.85206000  0.89794000  1.0
  Zn  Zn3  1  0.75000000  0.64794000  0.60206000  1.0
  Zn  Zn4  1  0.89420000  0.14735000  0.02116000  1.0
  Zn  Zn5  1  0.33149000  0.35265000  0.25315000  1.0
  Zn  Zn6  1  0.60580000  0.08464000  0.24685000  1.0
  Zn  Zn7  1  0.16851000  0.41537000  0.47884000  1.0
  Zn  Zn8  1  0.10580000  0.85266000  0.97884000  1.0
  Zn  Zn9  1  0.66851000  0.64735000  0.74685000  1.0
  Zn  Zn10  1  0.39420000  0.91536000  0.75315000  1.0
  Zn  Zn11  1  0.83149000  0.58464000  0.52116000  1.0
  P  P12  1  0.53833000  0.74025000  0.04984000  1.0
  P  P13  1  0.70991000  0.75975000  0.20192000  1.0
  P  P14  1  0.96167000  0.41183000  0.29808000  1.0
  P  P15  1  0.79009000  0.08817000  0.45016000  1.0
  P  P16  1  0.46167000  0.25975000  0.95016000  1.0
  P  P17  1  0.29009000  0.24025000  0.79808000  1.0
  P  P18  1  0.03833000  0.58817000  0.70192000  1.0
  P  P19  1  0.20991000  0.91183000  0.54984000  1.0
  H  H20  1  0.89850000  0.01641000  0.03178000  1.0
  H  H21  1  0.45182000  0.48360000  0.11790000  1.0
  H  H22  1  0.60150000  0.06972000  0.38209000  1.0
  H  H23  1  0.04818000  0.43028000  0.46822000  1.0
  H  H24  1  0.10150000  0.98359000  0.96823000  1.0
  H  H25  1  0.54818000  0.51641000  0.88209000  1.0
  H  H26  1  0.39850000  0.93028000  0.61790000  1.0
  H  H27  1  0.95182000  0.56972000  0.53178000  1.0
  H  H28  1  0.06103000  0.23841000  0.96392000  1.0
  H  H29  1  0.29767000  0.26158000  0.17738000  1.0
  H  H30  1  0.43897000  0.97505000  0.32261000  1.0
  H  H31  1  0.20233000  0.52495000  0.53609000  1.0
  H  H32  1  0.93897000  0.76159000  0.03608000  1.0
  H  H33  1  0.70233000  0.73842000  0.82262000  1.0
  H  H34  1  0.56103000  0.02494000  0.67738000  1.0
  H  H35  1  0.79767000  0.47505000  0.46391000  1.0
  H  H36  1  0.16637000  0.21762000  0.92308000  1.0
  H  H37  1  0.35930000  0.28239000  0.05125000  1.0
  H  H38  1  0.33363000  0.91054000  0.44875000  1.0
  H  H39  1  0.14070000  0.58945000  0.57692000  1.0
  H  H40  1  0.83363000  0.78238000  0.07691000  1.0
  H  H41  1  0.64070000  0.71762000  0.94875000  1.0
  H  H42  1  0.66637000  0.08946000  0.55125000  1.0
  H  H43  1  0.85930000  0.41055000  0.42308000  1.0
  H  H44  1  0.13381000  0.09091000  0.94222000  1.0
  H  H45  1  0.46687000  0.40909000  0.95710000  1.0
  H  H46  1  0.36619000  0.92397000  0.54290000  1.0
  H  H47  1  0.03313000  0.57603000  0.55778000  1.0
  H  H48  1  0.86619000  0.90909000  0.05778000  1.0
  H  H49  1  0.53313000  0.59091000  0.04290000  1.0
  H  H50  1  0.63381000  0.07603000  0.45709000  1.0
  H  H51  1  0.96687000  0.42397000  0.44223000  1.0
  H  H52  1  0.77831000  0.93468000  0.02332000  1.0
  H  H53  1  0.54199000  0.56531000  0.15638000  1.0
  H  H54  1  0.72169000  0.19837000  0.34363000  1.0
  H  H55  1  0.95801000  0.30164000  0.47667000  1.0
  H  H56  1  0.22169000  0.06532000  0.97668000  1.0
  H  H57  1  0.45801000  0.43469000  0.84362000  1.0
  H  H58  1  0.27831000  0.80163000  0.65637000  1.0
  H  H59  1  0.04199000  0.69836000  0.52333000  1.0
  H  H60  1  0.69081000  0.81375000  0.02863000  1.0
  H  H61  1  0.65762000  0.68625000  0.12294000  1.0
  H  H62  1  0.80919000  0.28056000  0.37706000  1.0
  H  H63  1  0.84238000  0.21945000  0.47137000  1.0
  H  H64  1  0.30919000  0.18626000  0.97136000  1.0
  H  H65  1  0.34238000  0.31375000  0.87706000  1.0
  H  H66  1  0.19081000  0.71944000  0.62294000  1.0
  H  H67  1  0.15762000  0.78055000  0.52863000  1.0
  H  H68  1  0.52080000  0.86478000  0.06127000  1.0
  H  H69  1  0.57395000  0.63522000  0.34398000  1.0
  H  H70  1  0.97920000  0.41793000  0.15602000  1.0
  H  H71  1  0.92605000  0.08207000  0.43872000  1.0
  H  H72  1  0.47920000  0.13522000  0.93873000  1.0
  H  H73  1  0.42605000  0.36478000  0.65602000  1.0
  H  H74  1  0.02080000  0.58208000  0.84397000  1.0
  H  H75  1  0.07395000  0.91793000  0.56127000  1.0
  H  H76  1  0.60737000  0.98286000  0.06090000  1.0
  H  H77  1  0.45624000  0.51714000  0.37549000  1.0
  H  H78  1  0.89263000  0.33173000  0.12451000  1.0
  H  H79  1  0.04376000  0.16827000  0.43910000  1.0
  H  H80  1  0.39263000  0.01714000  0.93910000  1.0
  H  H81  1  0.54376000  0.48286000  0.62451000  1.0
  H  H82  1  0.10737000  0.66827000  0.87549000  1.0
  H  H83  1  0.95624000  0.83173000  0.56090000  1.0
  H  H84  1  0.40835000  0.58707000  0.12375000  1.0
  H  H85  1  0.78919000  0.91294000  0.17871000  1.0
  H  H86  1  0.09165000  0.46790000  0.32129000  1.0
  H  H87  1  0.71081000  0.03210000  0.37625000  1.0
  H  H88  1  0.59165000  0.41293000  0.87625000  1.0
  H  H89  1  0.21081000  0.08706000  0.82129000  1.0
  H  H90  1  0.90835000  0.53210000  0.67871000  1.0
  H  H91  1  0.28919000  0.96790000  0.62375000  1.0
  H  H92  1  0.31109000  0.49870000  0.25003000  1.0
  H  H93  1  0.75127000  0.00130000  0.18761000  1.0
  H  H94  1  0.18891000  0.43888000  0.31239000  1.0
  H  H95  1  0.74873000  0.06112000  0.24997000  1.0
  H  H96  1  0.68891000  0.50130000  0.74997000  1.0
  H  H97  1  0.24873000  0.99870000  0.81239000  1.0
  H  H98  1  0.81109000  0.56112000  0.68761000  1.0
  H  H99  1  0.25127000  0.93888000  0.75003000  1.0
  H  H100  1  0.40993000  0.67203000  0.30761000  1.0
  H  H101  1  0.52036000  0.82797000  0.26210000  1.0
  H  H102  1  0.09007000  0.28246000  0.23790000  1.0
  H  H103  1  0.97964000  0.21754000  0.19239000  1.0
  H  H104  1  0.59007000  0.32797000  0.69239000  1.0
  H  H105  1  0.47964000  0.17203000  0.73790000  1.0
  H  H106  1  0.90993000  0.71754000  0.76210000  1.0
  H  H107  1  0.02036000  0.78246000  0.80761000  1.0
  H  H108  1  0.50745000  0.76243000  0.18012000  1.0
  H  H109  1  0.55745000  0.73756000  0.25498000  1.0
  H  H110  1  0.99255000  0.31244000  0.24501000  1.0
  H  H111  1  0.94255000  0.18757000  0.31989000  1.0
  H  H112  1  0.49255000  0.23757000  0.81988000  1.0
  H  H113  1  0.44255000  0.26244000  0.74502000  1.0
  H  H114  1  0.00745000  0.68756000  0.75499000  1.0
  H  H115  1  0.05745000  0.81243000  0.68011000  1.0
  H  H116  1  0.57973000  0.80813000  0.90169000  1.0
  H  H117  1  0.79018000  0.69186000  0.22840000  1.0
  H  H118  1  0.92027000  0.51859000  0.27160000  1.0
  H  H119  1  0.70982000  0.98142000  0.59831000  1.0
  H  H120  1  0.42026000  0.19186000  0.09832000  1.0
  H  H121  1  0.20982000  0.30814000  0.77160000  1.0
  H  H122  1  0.07973000  0.48141000  0.72840000  1.0
  H  H123  1  0.29018000  0.01858000  0.40169000  1.0
  H  H124  1  0.52251000  0.85208000  0.83167000  1.0
  H  H125  1  0.81625000  0.64793000  0.32957000  1.0
  H  H126  1  0.97749000  0.64581000  0.17043000  1.0
  H  H127  1  0.68375000  0.85418000  0.66833000  1.0
  H  H128  1  0.47749000  0.14792000  0.16833000  1.0
  H  H129  1  0.18375000  0.35207000  0.67043000  1.0
  H  H130  1  0.02251000  0.35419000  0.82957000  1.0
  H  H131  1  0.31625000  0.14582000  0.33167000  1.0
  H  H132  1  0.33264000  0.77176000  0.02588000  1.0
  H  H133  1  0.70236000  0.72824000  0.43912000  1.0
  H  H134  1  0.16736000  0.64148000  0.06088000  1.0
  H  H135  1  0.79764000  0.85852000  0.47412000  1.0
  H  H136  1  0.66736000  0.22824000  0.97412000  1.0
  H  H137  1  0.29764000  0.27176000  0.56088000  1.0
  H  H138  1  0.83264000  0.35852000  0.93912000  1.0
  H  H139  1  0.20236000  0.14148000  0.52588000  1.0
  H  H140  1  0.38878000  0.72715000  0.09715000  1.0
  H  H141  1  0.67570000  0.77284000  0.33837000  1.0
  H  H142  1  0.11122000  0.51407000  0.16163000  1.0
  H  H143  1  0.82430000  0.98593000  0.40285000  1.0
  H  H144  1  0.61122000  0.27285000  0.90285000  1.0
  H  H145  1  0.32430000  0.22716000  0.66163000  1.0
  H  H146  1  0.88878000  0.48593000  0.83837000  1.0
  H  H147  1  0.17570000  0.01407000  0.59715000  1.0
  C  C148  1  0.01208000  0.03925000  0.99245000  1.0
  C  C149  1  0.46830000  0.46074000  0.02718000  1.0
  C  C150  1  0.48792000  0.99548000  0.47282000  1.0
  C  C151  1  0.03170000  0.50453000  0.50756000  1.0
  C  C152  1  0.98791000  0.96073000  0.00757000  1.0
  C  C153  1  0.53170000  0.53926000  0.97282000  1.0
  C  C154  1  0.51208000  0.00452000  0.52718000  1.0
  C  C155  1  0.96830000  0.49548000  0.49244000  1.0
  C  C156  1  0.95869000  0.05771000  0.00937000  1.0
  C  C157  1  0.43292000  0.44229000  0.09902000  1.0
  C  C158  1  0.54131000  0.03194000  0.40098000  1.0
  C  C159  1  0.06708000  0.46806000  0.49063000  1.0
  C  C160  1  0.04131000  0.94229000  0.99063000  1.0
  C  C161  1  0.56707000  0.55770000  0.90098000  1.0
  C  C162  1  0.45869000  0.96806000  0.59901000  1.0
  C  C163  1  0.93292000  0.53194000  0.50937000  1.0
  C  C164  1  0.05015000  0.18375000  0.96957000  1.0
  C  C165  1  0.34668000  0.31625000  0.13361000  1.0
  C  C166  1  0.44985000  0.98028000  0.36640000  1.0
  C  C167  1  0.15332000  0.51972000  0.53043000  1.0
  C  C168  1  0.94985000  0.81625000  0.03044000  1.0
  C  C169  1  0.65332000  0.68376000  0.86639000  1.0
  C  C170  1  0.55015000  0.01971000  0.63360000  1.0
  C  C171  1  0.84668000  0.48028000  0.46957000  1.0
  C  C172  1  0.10721000  0.17138000  0.94883000  1.0
  C  C173  1  0.37979000  0.32862000  0.06417000  1.0
  C  C174  1  0.39279000  0.94396000  0.43583000  1.0
  C  C175  1  0.12021000  0.55604000  0.55117000  1.0
  C  C176  1  0.89279000  0.82862000  0.05117000  1.0
  C  C177  1  0.62021000  0.67138000  0.93583000  1.0
  C  C178  1  0.60721000  0.05604000  0.56417000  1.0
  C  C179  1  0.87979000  0.44396000  0.44883000  1.0
  C  C180  1  0.08825000  0.09918000  0.95991000  1.0
  C  C181  1  0.44091000  0.40082000  0.01093000  1.0
  C  C182  1  0.41175000  0.95184000  0.48907000  1.0
  C  C183  1  0.05909000  0.54816000  0.54009000  1.0
  C  C184  1  0.91175000  0.90082000  0.04009000  1.0
  C  C185  1  0.55909000  0.59918000  0.98907000  1.0
  C  C186  1  0.58825000  0.04816000  0.51093000  1.0
  C  C187  1  0.94091000  0.45184000  0.45991000  1.0
  C  C188  1  0.74986000  0.03636000  0.04263000  1.0
  C  C189  1  0.42100000  0.46363000  0.28651000  1.0
  C  C190  1  0.75014000  0.20750000  0.21350000  1.0
  C  C191  1  0.07900000  0.29249000  0.45736000  1.0
  C  C192  1  0.25014000  0.96364000  0.95737000  1.0
  C  C193  1  0.57900000  0.53636000  0.71349000  1.0
  C  C194  1  0.24986000  0.79249000  0.78650000  1.0
  C  C195  1  0.92100000  0.70750000  0.54264000  1.0
  C  C196  1  0.69800000  0.96580000  0.04217000  1.0
  C  C197  1  0.49204000  0.53420000  0.26780000  1.0
  C  C198  1  0.80200000  0.25984000  0.23220000  1.0
  C  C199  1  0.00796000  0.24016000  0.45784000  1.0
  C  C200  1  0.30200000  0.03420000  0.95783000  1.0
  C  C201  1  0.50796000  0.46580000  0.73221000  1.0
  C  C202  1  0.19800000  0.74016000  0.76780000  1.0
  C  C203  1  0.99204000  0.75984000  0.54216000  1.0
  C  C204  1  0.72144000  0.91833000  0.03250000  1.0
  C  C205  1  0.54917000  0.58167000  0.19689000  1.0
  C  C206  1  0.77856000  0.24606000  0.30311000  1.0
  C  C207  1  0.95083000  0.25394000  0.46750000  1.0
  C  C208  1  0.27856000  0.08167000  0.96750000  1.0
  C  C209  1  0.45083000  0.41833000  0.80311000  1.0
  C  C210  1  0.22144000  0.75394000  0.69689000  1.0
  C  C211  1  0.04917000  0.74606000  0.53250000  1.0
  C  C212  1  0.67243000  0.85098000  0.03518000  1.0
  C  C213  1  0.61384000  0.64903000  0.17855000  1.0
  C  C214  1  0.82757000  0.29238000  0.32146000  1.0
  C  C215  1  0.88616000  0.20761000  0.46481000  1.0
  C  C216  1  0.32758000  0.14903000  0.96480000  1.0
  C  C217  1  0.38616000  0.35097000  0.82146000  1.0
  C  C218  1  0.17242000  0.70761000  0.67855000  1.0
  C  C219  1  0.11384000  0.79239000  0.53519000  1.0
  C  C220  1  0.59948000  0.83049000  0.04618000  1.0
  C  C221  1  0.62333000  0.66951000  0.23101000  1.0
  C  C222  1  0.90052000  0.35434000  0.26899000  1.0
  C  C223  1  0.87667000  0.14566000  0.45382000  1.0
  C  C224  1  0.40052000  0.16951000  0.95382000  1.0
  C  C225  1  0.37667000  0.33049000  0.76899000  1.0
  C  C226  1  0.09948000  0.64566000  0.73101000  1.0
  C  C227  1  0.12333000  0.85434000  0.54618000  1.0
  C  C228  1  0.57688000  0.87931000  0.05395000  1.0
  C  C229  1  0.56673000  0.62068000  0.30244000  1.0
  C  C230  1  0.92312000  0.36917000  0.19756000  1.0
  C  C231  1  0.93327000  0.13084000  0.44605000  1.0
  C  C232  1  0.42312000  0.12069000  0.94604000  1.0
  C  C233  1  0.43327000  0.37932000  0.69757000  1.0
  C  C234  1  0.07688000  0.63083000  0.80244000  1.0
  C  C235  1  0.06673000  0.86916000  0.55395000  1.0
  C  C236  1  0.62521000  0.94572000  0.05305000  1.0
  C  C237  1  0.50123000  0.55428000  0.32051000  1.0
  C  C238  1  0.87479000  0.32174000  0.17949000  1.0
  C  C239  1  0.99877000  0.17826000  0.44695000  1.0
  C  C240  1  0.37479000  0.05428000  0.94695000  1.0
  C  C241  1  0.49877000  0.44572000  0.67949000  1.0
  C  C242  1  0.12521000  0.67826000  0.82051000  1.0
  C  C243  1  0.00123000  0.82174000  0.55305000  1.0
  C  C244  1  0.46511000  0.68116000  0.14307000  1.0
  C  C245  1  0.67576000  0.81883000  0.21606000  1.0
  C  C246  1  0.03489000  0.39182000  0.28395000  1.0
  C  C247  1  0.82424000  0.10819000  0.35692000  1.0
  C  C248  1  0.53489000  0.31884000  0.85693000  1.0
  C  C249  1  0.32424000  0.18117000  0.78395000  1.0
  C  C250  1  0.96511000  0.60818000  0.71605000  1.0
  C  C251  1  0.17576000  0.89181000  0.64308000  1.0
  C  C252  1  0.40891000  0.60651000  0.16366000  1.0
  C  C253  1  0.72983000  0.89349000  0.19760000  1.0
  C  C254  1  0.09109000  0.42743000  0.30240000  1.0
  C  C255  1  0.77017000  0.07258000  0.33633000  1.0
  C  C256  1  0.59109000  0.39349000  0.83633000  1.0
  C  C257  1  0.27017000  0.10651000  0.80241000  1.0
  C  C258  1  0.90891000  0.57258000  0.69760000  1.0
  C  C259  1  0.22983000  0.92743000  0.66366000  1.0
  C  C260  1  0.35378000  0.55671000  0.23447000  1.0
  C  C261  1  0.70883000  0.94329000  0.20292000  1.0
  C  C262  1  0.14622000  0.41175000  0.29707000  1.0
  C  C263  1  0.79117000  0.08824000  0.26554000  1.0
  C  C264  1  0.64622000  0.44329000  0.76553000  1.0
  C  C265  1  0.29118000  0.05672000  0.79707000  1.0
  C  C266  1  0.85379000  0.58826000  0.70292000  1.0
  C  C267  1  0.20883000  0.91176000  0.73446000  1.0
  C  C268  1  0.35466000  0.58011000  0.28671000  1.0
  C  C269  1  0.63318000  0.91989000  0.22545000  1.0
  C  C270  1  0.14534000  0.35863000  0.27455000  1.0
  C  C271  1  0.86682000  0.14137000  0.21329000  1.0
  C  C272  1  0.64534000  0.41989000  0.71329000  1.0
  C  C273  1  0.36682000  0.08011000  0.77455000  1.0
  C  C274  1  0.85466000  0.64137000  0.72545000  1.0
  C  C275  1  0.13318000  0.85863000  0.78671000  1.0
  C  C276  1  0.41030000  0.65449000  0.26649000  1.0
  C  C277  1  0.57902000  0.84551000  0.24419000  1.0
  C  C278  1  0.08970000  0.32321000  0.25581000  1.0
  C  C279  1  0.92098000  0.17679000  0.23351000  1.0
  C  C280  1  0.58970000  0.34551000  0.73351000  1.0
  C  C281  1  0.42098000  0.15449000  0.75581000  1.0
  C  C282  1  0.91030000  0.67679000  0.74419000  1.0
  C  C283  1  0.07902000  0.82321000  0.76649000  1.0
  C  C284  1  0.46469000  0.70463000  0.19533000  1.0
  C  C285  1  0.60004000  0.79537000  0.23994000  1.0
  C  C286  1  0.03531000  0.33998000  0.26006000  1.0
  C  C287  1  0.89996000  0.16002000  0.30467000  1.0
  C  C288  1  0.53531000  0.29537000  0.80467000  1.0
  C  C289  1  0.39995000  0.20462000  0.76007000  1.0
  C  C290  1  0.96469000  0.66002000  0.73994000  1.0
  C  C291  1  0.10004000  0.83998000  0.69533000  1.0
  C  C292  1  0.29703000  0.52783000  0.36322000  1.0
  C  C293  1  0.60896000  0.97218000  0.23080000  1.0
  C  C294  1  0.20297000  0.33975000  0.26921000  1.0
  C  C295  1  0.89103000  0.16023000  0.13679000  1.0
  C  C296  1  0.70297000  0.47218000  0.63679000  1.0
  C  C297  1  0.39104000  0.02782000  0.76921000  1.0
  C  C298  1  0.79703000  0.66025000  0.73079000  1.0
  C  C299  1  0.10896000  0.83976000  0.86322000  1.0
  C  C300  1  0.48869000  0.76571000  0.00420000  1.0
  C  C301  1  0.73008000  0.73429000  0.27703000  1.0
  C  C302  1  0.01131000  0.50710000  0.22298000  1.0
  C  C303  1  0.76992000  0.99290000  0.49579000  1.0
  C  C304  1  0.51131000  0.23429000  0.99580000  1.0
  C  C305  1  0.26992000  0.26571000  0.72298000  1.0
  C  C306  1  0.98869000  0.49290000  0.77702000  1.0
  C  C307  1  0.23008000  0.00710000  0.50421000  1.0
  C  C308  1  0.52559000  0.80027000  0.92922000  1.0
  C  C309  1  0.77051000  0.69973000  0.27468000  1.0
  C  C310  1  0.97441000  0.54519000  0.22532000  1.0
  C  C311  1  0.72949000  0.95481000  0.57078000  1.0
  C  C312  1  0.47441000  0.19973000  0.07078000  1.0
  C  C313  1  0.22949000  0.30027000  0.72532000  1.0
  C  C314  1  0.02559000  0.45481000  0.77468000  1.0
  C  C315  1  0.27051000  0.04519000  0.42922000  1.0
  C  C316  1  0.49409000  0.82497000  0.88980000  1.0
  C  C317  1  0.78523000  0.67504000  0.33088000  1.0
  C  C318  1  0.00591000  0.61610000  0.16912000  1.0
  C  C319  1  0.71477000  0.88389000  0.61020000  1.0
  C  C320  1  0.50591000  0.17503000  0.11020000  1.0
  C  C321  1  0.21477000  0.32496000  0.66913000  1.0
  C  C322  1  0.99409000  0.38390000  0.83088000  1.0
  C  C323  1  0.28523000  0.11611000  0.38980000  1.0
  C  C324  1  0.42454000  0.81499000  0.92467000  1.0
  C  C325  1  0.76034000  0.68501000  0.39045000  1.0
  C  C326  1  0.07546000  0.65079000  0.10954000  1.0
  C  C327  1  0.73967000  0.84922000  0.57533000  1.0
  C  C328  1  0.57546000  0.18501000  0.07533000  1.0
  C  C329  1  0.23967000  0.31500000  0.60954000  1.0
  C  C330  1  0.92454000  0.34921000  0.89046000  1.0
  C  C331  1  0.26033000  0.15079000  0.42467000  1.0
  C  C332  1  0.38672000  0.77925000  0.99947000  1.0
  C  C333  1  0.72128000  0.72075000  0.39253000  1.0
  C  C334  1  0.11328000  0.61381000  0.10747000  1.0
  C  C335  1  0.77872000  0.88619000  0.50053000  1.0
  C  C336  1  0.61328000  0.22075000  0.00053000  1.0
  C  C337  1  0.27872000  0.27925000  0.60747000  1.0
  C  C338  1  0.88672000  0.38620000  0.89252000  1.0
  C  C339  1  0.22128000  0.11381000  0.49947000  1.0
  C  C340  1  0.41845000  0.75467000  0.03894000  1.0
  C  C341  1  0.70640000  0.74535000  0.33621000  1.0
  C  C342  1  0.08155000  0.54260000  0.16379000  1.0
  C  C343  1  0.79361000  0.95740000  0.46105000  1.0
  C  C344  1  0.58155000  0.24534000  0.96106000  1.0
  C  C345  1  0.29360000  0.25465000  0.66379000  1.0
  C  C346  1  0.91845000  0.45740000  0.83621000  1.0
  C  C347  1  0.20639000  0.04260000  0.53895000  1.0
  C  C348  1  0.39140000  0.84278000  0.88201000  1.0
  C  C349  1  0.77521000  0.65721000  0.45138000  1.0
  C  C350  1  0.10860000  0.72659000  0.04861000  1.0
  C  C351  1  0.72479000  0.77341000  0.61800000  1.0
  C  C352  1  0.60860000  0.15722000  0.11799000  1.0
  C  C353  1  0.22479000  0.34278000  0.54862000  1.0
  C  C354  1  0.89140000  0.27341000  0.95138000  1.0
  C  C355  1  0.27520000  0.22659000  0.38201000  1.0
  N  N356  1  0.97724000  0.12753000  0.99816000  1.0
  N  N357  1  0.37430000  0.37246000  0.15030000  1.0
  N  N358  1  0.52276000  0.02460000  0.34970000  1.0
  N  N359  1  0.12570000  0.47540000  0.50184000  1.0
  N  N360  1  0.02276000  0.87247000  0.00184000  1.0
  N  N361  1  0.62569000  0.62753000  0.84971000  1.0
  N  N362  1  0.47724000  0.97540000  0.65030000  1.0
  N  N363  1  0.87430000  0.52459000  0.49816000  1.0
  O  O364  1  0.81899000  0.05714000  0.02036000  1.0
  O  O365  1  0.42250000  0.44286000  0.23815000  1.0
  O  O366  1  0.68101000  0.16064000  0.26186000  1.0
  O  O367  1  0.07750000  0.33935000  0.47964000  1.0
  O  O368  1  0.18101000  0.94287000  0.97964000  1.0
  O  O369  1  0.57749000  0.55713000  0.76186000  1.0
  O  O370  1  0.31899000  0.83935000  0.73814000  1.0
  O  O371  1  0.92250000  0.66065000  0.52037000  1.0
  O  O372  1  0.72208000  0.06954000  0.06530000  1.0
  O  O373  1  0.36516000  0.43046000  0.34746000  1.0
  O  O374  1  0.77792000  0.21262000  0.15253000  1.0
  O  O375  1  0.13484000  0.28737000  0.43471000  1.0
  O  O376  1  0.27792000  0.93046000  0.93470000  1.0
  O  O377  1  0.63484000  0.56954000  0.65254000  1.0
  O  O378  1  0.22208000  0.78737000  0.84747000  1.0
  O  O379  1  0.86516000  0.71262000  0.56529000  1.0
  O  O380  1  0.24559000  0.45829000  0.37928000  1.0
  O  O381  1  0.66244000  0.04172000  0.21270000  1.0
  O  O382  1  0.25441000  0.37513000  0.28731000  1.0
  O  O383  1  0.83756000  0.12486000  0.12072000  1.0
  O  O384  1  0.75442000  0.54172000  0.62071000  1.0
  O  O385  1  0.33757000  0.95829000  0.78730000  1.0
  O  O386  1  0.74559000  0.62487000  0.71269000  1.0
  O  O387  1  0.16243000  0.87513000  0.87929000  1.0
  O  O388  1  0.29516000  0.54940000  0.40924000  1.0
  O  O389  1  0.54135000  0.95060000  0.25425000  1.0
  O  O390  1  0.20485000  0.29560000  0.24575000  1.0
  O  O391  1  0.95865000  0.20441000  0.09075000  1.0
  O  O392  1  0.70484000  0.45060000  0.59075000  1.0
  O  O393  1  0.45865000  0.04940000  0.74576000  1.0
  O  O394  1  0.79516000  0.70441000  0.75424000  1.0
  O  O395  1  0.04135000  0.79559000  0.90925000  1.0
  O  O396  1  0.42900000  0.87220000  0.81374000  1.0
  O  O397  1  0.81406000  0.62780000  0.44320000  1.0
  O  O398  1  0.07100000  0.75726000  0.05680000  1.0
  O  O399  1  0.68594000  0.74274000  0.68626000  1.0
  O  O400  1  0.57100000  0.12780000  0.18626000  1.0
  O  O401  1  0.18594000  0.37220000  0.55680000  1.0
  O  O402  1  0.92900000  0.24275000  0.94320000  1.0
  O  O403  1  0.31405000  0.25725000  0.31375000  1.0
  O  O404  1  0.33045000  0.83599000  0.91502000  1.0
  O  O405  1  0.74899000  0.66402000  0.50554000  1.0
  O  O406  1  0.16956000  0.75453000  0.99446000  1.0
  O  O407  1  0.75101000  0.74547000  0.58497000  1.0
  O  O408  1  0.66955000  0.16401000  0.08498000  1.0
  O  O409  1  0.25102000  0.33599000  0.49446000  1.0
  O  O410  1  0.83044000  0.24547000  0.00554000  1.0
  O  O411  1  0.24899000  0.25453000  0.41502000  1.0
