# generated using pymatgen
data_CoH24C26(SN7)2
_symmetry_space_group_name_H-M   'P 1'
_cell_length_a   8.45754000
_cell_length_b   8.78848000
_cell_length_c   9.58786000
_cell_angle_alpha   96.44110000
_cell_angle_beta   98.58890000
_cell_angle_gamma   96.94870000
_symmetry_Int_Tables_number   1
_chemical_formula_structural   CoH24C26(SN7)2
_chemical_formula_sum   'Co1 H24 C26 S2 N14'
_cell_volume   693.30102878
_cell_formula_units_Z   1
loop_
 _symmetry_equiv_pos_site_id
 _symmetry_equiv_pos_as_xyz
  1  'x, y, z'
loop_
 _atom_site_type_symbol
 _atom_site_label
 _atom_site_symmetry_multiplicity
 _atom_site_fract_x
 _atom_site_fract_y
 _atom_site_fract_z
 _atom_site_occupancy
  Co  Co0  1  0.00000000  0.50000000  0.00000000  1.0
  H  H1  1  0.64208000  0.06226000  0.23792000  1.0
  H  H2  1  0.35793000  0.93774000  0.76209000  1.0
  H  H3  1  0.83860000  0.25814000  0.40689000  1.0
  H  H4  1  0.16141000  0.74186000  0.59312000  1.0
  H  H5  1  0.94592000  0.19284000  0.64732000  1.0
  H  H6  1  0.05409000  0.80716000  0.35268000  1.0
  H  H7  1  0.84781000  0.94372000  0.71994000  1.0
  H  H8  1  0.15220000  0.05628000  0.28007000  1.0
  H  H9  1  0.53995000  0.73623000  0.64705000  1.0
  H  H10  1  0.46005000  0.26377000  0.35295000  1.0
  H  H11  1  0.55919000  0.62678000  0.48556000  1.0
  H  H12  1  0.44081000  0.37323000  0.51444000  1.0
  H  H13  1  0.42255000  0.71351000  0.31633000  1.0
  H  H14  1  0.57745000  0.28649000  0.68367000  1.0
  H  H15  1  0.46280000  0.83804000  0.18942000  1.0
  H  H16  1  0.53720000  0.16196000  0.81058000  1.0
  H  H17  1  0.03526000  0.43939000  0.65982000  1.0
  H  H18  1  0.96474000  0.56061000  0.34018000  1.0
  H  H19  1  0.72404000  0.68956000  0.86805000  1.0
  H  H20  1  0.27596000  0.31043000  0.13195000  1.0
  H  H21  1  0.66040000  0.31865000  0.11042000  1.0
  H  H22  1  0.33960000  0.68135000  0.88958000  1.0
  H  H23  1  0.80133000  0.79819000  0.13730000  1.0
  H  H24  1  0.19866000  0.20181000  0.86269000  1.0
  C  C25  1  0.68884000  0.86074000  0.52134000  1.0
  C  C26  1  0.31116000  0.13926000  0.47865000  1.0
  C  C27  1  0.63184000  0.89426000  0.38431000  1.0
  C  C28  1  0.36816000  0.10575000  0.61569000  1.0
  C  C29  1  0.68582000  0.03810000  0.34512000  1.0
  C  C30  1  0.31418000  0.96190000  0.65488000  1.0
  C  C31  1  0.79722000  0.14684000  0.43883000  1.0
  C  C32  1  0.20278000  0.85316000  0.56116000  1.0
  C  C33  1  0.85696000  0.11103000  0.57309000  1.0
  C  C34  1  0.14304000  0.88897000  0.42690000  1.0
  C  C35  1  0.80238000  0.96939000  0.61395000  1.0
  C  C36  1  0.19762000  0.03061000  0.38605000  1.0
  C  C37  1  0.62436000  0.71286000  0.57317000  1.0
  C  C38  1  0.37564000  0.28713000  0.42683000  1.0
  C  C39  1  0.51977000  0.77806000  0.27414000  1.0
  C  C40  1  0.48023000  0.22195000  0.72586000  1.0
  C  C41  1  0.94036000  0.50645000  0.68116000  1.0
  C  C42  1  0.05964000  0.49355000  0.31884000  1.0
  C  C43  1  0.78477000  0.63364000  0.78961000  1.0
  C  C44  1  0.21523000  0.36636000  0.21039000  1.0
  C  C45  1  0.66451000  0.44307000  0.13406000  1.0
  C  C46  1  0.33548000  0.55694000  0.86594000  1.0
  C  C47  1  0.73964000  0.68478000  0.14673000  1.0
  C  C48  1  0.26036000  0.31522000  0.85327000  1.0
  C  C49  1  0.83279000  0.17072000  0.95989000  1.0
  C  C50  1  0.16720000  0.82927000  0.04011000  1.0
  S  S51  1  0.71821000  0.01109000  0.96835000  1.0
  S  S52  1  0.28179000  0.98891000  0.03165000  1.0
  N  N53  1  0.74972000  0.63923000  0.64934000  1.0
  N  N54  1  0.25028000  0.36077000  0.35066000  1.0
  N  N55  1  0.84787000  0.55914000  0.57810000  1.0
  N  N56  1  0.15213000  0.44086000  0.42190000  1.0
  N  N57  1  0.90481000  0.54889000  0.81370000  1.0
  N  N58  1  0.09518000  0.45111000  0.18630000  1.0
  N  N59  1  0.60776000  0.66154000  0.20944000  1.0
  N  N60  1  0.39224000  0.33846000  0.79056000  1.0
  N  N61  1  0.55868000  0.50732000  0.20324000  1.0
  N  N62  1  0.44131000  0.49268000  0.79676000  1.0
  N  N63  1  0.77809000  0.54801000  0.09698000  1.0
  N  N64  1  0.22191000  0.45199000  0.90302000  1.0
  N  N65  1  0.90913000  0.29129000  0.95299000  1.0
  N  N66  1  0.09088000  0.70871000  0.04701000  1.0
