# generated using pymatgen
data_ZnH16C25NO4
_symmetry_space_group_name_H-M   'P 1'
_cell_length_a   8.85672000
_cell_length_b   12.51410000
_cell_length_c   24.81270987
_cell_angle_alpha   85.86956023
_cell_angle_beta   79.74549710
_cell_angle_gamma   69.28200000
_symmetry_Int_Tables_number   1
_chemical_formula_structural   ZnH16C25NO4
_chemical_formula_sum   'Zn4 H64 C100 N4 O16'
_cell_volume   2531.03911547
_cell_formula_units_Z   4
loop_
 _symmetry_equiv_pos_site_id
 _symmetry_equiv_pos_as_xyz
  1  'x, y, z'
loop_
 _atom_site_type_symbol
 _atom_site_label
 _atom_site_symmetry_multiplicity
 _atom_site_fract_x
 _atom_site_fract_y
 _atom_site_fract_z
 _atom_site_occupancy
  Zn  Zn0  1  0.01536000  0.22720000  0.73018000  1.0
  Zn  Zn1  1  0.47271000  0.27288000  0.76982000  1.0
  Zn  Zn2  1  0.98465000  0.77280000  0.26982000  1.0
  Zn  Zn3  1  0.52728000  0.72712000  0.23019000  1.0
  H  H4  1  0.88169000  0.03868000  0.77502000  1.0
  H  H5  1  0.19571000  0.46129000  0.72497000  1.0
  H  H6  1  0.11831000  0.96133000  0.22498000  1.0
  H  H7  1  0.80429000  0.53871000  0.27503000  1.0
  H  H8  1  0.88901000  0.38642000  0.89311000  1.0
  H  H9  1  0.66809000  0.11461000  0.60655000  1.0
  H  H10  1  0.11099000  0.61357000  0.10690000  1.0
  H  H11  1  0.33192000  0.88538000  0.39345000  1.0
  H  H12  1  0.23657000  0.49963000  0.62306000  1.0
  H  H13  1  0.85826000  0.99983000  0.87704000  1.0
  H  H14  1  0.76341000  0.50038000  0.37693000  1.0
  H  H15  1  0.14175000  0.00018000  0.12296000  1.0
  H  H16  1  0.30053000  0.27373000  0.56645000  1.0
  H  H17  1  0.64079000  0.22598000  0.93359000  1.0
  H  H18  1  0.69943000  0.72628000  0.43354000  1.0
  H  H19  1  0.35919000  0.77402000  0.06642000  1.0
  H  H20  1  0.75212000  0.46126000  0.65915000  1.0
  H  H21  1  0.37148000  0.03892000  0.84068000  1.0
  H  H22  1  0.24787000  0.53874000  0.34083000  1.0
  H  H23  1  0.62852000  0.96108000  0.15933000  1.0
  H  H24  1  0.87669000  0.28060000  0.96321000  1.0
  H  H25  1  0.62086000  0.22000000  0.53620000  1.0
  H  H26  1  0.12329000  0.71941000  0.03679000  1.0
  H  H27  1  0.37914000  0.77997000  0.46381000  1.0
  H  H28  1  0.92717000  0.52930000  0.58561000  1.0
  H  H29  1  0.54127000  0.97191000  0.91423000  1.0
  H  H30  1  0.07280000  0.47072000  0.41437000  1.0
  H  H31  1  0.45875000  0.02810000  0.08577000  1.0
  H  H32  1  0.98811000  0.82682000  0.78049000  1.0
  H  H33  1  0.09531000  0.67314000  0.71968000  1.0
  H  H34  1  0.01189000  0.17318000  0.21951000  1.0
  H  H35  1  0.90470000  0.32686000  0.28032000  1.0
  H  H36  1  0.47346000  0.83629000  0.72148000  1.0
  H  H37  1  0.53123000  0.66395000  0.77866000  1.0
  H  H38  1  0.52655000  0.16371000  0.27852000  1.0
  H  H39  1  0.46878000  0.33605000  0.22134000  1.0
  H  H40  1  0.86390000  0.56033000  0.49148000  1.0
  H  H41  1  0.41542000  0.94093000  0.00843000  1.0
  H  H42  1  0.13605000  0.43970000  0.50850000  1.0
  H  H43  1  0.58460000  0.05908000  0.99157000  1.0
  H  H44  1  0.25463000  0.35368000  0.86438000  1.0
  H  H45  1  0.97251000  0.14643000  0.63564000  1.0
  H  H46  1  0.74538000  0.64632000  0.13562000  1.0
  H  H47  1  0.02750000  0.85355000  0.36436000  1.0
  H  H48  1  0.50649000  0.43030000  0.63937000  1.0
  H  H49  1  0.07538000  0.06910000  0.86052000  1.0
  H  H50  1  0.49352000  0.56969000  0.36061000  1.0
  H  H51  1  0.92463000  0.93090000  0.13949000  1.0
  H  H52  1  0.34696000  0.04953000  0.71816000  1.0
  H  H53  1  0.61514000  0.45066000  0.78177000  1.0
  H  H54  1  0.65306000  0.95047000  0.28184000  1.0
  H  H55  1  0.38486000  0.54933000  0.21823000  1.0
  H  H56  1  0.23129000  0.70970000  0.86147000  1.0
  H  H57  1  0.29972000  0.79007000  0.63914000  1.0
  H  H58  1  0.76872000  0.29030000  0.13853000  1.0
  H  H59  1  0.70030000  0.20991000  0.36086000  1.0
  H  H60  1  0.12180000  0.55465000  0.86041000  1.0
  H  H61  1  0.03489000  0.94569000  0.63973000  1.0
  H  H62  1  0.87822000  0.44534000  0.13959000  1.0
  H  H63  1  0.96513000  0.05429000  0.36027000  1.0
  H  H64  1  0.23956000  0.78811000  0.94989000  1.0
  H  H65  1  0.47564000  0.71123000  0.55098000  1.0
  H  H66  1  0.76043000  0.21190000  0.05011000  1.0
  H  H67  1  0.52437000  0.28875000  0.44903000  1.0
  C  C68  1  0.01221000  0.99084000  0.76291000  1.0
  C  C69  1  0.26620000  0.50919000  0.73713000  1.0
  C  C70  1  0.98780000  0.00916000  0.23709000  1.0
  C  C71  1  0.73379000  0.49082000  0.26287000  1.0
  C  C72  1  0.00280000  0.39664000  0.89891000  1.0
  C  C73  1  0.79793000  0.10406000  0.60088000  1.0
  C  C74  1  0.99721000  0.60336000  0.10110000  1.0
  C  C75  1  0.20209000  0.89592000  0.39912000  1.0
  C  C76  1  0.28739000  0.43809000  0.58953000  1.0
  C  C77  1  0.81447000  0.06144000  0.91054000  1.0
  C  C78  1  0.71258000  0.56192000  0.41046000  1.0
  C  C79  1  0.18553000  0.93857000  0.08947000  1.0
  C  C80  1  0.24969000  0.34261000  0.59626000  1.0
  C  C81  1  0.68827000  0.15708000  0.90380000  1.0
  C  C82  1  0.75029000  0.65740000  0.40372000  1.0
  C  C83  1  0.31172000  0.84292000  0.09621000  1.0
  C  C84  1  0.39538000  0.46650000  0.54314000  1.0
  C  C85  1  0.90484000  0.03310000  0.95687000  1.0
  C  C86  1  0.60460000  0.53350000  0.45684000  1.0
  C  C87  1  0.09517000  0.96692000  0.04314000  1.0
  C  C88  1  0.24025000  0.81308000  0.75021000  1.0
  C  C89  1  0.30346000  0.68704000  0.74995000  1.0
  C  C90  1  0.75976000  0.18692000  0.24979000  1.0
  C  C91  1  0.69654000  0.31296000  0.25006000  1.0
  C  C92  1  0.53724000  0.48282000  0.55394000  1.0
  C  C93  1  0.07362000  0.01716000  0.94603000  1.0
  C  C94  1  0.46274000  0.51718000  0.44605000  1.0
  C  C95  1  0.92638000  0.98285000  0.05398000  1.0
  C  C96  1  0.12521000  0.29901000  0.81051000  1.0
  C  C97  1  0.73452000  0.20139000  0.68941000  1.0
  C  C98  1  0.87480000  0.70099000  0.18949000  1.0
  C  C99  1  0.26548000  0.79861000  0.31059000  1.0
  C  C100  1  0.71782000  0.47921000  0.61849000  1.0
  C  C101  1  0.31468000  0.02107000  0.88138000  1.0
  C  C102  1  0.28218000  0.52079000  0.38148000  1.0
  C  C103  1  0.68533000  0.97893000  0.11862000  1.0
  C  C104  1  0.87151000  0.32069000  0.00136000  1.0
  C  C105  1  0.69426000  0.17975000  0.49813000  1.0
  C  C106  1  0.12848000  0.67931000  0.99864000  1.0
  C  C107  1  0.30577000  0.82023000  0.50187000  1.0
  C  C108  1  0.00259000  0.45024000  0.94944000  1.0
  C  C109  1  0.90200000  0.05017000  0.55045000  1.0
  C  C110  1  0.99742000  0.54976000  0.05056000  1.0
  C  C111  1  0.09800000  0.94981000  0.44956000  1.0
  C  C112  1  0.35694000  0.48255000  0.48945000  1.0
  C  C113  1  0.82920000  0.01703000  0.01059000  1.0
  C  C114  1  0.64303000  0.51746000  0.51053000  1.0
  C  C115  1  0.17079000  0.98298000  0.98942000  1.0
  C  C116  1  0.81918000  0.51651000  0.57620000  1.0
  C  C117  1  0.41117000  0.98433000  0.92369000  1.0
  C  C118  1  0.18080000  0.48350000  0.42378000  1.0
  C  C119  1  0.58882000  0.01568000  0.07632000  1.0
  C  C120  1  0.07225000  0.87235000  0.76570000  1.0
  C  C121  1  0.21031000  0.62770000  0.73443000  1.0
  C  C122  1  0.92775000  0.12765000  0.23431000  1.0
  C  C123  1  0.78969000  0.37231000  0.26557000  1.0
  C  C124  1  0.34214000  0.87766000  0.73424000  1.0
  C  C125  1  0.45410000  0.62251000  0.76589000  1.0
  C  C126  1  0.65786000  0.12233000  0.26577000  1.0
  C  C127  1  0.54590000  0.37749000  0.23412000  1.0
  C  C128  1  0.14704000  0.32233000  0.64720000  1.0
  C  C129  1  0.61607000  0.17756000  0.85287000  1.0
  C  C130  1  0.85296000  0.67768000  0.35279000  1.0
  C  C131  1  0.38393000  0.82244000  0.14714000  1.0
  C  C132  1  0.78390000  0.53360000  0.52381000  1.0
  C  C133  1  0.34091000  0.96730000  0.97610000  1.0
  C  C134  1  0.21607000  0.46641000  0.47617000  1.0
  C  C135  1  0.65909000  0.03271000  0.02390000  1.0
  C  C136  1  0.13424000  0.35395000  0.85973000  1.0
  C  C137  1  0.84762000  0.14646000  0.64017000  1.0
  C  C138  1  0.86576000  0.64605000  0.14027000  1.0
  C  C139  1  0.15240000  0.85352000  0.35983000  1.0
  C  C140  1  0.58123000  0.46258000  0.60740000  1.0
  C  C141  1  0.15053000  0.03731000  0.89251000  1.0
  C  C142  1  0.41876000  0.53742000  0.39258000  1.0
  C  C143  1  0.84948000  0.96271000  0.10749000  1.0
  C  C144  1  0.27308000  0.99610000  0.73197000  1.0
  C  C145  1  0.50142000  0.50405000  0.76805000  1.0
  C  C146  1  0.72693000  0.00390000  0.26803000  1.0
  C  C147  1  0.49857000  0.49595000  0.23195000  1.0
  C  C148  1  0.06752000  0.53918000  0.94897000  1.0
  C  C149  1  0.05506000  0.96094000  0.55115000  1.0
  C  C150  1  0.93248000  0.46081000  0.05103000  1.0
  C  C151  1  0.94495000  0.03904000  0.44886000  1.0
  C  C152  1  0.93409000  0.41168000  0.99986000  1.0
  C  C153  1  0.84597000  0.08858000  0.49991000  1.0
  C  C154  1  0.06590000  0.58832000  0.00015000  1.0
  C  C155  1  0.15405000  0.91140000  0.50009000  1.0
  C  C156  1  0.18741000  0.67402000  0.89983000  1.0
  C  C157  1  0.25931000  0.82578000  0.60068000  1.0
  C  C158  1  0.81259000  0.32598000  0.10017000  1.0
  C  C159  1  0.74071000  0.17421000  0.39933000  1.0
  C  C160  1  0.12682000  0.58719000  0.89931000  1.0
  C  C161  1  0.11181000  0.91295000  0.60095000  1.0
  C  C162  1  0.87317000  0.41281000  0.10070000  1.0
  C  C163  1  0.88821000  0.08704000  0.39905000  1.0
  C  C164  1  0.19096000  0.71945000  0.95004000  1.0
  C  C165  1  0.35894000  0.78012000  0.55062000  1.0
  C  C166  1  0.80902000  0.28055000  0.04997000  1.0
  C  C167  1  0.64107000  0.21986000  0.44939000  1.0
  N  N168  1  0.11091000  0.05150000  0.74555000  1.0
  N  N169  1  0.40833000  0.44858000  0.75444000  1.0
  N  N170  1  0.88910000  0.94851000  0.25445000  1.0
  N  N171  1  0.59167000  0.55142000  0.24556000  1.0
  O  O172  1  0.98702000  0.29847000  0.80205000  1.0
  O  O173  1  0.58735000  0.20191000  0.69785000  1.0
  O  O174  1  0.01299000  0.70153000  0.19795000  1.0
  O  O175  1  0.41265000  0.79809000  0.30215000  1.0
  O  O176  1  0.25633000  0.25156000  0.77615000  1.0
  O  O177  1  0.78399000  0.24873000  0.72382000  1.0
  O  O178  1  0.74368000  0.74843000  0.22385000  1.0
  O  O179  1  0.21601000  0.75127000  0.27618000  1.0
  O  O180  1  0.06017000  0.40178000  0.67994000  1.0
  O  O181  1  0.64108000  0.09825000  0.82007000  1.0
  O  O182  1  0.93981000  0.59823000  0.32006000  1.0
  O  O183  1  0.35893000  0.90175000  0.17993000  1.0
  O  O184  1  0.15467000  0.21724000  0.65650000  1.0
  O  O185  1  0.52832000  0.28272000  0.84357000  1.0
  O  O186  1  0.84532000  0.78277000  0.34350000  1.0
  O  O187  1  0.47168000  0.71727000  0.15643000  1.0
