# generated using pymatgen
data_Mn3H28C24(NO11)2
_symmetry_space_group_name_H-M   'P 1'
_cell_length_a   7.55396000
_cell_length_b   8.25979000
_cell_length_c   13.03400000
_cell_angle_alpha   93.84770000
_cell_angle_beta   99.74800000
_cell_angle_gamma   113.61800000
_symmetry_Int_Tables_number   1
_chemical_formula_structural   Mn3H28C24(NO11)2
_chemical_formula_sum   'Mn3 H28 C24 N2 O22'
_cell_volume   726.12146772
_cell_formula_units_Z   1
loop_
 _symmetry_equiv_pos_site_id
 _symmetry_equiv_pos_as_xyz
  1  'x, y, z'
loop_
 _atom_site_type_symbol
 _atom_site_label
 _atom_site_symmetry_multiplicity
 _atom_site_fract_x
 _atom_site_fract_y
 _atom_site_fract_z
 _atom_site_occupancy
  Mn  Mn0  1  0.50005000  0.99996000  0.00009000  1.0
  Mn  Mn1  1  0.88810000  0.64778000  0.18719000  1.0
  Mn  Mn2  1  0.11187000  0.35218000  0.81277000  1.0
  H  H3  1  0.61141000  0.84252000  0.64750000  1.0
  H  H4  1  0.38861000  0.15753000  0.35250000  1.0
  H  H5  1  0.94599000  0.21708000  0.58521000  1.0
  H  H6  1  0.05404000  0.78297000  0.41475000  1.0
  H  H7  1  0.52901000  0.79867000  0.31165000  1.0
  H  H8  1  0.47101000  0.20132000  0.68835000  1.0
  H  H9  1  0.20506000  0.44343000  0.11076000  1.0
  H  H10  1  0.79517000  0.55660000  0.88925000  1.0
  H  H11  1  0.43630000  0.55362000  0.19688000  1.0
  H  H12  1  0.56388000  0.44654000  0.80314000  1.0
  H  H13  1  0.96908000  0.28875000  0.31721000  1.0
  H  H14  1  0.03085000  0.71131000  0.68276000  1.0
  H  H15  1  0.11055000  0.22091000  0.24479000  1.0
  H  H16  1  0.88934000  0.77899000  0.75525000  1.0
  H  H17  1  0.11712000  0.39436000  0.45553000  1.0
  H  H18  1  0.88293000  0.60563000  0.54449000  1.0
  H  H19  1  0.73985000  0.75632000  0.99559000  1.0
  H  H20  1  0.25997000  0.24356000  0.00440000  1.0
  H  H21  1  0.58212000  0.67243000  0.05876000  1.0
  H  H22  1  0.41767000  0.32728000  0.94117000  1.0
  H  H23  1  0.85833000  0.93511000  0.30623000  1.0
  H  H24  1  0.14152000  0.06487000  0.69367000  1.0
  H  H25  1  0.82588000  0.96074000  0.18563000  1.0
  H  H26  1  0.17404000  0.03926000  0.81429000  1.0
  H  H27  1  0.26488000  0.00452000  0.12679000  1.0
  H  H28  1  0.73514000  0.99545000  0.87331000  1.0
  H  H29  1  0.43070000  0.20731000  0.16296000  1.0
  H  H30  1  0.56928000  0.79266000  0.83711000  1.0
  C  C31  1  0.35723000  0.61074000  0.55950000  1.0
  C  C32  1  0.64280000  0.38929000  0.44050000  1.0
  C  C33  1  0.52627000  0.77062000  0.57000000  1.0
  C  C34  1  0.47376000  0.22941000  0.43000000  1.0
  C  C35  1  0.58565000  0.83473000  0.47933000  1.0
  C  C36  1  0.41437000  0.16528000  0.52068000  1.0
  C  C37  1  0.47695000  0.74204000  0.37950000  1.0
  C  C38  1  0.52309000  0.25795000  0.62050000  1.0
  C  C39  1  0.30280000  0.58410000  0.36751000  1.0
  C  C40  1  0.69724000  0.41588000  0.63250000  1.0
  C  C41  1  0.30017000  0.53872000  0.65717000  1.0
  C  C42  1  0.69986000  0.46132000  0.34283000  1.0
  C  C43  1  0.76360000  0.00453000  0.48732000  1.0
  C  C44  1  0.23641000  0.99549000  0.51265000  1.0
  C  C45  1  0.28617000  0.54783000  0.17916000  1.0
  C  C46  1  0.71395000  0.45220000  0.82085000  1.0
  C  C47  1  0.29697000  0.71898000  0.13936000  1.0
  C  C48  1  0.70297000  0.28104000  0.86071000  1.0
  C  C49  1  0.04323000  0.31676000  0.25078000  1.0
  C  C50  1  0.95678000  0.68322000  0.74920000  1.0
  C  C51  1  0.88049000  0.27471000  0.15280000  1.0
  C  C52  1  0.11960000  0.72537000  0.84716000  1.0
  C  C53  1  0.24656000  0.51875000  0.45981000  1.0
  C  C54  1  0.75348000  0.48125000  0.54020000  1.0
  N  N55  1  0.18954000  0.50061000  0.26688000  1.0
  N  N56  1  0.81057000  0.49933000  0.73312000  1.0
  O  O57  1  0.13459000  0.40152000  0.65031000  1.0
  O  O58  1  0.86543000  0.59854000  0.34969000  1.0
  O  O59  1  0.41438000  0.61211000  0.74596000  1.0
  O  O60  1  0.58569000  0.38791000  0.25403000  1.0
  O  O61  1  0.82519000  0.10267000  0.58157000  1.0
  O  O62  1  0.17485000  0.89738000  0.41840000  1.0
  O  O63  1  0.84819000  0.05377000  0.41373000  1.0
  O  O64  1  0.15177000  0.94621000  0.58622000  1.0
  O  O65  1  0.77946000  0.10893000  0.11551000  1.0
  O  O66  1  0.22057000  0.89118000  0.88439000  1.0
  O  O67  1  0.84981000  0.39894000  0.11346000  1.0
  O  O68  1  0.15037000  0.60123000  0.88656000  1.0
  O  O69  1  0.17543000  0.78542000  0.15441000  1.0
  O  O70  1  0.82453000  0.21456000  0.84579000  1.0
  O  O71  1  0.43347000  0.78680000  0.08960000  1.0
  O  O72  1  0.56634000  0.21332000  0.91041000  1.0
  O  O73  1  0.70061000  0.66244000  0.04106000  1.0
  O  O74  1  0.29925000  0.33741000  0.95891000  1.0
  O  O75  1  0.86334000  0.88700000  0.23528000  1.0
  O  O76  1  0.13647000  0.11294000  0.76462000  1.0
  O  O77  1  0.34298000  0.11685000  0.10070000  1.0
  O  O78  1  0.65703000  0.88308000  0.89937000  1.0
