# generated using pymatgen
data_ZnH16C8S2(N3O)2
_symmetry_space_group_name_H-M   'P 1'
_cell_length_a   7.69372000
_cell_length_b   7.69369000
_cell_length_c   12.41920000
_cell_angle_alpha   102.88300000
_cell_angle_beta   102.88300000
_cell_angle_gamma   101.26100000
_symmetry_Int_Tables_number   1
_chemical_formula_structural   ZnH16C8S2(N3O)2
_chemical_formula_sum   'Zn2 H32 C16 S4 N12 O4'
_cell_volume   674.97185661
_cell_formula_units_Z   2
loop_
 _symmetry_equiv_pos_site_id
 _symmetry_equiv_pos_as_xyz
  1  'x, y, z'
loop_
 _atom_site_type_symbol
 _atom_site_label
 _atom_site_symmetry_multiplicity
 _atom_site_fract_x
 _atom_site_fract_y
 _atom_site_fract_z
 _atom_site_occupancy
  Zn  Zn0  1  0.50000000  0.50000000  0.50000000  1.0
  Zn  Zn1  1  0.50000000  0.50000000  0.00000000  1.0
  H  H2  1  0.40009000  0.40591000  0.71817000  1.0
  H  H3  1  0.59410000  0.59991000  0.78183000  1.0
  H  H4  1  0.59991000  0.59410000  0.28183000  1.0
  H  H5  1  0.40590000  0.40009000  0.21817000  1.0
  H  H6  1  0.88465000  0.10392000  0.82036000  1.0
  H  H7  1  0.89608000  0.11535000  0.67964000  1.0
  H  H8  1  0.11535000  0.89608000  0.17964000  1.0
  H  H9  1  0.10392000  0.88465000  0.32035000  1.0
  H  H10  1  0.34172000  0.72831000  0.62031000  1.0
  H  H11  1  0.27169000  0.65828000  0.87968000  1.0
  H  H12  1  0.65829000  0.27169000  0.37969000  1.0
  H  H13  1  0.72831000  0.34171000  0.12031000  1.0
  H  H14  1  0.54317000  0.86098000  0.65411000  1.0
  H  H15  1  0.13902000  0.45683000  0.84589000  1.0
  H  H16  1  0.45684000  0.13902000  0.34589000  1.0
  H  H17  1  0.86098000  0.54317000  0.15411000  1.0
  H  H18  1  0.63482000  0.13916000  0.54558000  1.0
  H  H19  1  0.86084000  0.36518000  0.95442000  1.0
  H  H20  1  0.36518000  0.86084000  0.45442000  1.0
  H  H21  1  0.13916000  0.63481000  0.04558000  1.0
  H  H22  1  0.42110000  0.14082000  0.58164000  1.0
  H  H23  1  0.85918000  0.57890000  0.91837000  1.0
  H  H24  1  0.57890000  0.85918000  0.41836000  1.0
  H  H25  1  0.14083000  0.42110000  0.08164000  1.0
  H  H26  1  0.60167000  0.10787000  0.87306000  1.0
  H  H27  1  0.89213000  0.39833000  0.62695000  1.0
  H  H28  1  0.39833000  0.89213000  0.12694000  1.0
  H  H29  1  0.10787000  0.60168000  0.37306000  1.0
  H  H30  1  0.40294000  0.12160000  0.77143000  1.0
  H  H31  1  0.87841000  0.59705000  0.72857000  1.0
  H  H32  1  0.59706000  0.87840000  0.22857000  1.0
  H  H33  1  0.12160000  0.40295000  0.27143000  1.0
  C  C34  1  0.09371000  0.26010000  0.45886000  1.0
  C  C35  1  0.73990000  0.90629000  0.04114000  1.0
  C  C36  1  0.90628000  0.73991000  0.54114000  1.0
  C  C37  1  0.26009000  0.09370000  0.95886000  1.0
  C  C38  1  0.55074000  0.44926000  0.75000000  1.0
  C  C39  1  0.44926000  0.55074000  0.25000000  1.0
  C  C40  1  0.57221000  0.18440000  0.61442000  1.0
  C  C41  1  0.81560000  0.42779000  0.88558000  1.0
  C  C42  1  0.42779000  0.81560000  0.38558000  1.0
  C  C43  1  0.18440000  0.57221000  0.11442000  1.0
  C  C44  1  0.55413000  0.16677000  0.80255000  1.0
  C  C45  1  0.83323000  0.44587000  0.69746000  1.0
  C  C46  1  0.44587000  0.83323000  0.19745000  1.0
  C  C47  1  0.16677000  0.55413000  0.30254000  1.0
  C  C48  1  0.83676000  0.16324000  0.75000000  1.0
  C  C49  1  0.16324000  0.83676000  0.24999000  1.0
  S  S50  1  0.88718000  0.12622000  0.40847000  1.0
  S  S51  1  0.87378000  0.11282000  0.09153000  1.0
  S  S52  1  0.11282000  0.87379000  0.59153000  1.0
  S  S53  1  0.12622000  0.88719000  0.90847000  1.0
  N  N54  1  0.24670000  0.35611000  0.49578000  1.0
  N  N55  1  0.64389000  0.75331000  0.00422000  1.0
  N  N56  1  0.75332000  0.64391000  0.50423000  1.0
  N  N57  1  0.35611000  0.24670000  0.99578000  1.0
  N  N58  1  0.63306000  0.10086000  0.70757000  1.0
  N  N59  1  0.89914000  0.36693000  0.79243000  1.0
  N  N60  1  0.36693000  0.89914000  0.29243000  1.0
  N  N61  1  0.10087000  0.63306000  0.20757000  1.0
  N  N62  1  0.62939000  0.38822000  0.65396000  1.0
  N  N63  1  0.61178000  0.37061000  0.84605000  1.0
  N  N64  1  0.37061000  0.61178000  0.34604000  1.0
  N  N65  1  0.38822000  0.62939000  0.15395000  1.0
  O  O66  1  0.47170000  0.72666000  0.62759000  1.0
  O  O67  1  0.27333000  0.52830000  0.87241000  1.0
  O  O68  1  0.52831000  0.27334000  0.37241000  1.0
  O  O69  1  0.72667000  0.47170000  0.12759000  1.0
