# generated using pymatgen
data_KH5C7O4
_symmetry_space_group_name_H-M   'P 1'
_cell_length_a   3.84963000
_cell_length_b   13.21760000
_cell_length_c   14.99910000
_cell_angle_alpha   89.99990000
_cell_angle_beta   89.99980000
_cell_angle_gamma   82.07670000
_symmetry_Int_Tables_number   1
_chemical_formula_structural   KH5C7O4
_chemical_formula_sum   'K4 H20 C28 O16'
_cell_volume   755.91137597
_cell_formula_units_Z   4
loop_
 _symmetry_equiv_pos_site_id
 _symmetry_equiv_pos_as_xyz
  1  'x, y, z'
loop_
 _atom_site_type_symbol
 _atom_site_label
 _atom_site_symmetry_multiplicity
 _atom_site_fract_x
 _atom_site_fract_y
 _atom_site_fract_z
 _atom_site_occupancy
  K  K0  1  0.04379000  0.10515000  0.85425000  1.0
  K  K1  1  0.45623000  0.39485000  0.35425000  1.0
  K  K2  1  0.95622000  0.89485000  0.14575000  1.0
  K  K3  1  0.54379000  0.60515000  0.64575000  1.0
  H  H4  1  0.48900000  0.90206000  0.97781000  1.0
  H  H5  1  0.01100000  0.59794000  0.47781000  1.0
  H  H6  1  0.51100000  0.09794000  0.02219000  1.0
  H  H7  1  0.98900000  0.40206000  0.52219000  1.0
  H  H8  1  0.49931000  0.64165000  0.05061000  1.0
  H  H9  1  0.00068000  0.85835000  0.55062000  1.0
  H  H10  1  0.50070000  0.35836000  0.94939000  1.0
  H  H11  1  0.99932000  0.14164000  0.44939000  1.0
  H  H12  1  0.75301000  0.50109000  0.94892000  1.0
  H  H13  1  0.74698000  0.99891000  0.44892000  1.0
  H  H14  1  0.24700000  0.49891000  0.05108000  1.0
  H  H15  1  0.25301000  0.00109000  0.55109000  1.0
  H  H16  1  0.01261000  0.53800000  0.80361000  1.0
  H  H17  1  0.48738000  0.96200000  0.30361000  1.0
  H  H18  1  0.98739000  0.46200000  0.19639000  1.0
  H  H19  1  0.51261000  0.03800000  0.69639000  1.0
  H  H20  1  0.98859000  0.80401000  0.73799000  1.0
  H  H21  1  0.51141000  0.69599000  0.23799000  1.0
  H  H22  1  0.01142000  0.19599000  0.26201000  1.0
  H  H23  1  0.48859000  0.30401000  0.76201000  1.0
  C  C24  1  0.74151000  0.88991000  0.84740000  1.0
  C  C25  1  0.75850000  0.61009000  0.34740000  1.0
  C  C26  1  0.25850000  0.11009000  0.15259000  1.0
  C  C27  1  0.24150000  0.38991000  0.65259000  1.0
  C  C28  1  0.74002000  0.78313000  0.87533000  1.0
  C  C29  1  0.75998000  0.71687000  0.37533000  1.0
  C  C30  1  0.25998000  0.21687000  0.12467000  1.0
  C  C31  1  0.24002000  0.28313000  0.62467000  1.0
  C  C32  1  0.60085000  0.75948000  0.95906000  1.0
  C  C33  1  0.89914000  0.74052000  0.45906000  1.0
  C  C34  1  0.39915000  0.24052000  0.04093000  1.0
  C  C35  1  0.10086000  0.25948000  0.54094000  1.0
  C  C36  1  0.60690000  0.65808000  0.98585000  1.0
  C  C37  1  0.89308000  0.84192000  0.48585000  1.0
  C  C38  1  0.39309000  0.34192000  0.01415000  1.0
  C  C39  1  0.10692000  0.15808000  0.51415000  1.0
  C  C40  1  0.74824000  0.58027000  0.92833000  1.0
  C  C41  1  0.75175000  0.91973000  0.42833000  1.0
  C  C42  1  0.25176000  0.41973000  0.07167000  1.0
  C  C43  1  0.24824000  0.08027000  0.57167000  1.0
  C  C44  1  0.88981000  0.60033000  0.84560000  1.0
  C  C45  1  0.61018000  0.89967000  0.34561000  1.0
  C  C46  1  0.11019000  0.39967000  0.15440000  1.0
  C  C47  1  0.38982000  0.10033000  0.65440000  1.0
  C  C48  1  0.88556000  0.70192000  0.81931000  1.0
  C  C49  1  0.61443000  0.79808000  0.31931000  1.0
  C  C50  1  0.11444000  0.29808000  0.18069000  1.0
  C  C51  1  0.38556000  0.20192000  0.68069000  1.0
  O  O52  1  0.88459000  0.90880000  0.77317000  1.0
  O  O53  1  0.61543000  0.59121000  0.27317000  1.0
  O  O54  1  0.11543000  0.09120000  0.22682000  1.0
  O  O55  1  0.38458000  0.40880000  0.72682000  1.0
  O  O56  1  0.60266000  0.96223000  0.89960000  1.0
  O  O57  1  0.89735000  0.53777000  0.39960000  1.0
  O  O58  1  0.39736000  0.03778000  0.10040000  1.0
  O  O59  1  0.10264000  0.46222000  0.60040000  1.0
  O  O60  1  0.46403000  0.83666000  0.01419000  1.0
  O  O61  1  0.03596000  0.66334000  0.51419000  1.0
  O  O62  1  0.53597000  0.16334000  0.98581000  1.0
  O  O63  1  0.96404000  0.33665000  0.48581000  1.0
  O  O64  1  0.01657000  0.72386000  0.73817000  1.0
  O  O65  1  0.48342000  0.77614000  0.23817000  1.0
  O  O66  1  0.98343000  0.27613000  0.26182000  1.0
  O  O67  1  0.51657000  0.22386000  0.76183000  1.0
