# generated using pymatgen
data_ZnH22C24(NO)4
_symmetry_space_group_name_H-M   'P 1'
_cell_length_a   8.07084000
_cell_length_b   13.68400000
_cell_length_c   14.62354996
_cell_angle_alpha   115.30564185
_cell_angle_beta   102.03882044
_cell_angle_gamma   98.14850000
_symmetry_Int_Tables_number   1
_chemical_formula_structural   ZnH22C24(NO)4
_chemical_formula_sum   'Zn2 H44 C48 N8 O8'
_cell_volume   1378.40327334
_cell_formula_units_Z   2
loop_
 _symmetry_equiv_pos_site_id
 _symmetry_equiv_pos_as_xyz
  1  'x, y, z'
loop_
 _atom_site_type_symbol
 _atom_site_label
 _atom_site_symmetry_multiplicity
 _atom_site_fract_x
 _atom_site_fract_y
 _atom_site_fract_z
 _atom_site_occupancy
  Zn  Zn0  1  0.30414000  0.30449000  0.60970000  1.0
  Zn  Zn1  1  0.69586000  0.69551000  0.39030000  1.0
  H  H2  1  0.01868000  0.71592000  0.80436000  1.0
  H  H3  1  0.78590000  0.08914000  0.80529000  1.0
  H  H4  1  0.98132000  0.28409000  0.19565000  1.0
  H  H5  1  0.21409000  0.91086000  0.19471000  1.0
  H  H6  1  0.86890000  0.57978000  0.73354000  1.0
  H  H7  1  0.86375000  0.15431000  0.73387000  1.0
  H  H8  1  0.13110000  0.42021000  0.26646000  1.0
  H  H9  1  0.13625000  0.84569000  0.26613000  1.0
  H  H10  1  0.49201000  0.10425000  0.39667000  1.0
  H  H11  1  0.90557000  0.29272000  0.39771000  1.0
  H  H12  1  0.50799000  0.89574000  0.60333000  1.0
  H  H13  1  0.09443000  0.70727000  0.60228000  1.0
  H  H14  1  0.98115000  0.41304000  0.66445000  1.0
  H  H15  1  0.68176000  0.25176000  0.66489000  1.0
  H  H16  1  0.01884000  0.58697000  0.33555000  1.0
  H  H17  1  0.31824000  0.74824000  0.33511000  1.0
  H  H18  1  0.87222000  0.99316000  0.41753000  1.0
  H  H19  1  0.54567000  0.42457000  0.41784000  1.0
  H  H20  1  0.12778000  0.00684000  0.58247000  1.0
  H  H21  1  0.45433000  0.57543000  0.58216000  1.0
  H  H22  1  0.77837000  0.08359000  0.38053000  1.0
  H  H23  1  0.60261000  0.29724000  0.38103000  1.0
  H  H24  1  0.22163000  0.91641000  0.61947000  1.0
  H  H25  1  0.39739000  0.70276000  0.61897000  1.0
  H  H26  1  0.35907000  0.72178000  0.87162000  1.0
  H  H27  1  0.51188000  0.14965000  0.87267000  1.0
  H  H28  1  0.64093000  0.27822000  0.12838000  1.0
  H  H29  1  0.48811000  0.85035000  0.12733000  1.0
  H  H30  1  0.77119000  0.94876000  0.55744000  1.0
  H  H31  1  0.78574000  0.60862000  0.55664000  1.0
  H  H32  1  0.22882000  0.05124000  0.44256000  1.0
  H  H33  1  0.21426000  0.39138000  0.44336000  1.0
  H  H34  1  0.52915000  0.55697000  0.78077000  1.0
  H  H35  1  0.25009000  0.22273000  0.78132000  1.0
  H  H36  1  0.47083000  0.44302000  0.21922000  1.0
  H  H37  1  0.74990000  0.77726000  0.21867000  1.0
  H  H38  1  0.76306000  0.48673000  0.82870000  1.0
  H  H39  1  0.06438000  0.34230000  0.82837000  1.0
  H  H40  1  0.23694000  0.51327000  0.17130000  1.0
  H  H41  1  0.93562000  0.65769000  0.17162000  1.0
  H  H42  1  0.73906000  0.49854000  0.00040000  1.0
  H  H43  1  0.26095000  0.50147000  0.99961000  1.0
  H  H44  1  0.16106000  0.79949000  0.99955000  1.0
  H  H45  1  0.83894000  0.20051000  0.00045000  1.0
  C  C46  1  0.65192000  0.03117000  0.47418000  1.0
  C  C47  1  0.82237000  0.44306000  0.47426000  1.0
  C  C48  1  0.34807000  0.96884000  0.52582000  1.0
  C  C49  1  0.17763000  0.55694000  0.52574000  1.0
  C  C50  1  0.98732000  0.63313000  0.80036000  1.0
  C  C51  1  0.81254000  0.16778000  0.80097000  1.0
  C  C52  1  0.01268000  0.36686000  0.19964000  1.0
  C  C53  1  0.18746000  0.83222000  0.19903000  1.0
  C  C54  1  0.49630000  0.05749000  0.44141000  1.0
  C  C55  1  0.94568000  0.38410000  0.44203000  1.0
  C  C56  1  0.50370000  0.94251000  0.55859000  1.0
  C  C57  1  0.05432000  0.61589000  0.55797000  1.0
  C  C58  1  0.10891000  0.47232000  0.70856000  1.0
  C  C59  1  0.59834000  0.23631000  0.70915000  1.0
  C  C60  1  0.89109000  0.52768000  0.29144000  1.0
  C  C61  1  0.40166000  0.76369000  0.29085000  1.0
  C  C62  1  0.81236000  0.06387000  0.44644000  1.0
  C  C63  1  0.63440000  0.38275000  0.44681000  1.0
  C  C64  1  0.18764000  0.93614000  0.55356000  1.0
  C  C65  1  0.36561000  0.61725000  0.55319000  1.0
  C  C66  1  0.30852000  0.63330000  0.81624000  1.0
  C  C67  1  0.50676000  0.18257000  0.81699000  1.0
  C  C68  1  0.69147000  0.36670000  0.18376000  1.0
  C  C69  1  0.49325000  0.81743000  0.18301000  1.0
  C  C70  1  0.65330000  0.97313000  0.53331000  1.0
  C  C71  1  0.87960000  0.56008000  0.53281000  1.0
  C  C72  1  0.34670000  0.02687000  0.46669000  1.0
  C  C73  1  0.12040000  0.43991000  0.46719000  1.0
  C  C74  1  0.96046000  0.16287000  0.53655000  1.0
  C  C75  1  0.57627000  0.37393000  0.53719000  1.0
  C  C76  1  0.03953000  0.83712000  0.46344000  1.0
  C  C77  1  0.42373000  0.62607000  0.46281000  1.0
  C  C78  1  0.39093000  0.55159000  0.77169000  1.0
  C  C79  1  0.37932000  0.21930000  0.77221000  1.0
  C  C80  1  0.60907000  0.44840000  0.22831000  1.0
  C  C81  1  0.62067000  0.78069000  0.22778000  1.0
  C  C82  1  0.96439000  0.64211000  0.90325000  1.0
  C  C83  1  0.93842000  0.26155000  0.90352000  1.0
  C  C84  1  0.03562000  0.35790000  0.09676000  1.0
  C  C85  1  0.06159000  0.73845000  0.09648000  1.0
  C  C86  1  0.84456000  0.55781000  0.90396000  1.0
  C  C87  1  0.05867000  0.34634000  0.90377000  1.0
  C  C88  1  0.15545000  0.44219000  0.09604000  1.0
  C  C89  1  0.94134000  0.65366000  0.09623000  1.0
  C  C90  1  0.83201000  0.56460000  0.00021000  1.0
  C  C91  1  0.16799000  0.43539000  0.99978000  1.0
  C  C92  1  0.06955000  0.73250000  0.99975000  1.0
  C  C93  1  0.93045000  0.26750000  0.00025000  1.0
  N  N94  1  0.13056000  0.58169000  0.77503000  1.0
  N  N95  1  0.64364000  0.19355000  0.77582000  1.0
  N  N96  1  0.86944000  0.41831000  0.22497000  1.0
  N  N97  1  0.35637000  0.80646000  0.22419000  1.0
  N  N98  1  0.26475000  0.45166000  0.70475000  1.0
  N  N99  1  0.43835000  0.25257000  0.70516000  1.0
  N  N100  1  0.73524000  0.54834000  0.29525000  1.0
  N  N101  1  0.56164000  0.74742000  0.29483000  1.0
  O  O102  1  0.95780000  0.20605000  0.63080000  1.0
  O  O103  1  0.67279000  0.42526000  0.63144000  1.0
  O  O104  1  0.04220000  0.79396000  0.36920000  1.0
  O  O105  1  0.32722000  0.57475000  0.36856000  1.0
  O  O106  1  0.08596000  0.19350000  0.50430000  1.0
  O  O107  1  0.41900000  0.31079000  0.50504000  1.0
  O  O108  1  0.91402000  0.80649000  0.49569000  1.0
  O  O109  1  0.58101000  0.68921000  0.49497000  1.0
