# generated using pymatgen
data_ZnH15C32Br(NO3)2
_symmetry_space_group_name_H-M   'P 1'
_cell_length_a   14.65400000
_cell_length_b   15.68940000
_cell_length_c   23.78190000
_cell_angle_alpha   89.83050000
_cell_angle_beta   74.13500000
_cell_angle_gamma   81.34180000
_symmetry_Int_Tables_number   1
_chemical_formula_structural   ZnH15C32Br(NO3)2
_chemical_formula_sum   'Zn2 H30 C64 Br2 N4 O12'
_cell_volume   5195.34729745
_cell_formula_units_Z   2
loop_
 _symmetry_equiv_pos_site_id
 _symmetry_equiv_pos_as_xyz
  1  'x, y, z'
loop_
 _atom_site_type_symbol
 _atom_site_label
 _atom_site_symmetry_multiplicity
 _atom_site_fract_x
 _atom_site_fract_y
 _atom_site_fract_z
 _atom_site_occupancy
  Zn  Zn0  1  0.59344000  0.51593000  0.48357000  1.0
  Zn  Zn1  1  0.40684000  0.48349000  0.51418000  1.0
  H  H2  1  0.65113000  0.31199000  0.02786000  1.0
  H  H3  1  0.34925000  0.68794000  0.96993000  1.0
  H  H4  1  0.80218000  0.09048000  0.48984000  1.0
  H  H5  1  0.19486000  0.90942000  0.57932000  1.0
  H  H6  1  0.63400000  0.85116000  0.52670000  1.0
  H  H7  1  0.36136000  0.14869000  0.56854000  1.0
  H  H8  1  0.97917000  0.32201000  0.59746000  1.0
  H  H9  1  0.02029000  0.67834000  0.40220000  1.0
  H  H10  1  0.76668000  0.46037000  0.51636000  1.0
  H  H11  1  0.23369000  0.53763000  0.48100000  1.0
  H  H12  1  0.68961000  0.65311000  0.41241000  1.0
  H  H13  1  0.31011000  0.34793000  0.58704000  1.0
  H  H14  1  0.86066000  0.39977000  0.55371000  1.0
  H  H15  1  0.13892000  0.60018000  0.44568000  1.0
  H  H16  1  0.64605000  0.30802000  0.92231000  1.0
  H  H17  1  0.35452000  0.69204000  0.07543000  1.0
  H  H18  1  0.35150000  0.46343000  0.80807000  1.0
  H  H19  1  0.36256000  0.47385000  0.23536000  1.0
  H  H20  1  0.35381000  0.46615000  0.70190000  1.0
  H  H21  1  0.36027000  0.47215000  0.34142000  1.0
  H  H22  1  0.63908000  0.52894000  0.65657000  1.0
  H  H23  1  0.64630000  0.53337000  0.29636000  1.0
  H  H24  1  0.63750000  0.52667000  0.76265000  1.0
  H  H25  1  0.64888000  0.53625000  0.19027000  1.0
  H  H26  1  0.75655000  0.94590000  0.50888000  1.0
  H  H27  1  0.23907000  0.05412000  0.58603000  1.0
  H  H28  1  0.53919000  0.77868000  0.51634000  1.0
  H  H29  1  0.45925000  0.22102000  0.52878000  1.0
  H  H30  1  0.24317000  0.75096000  0.55491000  1.0
  H  H31  1  0.75592000  0.24884000  0.47959000  1.0
  C  C32  1  0.57413000  0.33635000  0.49596000  1.0
  C  C33  1  0.42602000  0.66346000  0.51685000  1.0
  C  C34  1  0.41433000  0.47732000  0.77462000  1.0
  C  C35  1  0.42418000  0.48723000  0.24920000  1.0
  C  C36  1  0.41553000  0.47882000  0.71589000  1.0
  C  C37  1  0.42286000  0.48644000  0.30793000  1.0
  C  C38  1  0.49665000  0.49724000  0.67341000  1.0
  C  C39  1  0.50301000  0.50314000  0.32493000  1.0
  C  C40  1  0.57680000  0.51437000  0.69020000  1.0
  C  C41  1  0.58440000  0.52105000  0.28242000  1.0
  C  C42  1  0.57583000  0.51331000  0.74886000  1.0
  C  C43  1  0.58581000  0.52258000  0.22362000  1.0
  C  C44  1  0.49456000  0.49476000  0.79060000  1.0
  C  C45  1  0.50568000  0.50536000  0.20743000  1.0
  C  C46  1  0.60388000  0.24261000  0.50405000  1.0
  C  C47  1  0.39493000  0.75737000  0.53375000  1.0
  C  C48  1  0.72673000  0.11936000  0.49903000  1.0
  C  C49  1  0.27056000  0.88063000  0.56577000  1.0
  C  C50  1  0.70179000  0.20669000  0.49331000  1.0
  C  C51  1  0.29661000  0.79330000  0.55223000  1.0
  C  C52  1  0.53342000  0.19051000  0.52182000  1.0
  C  C53  1  0.46455000  0.80941000  0.53100000  1.0
  C  C54  1  0.49757000  0.49867000  0.61021000  1.0
  C  C55  1  0.50187000  0.50141000  0.38827000  1.0
  C  C56  1  0.55652000  0.10113000  0.52795000  1.0
  C  C57  1  0.44029000  0.89881000  0.54444000  1.0
  C  C58  1  0.65584000  0.06462000  0.51512000  1.0
  C  C59  1  0.34077000  0.93535000  0.56126000  1.0
  C  C60  1  0.48388000  0.04535000  0.54299000  1.0
  C  C61  1  0.51241000  0.95461000  0.53839000  1.0
  C  C62  1  0.61212000  0.92071000  0.52692000  1.0
  C  C63  1  0.38379000  0.07922000  0.56148000  1.0
  C  C64  1  0.68088000  0.97348000  0.51700000  1.0
  C  C65  1  0.31506000  0.02643000  0.57145000  1.0
  C  C66  1  0.16387000  0.35353000  0.58150000  1.0
  C  C67  1  0.83588000  0.64689000  0.41791000  1.0
  C  C68  1  0.25319000  0.37889000  0.56904000  1.0
  C  C69  1  0.74670000  0.62128000  0.42997000  1.0
  C  C70  1  0.20944000  0.48614000  0.50932000  1.0
  C  C71  1  0.79073000  0.51274000  0.48886000  1.0
  C  C72  1  0.11621000  0.46541000  0.51952000  1.0
  C  C73  1  0.88363000  0.53401000  0.47931000  1.0
  C  C74  1  0.09171000  0.39621000  0.55726000  1.0
  C  C75  1  0.90801000  0.60364000  0.44197000  1.0
  C  C76  1  0.45021000  0.57534000  0.12840000  1.0
  C  C77  1  0.55045000  0.42478000  0.86940000  1.0
  C  C78  1  0.04618000  0.51175000  0.49337000  1.0
  C  C79  1  0.95357000  0.48778000  0.50560000  1.0
  C  C80  1  0.93173000  0.41860000  0.54369000  1.0
  C  C81  1  0.06795000  0.58121000  0.45554000  1.0
  C  C82  1  0.99781000  0.37441000  0.56851000  1.0
  C  C83  1  0.00181000  0.62562000  0.43088000  1.0
  C  C84  1  0.56130000  0.43351000  0.11059000  1.0
  C  C85  1  0.43897000  0.56638000  0.88734000  1.0
  C  C86  1  0.55776000  0.43274000  0.04880000  1.0
  C  C87  1  0.44278000  0.56727000  0.94903000  1.0
  C  C88  1  0.50188000  0.50124000  0.02857000  1.0
  C  C89  1  0.49883000  0.49886000  0.96921000  1.0
  C  C90  1  0.44880000  0.57194000  0.06628000  1.0
  C  C91  1  0.55191000  0.42815000  0.93149000  1.0
  C  C92  1  0.60898000  0.36390000  0.01097000  1.0
  C  C93  1  0.39155000  0.63612000  0.98683000  1.0
  C  C94  1  0.60611000  0.36163000  0.95242000  1.0
  C  C95  1  0.39455000  0.63843000  0.04534000  1.0
  Br  Br96  1  0.14099000  0.26040000  0.63197000  1.0
  Br  Br97  1  0.85848000  0.74131000  0.36872000  1.0
  N  N98  1  0.50651000  0.50520000  0.14649000  1.0
  N  N99  1  0.49393000  0.49483000  0.85145000  1.0
  N  N100  1  0.27441000  0.44468000  0.53327000  1.0
  N  N101  1  0.72588000  0.55452000  0.46491000  1.0
  O  O102  1  0.63914000  0.38449000  0.48324000  1.0
  O  O103  1  0.36134000  0.61514000  0.52456000  1.0
  O  O104  1  0.48475000  0.36152000  0.50270000  1.0
  O  O105  1  0.51605000  0.63838000  0.49611000  1.0
  O  O106  1  0.57413000  0.51407000  0.57357000  1.0
  O  O107  1  0.42317000  0.49172000  0.42525000  1.0
  O  O108  1  0.42164000  0.48430000  0.59807000  1.0
  O  O109  1  0.57981000  0.50971000  0.40020000  1.0
  O  O110  1  0.40524000  0.63509000  0.16290000  1.0
  O  O111  1  0.59554000  0.36518000  0.83481000  1.0
  O  O112  1  0.60812000  0.37546000  0.13038000  1.0
  O  O113  1  0.39181000  0.62422000  0.86759000  1.0
