# generated using pymatgen
data_CoH14C20(NO2)2
_symmetry_space_group_name_H-M   'P 1'
_cell_length_a   9.51627000
_cell_length_b   10.09550000
_cell_length_c   10.25790000
_cell_angle_alpha   80.00560000
_cell_angle_beta   86.86060000
_cell_angle_gamma   68.07130000
_symmetry_Int_Tables_number   1
_chemical_formula_structural   CoH14C20(NO2)2
_chemical_formula_sum   'Co2 H28 C40 N4 O8'
_cell_volume   900.26329761
_cell_formula_units_Z   2
loop_
 _symmetry_equiv_pos_site_id
 _symmetry_equiv_pos_as_xyz
  1  'x, y, z'
loop_
 _atom_site_type_symbol
 _atom_site_label
 _atom_site_symmetry_multiplicity
 _atom_site_fract_x
 _atom_site_fract_y
 _atom_site_fract_z
 _atom_site_occupancy
  Co  Co0  1  0.45001000  0.36596000  0.87879000  1.0
  Co  Co1  1  0.54998000  0.63405000  0.12121000  1.0
  H  H2  1  0.40173000  0.92502000  0.91445000  1.0
  H  H3  1  0.59822000  0.07501000  0.08556000  1.0
  H  H4  1  0.32115000  0.17760000  0.52323000  1.0
  H  H5  1  0.67889000  0.82238000  0.47676000  1.0
  H  H6  1  0.28582000  0.97362000  0.43795000  1.0
  H  H7  1  0.71423000  0.02637000  0.56204000  1.0
  H  H8  1  0.30409000  0.74940000  0.59283000  1.0
  H  H9  1  0.69593000  0.25060000  0.40717000  1.0
  H  H10  1  0.76115000  0.14594000  0.83831000  1.0
  H  H11  1  0.23883000  0.85406000  0.16168000  1.0
  H  H12  1  0.97054000  0.11051000  0.67308000  1.0
  H  H13  1  0.02945000  0.88949000  0.32692000  1.0
  H  H14  1  0.70796000  0.53745000  0.46287000  1.0
  H  H15  1  0.29207000  0.46258000  0.53716000  1.0
  H  H16  1  0.51452000  0.55245000  0.63638000  1.0
  H  H17  1  0.48551000  0.44759000  0.36365000  1.0
  H  H18  1  0.18248000  0.59919000  0.98374000  1.0
  H  H19  1  0.81754000  0.40078000  0.01626000  1.0
  H  H20  1  0.00302000  0.61995000  0.17169000  1.0
  H  H21  1  0.99700000  0.38003000  0.82831000  1.0
  H  H22  1  0.17901000  0.15227000  0.25991000  1.0
  H  H23  1  0.82097000  0.84771000  0.74007000  1.0
  H  H24  1  0.34796000  0.15123000  0.06830000  1.0
  H  H25  1  0.65201000  0.84875000  0.93167000  1.0
  H  H26  1  0.05921000  0.19063000  0.45702000  1.0
  H  H27  1  0.94081000  0.80937000  0.54300000  1.0
  H  H28  1  0.88759000  0.51280000  0.34211000  1.0
  H  H29  1  0.11240000  0.48720000  0.65787000  1.0
  C  C30  1  0.35326000  0.82294000  0.76349000  1.0
  C  C31  1  0.64671000  0.17707000  0.23651000  1.0
  C  C32  1  0.37480000  0.93615000  0.81030000  1.0
  C  C33  1  0.62517000  0.06387000  0.18970000  1.0
  C  C34  1  0.36377000  0.06321000  0.72392000  1.0
  C  C35  1  0.63623000  0.93681000  0.27609000  1.0
  C  C36  1  0.32904000  0.07829000  0.58983000  1.0
  C  C37  1  0.67099000  0.92171000  0.41017000  1.0
  C  C38  1  0.30853000  0.96484000  0.54282000  1.0
  C  C39  1  0.69150000  0.03515000  0.45718000  1.0
  C  C40  1  0.32004000  0.83805000  0.62888000  1.0
  C  C41  1  0.67997000  0.16196000  0.37112000  1.0
  C  C42  1  0.37459000  0.68459000  0.85548000  1.0
  C  C43  1  0.62538000  0.31542000  0.14454000  1.0
  C  C44  1  0.39485000  0.17821000  0.77656000  1.0
  C  C45  1  0.60516000  0.82178000  0.22345000  1.0
  C  C46  1  0.75570000  0.22970000  0.75364000  1.0
  C  C47  1  0.24430000  0.77031000  0.24635000  1.0
  C  C48  1  0.87116000  0.21101000  0.66126000  1.0
  C  C49  1  0.12882000  0.78900000  0.33874000  1.0
  C  C50  1  0.85877000  0.32095000  0.55191000  1.0
  C  C51  1  0.14124000  0.67906000  0.44810000  1.0
  C  C52  1  0.72779000  0.44791000  0.54506000  1.0
  C  C53  1  0.27222000  0.55212000  0.45496000  1.0
  C  C54  1  0.61812000  0.45700000  0.64097000  1.0
  C  C55  1  0.38191000  0.54302000  0.35905000  1.0
  C  C56  1  0.17900000  0.50299000  0.04818000  1.0
  C  C57  1  0.82100000  0.49699000  0.95182000  1.0
  C  C58  1  0.07991000  0.51376000  0.15349000  1.0
  C  C59  1  0.92010000  0.48621000  0.84650000  1.0
  C  C60  1  0.07795000  0.38804000  0.23667000  1.0
  C  C61  1  0.92205000  0.61194000  0.76332000  1.0
  C  C62  1  0.17671000  0.25501000  0.20344000  1.0
  C  C63  1  0.82328000  0.74496000  0.79655000  1.0
  C  C64  1  0.27151000  0.25335000  0.09555000  1.0
  C  C65  1  0.72846000  0.74663000  0.90443000  1.0
  C  C66  1  0.97233000  0.29932000  0.44861000  1.0
  C  C67  1  0.02767000  0.70068000  0.55140000  1.0
  C  C68  1  0.97316000  0.40379000  0.34645000  1.0
  C  C69  1  0.02684000  0.59619000  0.65354000  1.0
  N  N70  1  0.62893000  0.35009000  0.74388000  1.0
  N  N71  1  0.37108000  0.64992000  0.25613000  1.0
  N  N72  1  0.27581000  0.37524000  0.01880000  1.0
  N  N73  1  0.72418000  0.62473000  0.98119000  1.0
  O  O74  1  0.35965000  0.58162000  0.80829000  1.0
  O  O75  1  0.64034000  0.41839000  0.19171000  1.0
  O  O76  1  0.40454000  0.67656000  0.97683000  1.0
  O  O77  1  0.59542000  0.32348000  0.02319000  1.0
  O  O78  1  0.32524000  0.31171000  0.73022000  1.0
  O  O79  1  0.67476000  0.68829000  0.26979000  1.0
  O  O80  1  0.49253000  0.14058000  0.87020000  1.0
  O  O81  1  0.50747000  0.85941000  0.12980000  1.0
