# generated using pymatgen
data_CdBH21C19N9O4
_symmetry_space_group_name_H-M   'P 1'
_cell_length_a   8.46124000
_cell_length_b   8.86254000
_cell_length_c   16.90400000
_cell_angle_alpha   82.25870000
_cell_angle_beta   89.58710000
_cell_angle_gamma   78.42210000
_symmetry_Int_Tables_number   1
_chemical_formula_structural   CdBH21C19N9O4
_chemical_formula_sum   'Cd2 B2 H42 C38 N18 O8'
_cell_volume   1230.23221686
_cell_formula_units_Z   2
loop_
 _symmetry_equiv_pos_site_id
 _symmetry_equiv_pos_as_xyz
  1  'x, y, z'
loop_
 _atom_site_type_symbol
 _atom_site_label
 _atom_site_symmetry_multiplicity
 _atom_site_fract_x
 _atom_site_fract_y
 _atom_site_fract_z
 _atom_site_occupancy
  Cd  Cd0  1  0.75408000  0.32386000  0.21124000  1.0
  Cd  Cd1  1  0.24592000  0.67614000  0.78876000  1.0
  B  B2  1  0.17258000  0.76880000  0.12361000  1.0
  B  B3  1  0.82742000  0.23120000  0.87639000  1.0
  H  H4  1  0.04802000  0.51890000  0.21626000  1.0
  H  H5  1  0.95198000  0.48110000  0.78374000  1.0
  H  H6  1  0.19853000  0.70418000  0.29756000  1.0
  H  H7  1  0.80147000  0.29582000  0.70244000  1.0
  H  H8  1  0.14947000  0.61139000  0.98655000  1.0
  H  H9  1  0.85053000  0.38861000  0.01345000  1.0
  H  H10  1  0.36813000  0.94847000  0.19869000  1.0
  H  H11  1  0.63187000  0.05154000  0.80131000  1.0
  H  H12  1  0.89587000  0.85109000  0.01303000  1.0
  H  H13  1  0.10413000  0.14891000  0.98697000  1.0
  H  H14  1  0.45359000  0.46334000  0.35191000  1.0
  H  H15  1  0.54641000  0.53666000  0.64809000  1.0
  H  H16  1  0.45466000  0.53546000  0.10087000  1.0
  H  H17  1  0.54534000  0.46455000  0.89913000  1.0
  H  H18  1  0.39928000  0.94799000  0.04766000  1.0
  H  H19  1  0.60072000  0.05201000  0.95234000  1.0
  H  H20  1  0.19289000  0.22932000  0.23583000  1.0
  H  H21  1  0.80711000  0.77068000  0.76417000  1.0
  H  H22  1  0.87771000  0.99745000  0.13170000  1.0
  H  H23  1  0.12229000  0.00255000  0.86830000  1.0
  H  H24  1  0.49426000  0.86786000  0.89750000  1.0
  H  H25  1  0.50574000  0.13214000  0.10250000  1.0
  H  H26  1  0.67166000  0.66443000  0.04471000  1.0
  H  H27  1  0.32834000  0.33557000  0.95529000  1.0
  H  H28  1  0.67268000  0.38279000  0.48318000  1.0
  H  H29  1  0.32732000  0.61721000  0.51682000  1.0
  H  H30  1  0.86507000  0.55722000  0.62666000  1.0
  H  H31  1  0.13494000  0.44277000  0.37334000  1.0
  H  H32  1  0.54437000  0.11732000  0.35195000  1.0
  H  H33  1  0.45563000  0.88268000  0.64805000  1.0
  H  H34  1  0.82031000  0.71460000  0.32475000  1.0
  H  H35  1  0.17969000  0.28540000  0.67525000  1.0
  H  H36  1  0.63349000  0.66969000  0.29817000  1.0
  H  H37  1  0.36650000  0.33031000  0.70183000  1.0
  H  H38  1  0.71535000  0.81315000  0.23506000  1.0
  H  H39  1  0.28464000  0.18685000  0.76494000  1.0
  H  H40  1  0.47254000  0.93863000  0.43887000  1.0
  H  H41  1  0.52746000  0.06136000  0.56113000  1.0
  H  H42  1  0.46210000  0.75643000  0.40749000  1.0
  H  H43  1  0.53790000  0.24357000  0.59251000  1.0
  H  H44  1  0.63780000  0.77581000  0.45963000  1.0
  H  H45  1  0.36220000  0.22419000  0.54037000  1.0
  C  C46  1  0.97676000  0.58210000  0.16480000  1.0
  C  C47  1  0.02324000  0.41790000  0.83520000  1.0
  C  C48  1  0.28873000  0.63326000  0.26503000  1.0
  C  C49  1  0.71127000  0.36673000  0.73497000  1.0
  C  C50  1  0.23246000  0.69054000  0.98241000  1.0
  C  C51  1  0.76754000  0.30947000  0.01759000  1.0
  C  C52  1  0.24193000  0.00230000  0.18826000  1.0
  C  C53  1  0.75807000  0.99770000  0.81174000  1.0
  C  C54  1  0.89376000  0.75538000  0.05997000  1.0
  C  C55  1  0.10624000  0.24463000  0.94003000  1.0
  C  C56  1  0.41461000  0.51306000  0.29143000  1.0
  C  C57  1  0.58539000  0.48694000  0.70857000  1.0
  C  C58  1  0.42023000  0.54808000  0.16183000  1.0
  C  C59  1  0.57977000  0.45192000  0.83817000  1.0
  C  C60  1  0.36279000  0.86670000  0.01267000  1.0
  C  C61  1  0.63722000  0.13330000  0.98733000  1.0
  C  C62  1  0.15373000  0.14093000  0.20669000  1.0
  C  C63  1  0.84627000  0.85907000  0.79331000  1.0
  C  C64  1  0.98749000  0.02507000  0.15318000  1.0
  C  C65  1  0.01251000  0.97493000  0.84682000  1.0
  C  C66  1  0.40997000  0.82525000  0.93914000  1.0
  C  C67  1  0.59003000  0.17475000  0.06086000  1.0
  C  C68  1  0.78379000  0.66082000  0.07623000  1.0
  C  C69  1  0.21621000  0.33919000  0.92377000  1.0
  C  C70  1  0.84072000  0.36889000  0.38252000  1.0
  C  C71  1  0.15928000  0.63111000  0.61748000  1.0
  C  C72  1  0.92451000  0.43274000  0.44394000  1.0
  C  C73  1  0.07550000  0.56726000  0.55606000  1.0
  C  C74  1  0.92337000  0.53152000  0.57106000  1.0
  C  C75  1  0.07663000  0.46847000  0.42894000  1.0
  C  C76  1  0.84647000  0.46414000  0.51629000  1.0
  C  C77  1  0.15354000  0.53586000  0.48371000  1.0
  C  C78  1  0.60619000  0.03500000  0.31258000  1.0
  C  C79  1  0.39380000  0.96500000  0.68742000  1.0
  C  C80  1  0.70069000  0.76354000  0.29688000  1.0
  C  C81  1  0.29931000  0.23647000  0.70312000  1.0
  C  C82  1  0.54267000  0.83622000  0.41585000  1.0
  C  C83  1  0.45733000  0.16378000  0.58415000  1.0
  N  N84  1  0.49635000  0.46138000  0.22597000  1.0
  N  N85  1  0.50365000  0.53862000  0.77403000  1.0
  N  N86  1  0.13462000  0.92835000  0.15421000  1.0
  N  N87  1  0.86538000  0.07165000  0.84579000  1.0
  N  N88  1  0.01727000  0.70439000  0.11685000  1.0
  N  N89  1  0.98273000  0.29561000  0.88315000  1.0
  N  N90  1  0.99459000  0.15370000  0.18416000  1.0
  N  N91  1  0.00541000  0.84630000  0.81584000  1.0
  N  N92  1  0.24841000  0.78092000  0.03984000  1.0
  N  N93  1  0.75159000  0.21909000  0.96016000  1.0
  N  N94  1  0.83731000  0.55239000  0.14203000  1.0
  N  N95  1  0.16269000  0.44761000  0.85797000  1.0
  N  N96  1  0.32739000  0.71453000  0.92088000  1.0
  N  N97  1  0.67261000  0.28547000  0.07912000  1.0
  N  N98  1  0.29336000  0.65531000  0.18222000  1.0
  N  N99  1  0.70664000  0.34469000  0.81778000  1.0
  N  N100  1  0.61268000  0.88478000  0.34006000  1.0
  N  N101  1  0.38732000  0.11522000  0.65994000  1.0
  O  O102  1  0.70682000  0.32778000  0.40039000  1.0
  O  O103  1  0.29318000  0.67222000  0.59961000  1.0
  O  O104  1  0.69846000  0.43130000  0.53228000  1.0
  O  O105  1  0.30154000  0.56870000  0.46771000  1.0
  O  O106  1  0.90551000  0.36323000  0.31419000  1.0
  O  O107  1  0.09449000  0.63677000  0.68581000  1.0
  O  O108  1  0.66500000  0.08063000  0.24764000  1.0
  O  O109  1  0.33499000  0.91937000  0.75236000  1.0
