# generated using pymatgen
data_Cu3H15WC15Se3IN3O
_symmetry_space_group_name_H-M   'P 1'
_cell_length_a   8.19648000
_cell_length_b   8.67982000
_cell_length_c   15.56710000
_cell_angle_alpha   103.09500000
_cell_angle_beta   97.92570000
_cell_angle_gamma   95.53780000
_symmetry_Int_Tables_number   1
_chemical_formula_structural   Cu3H15WC15Se3IN3O
_chemical_formula_sum   'Cu6 H30 W2 C30 Se6 I2 N6 O2'
_cell_volume   1058.99285069
_cell_formula_units_Z   2
loop_
 _symmetry_equiv_pos_site_id
 _symmetry_equiv_pos_as_xyz
  1  'x, y, z'
loop_
 _atom_site_type_symbol
 _atom_site_label
 _atom_site_symmetry_multiplicity
 _atom_site_fract_x
 _atom_site_fract_y
 _atom_site_fract_z
 _atom_site_occupancy
  Cu  Cu0  1  0.83461000  0.94281000  0.72441000  1.0
  Cu  Cu1  1  0.16539000  0.05720000  0.27560000  1.0
  Cu  Cu2  1  0.30629000  0.91569000  0.73348000  1.0
  Cu  Cu3  1  0.69371000  0.08431000  0.26652000  1.0
  Cu  Cu4  1  0.15450000  0.10939000  0.94949000  1.0
  Cu  Cu5  1  0.84551000  0.89061000  0.05051000  1.0
  H  H6  1  0.84076000  0.99725000  0.54533000  1.0
  H  H7  1  0.15923000  0.00274000  0.45467000  1.0
  H  H8  1  0.79419000  0.21700000  0.46903000  1.0
  H  H9  1  0.20580000  0.78298000  0.53097000  1.0
  H  H10  1  0.74209000  0.48208000  0.56096000  1.0
  H  H11  1  0.25791000  0.51791000  0.43903000  1.0
  H  H12  1  0.74368000  0.51334000  0.72478000  1.0
  H  H13  1  0.25633000  0.48667000  0.27521000  1.0
  H  H14  1  0.79229000  0.28114000  0.79049000  1.0
  H  H15  1  0.20770000  0.71887000  0.20951000  1.0
  H  H16  1  0.44580000  0.05495000  0.59453000  1.0
  H  H17  1  0.55420000  0.94505000  0.40547000  1.0
  H  H18  1  0.39548000  0.28150000  0.52342000  1.0
  H  H19  1  0.60452000  0.71850000  0.47658000  1.0
  H  H20  1  0.22460000  0.48792000  0.59448000  1.0
  H  H21  1  0.77540000  0.51208000  0.40552000  1.0
  H  H22  1  0.11494000  0.45637000  0.73291000  1.0
  H  H23  1  0.88507000  0.54363000  0.26710000  1.0
  H  H24  1  0.16970000  0.21758000  0.79187000  1.0
  H  H25  1  0.83031000  0.78242000  0.20814000  1.0
  H  H26  1  0.11443000  0.43225000  0.92558000  1.0
  H  H27  1  0.88557000  0.56774000  0.07442000  1.0
  H  H28  1  0.25820000  0.70463000  0.99564000  1.0
  H  H29  1  0.74180000  0.29537000  0.00436000  1.0
  H  H30  1  0.47788000  0.74908000  0.13226000  1.0
  H  H31  1  0.52213000  0.25093000  0.86774000  1.0
  H  H32  1  0.53747000  0.50937000  0.19317000  1.0
  H  H33  1  0.46253000  0.49063000  0.80683000  1.0
  H  H34  1  0.38520000  0.24389000  0.11438000  1.0
  H  H35  1  0.61481000  0.75611000  0.88562000  1.0
  W  W36  1  0.06232000  0.81939000  0.82954000  1.0
  W  W37  1  0.93768000  0.18061000  0.17046000  1.0
  C  C38  1  0.81843000  0.11363000  0.58242000  1.0
  C  C39  1  0.18157000  0.88636000  0.41758000  1.0
  C  C40  1  0.79304000  0.23681000  0.54058000  1.0
  C  C41  1  0.20695000  0.76318000  0.45942000  1.0
  C  C42  1  0.76469000  0.38312000  0.59142000  1.0
  C  C43  1  0.23531000  0.61687000  0.40857000  1.0
  C  C44  1  0.76432000  0.40102000  0.68259000  1.0
  C  C45  1  0.23568000  0.59899000  0.31741000  1.0
  C  C46  1  0.79048000  0.27212000  0.71945000  1.0
  C  C47  1  0.20951000  0.72789000  0.28055000  1.0
  C  C48  1  0.37140000  0.14619000  0.62197000  1.0
  C  C49  1  0.62860000  0.85381000  0.37803000  1.0
  C  C50  1  0.34305000  0.27278000  0.58315000  1.0
  C  C51  1  0.65695000  0.72723000  0.41685000  1.0
  C  C52  1  0.24867000  0.38631000  0.62230000  1.0
  C  C53  1  0.75133000  0.61369000  0.37770000  1.0
  C  C54  1  0.18701000  0.36938000  0.69930000  1.0
  C  C55  1  0.81300000  0.63062000  0.30071000  1.0
  C  C56  1  0.21836000  0.23771000  0.73282000  1.0
  C  C57  1  0.78165000  0.76229000  0.26718000  1.0
  C  C58  1  0.21014000  0.45324000  0.98443000  1.0
  C  C59  1  0.78986000  0.54675000  0.01557000  1.0
  C  C60  1  0.29061000  0.60649000  0.02455000  1.0
  C  C61  1  0.70939000  0.39351000  0.97545000  1.0
  C  C62  1  0.41183000  0.63012000  0.10018000  1.0
  C  C63  1  0.58818000  0.36988000  0.89982000  1.0
  C  C64  1  0.44581000  0.49850000  0.13375000  1.0
  C  C65  1  0.55419000  0.50150000  0.86625000  1.0
  C  C66  1  0.36120000  0.34897000  0.08998000  1.0
  C  C67  1  0.63880000  0.65102000  0.91003000  1.0
  Se  Se68  1  0.03042000  0.77159000  0.66951000  1.0
  Se  Se69  1  0.96958000  0.22841000  0.33049000  1.0
  Se  Se70  1  0.87490000  0.00558000  0.88585000  1.0
  Se  Se71  1  0.12510000  0.99441000  0.11415000  1.0
  Se  Se72  1  0.34489000  0.94009000  0.89278000  1.0
  Se  Se73  1  0.65511000  0.05991000  0.10722000  1.0
  I  I74  1  0.53579000  0.76402000  0.66620000  1.0
  I  I75  1  0.46421000  0.23598000  0.33380000  1.0
  N  N76  1  0.81575000  0.12959000  0.67046000  1.0
  N  N77  1  0.18424000  0.87042000  0.32955000  1.0
  N  N78  1  0.30866000  0.12689000  0.69509000  1.0
  N  N79  1  0.69134000  0.87312000  0.30491000  1.0
  N  N80  1  0.24623000  0.32541000  0.01568000  1.0
  N  N81  1  0.75377000  0.67459000  0.98432000  1.0
  O  O82  1  0.02070000  0.63807000  0.85724000  1.0
  O  O83  1  0.97931000  0.36193000  0.14276000  1.0
