# generated using pymatgen
data_MnH30C28(NO5)2
_symmetry_space_group_name_H-M   'P 1'
_cell_length_a   10.71170000
_cell_length_b   12.24900000
_cell_length_c   23.89350000
_cell_angle_alpha   89.60560000
_cell_angle_beta   89.99980000
_cell_angle_gamma   89.99970000
_symmetry_Int_Tables_number   1
_chemical_formula_structural   MnH30C28(NO5)2
_chemical_formula_sum   'Mn4 H120 C112 N8 O40'
_cell_volume   3134.93483452
_cell_formula_units_Z   4
loop_
 _symmetry_equiv_pos_site_id
 _symmetry_equiv_pos_as_xyz
  1  'x, y, z'
loop_
 _atom_site_type_symbol
 _atom_site_label
 _atom_site_symmetry_multiplicity
 _atom_site_fract_x
 _atom_site_fract_y
 _atom_site_fract_z
 _atom_site_occupancy
  Mn  Mn0  1  0.21209000  0.32783000  0.27422000  1.0
  Mn  Mn1  1  0.71207000  0.17216000  0.22579000  1.0
  Mn  Mn2  1  0.78791000  0.67218000  0.72579000  1.0
  Mn  Mn3  1  0.28793000  0.82784000  0.77421000  1.0
  H  H4  1  0.06060000  0.55530000  0.46655000  1.0
  H  H5  1  0.56060000  0.94469000  0.03345000  1.0
  H  H6  1  0.93940000  0.44470000  0.53345000  1.0
  H  H7  1  0.43939000  0.05530000  0.96655000  1.0
  H  H8  1  0.05628000  0.65034000  0.55870000  1.0
  H  H9  1  0.55629000  0.84966000  0.94130000  1.0
  H  H10  1  0.94372000  0.34967000  0.44130000  1.0
  H  H11  1  0.44371000  0.15033000  0.05869000  1.0
  H  H12  1  0.14302000  0.78899000  0.62246000  1.0
  H  H13  1  0.64303000  0.71101000  0.87754000  1.0
  H  H14  1  0.85698000  0.21102000  0.37754000  1.0
  H  H15  1  0.35698000  0.28899000  0.12246000  1.0
  H  H16  1  0.32434000  0.90298000  0.59258000  1.0
  H  H17  1  0.82435000  0.59702000  0.90742000  1.0
  H  H18  1  0.67565000  0.09702000  0.40742000  1.0
  H  H19  1  0.17566000  0.40298000  0.09258000  1.0
  H  H20  1  0.42353000  0.87392000  0.50028000  1.0
  H  H21  1  0.92353000  0.62608000  0.99972000  1.0
  H  H22  1  0.57647000  0.12608000  0.49972000  1.0
  H  H23  1  0.07647000  0.37393000  0.00028000  1.0
  H  H24  1  0.51281000  0.62503000  0.48291000  1.0
  H  H25  1  0.01281000  0.87496000  0.01709000  1.0
  H  H26  1  0.48719000  0.37496000  0.51709000  1.0
  H  H27  1  0.98718000  0.12504000  0.98291000  1.0
  H  H28  1  0.71667000  0.57670000  0.52495000  1.0
  H  H29  1  0.21668000  0.92330000  0.97504000  1.0
  H  H30  1  0.28332000  0.42329000  0.47505000  1.0
  H  H31  1  0.78332000  0.07670000  0.02495000  1.0
  H  H32  1  0.90934000  0.67609000  0.49646000  1.0
  H  H33  1  0.40935000  0.82390000  0.00354000  1.0
  H  H34  1  0.09064000  0.32391000  0.50354000  1.0
  H  H35  1  0.59064000  0.17609000  0.99646000  1.0
  H  H36  1  0.89961000  0.82004000  0.42310000  1.0
  H  H37  1  0.39962000  0.67996000  0.07690000  1.0
  H  H38  1  0.10038000  0.17997000  0.57691000  1.0
  H  H39  1  0.60037000  0.32004000  0.92310000  1.0
  H  H40  1  0.77366000  0.93461000  0.35783000  1.0
  H  H41  1  0.27366000  0.56539000  0.14217000  1.0
  H  H42  1  0.22635000  0.06539000  0.64218000  1.0
  H  H43  1  0.72634000  0.43462000  0.85783000  1.0
  H  H44  1  0.10074000  0.15316000  0.35423000  1.0
  H  H45  1  0.60075000  0.34686000  0.14578000  1.0
  H  H46  1  0.89925000  0.84685000  0.64579000  1.0
  H  H47  1  0.39926000  0.65316000  0.85422000  1.0
  H  H48  1  0.41174000  0.15785000  0.41132000  1.0
  H  H49  1  0.91174000  0.34214000  0.08868000  1.0
  H  H50  1  0.58826000  0.84215000  0.58867000  1.0
  H  H51  1  0.08826000  0.65785000  0.91132000  1.0
  H  H52  1  0.39438000  0.01911000  0.43422000  1.0
  H  H53  1  0.89438000  0.48089000  0.06577000  1.0
  H  H54  1  0.60562000  0.98089000  0.56577000  1.0
  H  H55  1  0.10562000  0.51911000  0.93422000  1.0
  H  H56  1  0.34854000  0.12853000  0.47912000  1.0
  H  H57  1  0.84853000  0.37147000  0.02087000  1.0
  H  H58  1  0.65147000  0.87146000  0.52087000  1.0
  H  H59  1  0.15146000  0.62853000  0.97912000  1.0
  H  H60  1  0.04970000  0.03190000  0.41510000  1.0
  H  H61  1  0.54970000  0.46811000  0.08490000  1.0
  H  H62  1  0.95030000  0.96809000  0.58490000  1.0
  H  H63  1  0.45030000  0.53190000  0.91510000  1.0
  H  H64  1  0.13325000  0.03167000  0.47984000  1.0
  H  H65  1  0.63325000  0.46833000  0.02016000  1.0
  H  H66  1  0.86676000  0.96832000  0.52016000  1.0
  H  H67  1  0.36675000  0.53167000  0.97984000  1.0
  H  H68  1  0.17470000  0.93653000  0.42636000  1.0
  H  H69  1  0.67471000  0.56348000  0.07363000  1.0
  H  H70  1  0.82531000  0.06347000  0.57363000  1.0
  H  H71  1  0.32530000  0.43653000  0.92637000  1.0
  H  H72  1  0.05153000  0.23222000  0.17508000  1.0
  H  H73  1  0.55151000  0.26778000  0.32492000  1.0
  H  H74  1  0.94850000  0.76778000  0.82492000  1.0
  H  H75  1  0.44848000  0.73222000  0.67509000  1.0
  H  H76  1  0.27030000  0.01122000  0.19522000  1.0
  H  H77  1  0.77030000  0.48878000  0.30478000  1.0
  H  H78  1  0.72971000  0.98878000  0.80479000  1.0
  H  H79  1  0.22970000  0.51122000  0.69522000  1.0
  H  H80  1  0.28182000  0.99834000  0.12074000  1.0
  H  H81  1  0.78182000  0.50165000  0.37926000  1.0
  H  H82  1  0.71819000  0.00166000  0.87926000  1.0
  H  H83  1  0.21819000  0.49835000  0.62074000  1.0
  H  H84  1  0.16742000  0.92064000  0.15836000  1.0
  H  H85  1  0.66742000  0.57936000  0.34164000  1.0
  H  H86  1  0.83259000  0.07937000  0.84164000  1.0
  H  H87  1  0.33258000  0.42063000  0.65836000  1.0
  H  H88  1  0.97865000  0.15195000  0.10370000  1.0
  H  H89  1  0.47865000  0.34805000  0.39630000  1.0
  H  H90  1  0.02136000  0.84805000  0.89630000  1.0
  H  H91  1  0.52136000  0.65195000  0.60370000  1.0
  H  H92  1  0.99518000  0.00705000  0.10092000  1.0
  H  H93  1  0.49517000  0.49295000  0.39908000  1.0
  H  H94  1  0.00483000  0.99295000  0.89909000  1.0
  H  H95  1  0.50483000  0.50705000  0.60092000  1.0
  H  H96  1  0.10172000  0.09283000  0.06314000  1.0
  H  H97  1  0.60172000  0.40716000  0.43686000  1.0
  H  H98  1  0.89829000  0.90717000  0.93687000  1.0
  H  H99  1  0.39829000  0.59284000  0.56314000  1.0
  H  H100  1  0.31817000  0.56179000  0.32197000  1.0
  H  H101  1  0.81816000  0.93821000  0.17803000  1.0
  H  H102  1  0.68183000  0.43822000  0.67803000  1.0
  H  H103  1  0.18182000  0.06178000  0.82197000  1.0
  H  H104  1  0.37334000  0.95241000  0.31422000  1.0
  H  H105  1  0.87333000  0.54759000  0.18578000  1.0
  H  H106  1  0.62668000  0.04759000  0.68578000  1.0
  H  H107  1  0.12667000  0.45240000  0.81422000  1.0
  H  H108  1  0.01023000  0.36485000  0.33121000  1.0
  H  H109  1  0.51024000  0.13515000  0.16879000  1.0
  H  H110  1  0.98977000  0.63515000  0.66879000  1.0
  H  H111  1  0.48976000  0.86485000  0.83121000  1.0
  H  H112  1  0.97576000  0.37510000  0.26539000  1.0
  H  H113  1  0.47577000  0.12491000  0.23461000  1.0
  H  H114  1  0.02424000  0.62491000  0.73461000  1.0
  H  H115  1  0.52424000  0.87510000  0.76539000  1.0
  H  H116  1  0.36925000  0.40901000  0.20728000  1.0
  H  H117  1  0.86925000  0.09099000  0.29271000  1.0
  H  H118  1  0.63075000  0.59099000  0.79271000  1.0
  H  H119  1  0.13075000  0.90901000  0.70728000  1.0
  H  H120  1  0.43678000  0.29516000  0.22080000  1.0
  H  H121  1  0.93677000  0.20484000  0.27919000  1.0
  H  H122  1  0.56321000  0.70484000  0.77920000  1.0
  H  H123  1  0.06322000  0.79516000  0.72080000  1.0
  C  C124  1  0.14903000  0.49447000  0.36757000  1.0
  C  C125  1  0.64903000  0.00553000  0.13243000  1.0
  C  C126  1  0.85096000  0.50553000  0.63243000  1.0
  C  C127  1  0.35095000  0.99447000  0.86757000  1.0
  C  C128  1  0.19822000  0.58321000  0.40382000  1.0
  C  C129  1  0.69822000  0.91679000  0.09618000  1.0
  C  C130  1  0.80178000  0.41679000  0.59618000  1.0
  C  C131  1  0.30177000  0.08321000  0.90382000  1.0
  C  C132  1  0.14196000  0.60383000  0.45483000  1.0
  C  C133  1  0.64197000  0.89616000  0.04517000  1.0
  C  C134  1  0.85804000  0.39617000  0.54517000  1.0
  C  C135  1  0.35804000  0.10383000  0.95483000  1.0
  C  C136  1  0.18856000  0.68354000  0.49174000  1.0
  C  C137  1  0.68857000  0.81646000  0.00825000  1.0
  C  C138  1  0.81143000  0.31646000  0.50826000  1.0
  C  C139  1  0.31143000  0.18353000  0.99174000  1.0
  C  C140  1  0.13447000  0.70117000  0.54525000  1.0
  C  C141  1  0.63448000  0.79883000  0.95475000  1.0
  C  C142  1  0.86552000  0.29884000  0.45475000  1.0
  C  C143  1  0.36552000  0.20116000  0.04525000  1.0
  C  C144  1  0.18282000  0.77857000  0.58083000  1.0
  C  C145  1  0.68283000  0.72143000  0.91916000  1.0
  C  C146  1  0.81718000  0.22144000  0.41916000  1.0
  C  C147  1  0.31718000  0.27856000  0.08084000  1.0
  C  C148  1  0.28703000  0.84201000  0.56413000  1.0
  C  C149  1  0.78704000  0.65799000  0.93587000  1.0
  C  C150  1  0.71297000  0.15800000  0.43587000  1.0
  C  C151  1  0.21297000  0.34201000  0.06413000  1.0
  C  C152  1  0.34234000  0.82595000  0.51274000  1.0
  C  C153  1  0.84234000  0.67404000  0.98726000  1.0
  C  C154  1  0.65766000  0.17404000  0.48726000  1.0
  C  C155  1  0.15766000  0.32597000  0.01274000  1.0
  C  C156  1  0.29623000  0.74601000  0.47505000  1.0
  C  C157  1  0.79623000  0.75398000  0.02495000  1.0
  C  C158  1  0.70377000  0.25399000  0.52495000  1.0
  C  C159  1  0.20376000  0.24601000  0.97505000  1.0
  C  C160  1  0.35450000  0.72511000  0.42280000  1.0
  C  C161  1  0.85451000  0.77488000  0.07720000  1.0
  C  C162  1  0.64549000  0.27489000  0.57720000  1.0
  C  C163  1  0.14549000  0.22511000  0.92280000  1.0
  C  C164  1  0.30676000  0.64473000  0.38764000  1.0
  C  C165  1  0.80676000  0.85526000  0.11236000  1.0
  C  C166  1  0.69324000  0.35527000  0.61236000  1.0
  C  C167  1  0.19323000  0.14473000  0.88764000  1.0
  C  C168  1  0.47002000  0.78295000  0.40557000  1.0
  C  C169  1  0.97003000  0.71705000  0.09443000  1.0
  C  C170  1  0.52997000  0.21704000  0.59443000  1.0
  C  C171  1  0.02997000  0.28295000  0.90557000  1.0
  C  C172  1  0.58687000  0.75257000  0.42924000  1.0
  C  C173  1  0.08687000  0.74742000  0.07076000  1.0
  C  C174  1  0.41313000  0.24743000  0.57076000  1.0
  C  C175  1  0.91313000  0.25257000  0.92924000  1.0
  C  C176  1  0.59719000  0.66809000  0.47012000  1.0
  C  C177  1  0.09720000  0.83191000  0.02988000  1.0
  C  C178  1  0.40280000  0.33191000  0.52988000  1.0
  C  C179  1  0.90280000  0.16809000  0.97012000  1.0
  C  C180  1  0.71078000  0.64147000  0.49355000  1.0
  C  C181  1  0.21079000  0.85852000  0.00645000  1.0
  C  C182  1  0.28920000  0.35852000  0.50646000  1.0
  C  C183  1  0.78920000  0.14148000  0.99355000  1.0
  C  C184  1  0.82070000  0.69720000  0.47709000  1.0
  C  C185  1  0.32071000  0.80279000  0.02291000  1.0
  C  C186  1  0.17929000  0.30279000  0.52291000  1.0
  C  C187  1  0.67929000  0.19721000  0.97709000  1.0
  C  C188  1  0.81492000  0.77782000  0.43666000  1.0
  C  C189  1  0.31492000  0.72217000  0.06334000  1.0
  C  C190  1  0.18507000  0.22218000  0.56335000  1.0
  C  C191  1  0.68507000  0.27783000  0.93666000  1.0
  C  C192  1  0.69910000  0.80774000  0.41188000  1.0
  C  C193  1  0.19911000  0.69225000  0.08812000  1.0
  C  C194  1  0.30090000  0.19226000  0.58812000  1.0
  C  C195  1  0.80089000  0.30775000  0.91188000  1.0
  C  C196  1  0.68972000  0.89142000  0.37129000  1.0
  C  C197  1  0.18972000  0.60858000  0.12871000  1.0
  C  C198  1  0.31028000  0.10858000  0.62871000  1.0
  C  C199  1  0.81027000  0.39142000  0.87129000  1.0
  C  C200  1  0.57627000  0.92164000  0.34814000  1.0
  C  C201  1  0.07626000  0.57836000  0.15186000  1.0
  C  C202  1  0.42374000  0.07836000  0.65186000  1.0
  C  C203  1  0.92373000  0.42164000  0.84814000  1.0
  C  C204  1  0.56993000  0.01451000  0.30763000  1.0
  C  C205  1  0.06993000  0.48549000  0.19237000  1.0
  C  C206  1  0.43008000  0.98549000  0.69237000  1.0
  C  C207  1  0.93007000  0.51451000  0.80763000  1.0
  C  C208  1  0.46462000  0.86519000  0.36495000  1.0
  C  C209  1  0.96462000  0.63481000  0.13504000  1.0
  C  C210  1  0.53538000  0.13481000  0.63504000  1.0
  C  C211  1  0.03538000  0.36519000  0.86496000  1.0
  C  C212  1  0.19732000  0.16479000  0.36915000  1.0
  C  C213  1  0.69733000  0.33522000  0.13086000  1.0
  C  C214  1  0.80266000  0.83523000  0.63086000  1.0
  C  C215  1  0.30267000  0.66479000  0.86914000  1.0
  C  C216  1  0.35371000  0.10128000  0.43551000  1.0
  C  C217  1  0.85372000  0.39872000  0.06448000  1.0
  C  C218  1  0.64628000  0.89872000  0.56448000  1.0
  C  C219  1  0.14628000  0.60128000  0.93551000  1.0
  C  C220  1  0.14162000  0.01987000  0.43443000  1.0
  C  C221  1  0.64162000  0.48013000  0.06557000  1.0
  C  C222  1  0.85839000  0.98012000  0.56557000  1.0
  C  C223  1  0.35838000  0.51988000  0.93443000  1.0
  C  C224  1  0.12325000  0.17069000  0.18547000  1.0
  C  C225  1  0.62324000  0.32929000  0.31452000  1.0
  C  C226  1  0.87677000  0.82930000  0.81453000  1.0
  C  C227  1  0.37676000  0.67069000  0.68547000  1.0
  C  C228  1  0.21742000  0.99892000  0.15659000  1.0
  C  C229  1  0.71742000  0.50108000  0.34341000  1.0
  C  C230  1  0.78259000  0.00108000  0.84341000  1.0
  C  C231  1  0.28258000  0.49892000  0.65659000  1.0
  C  C232  1  0.04601000  0.08475000  0.10159000  1.0
  C  C233  1  0.54600000  0.41525000  0.39842000  1.0
  C  C234  1  0.95400000  0.91525000  0.89842000  1.0
  C  C235  1  0.45400000  0.58475000  0.60158000  1.0
  N  N236  1  0.22929000  0.09885000  0.41133000  1.0
  N  N237  1  0.72929000  0.40115000  0.08867000  1.0
  N  N238  1  0.77071000  0.90115000  0.58867000  1.0
  N  N239  1  0.27071000  0.59886000  0.91133000  1.0
  N  N240  1  0.12768000  0.08742000  0.15008000  1.0
  N  N241  1  0.62768000  0.41257000  0.34991000  1.0
  N  N242  1  0.87234000  0.91258000  0.84992000  1.0
  N  N243  1  0.37232000  0.58742000  0.65009000  1.0
  O  O244  1  0.21235000  0.47433000  0.32237000  1.0
  O  O245  1  0.71236000  0.02568000  0.17763000  1.0
  O  O246  1  0.78764000  0.52568000  0.67763000  1.0
  O  O247  1  0.28763000  0.97432000  0.82237000  1.0
  O  O248  1  0.05184000  0.44279000  0.38152000  1.0
  O  O249  1  0.55183000  0.05720000  0.11849000  1.0
  O  O250  1  0.94816000  0.55721000  0.61849000  1.0
  O  O251  1  0.44815000  0.94279000  0.88151000  1.0
  O  O252  1  0.36689000  0.62426000  0.33930000  1.0
  O  O253  1  0.86688000  0.87574000  0.16070000  1.0
  O  O254  1  0.63311000  0.37574000  0.66070000  1.0
  O  O255  1  0.13310000  0.12425000  0.83930000  1.0
  O  O256  1  0.35313000  0.89296000  0.34284000  1.0
  O  O257  1  0.85313000  0.60704000  0.15715000  1.0
  O  O258  1  0.64688000  0.10705000  0.65715000  1.0
  O  O259  1  0.14687000  0.39295000  0.84284000  1.0
  O  O260  1  0.46415000  0.03489000  0.28425000  1.0
  O  O261  1  0.96415000  0.46511000  0.21575000  1.0
  O  O262  1  0.53586000  0.96511000  0.71575000  1.0
  O  O263  1  0.03586000  0.53489000  0.78426000  1.0
  O  O264  1  0.66802000  0.07105000  0.29897000  1.0
  O  O265  1  0.16801000  0.42895000  0.20103000  1.0
  O  O266  1  0.33201000  0.92895000  0.70103000  1.0
  O  O267  1  0.83200000  0.57106000  0.79898000  1.0
  O  O268  1  0.26800000  0.23499000  0.34718000  1.0
  O  O269  1  0.76799000  0.26502000  0.15283000  1.0
  O  O270  1  0.73198000  0.76503000  0.65283000  1.0
  O  O271  1  0.23201000  0.73499000  0.84718000  1.0
  O  O272  1  0.19374000  0.18100000  0.22728000  1.0
  O  O273  1  0.69373000  0.31899000  0.27271000  1.0
  O  O274  1  0.80628000  0.81900000  0.77272000  1.0
  O  O275  1  0.30626000  0.68101000  0.72729000  1.0
  O  O276  1  0.00434000  0.32093000  0.29514000  1.0
  O  O277  1  0.50436000  0.17906000  0.20486000  1.0
  O  O278  1  0.99566000  0.67907000  0.70486000  1.0
  O  O279  1  0.49564000  0.82094000  0.79514000  1.0
  O  O280  1  0.39861000  0.36247000  0.23786000  1.0
  O  O281  1  0.89859000  0.13754000  0.26213000  1.0
  O  O282  1  0.60140000  0.63754000  0.76214000  1.0
  O  O283  1  0.10141000  0.86246000  0.73786000  1.0
