# generated using pymatgen
data_Cd4H16C15(N2O5)3
_symmetry_space_group_name_H-M   'P 1'
_cell_length_a   10.80880000
_cell_length_b   11.76172332
_cell_length_c   12.14330000
_cell_angle_alpha   92.74266640
_cell_angle_beta   115.25400000
_cell_angle_gamma   113.12722639
_symmetry_Int_Tables_number   1
_chemical_formula_structural   Cd4H16C15(N2O5)3
_chemical_formula_sum   'Cd8 H32 C30 N12 O30'
_cell_volume   1240.21060489
_cell_formula_units_Z   2
loop_
 _symmetry_equiv_pos_site_id
 _symmetry_equiv_pos_as_xyz
  1  'x, y, z'
loop_
 _atom_site_type_symbol
 _atom_site_label
 _atom_site_symmetry_multiplicity
 _atom_site_fract_x
 _atom_site_fract_y
 _atom_site_fract_z
 _atom_site_occupancy
  Cd  Cd0  1  0.19779000  0.01469000  0.44573000  1.0
  Cd  Cd1  1  0.80216000  0.98529000  0.55425000  1.0
  Cd  Cd2  1  0.77967000  0.42897000  0.42249000  1.0
  Cd  Cd3  1  0.22036000  0.57107000  0.57751000  1.0
  Cd  Cd4  1  0.61090000  0.63432000  0.45598000  1.0
  Cd  Cd5  1  0.38912000  0.36568000  0.54403000  1.0
  Cd  Cd6  1  0.98460000  0.70966000  0.64462000  1.0
  Cd  Cd7  1  0.01543000  0.29036000  0.35539000  1.0
  H  H8  1  0.29703000  0.06539000  0.18376000  1.0
  H  H9  1  0.70298000  0.93460000  0.81626000  1.0
  H  H10  1  0.23650000  0.18330000  0.14283000  1.0
  H  H11  1  0.76352000  0.81669000  0.85720000  1.0
  H  H12  1  0.49695000  0.13699000  0.03098000  1.0
  H  H13  1  0.50306000  0.86296000  0.96907000  1.0
  H  H14  1  0.46787000  0.05257000  0.14138000  1.0
  H  H15  1  0.53221000  0.94744000  0.85871000  1.0
  H  H16  1  0.18279000  0.47446000  0.07816000  1.0
  H  H17  1  0.81722000  0.52552000  0.92184000  1.0
  H  H18  1  0.23547000  0.61005000  0.19219000  1.0
  H  H19  1  0.76454000  0.38994000  0.80780000  1.0
  H  H20  1  0.37559000  0.75848000  0.14554000  1.0
  H  H21  1  0.62440000  0.24151000  0.85443000  1.0
  H  H22  1  0.47785000  0.72889000  0.07567000  1.0
  H  H23  1  0.52217000  0.27112000  0.92434000  1.0
  H  H24  1  0.76335000  0.73082000  0.07522000  1.0
  H  H25  1  0.23662000  0.26913000  0.92470000  1.0
  H  H26  1  0.91105000  0.71929000  0.05418000  1.0
  H  H27  1  0.08897000  0.28071000  0.94583000  1.0
  H  H28  1  0.97859000  0.55954000  0.10793000  1.0
  H  H29  1  0.02139000  0.44042000  0.89204000  1.0
  H  H30  1  0.85509000  0.42591000  0.13853000  1.0
  H  H31  1  0.14492000  0.57408000  0.86150000  1.0
  H  H32  1  0.86496000  0.01950000  0.30052000  1.0
  H  H33  1  0.13502000  0.98054000  0.69951000  1.0
  H  H34  1  0.99417000  0.05335000  0.25921000  1.0
  H  H35  1  0.00579000  0.94660000  0.74081000  1.0
  H  H36  1  0.31929000  0.86564000  0.58243000  1.0
  H  H37  1  0.68072000  0.13437000  0.41756000  1.0
  H  H38  1  0.28782000  0.82314000  0.44758000  1.0
  H  H39  1  0.71218000  0.17687000  0.55241000  1.0
  C  C40  1  0.68556000  0.52783000  0.14795000  1.0
  C  C41  1  0.31442000  0.47214000  0.85202000  1.0
  C  C42  1  0.48678000  0.53287000  0.16272000  1.0
  C  C43  1  0.51319000  0.46711000  0.83726000  1.0
  C  C44  1  0.50577000  0.34884000  0.15675000  1.0
  C  C45  1  0.49422000  0.65114000  0.84325000  1.0
  C  C46  1  0.33797000  0.16910000  0.19816000  1.0
  C  C47  1  0.66205000  0.83089000  0.80186000  1.0
  C  C48  1  0.39845000  0.23002000  0.33658000  1.0
  C  C49  1  0.60158000  0.76998000  0.66343000  1.0
  C  C50  1  0.52147000  0.14877000  0.12951000  1.0
  C  C51  1  0.47858000  0.85123000  0.87054000  1.0
  C  C52  1  0.69494000  0.20224000  0.21364000  1.0
  C  C53  1  0.30511000  0.79780000  0.78638000  1.0
  C  C54  1  0.26864000  0.53723000  0.17309000  1.0
  C  C55  1  0.73137000  0.46276000  0.82690000  1.0
  C  C56  1  0.25365000  0.45612000  0.26538000  1.0
  C  C57  1  0.74638000  0.54388000  0.73462000  1.0
  C  C58  1  0.46666000  0.73079000  0.16119000  1.0
  C  C59  1  0.53333000  0.26920000  0.83880000  1.0
  C  C60  1  0.61565000  0.83811000  0.26839000  1.0
  C  C61  1  0.38433000  0.16189000  0.73161000  1.0
  C  C62  1  0.86457000  0.71402000  0.11951000  1.0
  C  C63  1  0.13539000  0.28594000  0.88046000  1.0
  C  C64  1  0.98304000  0.82390000  0.23705000  1.0
  C  C65  1  0.01684000  0.17608000  0.76291000  1.0
  C  C66  1  0.92046000  0.53038000  0.16441000  1.0
  C  C67  1  0.07953000  0.46961000  0.83559000  1.0
  C  C68  1  0.04413000  0.57898000  0.30433000  1.0
  C  C69  1  0.95591000  0.42109000  0.69567000  1.0
  N  N70  1  0.41978000  0.60390000  0.18351000  1.0
  N  N71  1  0.58020000  0.39608000  0.81646000  1.0
  N  N72  1  0.42439000  0.40871000  0.16268000  1.0
  N  N73  1  0.57560000  0.59128000  0.83730000  1.0
  N  N74  1  0.45156000  0.22225000  0.15660000  1.0
  N  N75  1  0.54846000  0.77774000  0.84342000  1.0
  N  N76  1  0.64086000  0.40467000  0.15588000  1.0
  N  N77  1  0.35914000  0.59532000  0.84411000  1.0
  N  N78  1  0.81548000  0.58634000  0.13816000  1.0
  N  N79  1  0.18449000  0.41363000  0.86179000  1.0
  N  N80  1  0.61047000  0.59566000  0.14843000  1.0
  N  N81  1  0.38951000  0.40433000  0.85153000  1.0
  O  O82  1  0.97746000  0.07705000  0.32862000  1.0
  O  O83  1  0.02252000  0.92296000  0.67139000  1.0
  O  O84  1  0.29650000  0.19717000  0.37360000  1.0
  O  O85  1  0.70355000  0.80283000  0.62644000  1.0
  O  O86  1  0.53588000  0.31035000  0.40738000  1.0
  O  O87  1  0.46415000  0.68967000  0.59262000  1.0
  O  O88  1  0.75293000  0.23921000  0.33547000  1.0
  O  O89  1  0.24715000  0.76084000  0.66456000  1.0
  O  O90  1  0.79892000  0.61457000  0.45904000  1.0
  O  O91  1  0.20110000  0.38545000  0.54096000  1.0
  O  O92  1  0.00751000  0.51738000  0.38030000  1.0
  O  O93  1  0.99257000  0.48273000  0.61973000  1.0
  O  O94  1  0.36868000  0.48299000  0.37360000  1.0
  O  O95  1  0.63133000  0.51701000  0.62639000  1.0
  O  O96  1  0.33820000  0.90224000  0.51585000  1.0
  O  O97  1  0.66181000  0.09777000  0.48415000  1.0
  O  O98  1  0.77723000  0.20273000  0.16569000  1.0
  O  O99  1  0.22282000  0.79733000  0.83434000  1.0
  O  O100  1  0.17242000  0.67162000  0.33730000  1.0
  O  O101  1  0.82760000  0.32846000  0.66266000  1.0
  O  O102  1  0.98821000  0.81421000  0.34237000  1.0
  O  O103  1  0.01174000  0.18573000  0.65761000  1.0
  O  O104  1  0.07013000  0.92540000  0.22135000  1.0
  O  O105  1  0.92966000  0.07463000  0.77860000  1.0
  O  O106  1  0.65811000  0.82389000  0.38119000  1.0
  O  O107  1  0.34189000  0.17608000  0.61881000  1.0
  O  O108  1  0.68182000  0.93702000  0.24042000  1.0
  O  O109  1  0.31813000  0.06300000  0.75961000  1.0
  O  O110  1  0.11856000  0.36932000  0.22749000  1.0
  O  O111  1  0.88147000  0.63067000  0.77250000  1.0
