# generated using pymatgen
data_Ho2Cu3H30C24(NO4)6
_symmetry_space_group_name_H-M   'P 1'
_cell_length_a   13.38495000
_cell_length_b   13.38500000
_cell_length_c   14.29210000
_cell_angle_alpha   90.00010000
_cell_angle_beta   90.00030000
_cell_angle_gamma   59.99962929
_symmetry_Int_Tables_number   1
_chemical_formula_structural   Ho2Cu3H30C24(NO4)6
_chemical_formula_sum   'Ho4 Cu6 H60 C48 N12 O48'
_cell_volume   2217.48241419
_cell_formula_units_Z   2
loop_
 _symmetry_equiv_pos_site_id
 _symmetry_equiv_pos_as_xyz
  1  'x, y, z'
loop_
 _atom_site_type_symbol
 _atom_site_label
 _atom_site_symmetry_multiplicity
 _atom_site_fract_x
 _atom_site_fract_y
 _atom_site_fract_z
 _atom_site_occupancy
  Ho  Ho0  1  0.66666667  0.66666667  0.83152000  1.0
  Ho  Ho1  1  0.33333333  0.33333333  0.66848000  1.0
  Ho  Ho2  1  0.33333333  0.33333333  0.16848000  1.0
  Ho  Ho3  1  0.66666667  0.66666667  0.33152000  1.0
  Cu  Cu4  1  0.00000000  0.50000000  0.00000000  1.0
  Cu  Cu5  1  0.50000000  0.00000000  0.00000000  1.0
  Cu  Cu6  1  0.50000000  0.50000000  0.00000000  1.0
  Cu  Cu7  1  0.00000000  0.50000000  0.50000000  1.0
  Cu  Cu8  1  0.50000000  0.50000000  0.50000000  1.0
  Cu  Cu9  1  0.50000000  0.00000000  0.50000000  1.0
  H  H10  1  0.03671000  0.32328000  0.08375000  1.0
  H  H11  1  0.86348000  0.30485000  0.02615000  1.0
  H  H12  1  0.97292000  0.28679000  0.94557000  1.0
  H  H13  1  0.91490000  0.39584000  0.20654000  1.0
  H  H14  1  0.79567000  0.46273000  0.13174000  1.0
  H  H15  1  0.64002000  0.03670000  0.08375000  1.0
  H  H16  1  0.83168000  0.86348000  0.02615000  1.0
  H  H17  1  0.74029000  0.97292000  0.94556000  1.0
  H  H18  1  0.68926000  0.91490000  0.20654000  1.0
  H  H19  1  0.74161000  0.79567000  0.13174000  1.0
  H  H20  1  0.32328000  0.64002000  0.08375000  1.0
  H  H21  1  0.30485000  0.83167000  0.02615000  1.0
  H  H22  1  0.28678000  0.74030000  0.94557000  1.0
  H  H23  1  0.39585000  0.68926000  0.20654000  1.0
  H  H24  1  0.46273000  0.74161000  0.13174000  1.0
  H  H25  1  0.96329000  0.35998000  0.41625000  1.0
  H  H26  1  0.13653000  0.16831000  0.47386000  1.0
  H  H27  1  0.02708000  0.25969000  0.55444000  1.0
  H  H28  1  0.08510000  0.31074000  0.29347000  1.0
  H  H29  1  0.20433000  0.25840000  0.36827000  1.0
  H  H30  1  0.35998000  0.67672000  0.41625000  1.0
  H  H31  1  0.16832000  0.69515000  0.47386000  1.0
  H  H32  1  0.25970000  0.71322000  0.55444000  1.0
  H  H33  1  0.31074000  0.60415000  0.29346000  1.0
  H  H34  1  0.25840000  0.53727000  0.36826000  1.0
  H  H35  1  0.67673000  0.96329000  0.41625000  1.0
  H  H36  1  0.69515000  0.13653000  0.47386000  1.0
  H  H37  1  0.71323000  0.02707000  0.55443000  1.0
  H  H38  1  0.60415000  0.08511000  0.29346000  1.0
  H  H39  1  0.53727000  0.20433000  0.36827000  1.0
  H  H40  1  0.96329000  0.67672000  0.91625000  1.0
  H  H41  1  0.13652000  0.69516000  0.97385000  1.0
  H  H42  1  0.02708000  0.71321000  0.05443000  1.0
  H  H43  1  0.08510000  0.60416000  0.79346000  1.0
  H  H44  1  0.20433000  0.53727000  0.86826000  1.0
  H  H45  1  0.35998000  0.96330000  0.91625000  1.0
  H  H46  1  0.16832000  0.13652000  0.97385000  1.0
  H  H47  1  0.25971000  0.02708000  0.05444000  1.0
  H  H48  1  0.31074000  0.08510000  0.79346000  1.0
  H  H49  1  0.25839000  0.20433000  0.86826000  1.0
  H  H50  1  0.67672000  0.35998000  0.91625000  1.0
  H  H51  1  0.69515000  0.16833000  0.97385000  1.0
  H  H52  1  0.71322000  0.25970000  0.05443000  1.0
  H  H53  1  0.60415000  0.31074000  0.79346000  1.0
  H  H54  1  0.53727000  0.25840000  0.86826000  1.0
  H  H55  1  0.03670000  0.64003000  0.58375000  1.0
  H  H56  1  0.86347000  0.83168000  0.52614000  1.0
  H  H57  1  0.97292000  0.74031000  0.44556000  1.0
  H  H58  1  0.91489000  0.68927000  0.70654000  1.0
  H  H59  1  0.79567000  0.74160000  0.63173000  1.0
  H  H60  1  0.64002000  0.32328000  0.58375000  1.0
  H  H61  1  0.83168000  0.30485000  0.52614000  1.0
  H  H62  1  0.74030000  0.28678000  0.44556000  1.0
  H  H63  1  0.68926000  0.39585000  0.70654000  1.0
  H  H64  1  0.74160000  0.46273000  0.63174000  1.0
  H  H65  1  0.32327000  0.03671000  0.58375000  1.0
  H  H66  1  0.30485000  0.86347000  0.52614000  1.0
  H  H67  1  0.28677000  0.97293000  0.44557000  1.0
  H  H68  1  0.39585000  0.91489000  0.70654000  1.0
  H  H69  1  0.46273000  0.79567000  0.63173000  1.0
  C  C70  1  0.81571000  0.44549000  0.93031000  1.0
  C  C71  1  0.90500000  0.34882000  0.99232000  1.0
  C  C72  1  0.88308000  0.44856000  0.14275000  1.0
  C  C73  1  0.87146000  0.56573000  0.16159000  1.0
  C  C74  1  0.73881000  0.81571000  0.93031000  1.0
  C  C75  1  0.74619000  0.90500000  0.99232000  1.0
  C  C76  1  0.66836000  0.88308000  0.14275000  1.0
  C  C77  1  0.56281000  0.87146000  0.16159000  1.0
  C  C78  1  0.44548000  0.73881000  0.93031000  1.0
  C  C79  1  0.34881000  0.74619000  0.99232000  1.0
  C  C80  1  0.44856000  0.66836000  0.14275000  1.0
  C  C81  1  0.56573000  0.56281000  0.16158000  1.0
  C  C82  1  0.18428000  0.26120000  0.56969000  1.0
  C  C83  1  0.09500000  0.25380000  0.50768000  1.0
  C  C84  1  0.11692000  0.33164000  0.35726000  1.0
  C  C85  1  0.12853000  0.43719000  0.33842000  1.0
  C  C86  1  0.26119000  0.55452000  0.56969000  1.0
  C  C87  1  0.25381000  0.65119000  0.50768000  1.0
  C  C88  1  0.33164000  0.55144000  0.35725000  1.0
  C  C89  1  0.43719000  0.43427000  0.33842000  1.0
  C  C90  1  0.55452000  0.18429000  0.56969000  1.0
  C  C91  1  0.65119000  0.09500000  0.50768000  1.0
  C  C92  1  0.55144000  0.11692000  0.35725000  1.0
  C  C93  1  0.43427000  0.12854000  0.33842000  1.0
  C  C94  1  0.18429000  0.55452000  0.06969000  1.0
  C  C95  1  0.09500000  0.65119000  0.00767000  1.0
  C  C96  1  0.11692000  0.55144000  0.85725000  1.0
  C  C97  1  0.12853000  0.43428000  0.83841000  1.0
  C  C98  1  0.26119000  0.18429000  0.06969000  1.0
  C  C99  1  0.25381000  0.09500000  0.00768000  1.0
  C  C100  1  0.33164000  0.11692000  0.85725000  1.0
  C  C101  1  0.43719000  0.12854000  0.83841000  1.0
  C  C102  1  0.55452000  0.26119000  0.06969000  1.0
  C  C103  1  0.65119000  0.25381000  0.00768000  1.0
  C  C104  1  0.55144000  0.33164000  0.85725000  1.0
  C  C105  1  0.43427000  0.43719000  0.83842000  1.0
  C  C106  1  0.81571000  0.73881000  0.43031000  1.0
  C  C107  1  0.90500000  0.74619000  0.49232000  1.0
  C  C108  1  0.88308000  0.66836000  0.64274000  1.0
  C  C109  1  0.87147000  0.56281000  0.66158000  1.0
  C  C110  1  0.73881000  0.44548000  0.43031000  1.0
  C  C111  1  0.74619000  0.34881000  0.49232000  1.0
  C  C112  1  0.66836000  0.44856000  0.64275000  1.0
  C  C113  1  0.56281000  0.56573000  0.66158000  1.0
  C  C114  1  0.44548000  0.81571000  0.43030000  1.0
  C  C115  1  0.34881000  0.90500000  0.49232000  1.0
  C  C116  1  0.44856000  0.88308000  0.64274000  1.0
  C  C117  1  0.56573000  0.87146000  0.66158000  1.0
  N  N118  1  0.95731000  0.38994000  0.06135000  1.0
  N  N119  1  0.65275000  0.95731000  0.06135000  1.0
  N  N120  1  0.38994000  0.65275000  0.06135000  1.0
  N  N121  1  0.04269000  0.34724000  0.43866000  1.0
  N  N122  1  0.34725000  0.61006000  0.43865000  1.0
  N  N123  1  0.61007000  0.04269000  0.43865000  1.0
  N  N124  1  0.04269000  0.61006000  0.93865000  1.0
  N  N125  1  0.34725000  0.04269000  0.93865000  1.0
  N  N126  1  0.61006000  0.34725000  0.93865000  1.0
  N  N127  1  0.95731000  0.65276000  0.56134000  1.0
  N  N128  1  0.65276000  0.38993000  0.56135000  1.0
  N  N129  1  0.38993000  0.95732000  0.56135000  1.0
  O  O130  1  0.80724000  0.54496000  0.93701000  1.0
  O  O131  1  0.75591000  0.42384000  0.87464000  1.0
  O  O132  1  0.81205000  0.62355000  0.23076000  1.0
  O  O133  1  0.92054000  0.60298000  0.10631000  1.0
  O  O134  1  0.64781000  0.80724000  0.93701000  1.0
  O  O135  1  0.82025000  0.75591000  0.87464000  1.0
  O  O136  1  0.56442000  0.81204000  0.23076000  1.0
  O  O137  1  0.47649000  0.92053000  0.10630000  1.0
  O  O138  1  0.54495000  0.64781000  0.93701000  1.0
  O  O139  1  0.42383000  0.82026000  0.87464000  1.0
  O  O140  1  0.62355000  0.56441000  0.23076000  1.0
  O  O141  1  0.60298000  0.47648000  0.10630000  1.0
  O  O142  1  0.19275000  0.35219000  0.56300000  1.0
  O  O143  1  0.24409000  0.17974000  0.62537000  1.0
  O  O144  1  0.18795000  0.43559000  0.26924000  1.0
  O  O145  1  0.07946000  0.52352000  0.39370000  1.0
  O  O146  1  0.35220000  0.45505000  0.56300000  1.0
  O  O147  1  0.17974000  0.57617000  0.62536000  1.0
  O  O148  1  0.43559000  0.37645000  0.26924000  1.0
  O  O149  1  0.52351000  0.39702000  0.39370000  1.0
  O  O150  1  0.45506000  0.19275000  0.56300000  1.0
  O  O151  1  0.57617000  0.24409000  0.62537000  1.0
  O  O152  1  0.37645000  0.18795000  0.26924000  1.0
  O  O153  1  0.39702000  0.07946000  0.39370000  1.0
  O  O154  1  0.19276000  0.45505000  0.06299000  1.0
  O  O155  1  0.24409000  0.57617000  0.12536000  1.0
  O  O156  1  0.18795000  0.37645000  0.76924000  1.0
  O  O157  1  0.07946000  0.39703000  0.89369000  1.0
  O  O158  1  0.35220000  0.19275000  0.06299000  1.0
  O  O159  1  0.17975000  0.24409000  0.12536000  1.0
  O  O160  1  0.43558000  0.18796000  0.76924000  1.0
  O  O161  1  0.52351000  0.07947000  0.89369000  1.0
  O  O162  1  0.45505000  0.35219000  0.06300000  1.0
  O  O163  1  0.57617000  0.17974000  0.12536000  1.0
  O  O164  1  0.37645000  0.43559000  0.76924000  1.0
  O  O165  1  0.39702000  0.52351000  0.89369000  1.0
  O  O166  1  0.80725000  0.64781000  0.43700000  1.0
  O  O167  1  0.75591000  0.82026000  0.37463000  1.0
  O  O168  1  0.81205000  0.56440000  0.73076000  1.0
  O  O169  1  0.92054000  0.47648000  0.60631000  1.0
  O  O170  1  0.64780000  0.54495000  0.43700000  1.0
  O  O171  1  0.82026000  0.42383000  0.37464000  1.0
  O  O172  1  0.56441000  0.62355000  0.73076000  1.0
  O  O173  1  0.47648000  0.60298000  0.60630000  1.0
  O  O174  1  0.54494000  0.80725000  0.43700000  1.0
  O  O175  1  0.42383000  0.75591000  0.37463000  1.0
  O  O176  1  0.62355000  0.81205000  0.73076000  1.0
  O  O177  1  0.60298000  0.92054000  0.60630000  1.0
