# generated using pymatgen
data_CsCu3H24C12S2(IO)4
_symmetry_space_group_name_H-M   'P 1'
_cell_length_a   10.37000000
_cell_length_b   10.37000000
_cell_length_c   13.97890000
_cell_angle_alpha   72.47470000
_cell_angle_beta   72.47440000
_cell_angle_gamma   70.00160000
_symmetry_Int_Tables_number   1
_chemical_formula_structural   CsCu3H24C12S2(IO)4
_chemical_formula_sum   'Cs2 Cu6 H48 C24 S4 I8 O8'
_cell_volume   1313.69184037
_cell_formula_units_Z   2
loop_
 _symmetry_equiv_pos_site_id
 _symmetry_equiv_pos_as_xyz
  1  'x, y, z'
loop_
 _atom_site_type_symbol
 _atom_site_label
 _atom_site_symmetry_multiplicity
 _atom_site_fract_x
 _atom_site_fract_y
 _atom_site_fract_z
 _atom_site_occupancy
  Cs  Cs0  1  0.23403000  0.23403000  0.78340000  1.0
  Cs  Cs1  1  0.76597000  0.76597000  0.21660000  1.0
  Cu  Cu2  1  0.37527000  0.62473000  0.50000000  1.0
  Cu  Cu3  1  0.62473000  0.37527000  0.50000000  1.0
  Cu  Cu4  1  0.36165000  0.64426000  0.69648000  1.0
  Cu  Cu5  1  0.35574000  0.63835000  0.30352000  1.0
  Cu  Cu6  1  0.63835000  0.35574000  0.30352000  1.0
  Cu  Cu7  1  0.64426000  0.36165000  0.69648000  1.0
  H  H8  1  0.09073000  0.27564000  0.47898000  1.0
  H  H9  1  0.72437000  0.90927000  0.52102000  1.0
  H  H10  1  0.90927000  0.72437000  0.52102000  1.0
  H  H11  1  0.27564000  0.09073000  0.47898000  1.0
  H  H12  1  0.97168000  0.18169000  0.56622000  1.0
  H  H13  1  0.81830000  0.02833000  0.43378000  1.0
  H  H14  1  0.02833000  0.81830000  0.43379000  1.0
  H  H15  1  0.18169000  0.97168000  0.56622000  1.0
  H  H16  1  0.04282000  0.42050000  0.61038000  1.0
  H  H17  1  0.57950000  0.95718000  0.38962000  1.0
  H  H18  1  0.95718000  0.57950000  0.38962000  1.0
  H  H19  1  0.42050000  0.04282000  0.61038000  1.0
  H  H20  1  0.90046000  0.44672000  0.55359000  1.0
  H  H21  1  0.55328000  0.09954000  0.44641000  1.0
  H  H22  1  0.09954000  0.55328000  0.44641000  1.0
  H  H23  1  0.44672000  0.90046000  0.55358000  1.0
  H  H24  1  0.73858000  0.56908000  0.75250000  1.0
  H  H25  1  0.43092000  0.26141000  0.24750000  1.0
  H  H26  1  0.26141000  0.43092000  0.24750000  1.0
  H  H27  1  0.56908000  0.73859000  0.75250000  1.0
  H  H28  1  0.92355000  0.52747000  0.74075000  1.0
  H  H29  1  0.47253000  0.07645000  0.25925000  1.0
  H  H30  1  0.07645000  0.47253000  0.25925000  1.0
  H  H31  1  0.52746000  0.92355000  0.74075000  1.0
  H  H32  1  0.73006000  0.39466000  0.93017000  1.0
  H  H33  1  0.60535000  0.26994000  0.06983000  1.0
  H  H34  1  0.26994000  0.60534000  0.06983000  1.0
  H  H35  1  0.39465000  0.73006000  0.93017000  1.0
  H  H36  1  0.76490000  0.55451000  0.92012000  1.0
  H  H37  1  0.44550000  0.23510000  0.07988000  1.0
  H  H38  1  0.23510000  0.44549000  0.07988000  1.0
  H  H39  1  0.55450000  0.76489000  0.92012000  1.0
  H  H40  1  0.85875000  0.40807000  0.07205000  1.0
  H  H41  1  0.59193000  0.14125000  0.92795000  1.0
  H  H42  1  0.14125000  0.59193000  0.92795000  1.0
  H  H43  1  0.40807000  0.85875000  0.07205000  1.0
  H  H44  1  0.86373000  0.24302000  0.05392000  1.0
  H  H45  1  0.75699000  0.13627000  0.94608000  1.0
  H  H46  1  0.13627000  0.75698000  0.94608000  1.0
  H  H47  1  0.24302000  0.86373000  0.05392000  1.0
  H  H48  1  0.12414000  0.33789000  0.02904000  1.0
  H  H49  1  0.66212000  0.87586000  0.97096000  1.0
  H  H50  1  0.87586000  0.66212000  0.97096000  1.0
  H  H51  1  0.33788000  0.12414000  0.02904000  1.0
  H  H52  1  0.04273000  0.23544000  0.14449000  1.0
  H  H53  1  0.76456000  0.95727000  0.85551000  1.0
  H  H54  1  0.95727000  0.76456000  0.85551000  1.0
  H  H55  1  0.23544000  0.04273000  0.14449000  1.0
  C  C56  1  0.04447000  0.24124000  0.56153000  1.0
  C  C57  1  0.75876000  0.95553000  0.43847000  1.0
  C  C58  1  0.95553000  0.75876000  0.43847000  1.0
  C  C59  1  0.24124000  0.04447000  0.56153000  1.0
  C  C60  1  0.96764000  0.37092000  0.60495000  1.0
  C  C61  1  0.62908000  0.03236000  0.39505000  1.0
  C  C62  1  0.03236000  0.62908000  0.39505000  1.0
  C  C63  1  0.37092000  0.96764000  0.60495000  1.0
  C  C64  1  0.83024000  0.48815000  0.77717000  1.0
  C  C65  1  0.51185000  0.16976000  0.22283000  1.0
  C  C66  1  0.16976000  0.51185000  0.22283000  1.0
  C  C67  1  0.48815000  0.83024000  0.77717000  1.0
  C  C68  1  0.80831000  0.45522000  0.89292000  1.0
  C  C69  1  0.54478000  0.19169000  0.10708000  1.0
  C  C70  1  0.19168000  0.54478000  0.10708000  1.0
  C  C71  1  0.45522000  0.80831000  0.89292000  1.0
  C  C72  1  0.92126000  0.32375000  0.03022000  1.0
  C  C73  1  0.67625000  0.07874000  0.96978000  1.0
  C  C74  1  0.07874000  0.67625000  0.96978000  1.0
  C  C75  1  0.32375000  0.92126000  0.03022000  1.0
  C  C76  1  0.06165000  0.26067000  0.05961000  1.0
  C  C77  1  0.73934000  0.93835000  0.94039000  1.0
  C  C78  1  0.93835000  0.73933000  0.94039000  1.0
  C  C79  1  0.26067000  0.06165000  0.05961000  1.0
  S  S80  1  0.85632000  0.33131000  0.73227000  1.0
  S  S81  1  0.66869000  0.14368000  0.26773000  1.0
  S  S82  1  0.14368000  0.66869000  0.26772000  1.0
  S  S83  1  0.33131000  0.85632000  0.73228000  1.0
  I  I84  1  0.43952000  0.43951000  0.84967000  1.0
  I  I85  1  0.56048000  0.56048000  0.15033000  1.0
  I  I86  1  0.61051000  0.61051000  0.55069000  1.0
  I  I87  1  0.38950000  0.38950000  0.44931000  1.0
  I  I88  1  0.14178000  0.65127000  0.64612000  1.0
  I  I89  1  0.34873000  0.85822000  0.35388000  1.0
  I  I90  1  0.85822000  0.34873000  0.35388000  1.0
  I  I91  1  0.65127000  0.14178000  0.64612000  1.0
  O  O92  1  0.15428000  0.15428000  0.61363000  1.0
  O  O93  1  0.84572000  0.84572000  0.38637000  1.0
  O  O94  1  0.93979000  0.37893000  0.92130000  1.0
  O  O95  1  0.62107000  0.06022000  0.07870000  1.0
  O  O96  1  0.06021000  0.62107000  0.07870000  1.0
  O  O97  1  0.37893000  0.93978000  0.92130000  1.0
  O  O98  1  0.13604000  0.13604000  0.02095000  1.0
  O  O99  1  0.86396000  0.86396000  0.97905000  1.0
