# generated using pymatgen
data_NdH12C4N3O13
_symmetry_space_group_name_H-M   'P 1'
_cell_length_a   7.62102000
_cell_length_b   8.94785000
_cell_length_c   12.57193672
_cell_angle_alpha   69.15664469
_cell_angle_beta   86.48298551
_cell_angle_gamma   80.13940000
_symmetry_Int_Tables_number   1
_chemical_formula_structural   NdH12C4N3O13
_chemical_formula_sum   'Nd2 H24 C8 N6 O26'
_cell_volume   789.36168572
_cell_formula_units_Z   2
loop_
 _symmetry_equiv_pos_site_id
 _symmetry_equiv_pos_as_xyz
  1  'x, y, z'
loop_
 _atom_site_type_symbol
 _atom_site_label
 _atom_site_symmetry_multiplicity
 _atom_site_fract_x
 _atom_site_fract_y
 _atom_site_fract_z
 _atom_site_occupancy
  Nd  Nd0  1  0.74994000  0.13370000  0.73280000  1.0
  Nd  Nd1  1  0.25006000  0.86629000  0.26721000  1.0
  H  H2  1  0.12457000  0.18646000  0.45153000  1.0
  H  H3  1  0.37612000  0.36151000  0.45146000  1.0
  H  H4  1  0.87542000  0.81356000  0.54847000  1.0
  H  H5  1  0.62386000  0.63846000  0.54854000  1.0
  H  H6  1  0.16177000  0.11249000  0.60315000  1.0
  H  H7  1  0.33857000  0.28412000  0.60304000  1.0
  H  H8  1  0.83820000  0.88754000  0.39684000  1.0
  H  H9  1  0.66142000  0.71587000  0.39696000  1.0
  H  H10  1  0.84359000  0.16770000  0.38441000  1.0
  H  H11  1  0.65715000  0.44821000  0.38452000  1.0
  H  H12  1  0.15642000  0.83232000  0.61559000  1.0
  H  H13  1  0.34283000  0.55178000  0.61547000  1.0
  H  H14  1  0.68170000  0.08405000  0.48727000  1.0
  H  H15  1  0.81837000  0.42927000  0.48764000  1.0
  H  H16  1  0.31829000  0.91596000  0.51274000  1.0
  H  H17  1  0.18161000  0.57072000  0.51235000  1.0
  H  H18  1  0.11941000  0.96244000  0.84333000  1.0
  H  H19  1  0.38042000  0.19439000  0.84332000  1.0
  H  H20  1  0.88060000  0.03757000  0.15667000  1.0
  H  H21  1  0.61959000  0.80563000  0.15668000  1.0
  H  H22  1  0.02501000  0.82308000  0.83063000  1.0
  H  H23  1  0.47460000  0.34649000  0.83082000  1.0
  H  H24  1  0.97500000  0.17692000  0.16938000  1.0
  H  H25  1  0.52541000  0.65352000  0.16918000  1.0
  C  C26  1  0.10131000  0.09267000  0.53374000  1.0
  C  C27  1  0.39903000  0.37335000  0.53361000  1.0
  C  C28  1  0.89869000  0.90733000  0.46626000  1.0
  C  C29  1  0.60096000  0.62661000  0.46639000  1.0
  C  C30  1  0.82440000  0.07455000  0.46746000  1.0
  C  C31  1  0.67577000  0.45828000  0.46766000  1.0
  C  C32  1  0.17559000  0.92546000  0.53253000  1.0
  C  C33  1  0.32422000  0.54169000  0.53234000  1.0
  N  N34  1  0.92995000  0.41385000  0.71462000  1.0
  N  N35  1  0.57002000  0.87178000  0.71462000  1.0
  N  N36  1  0.07006000  0.58616000  0.28537000  1.0
  N  N37  1  0.42999000  0.12821000  0.28539000  1.0
  N  N38  1  0.75004000  0.00575000  0.98892000  1.0
  N  N39  1  0.24997000  0.99425000  0.01108000  1.0
  O  O40  1  0.76308000  0.41726000  0.73599000  1.0
  O  O41  1  0.73681000  0.84674000  0.73619000  1.0
  O  O42  1  0.23692000  0.58274000  0.26400000  1.0
  O  O43  1  0.26321000  0.15326000  0.26381000  1.0
  O  O44  1  0.00987000  0.28887000  0.69107000  1.0
  O  O45  1  0.49032000  0.02036000  0.69109000  1.0
  O  O46  1  0.99014000  0.71113000  0.30893000  1.0
  O  O47  1  0.50969000  0.97964000  0.30893000  1.0
  O  O48  1  0.01068000  0.52169000  0.71492000  1.0
  O  O49  1  0.48909000  0.76386000  0.71472000  1.0
  O  O50  1  0.98931000  0.47831000  0.28507000  1.0
  O  O51  1  0.51092000  0.23613000  0.28529000  1.0
  O  O52  1  0.82267000  0.12847000  0.93419000  1.0
  O  O53  1  0.67722000  0.93788000  0.93422000  1.0
  O  O54  1  0.17733000  0.87155000  0.06580000  1.0
  O  O55  1  0.32278000  0.06211000  0.06579000  1.0
  O  O56  1  0.75017000  0.95175000  0.09653000  1.0
  O  O57  1  0.24984000  0.04826000  0.90347000  1.0
  O  O58  1  0.91094000  0.10777000  0.55420000  1.0
  O  O59  1  0.58924000  0.33821000  0.55426000  1.0
  O  O60  1  0.08905000  0.89221000  0.44581000  1.0
  O  O61  1  0.41074000  0.66177000  0.44574000  1.0
  O  O62  1  0.02850000  0.93874000  0.80059000  1.0
  O  O63  1  0.47132000  0.26095000  0.80066000  1.0
  O  O64  1  0.97151000  0.06127000  0.19941000  1.0
  O  O65  1  0.52869000  0.73906000  0.19933000  1.0
