# generated using pymatgen
data_Zn5H40C36N2O19
_symmetry_space_group_name_H-M   'P 1'
_cell_length_a   13.64510000
_cell_length_b   14.24730000
_cell_length_c   14.63790000
_cell_angle_alpha   76.11680000
_cell_angle_beta   86.46070000
_cell_angle_gamma   68.05820000
_symmetry_Int_Tables_number   1
_chemical_formula_structural   Zn5H40C36N2O19
_chemical_formula_sum   'Zn10 H80 C72 N4 O38'
_cell_volume   2561.21986509
_cell_formula_units_Z   2
loop_
 _symmetry_equiv_pos_site_id
 _symmetry_equiv_pos_as_xyz
  1  'x, y, z'
loop_
 _atom_site_type_symbol
 _atom_site_label
 _atom_site_symmetry_multiplicity
 _atom_site_fract_x
 _atom_site_fract_y
 _atom_site_fract_z
 _atom_site_occupancy
  Zn  Zn0  1  0.66688000  0.14267000  0.22900000  1.0
  Zn  Zn1  1  0.01427000  0.37237000  0.13994000  1.0
  Zn  Zn2  1  0.84754000  0.24302000  0.22521000  1.0
  Zn  Zn3  1  0.26284000  0.23462000  0.10846000  1.0
  Zn  Zn4  1  0.51260000  0.05177000  0.12519000  1.0
  Zn  Zn5  1  0.33312000  0.85733000  0.77100000  1.0
  Zn  Zn6  1  0.98573000  0.62763000  0.86006000  1.0
  Zn  Zn7  1  0.15246000  0.75698000  0.77479000  1.0
  Zn  Zn8  1  0.73716000  0.76538000  0.89154000  1.0
  Zn  Zn9  1  0.48739000  0.94823000  0.87481000  1.0
  H  H10  1  0.87325000  0.55722000  0.01353000  1.0
  H  H11  1  0.63561000  0.92832000  0.00424000  1.0
  H  H12  1  0.43352000  0.20743000  0.21626000  1.0
  H  H13  1  0.32445000  0.23475000  0.26876000  1.0
  H  H14  1  0.66589000  0.53561000  0.07217000  1.0
  H  H15  1  0.74280000  0.95613000  0.50868000  1.0
  H  H16  1  0.12712000  0.54391000  0.08379000  1.0
  H  H17  1  0.25484000  0.45133000  0.12551000  1.0
  H  H18  1  0.17927000  0.06397000  0.94101000  1.0
  H  H19  1  0.35509000  0.93001000  0.10212000  1.0
  H  H20  1  0.25036000  0.01238000  0.15899000  1.0
  H  H21  1  0.93246000  0.91467000  0.74855000  1.0
  H  H22  1  0.18778000  0.38236000  0.27306000  1.0
  H  H23  1  0.14665000  0.51985000  0.25650000  1.0
  H  H24  1  0.72277000  0.84074000  0.18896000  1.0
  H  H25  1  0.70026000  0.77806000  0.10519000  1.0
  H  H26  1  0.92126000  0.30399000  0.39180000  1.0
  H  H27  1  0.84094000  0.42244000  0.31642000  1.0
  H  H28  1  0.44897000  0.06477000  0.34642000  1.0
  H  H29  1  0.58210000  0.02821000  0.38477000  1.0
  H  H30  1  0.79184000  0.17545000  0.88352000  1.0
  H  H31  1  0.53452000  0.87297000  0.38340000  1.0
  H  H32  1  0.64453000  0.88064000  0.31441000  1.0
  H  H33  1  0.86168000  0.27046000  0.97064000  1.0
  H  H34  1  0.91912000  0.15362000  0.49855000  1.0
  H  H35  1  0.34374000  0.75087000  0.03257000  1.0
  H  H36  1  0.99021000  0.05842000  0.66257000  1.0
  H  H37  1  0.91707000  0.01900000  0.83428000  1.0
  H  H38  1  0.36337000  0.98818000  0.28968000  1.0
  H  H39  1  0.38134000  0.86295000  0.27452000  1.0
  H  H40  1  0.41525000  0.42826000  0.17669000  1.0
  H  H41  1  0.51624000  0.81722000  0.14653000  1.0
  H  H42  1  0.59597000  0.75236000  0.25129000  1.0
  H  H43  1  0.80021000  0.54285000  0.19712000  1.0
  H  H44  1  0.81029000  0.65375000  0.11587000  1.0
  H  H45  1  0.91835000  0.60375000  0.26785000  1.0
  H  H46  1  0.98768000  0.61472000  0.16137000  1.0
  H  H47  1  0.98388000  0.45194000  0.38372000  1.0
  H  H48  1  0.08026000  0.33756000  0.35666000  1.0
  H  H49  1  0.28233000  0.60890000  0.11859000  1.0
  H  H50  1  0.12675000  0.44278000  0.98647000  1.0
  H  H51  1  0.36439000  0.07168000  0.99576000  1.0
  H  H52  1  0.56648000  0.79257000  0.78374000  1.0
  H  H53  1  0.67555000  0.76525000  0.73124000  1.0
  H  H54  1  0.33411000  0.46439000  0.92783000  1.0
  H  H55  1  0.25720000  0.04387000  0.49132000  1.0
  H  H56  1  0.87288000  0.45609000  0.91621000  1.0
  H  H57  1  0.74516000  0.54867000  0.87449000  1.0
  H  H58  1  0.82073000  0.93603000  0.05899000  1.0
  H  H59  1  0.64491000  0.06999000  0.89788000  1.0
  H  H60  1  0.74964000  0.98762000  0.84101000  1.0
  H  H61  1  0.06754000  0.08533000  0.25145000  1.0
  H  H62  1  0.81222000  0.61764000  0.72694000  1.0
  H  H63  1  0.85335000  0.48016000  0.74351000  1.0
  H  H64  1  0.27723000  0.15926000  0.81104000  1.0
  H  H65  1  0.29974000  0.22194000  0.89481000  1.0
  H  H66  1  0.07874000  0.69601000  0.60820000  1.0
  H  H67  1  0.15906000  0.57756000  0.68358000  1.0
  H  H68  1  0.55103000  0.93523000  0.65358000  1.0
  H  H69  1  0.41790000  0.97179000  0.61523000  1.0
  H  H70  1  0.20816000  0.82455000  0.11648000  1.0
  H  H71  1  0.46548000  0.12703000  0.61660000  1.0
  H  H72  1  0.35547000  0.11936000  0.68559000  1.0
  H  H73  1  0.13832000  0.72954000  0.02936000  1.0
  H  H74  1  0.08088000  0.84638000  0.50145000  1.0
  H  H75  1  0.65626000  0.24913000  0.96743000  1.0
  H  H76  1  0.00979000  0.94158000  0.33743000  1.0
  H  H77  1  0.08293000  0.98100000  0.16572000  1.0
  H  H78  1  0.63663000  0.01182000  0.71032000  1.0
  H  H79  1  0.61866000  0.13705000  0.72548000  1.0
  H  H80  1  0.58475000  0.57174000  0.82331000  1.0
  H  H81  1  0.48376000  0.18278000  0.85347000  1.0
  H  H82  1  0.40403000  0.24764000  0.74871000  1.0
  H  H83  1  0.19979000  0.45715000  0.80288000  1.0
  H  H84  1  0.18971000  0.34625000  0.88413000  1.0
  H  H85  1  0.08165000  0.39625000  0.73215000  1.0
  H  H86  1  0.01232000  0.38528000  0.83863000  1.0
  H  H87  1  0.01612000  0.54806000  0.61628000  1.0
  H  H88  1  0.91974000  0.66245000  0.64334000  1.0
  H  H89  1  0.71767000  0.39109000  0.88141000  1.0
  C  C90  1  0.13036000  0.93895000  0.85273000  1.0
  C  C91  1  0.06357000  0.22992000  0.01447000  1.0
  C  C92  1  0.58198000  0.55180000  0.08280000  1.0
  C  C93  1  0.79613000  0.97942000  0.54236000  1.0
  C  C94  1  0.62733000  0.36405000  0.16139000  1.0
  C  C95  1  0.17002000  0.46510000  0.12753000  1.0
  C  C96  1  0.09446000  0.08840000  0.92856000  1.0
  C  C97  1  0.33579000  0.98691000  0.14663000  1.0
  C  C98  1  0.90314000  0.95703000  0.67727000  1.0
  C  C99  1  0.83322000  0.92812000  0.63468000  1.0
  C  C100  1  0.13652000  0.45745000  0.22991000  1.0
  C  C101  1  0.66316000  0.84088000  0.14130000  1.0
  C  C102  1  0.92023000  0.35965000  0.32447000  1.0
  C  C103  1  0.53226000  0.02984000  0.32763000  1.0
  C  C104  1  0.05569000  0.03213000  0.88383000  1.0
  C  C105  1  0.87655000  0.15111000  0.89649000  1.0
  C  C106  1  0.55851000  0.91803000  0.31951000  1.0
  C  C107  1  0.91494000  0.20498000  0.94366000  1.0
  C  C108  1  0.82650000  0.06128000  0.49401000  1.0
  C  C109  1  0.50804000  0.65225000  0.04923000  1.0
  C  C110  1  0.79409000  0.84676000  0.69079000  1.0
  C  C111  1  0.02409000  0.17370000  0.95995000  1.0
  C  C112  1  0.54807000  0.47159000  0.12819000  1.0
  C  C113  1  0.89545000  0.09060000  0.53783000  1.0
  C  C114  1  0.39997000  0.67248000  0.06179000  1.0
  C  C115  1  0.93465000  0.03757000  0.62898000  1.0
  C  C116  1  0.94651000  0.06375000  0.86821000  1.0
  C  C117  1  0.39491000  0.93552000  0.24218000  1.0
  C  C118  1  0.43994000  0.49223000  0.14158000  1.0
  C  C119  1  0.56912000  0.82511000  0.19529000  1.0
  C  C120  1  0.85430000  0.57253000  0.15104000  1.0
  C  C121  1  0.94761000  0.56797000  0.20732000  1.0
  C  C122  1  0.78849000  0.11536000  0.39512000  1.0
  C  C123  1  0.54446000  0.73700000  0.99786000  1.0
  C  C124  1  0.00608000  0.40312000  0.33155000  1.0
  C  C125  1  0.36640000  0.59286000  0.10881000  1.0
  C  C126  1  0.86964000  0.06105000  0.14727000  1.0
  C  C127  1  0.93643000  0.77008000  0.98553000  1.0
  C  C128  1  0.41802000  0.44820000  0.91720000  1.0
  C  C129  1  0.20387000  0.02058000  0.45764000  1.0
  C  C130  1  0.37267000  0.63595000  0.83861000  1.0
  C  C131  1  0.82998000  0.53490000  0.87247000  1.0
  C  C132  1  0.90554000  0.91160000  0.07144000  1.0
  C  C133  1  0.66421000  0.01309000  0.85337000  1.0
  C  C134  1  0.09686000  0.04297000  0.32273000  1.0
  C  C135  1  0.16678000  0.07188000  0.36532000  1.0
  C  C136  1  0.86348000  0.54255000  0.77009000  1.0
  C  C137  1  0.33683000  0.15912000  0.85870000  1.0
  C  C138  1  0.07977000  0.64035000  0.67553000  1.0
  C  C139  1  0.46774000  0.97016000  0.67237000  1.0
  C  C140  1  0.94431000  0.96787000  0.11617000  1.0
  C  C141  1  0.12345000  0.84889000  0.10351000  1.0
  C  C142  1  0.44149000  0.08197000  0.68049000  1.0
  C  C143  1  0.08506000  0.79502000  0.05634000  1.0
  C  C144  1  0.17350000  0.93872000  0.50599000  1.0
  C  C145  1  0.49196000  0.34775000  0.95077000  1.0
  C  C146  1  0.20591000  0.15324000  0.30921000  1.0
  C  C147  1  0.97591000  0.82630000  0.04005000  1.0
  C  C148  1  0.45193000  0.52841000  0.87181000  1.0
  C  C149  1  0.10455000  0.90940000  0.46217000  1.0
  C  C150  1  0.60003000  0.32752000  0.93821000  1.0
  C  C151  1  0.06535000  0.96243000  0.37102000  1.0
  C  C152  1  0.05349000  0.93625000  0.13179000  1.0
  C  C153  1  0.60509000  0.06448000  0.75782000  1.0
  C  C154  1  0.56006000  0.50777000  0.85842000  1.0
  C  C155  1  0.43088000  0.17489000  0.80471000  1.0
  C  C156  1  0.14570000  0.42747000  0.84896000  1.0
  C  C157  1  0.05239000  0.43203000  0.79268000  1.0
  C  C158  1  0.21151000  0.88464000  0.60488000  1.0
  C  C159  1  0.45554000  0.26300000  0.00214000  1.0
  C  C160  1  0.99392000  0.59688000  0.66845000  1.0
  C  C161  1  0.63360000  0.40714000  0.89119000  1.0
  N  N162  1  0.50875000  0.91613000  0.23371000  1.0
  N  N163  1  0.02664000  0.46136000  0.23945000  1.0
  N  N164  1  0.49125000  0.08388000  0.76629000  1.0
  N  N165  1  0.97336000  0.53864000  0.76055000  1.0
  O  O166  1  0.81832000  0.81783000  0.77920000  1.0
  O  O167  1  0.36140000  0.07426000  0.09781000  1.0
  O  O168  1  0.64321000  0.71651000  0.99476000  1.0
  O  O169  1  0.15056000  0.39051000  0.08852000  1.0
  O  O170  1  0.73783000  0.81520000  0.64915000  1.0
  O  O171  1  0.89129000  0.51245000  0.08235000  1.0
  O  O172  1  0.94032000  0.30982000  0.24857000  1.0
  O  O173  1  0.99196000  0.29148000  0.05619000  1.0
  O  O174  1  0.47126000  0.82458000  0.96230000  1.0
  O  O175  1  0.08946000  0.88582000  0.82023000  1.0
  O  O176  1  0.59155000  0.29326000  0.19966000  1.0
  O  O177  1  0.16141000  0.21343000  0.01473000  1.0
  O  O178  1  0.62940000  0.93843000  0.07320000  1.0
  O  O179  1  0.54977000  0.09247000  0.24058000  1.0
  O  O180  1  0.80743000  0.19708000  0.35795000  1.0
  O  O181  1  0.72460000  0.35063000  0.14925000  1.0
  O  O182  1  0.22916000  0.91972000  0.85982000  1.0
  O  O183  1  0.73967000  0.07516000  0.35370000  1.0
  O  O184  1  0.35876000  0.25693000  0.20823000  1.0
  O  O185  1  0.18168000  0.18217000  0.22080000  1.0
  O  O186  1  0.63860000  0.92574000  0.90219000  1.0
  O  O187  1  0.35679000  0.28349000  0.00524000  1.0
  O  O188  1  0.84944000  0.60949000  0.91148000  1.0
  O  O189  1  0.26217000  0.18480000  0.35085000  1.0
  O  O190  1  0.10871000  0.48755000  0.91765000  1.0
  O  O191  1  0.05968000  0.69018000  0.75143000  1.0
  O  O192  1  0.00804000  0.70852000  0.94381000  1.0
  O  O193  1  0.52874000  0.17542000  0.03770000  1.0
  O  O194  1  0.91053000  0.11418000  0.17977000  1.0
  O  O195  1  0.40845000  0.70674000  0.80034000  1.0
  O  O196  1  0.83859000  0.78657000  0.98526000  1.0
  O  O197  1  0.37060000  0.06157000  0.92680000  1.0
  O  O198  1  0.45023000  0.90753000  0.75942000  1.0
  O  O199  1  0.19257000  0.80291000  0.64205000  1.0
  O  O200  1  0.27540000  0.64937000  0.85075000  1.0
  O  O201  1  0.77084000  0.08028000  0.14018000  1.0
  O  O202  1  0.26033000  0.92483000  0.64630000  1.0
  O  O203  1  0.64124000  0.74307000  0.79177000  1.0
