# generated using pymatgen
data_Sm2H16C12S3O14
_symmetry_space_group_name_H-M   'P 1'
_cell_length_a   8.00214000
_cell_length_b   10.57820000
_cell_length_c   14.33940000
_cell_angle_alpha   71.40870000
_cell_angle_beta   75.74370000
_cell_angle_gamma   77.11760000
_symmetry_Int_Tables_number   1
_chemical_formula_structural   Sm2H16C12S3O14
_chemical_formula_sum   'Sm4 H32 C24 S6 O28'
_cell_volume   1101.16539845
_cell_formula_units_Z   2
loop_
 _symmetry_equiv_pos_site_id
 _symmetry_equiv_pos_as_xyz
  1  'x, y, z'
loop_
 _atom_site_type_symbol
 _atom_site_label
 _atom_site_symmetry_multiplicity
 _atom_site_fract_x
 _atom_site_fract_y
 _atom_site_fract_z
 _atom_site_occupancy
  Sm  Sm0  1  0.59041000  0.59233000  0.35839000  1.0
  Sm  Sm1  1  0.40959000  0.40767000  0.64162000  1.0
  Sm  Sm2  1  0.00666000  0.80238000  0.09716000  1.0
  Sm  Sm3  1  0.99334000  0.19762000  0.90285000  1.0
  H  H4  1  0.93197000  0.32650000  0.24496000  1.0
  H  H5  1  0.06802000  0.67350000  0.75505000  1.0
  H  H6  1  0.91247000  0.36069000  0.11744000  1.0
  H  H7  1  0.08753000  0.63931000  0.88257000  1.0
  H  H8  1  0.65416000  0.56525000  0.06539000  1.0
  H  H9  1  0.34584000  0.43476000  0.93461000  1.0
  H  H10  1  0.48443000  0.46921000  0.08993000  1.0
  H  H11  1  0.51557000  0.53080000  0.91007000  1.0
  H  H12  1  0.94570000  0.54819000  0.60684000  1.0
  H  H13  1  0.05429000  0.45181000  0.39316000  1.0
  H  H14  1  0.73127000  0.58536000  0.67527000  1.0
  H  H15  1  0.26873000  0.41464000  0.32473000  1.0
  H  H16  1  0.00905000  0.84128000  0.42781000  1.0
  H  H17  1  0.99095000  0.15871000  0.57219000  1.0
  H  H18  1  0.08737000  0.90146000  0.50817000  1.0
  H  H19  1  0.91263000  0.09854000  0.49183000  1.0
  H  H20  1  0.58473000  0.12913000  0.27550000  1.0
  H  H21  1  0.41528000  0.87087000  0.72450000  1.0
  H  H22  1  0.41337000  0.02861000  0.32677000  1.0
  H  H23  1  0.58663000  0.97139000  0.67323000  1.0
  H  H24  1  0.43277000  0.95403000  0.11472000  1.0
  H  H25  1  0.56723000  0.04596000  0.88528000  1.0
  H  H26  1  0.24402000  0.98310000  0.20460000  1.0
  H  H27  1  0.75598000  0.01691000  0.79540000  1.0
  H  H28  1  0.18747000  0.73091000  0.27140000  1.0
  H  H29  1  0.81253000  0.26909000  0.72860000  1.0
  H  H30  1  0.98621000  0.72748000  0.32582000  1.0
  H  H31  1  0.01379000  0.27252000  0.67417000  1.0
  H  H32  1  0.19300000  0.89376000  0.88803000  1.0
  H  H33  1  0.80700000  0.10624000  0.11197000  1.0
  H  H34  1  0.29089000  0.75871000  0.94791000  1.0
  H  H35  1  0.70911000  0.24129000  0.05209000  1.0
  C  C36  1  0.92247000  0.53369000  0.16331000  1.0
  C  C37  1  0.07754000  0.46631000  0.83668000  1.0
  C  C38  1  0.86891000  0.39798000  0.18385000  1.0
  C  C39  1  0.13109000  0.60202000  0.81615000  1.0
  C  C40  1  0.41487000  0.63557000  0.15348000  1.0
  C  C41  1  0.58513000  0.36443000  0.84652000  1.0
  C  C42  1  0.54841000  0.52087000  0.12342000  1.0
  C  C43  1  0.45159000  0.47914000  0.87658000  1.0
  C  C44  1  0.74496000  0.61666000  0.51857000  1.0
  C  C45  1  0.25504000  0.38334000  0.48143000  1.0
  C  C46  1  0.82160000  0.61826000  0.60445000  1.0
  C  C47  1  0.17840000  0.38174000  0.39555000  1.0
  C  C48  1  0.20319000  0.70105000  0.50522000  1.0
  C  C49  1  0.79680000  0.29895000  0.49479000  1.0
  C  C50  1  0.04486000  0.81301000  0.50162000  1.0
  C  C51  1  0.95513000  0.18698000  0.49838000  1.0
  C  C52  1  0.63975000  0.93676000  0.24174000  1.0
  C  C53  1  0.36025000  0.06325000  0.75826000  1.0
  C  C54  1  0.51461000  0.06088000  0.26116000  1.0
  C  C55  1  0.48539000  0.93913000  0.73884000  1.0
  C  C56  1  0.22205000  0.08709000  0.05270000  1.0
  C  C57  1  0.77795000  0.91291000  0.94731000  1.0
  C  C58  1  0.32728000  0.03313000  0.13513000  1.0
  C  C59  1  0.67272000  0.96687000  0.86487000  1.0
  S  S60  1  0.63733000  0.40006000  0.22865000  1.0
  S  S61  1  0.36267000  0.59994000  0.77135000  1.0
  S  S62  1  0.85910000  0.78247000  0.60209000  1.0
  S  S63  1  0.14090000  0.21752000  0.39791000  1.0
  S  S64  1  0.41550000  0.16420000  0.15484000  1.0
  S  S65  1  0.58451000  0.83580000  0.84516000  1.0
  O  O66  1  0.83267000  0.61772000  0.21281000  1.0
  O  O67  1  0.16733000  0.38228000  0.78719000  1.0
  O  O68  1  0.05494000  0.56444000  0.09719000  1.0
  O  O69  1  0.94506000  0.43555000  0.90282000  1.0
  O  O70  1  0.40258000  0.65339000  0.23918000  1.0
  O  O71  1  0.59742000  0.34661000  0.76082000  1.0
  O  O72  1  0.31916000  0.70699000  0.09195000  1.0
  O  O73  1  0.68084000  0.29301000  0.90805000  1.0
  O  O74  1  0.82681000  0.64953000  0.42875000  1.0
  O  O75  1  0.17319000  0.35047000  0.57125000  1.0
  O  O76  1  0.59567000  0.57741000  0.53817000  1.0
  O  O77  1  0.40433000  0.42259000  0.46183000  1.0
  O  O78  1  0.30955000  0.70816000  0.42301000  1.0
  O  O79  1  0.69045000  0.29184000  0.57699000  1.0
  O  O80  1  0.21707000  0.61148000  0.58782000  1.0
  O  O81  1  0.78292000  0.38852000  0.41218000  1.0
  O  O82  1  0.77397000  0.95272000  0.17103000  1.0
  O  O83  1  0.22602000  0.04728000  0.82896000  1.0
  O  O84  1  0.60289000  0.82376000  0.29625000  1.0
  O  O85  1  0.39711000  0.17623000  0.70376000  1.0
  O  O86  1  0.12600000  0.00872000  0.04607000  1.0
  O  O87  1  0.87400000  0.99128000  0.95392000  1.0
  O  O88  1  0.22724000  0.20327000  0.99189000  1.0
  O  O89  1  0.77277000  0.79673000  0.00811000  1.0
  O  O90  1  0.06434000  0.76794000  0.26339000  1.0
  O  O91  1  0.93565000  0.23207000  0.73661000  1.0
  O  O92  1  0.17504000  0.80019000  0.93165000  1.0
  O  O93  1  0.82496000  0.19981000  0.06835000  1.0
