# generated using pymatgen
data_ZnH22C24(NO)4
_symmetry_space_group_name_H-M   'P 1'
_cell_length_a   13.94240000
_cell_length_b   14.15190000
_cell_length_c   14.15190000
_cell_angle_alpha   90.00000000
_cell_angle_beta   90.00000000
_cell_angle_gamma   90.00000000
_symmetry_Int_Tables_number   1
_chemical_formula_structural   ZnH22C24(NO)4
_chemical_formula_sum   'Zn4 H88 C96 N16 O16'
_cell_volume   2792.33191718
_cell_formula_units_Z   4
loop_
 _symmetry_equiv_pos_site_id
 _symmetry_equiv_pos_as_xyz
  1  'x, y, z'
loop_
 _atom_site_type_symbol
 _atom_site_label
 _atom_site_symmetry_multiplicity
 _atom_site_fract_x
 _atom_site_fract_y
 _atom_site_fract_z
 _atom_site_occupancy
  Zn  Zn0  1  0.05895000  0.00000000  0.50000000  1.0
  Zn  Zn1  1  0.05895000  0.50000000  0.00000000  1.0
  Zn  Zn2  1  0.55895000  0.50000000  0.00000000  1.0
  Zn  Zn3  1  0.55895000  0.00000000  0.50000000  1.0
  H  H4  1  0.01690000  0.21366000  0.51075000  1.0
  H  H5  1  0.01690000  0.48925000  0.21366000  1.0
  H  H6  1  0.01690000  0.78634000  0.48925000  1.0
  H  H7  1  0.01690000  0.51075000  0.78634000  1.0
  H  H8  1  0.51690000  0.28634000  0.01075000  1.0
  H  H9  1  0.51690000  0.98925000  0.28634000  1.0
  H  H10  1  0.51690000  0.71366000  0.98925000  1.0
  H  H11  1  0.51690000  0.01075000  0.71366000  1.0
  H  H12  1  0.13407000  0.34879000  0.42383000  1.0
  H  H13  1  0.13407000  0.57617000  0.34879000  1.0
  H  H14  1  0.13407000  0.65121000  0.57617000  1.0
  H  H15  1  0.13407000  0.42383000  0.65121000  1.0
  H  H16  1  0.63407000  0.15121000  0.92383000  1.0
  H  H17  1  0.63407000  0.07617000  0.15121000  1.0
  H  H18  1  0.63407000  0.84879000  0.07617000  1.0
  H  H19  1  0.63407000  0.92383000  0.84879000  1.0
  H  H20  1  0.33974000  0.06004000  0.40038000  1.0
  H  H21  1  0.33974000  0.59962000  0.06004000  1.0
  H  H22  1  0.33974000  0.93996000  0.59962000  1.0
  H  H23  1  0.33974000  0.40038000  0.93996000  1.0
  H  H24  1  0.83974000  0.43996000  0.90038000  1.0
  H  H25  1  0.83974000  0.09962000  0.43996000  1.0
  H  H26  1  0.83974000  0.56004000  0.09962000  1.0
  H  H27  1  0.83974000  0.90038000  0.56004000  1.0
  H  H28  1  0.23705000  0.98697000  0.39924000  1.0
  H  H29  1  0.23705000  0.60076000  0.98697000  1.0
  H  H30  1  0.23705000  0.01303000  0.60076000  1.0
  H  H31  1  0.23705000  0.39924000  0.01303000  1.0
  H  H32  1  0.73705000  0.51303000  0.89924000  1.0
  H  H33  1  0.73705000  0.10076000  0.51303000  1.0
  H  H34  1  0.73705000  0.48697000  0.10076000  1.0
  H  H35  1  0.73705000  0.89924000  0.48697000  1.0
  H  H36  1  0.19863000  0.03090000  0.23448000  1.0
  H  H37  1  0.19863000  0.76551000  0.03089000  1.0
  H  H38  1  0.19863000  0.96910000  0.76552000  1.0
  H  H39  1  0.19863000  0.23448000  0.96911000  1.0
  H  H40  1  0.69863000  0.46911000  0.73448000  1.0
  H  H41  1  0.69863000  0.26551000  0.46911000  1.0
  H  H42  1  0.69863000  0.53089000  0.26552000  1.0
  H  H43  1  0.69863000  0.73448000  0.53089000  1.0
  H  H44  1  0.31631000  0.98465000  0.24277000  1.0
  H  H45  1  0.31631000  0.75723000  0.98465000  1.0
  H  H46  1  0.31631000  0.01535000  0.75723000  1.0
  H  H47  1  0.31631000  0.24277000  0.01535000  1.0
  H  H48  1  0.81631000  0.51535000  0.74277000  1.0
  H  H49  1  0.81631000  0.25723000  0.51535000  1.0
  H  H50  1  0.81631000  0.48465000  0.25723000  1.0
  H  H51  1  0.81631000  0.74277000  0.48465000  1.0
  H  H52  1  0.29962000  0.10863000  0.22938000  1.0
  H  H53  1  0.29962000  0.77062000  0.10863000  1.0
  H  H54  1  0.29962000  0.89137000  0.77062000  1.0
  H  H55  1  0.29962000  0.22938000  0.89137000  1.0
  H  H56  1  0.79962000  0.39137000  0.72938000  1.0
  H  H57  1  0.79962000  0.27062000  0.39137000  1.0
  H  H58  1  0.79962000  0.60863000  0.27062000  1.0
  H  H59  1  0.79962000  0.72938000  0.60863000  1.0
  H  H60  1  0.40631000  0.21431000  0.41819000  1.0
  H  H61  1  0.40631000  0.58181000  0.21431000  1.0
  H  H62  1  0.40631000  0.78569000  0.58181000  1.0
  H  H63  1  0.40631000  0.41819000  0.78570000  1.0
  H  H64  1  0.90631000  0.28569000  0.91819000  1.0
  H  H65  1  0.90631000  0.08181000  0.28569000  1.0
  H  H66  1  0.90631000  0.71431000  0.08181000  1.0
  H  H67  1  0.90631000  0.91819000  0.71431000  1.0
  H  H68  1  0.53102000  0.29615000  0.31927000  1.0
  H  H69  1  0.53102000  0.68074000  0.29615000  1.0
  H  H70  1  0.53102000  0.70385000  0.68073000  1.0
  H  H71  1  0.53102000  0.31926000  0.70385000  1.0
  H  H72  1  0.03102000  0.20385000  0.81926000  1.0
  H  H73  1  0.03102000  0.18074000  0.20385000  1.0
  H  H74  1  0.03102000  0.79615000  0.18074000  1.0
  H  H75  1  0.03102000  0.81927000  0.79615000  1.0
  H  H76  1  0.30984000  0.41329000  0.14428000  1.0
  H  H77  1  0.30984000  0.85572000  0.41330000  1.0
  H  H78  1  0.30984000  0.58671000  0.85572000  1.0
  H  H79  1  0.30984000  0.14428000  0.58671000  1.0
  H  H80  1  0.80984000  0.08671000  0.64428000  1.0
  H  H81  1  0.80984000  0.35572000  0.08671000  1.0
  H  H82  1  0.80984000  0.91330000  0.35572000  1.0
  H  H83  1  0.80984000  0.64428000  0.91329000  1.0
  H  H84  1  0.18499000  0.32868000  0.23713000  1.0
  H  H85  1  0.18499000  0.76287000  0.32868000  1.0
  H  H86  1  0.18499000  0.67132000  0.76287000  1.0
  H  H87  1  0.18499000  0.23713000  0.67132000  1.0
  H  H88  1  0.68499000  0.17132000  0.73713000  1.0
  H  H89  1  0.68499000  0.26287000  0.17132000  1.0
  H  H90  1  0.68499000  0.82868000  0.26287000  1.0
  H  H91  1  0.68499000  0.73713000  0.82868000  1.0
  C  C92  1  0.08278000  0.20582000  0.47093000  1.0
  C  C93  1  0.08279000  0.52907000  0.20582000  1.0
  C  C94  1  0.08278000  0.79418000  0.52907000  1.0
  C  C95  1  0.08279000  0.47093000  0.79418000  1.0
  C  C96  1  0.58279000  0.29418000  0.97093000  1.0
  C  C97  1  0.58279000  0.02907000  0.29418000  1.0
  C  C98  1  0.58279000  0.70582000  0.02907000  1.0
  C  C99  1  0.58279000  0.97093000  0.70582000  1.0
  C  C100  1  0.13908000  0.27265000  0.42881000  1.0
  C  C101  1  0.13908000  0.57119000  0.27265000  1.0
  C  C102  1  0.13908000  0.72735000  0.57119000  1.0
  C  C103  1  0.13908000  0.42881000  0.72735000  1.0
  C  C104  1  0.63908000  0.22735000  0.92881000  1.0
  C  C105  1  0.63908000  0.07119000  0.22735000  1.0
  C  C106  1  0.63908000  0.77265000  0.07119000  1.0
  C  C107  1  0.63908000  0.92881000  0.77265000  1.0
  C  C108  1  0.20422000  0.13002000  0.40602000  1.0
  C  C109  1  0.20423000  0.59398000  0.13002000  1.0
  C  C110  1  0.20423000  0.86998000  0.59398000  1.0
  C  C111  1  0.20423000  0.40602000  0.86998000  1.0
  C  C112  1  0.70423000  0.36998000  0.90601000  1.0
  C  C113  1  0.70423000  0.09398000  0.36998000  1.0
  C  C114  1  0.70423000  0.63002000  0.09399000  1.0
  C  C115  1  0.70423000  0.90602000  0.63002000  1.0
  C  C116  1  0.26719000  0.05267000  0.37077000  1.0
  C  C117  1  0.26719000  0.62923000  0.05267000  1.0
  C  C118  1  0.26719000  0.94733000  0.62923000  1.0
  C  C119  1  0.26719000  0.37077000  0.94733000  1.0
  C  C120  1  0.76719000  0.44733000  0.87077000  1.0
  C  C121  1  0.76719000  0.12923000  0.44733000  1.0
  C  C122  1  0.76719000  0.55267000  0.12923000  1.0
  C  C123  1  0.76719000  0.87077000  0.55267000  1.0
  C  C124  1  0.27059000  0.04465000  0.26263000  1.0
  C  C125  1  0.27059000  0.73737000  0.04465000  1.0
  C  C126  1  0.27059000  0.95535000  0.73737000  1.0
  C  C127  1  0.27059000  0.26263000  0.95535000  1.0
  C  C128  1  0.77059000  0.45535000  0.76263000  1.0
  C  C129  1  0.77059000  0.23737000  0.45535000  1.0
  C  C130  1  0.77059000  0.54465000  0.23737000  1.0
  C  C131  1  0.77059000  0.76263000  0.54465000  1.0
  C  C132  1  0.28902000  0.26910000  0.33432000  1.0
  C  C133  1  0.28902000  0.66568000  0.26910000  1.0
  C  C134  1  0.28902000  0.73090000  0.66568000  1.0
  C  C135  1  0.28902000  0.33432000  0.73090000  1.0
  C  C136  1  0.78902000  0.23090000  0.83432000  1.0
  C  C137  1  0.78902000  0.16568000  0.23090000  1.0
  C  C138  1  0.78902000  0.76910000  0.16568000  1.0
  C  C139  1  0.78902000  0.83432000  0.76910000  1.0
  C  C140  1  0.38575000  0.25782000  0.35793000  1.0
  C  C141  1  0.38575000  0.64207000  0.25782000  1.0
  C  C142  1  0.38575000  0.74218000  0.64207000  1.0
  C  C143  1  0.38575000  0.35793000  0.74218000  1.0
  C  C144  1  0.88575000  0.24218000  0.85793000  1.0
  C  C145  1  0.88575000  0.14207000  0.24218000  1.0
  C  C146  1  0.88575000  0.75782000  0.14207000  1.0
  C  C147  1  0.88575000  0.85793000  0.75782000  1.0
  C  C148  1  0.45485000  0.30329000  0.30318000  1.0
  C  C149  1  0.45485000  0.69682000  0.30329000  1.0
  C  C150  1  0.45486000  0.69671000  0.69682000  1.0
  C  C151  1  0.45485000  0.30318000  0.69671000  1.0
  C  C152  1  0.95485000  0.19671000  0.80318000  1.0
  C  C153  1  0.95486000  0.19682000  0.19671000  1.0
  C  C154  1  0.95485000  0.80329000  0.19682000  1.0
  C  C155  1  0.95485000  0.80318000  0.80329000  1.0
  C  C156  1  0.42742000  0.36009000  0.22667000  1.0
  C  C157  1  0.42742000  0.77333000  0.36009000  1.0
  C  C158  1  0.42742000  0.63991000  0.77333000  1.0
  C  C159  1  0.42742000  0.22667000  0.63991000  1.0
  C  C160  1  0.92742000  0.13991000  0.72667000  1.0
  C  C161  1  0.92742000  0.27333000  0.13991000  1.0
  C  C162  1  0.92742000  0.86009000  0.27333000  1.0
  C  C163  1  0.92742000  0.72667000  0.86009000  1.0
  C  C164  1  0.33000000  0.37027000  0.20475000  1.0
  C  C165  1  0.33000000  0.79525000  0.37027000  1.0
  C  C166  1  0.33000000  0.62973000  0.79525000  1.0
  C  C167  1  0.33000000  0.20474000  0.62973000  1.0
  C  C168  1  0.83000000  0.12973000  0.70474000  1.0
  C  C169  1  0.83000000  0.29526000  0.12973000  1.0
  C  C170  1  0.83000000  0.87027000  0.29525000  1.0
  C  C171  1  0.83000000  0.70474000  0.87027000  1.0
  C  C172  1  0.26024000  0.32452000  0.25775000  1.0
  C  C173  1  0.26024000  0.74225000  0.32452000  1.0
  C  C174  1  0.26025000  0.67548000  0.74225000  1.0
  C  C175  1  0.26025000  0.25775000  0.67548000  1.0
  C  C176  1  0.76025000  0.17548000  0.75775000  1.0
  C  C177  1  0.76025000  0.24225000  0.17548000  1.0
  C  C178  1  0.76025000  0.82452000  0.24225000  1.0
  C  C179  1  0.76025000  0.75775000  0.82452000  1.0
  C  C180  1  0.50169000  0.40784000  0.16617000  1.0
  C  C181  1  0.50169000  0.83383000  0.40784000  1.0
  C  C182  1  0.50169000  0.59216000  0.83383000  1.0
  C  C183  1  0.50169000  0.16617000  0.59216000  1.0
  C  C184  1  0.00169000  0.09216000  0.66617000  1.0
  C  C185  1  0.00169000  0.33383000  0.09216000  1.0
  C  C186  1  0.00169000  0.90784000  0.33383000  1.0
  C  C187  1  0.00169000  0.66617000  0.90784000  1.0
  N  N188  1  0.12371000  0.11803000  0.45620000  1.0
  N  N189  1  0.12371000  0.54380000  0.11802000  1.0
  N  N190  1  0.12371000  0.88197000  0.54380000  1.0
  N  N191  1  0.12371000  0.45620000  0.88197000  1.0
  N  N192  1  0.62371000  0.38198000  0.95620000  1.0
  N  N193  1  0.62371000  0.04380000  0.38197000  1.0
  N  N194  1  0.62371000  0.61803000  0.04380000  1.0
  N  N195  1  0.62371000  0.95620000  0.61803000  1.0
  N  N196  1  0.21568000  0.22446000  0.38885000  1.0
  N  N197  1  0.21568000  0.61115000  0.22446000  1.0
  N  N198  1  0.21568000  0.77554000  0.61115000  1.0
  N  N199  1  0.21568000  0.38885000  0.77554000  1.0
  N  N200  1  0.71568000  0.27554000  0.88885000  1.0
  N  N201  1  0.71568000  0.11115000  0.27554000  1.0
  N  N202  1  0.71568000  0.72446000  0.11115000  1.0
  N  N203  1  0.71568000  0.88885000  0.72446000  1.0
  O  O204  1  0.58903000  0.39763000  0.18282000  1.0
  O  O205  1  0.58902000  0.81719000  0.39763000  1.0
  O  O206  1  0.58903000  0.60237000  0.81718000  1.0
  O  O207  1  0.58903000  0.18281000  0.60237000  1.0
  O  O208  1  0.08903000  0.10237000  0.68281000  1.0
  O  O209  1  0.08903000  0.31718000  0.10237000  1.0
  O  O210  1  0.08903000  0.89763000  0.31719000  1.0
  O  O211  1  0.08903000  0.68282000  0.89763000  1.0
  O  O212  1  0.46615000  0.45699000  0.09651000  1.0
  O  O213  1  0.46614000  0.90349000  0.45699000  1.0
  O  O214  1  0.46615000  0.54301000  0.90349000  1.0
  O  O215  1  0.46614000  0.09651000  0.54301000  1.0
  O  O216  1  0.96614000  0.04301000  0.59651000  1.0
  O  O217  1  0.96615000  0.40349000  0.04301000  1.0
  O  O218  1  0.96614000  0.95699000  0.40349000  1.0
  O  O219  1  0.96615000  0.59651000  0.95699000  1.0
