# generated using pymatgen
data_AgH23C19(N2O)2
_symmetry_space_group_name_H-M   'P 1'
_cell_length_a   8.95653000
_cell_length_b   10.40210000
_cell_length_c   10.54820000
_cell_angle_alpha   68.53970000
_cell_angle_beta   77.61280000
_cell_angle_gamma   82.81310000
_symmetry_Int_Tables_number   1
_chemical_formula_structural   AgH23C19(N2O)2
_chemical_formula_sum   'Ag2 H46 C38 N8 O4'
_cell_volume   892.14129984
_cell_formula_units_Z   2
loop_
 _symmetry_equiv_pos_site_id
 _symmetry_equiv_pos_as_xyz
  1  'x, y, z'
loop_
 _atom_site_type_symbol
 _atom_site_label
 _atom_site_symmetry_multiplicity
 _atom_site_fract_x
 _atom_site_fract_y
 _atom_site_fract_z
 _atom_site_occupancy
  Ag  Ag0  1  0.31276000  0.36736000  0.01359000  1.0
  Ag  Ag1  1  0.68724000  0.63264000  0.98641000  1.0
  H  H2  1  0.37917000  0.53120000  0.20782000  1.0
  H  H3  1  0.62083000  0.46880000  0.79218000  1.0
  H  H4  1  0.96528000  0.77473000  0.15719000  1.0
  H  H5  1  0.03472000  0.22527000  0.84281000  1.0
  H  H6  1  0.98178000  0.58418000  0.03121000  1.0
  H  H7  1  0.01822000  0.41582000  0.96879000  1.0
  H  H8  1  0.30233000  0.84170000  0.19369000  1.0
  H  H9  1  0.69767000  0.15831000  0.80631000  1.0
  H  H10  1  0.30516000  0.69219000  0.34300000  1.0
  H  H11  1  0.69484000  0.30781000  0.65700000  1.0
  H  H12  1  0.84794000  0.71979000  0.65822000  1.0
  H  H13  1  0.15206000  0.28021000  0.34178000  1.0
  H  H14  1  0.17061000  0.11715000  0.14310000  1.0
  H  H15  1  0.82939000  0.88285000  0.85690000  1.0
  H  H16  1  0.00654000  0.10105000  0.08396000  1.0
  H  H17  1  0.99346000  0.89895000  0.91604000  1.0
  H  H18  1  0.16470000  0.98326000  0.07927000  1.0
  H  H19  1  0.83529000  0.01674000  0.92073000  1.0
  H  H20  1  0.03373000  0.54185000  0.65586000  1.0
  H  H21  1  0.96627000  0.45816000  0.34414000  1.0
  H  H22  1  0.21726000  0.60490000  0.57660000  1.0
  H  H23  1  0.78274000  0.39511000  0.42340000  1.0
  H  H24  1  0.12283000  0.52907000  0.49330000  1.0
  H  H25  1  0.87717000  0.47093000  0.50670000  1.0
  H  H26  1  0.63629000  0.87783000  0.66017000  1.0
  H  H27  1  0.36371000  0.12217000  0.33983000  1.0
  H  H28  1  0.60307000  0.01287000  0.50495000  1.0
  H  H29  1  0.39693000  0.98713000  0.49506000  1.0
  H  H30  1  0.71369000  0.04118000  0.61113000  1.0
  H  H31  1  0.28631000  0.95882000  0.38887000  1.0
  H  H32  1  0.78071000  0.18627000  0.37908000  1.0
  H  H33  1  0.21929000  0.81373000  0.62092000  1.0
  H  H34  1  0.91942000  0.21285000  0.22673000  1.0
  H  H35  1  0.08058000  0.78715000  0.77327000  1.0
  H  H36  1  0.60563000  0.35287000  0.20797000  1.0
  H  H37  1  0.39437000  0.64713000  0.79203000  1.0
  H  H38  1  0.50485000  0.06711000  0.04339000  1.0
  H  H39  1  0.49515000  0.93288000  0.95662000  1.0
  H  H40  1  0.74340000  0.95391000  0.18731000  1.0
  H  H41  1  0.25661000  0.04608000  0.81269000  1.0
  H  H42  1  0.45133000  0.21045000  0.62825000  1.0
  H  H43  1  0.54867000  0.78955000  0.37175000  1.0
  H  H44  1  0.44313000  0.38967000  0.52072000  1.0
  H  H45  1  0.55687000  0.61033000  0.47928000  1.0
  H  H46  1  0.27310000  0.29540000  0.59761000  1.0
  H  H47  1  0.72690000  0.70460000  0.40239000  1.0
  C  C48  1  0.26883000  0.56707000  0.17608000  1.0
  C  C49  1  0.73117000  0.43293000  0.82392000  1.0
  C  C50  1  0.05540000  0.69830000  0.14518000  1.0
  C  C51  1  0.94460000  0.30170000  0.85482000  1.0
  C  C52  1  0.06508000  0.60077000  0.08402000  1.0
  C  C53  1  0.93492000  0.39923000  0.91598000  1.0
  C  C54  1  0.23154000  0.75990000  0.27207000  1.0
  C  C55  1  0.76846000  0.24010000  0.72793000  1.0
  C  C56  1  0.09429000  0.81765000  0.34883000  1.0
  C  C57  1  0.90571000  0.18235000  0.65118000  1.0
  C  C58  1  0.03096000  0.73473000  0.48468000  1.0
  C  C59  1  0.96904000  0.26527000  0.51532000  1.0
  C  C60  1  0.89896000  0.78463000  0.55378000  1.0
  C  C61  1  0.10104000  0.21537000  0.44622000  1.0
  C  C62  1  0.83054000  0.91521000  0.49326000  1.0
  C  C63  1  0.16946000  0.08479000  0.50674000  1.0
  C  C64  1  0.89771000  0.99925000  0.35981000  1.0
  C  C65  1  0.10229000  0.00075000  0.64019000  1.0
  C  C66  1  0.02835000  0.95030000  0.28560000  1.0
  C  C67  1  0.97165000  0.04970000  0.71440000  1.0
  C  C68  1  0.09572000  0.04124000  0.14143000  1.0
  C  C69  1  0.90428000  0.95876000  0.85857000  1.0
  C  C70  1  0.10430000  0.59596000  0.55575000  1.0
  C  C71  1  0.89570000  0.40404000  0.44425000  1.0
  C  C72  1  0.68818000  0.96389000  0.57137000  1.0
  C  C73  1  0.31182000  0.03612000  0.42863000  1.0
  C  C74  1  0.83050000  0.14360000  0.29755000  1.0
  C  C75  1  0.16950000  0.85640000  0.70245000  1.0
  C  C76  1  0.60765000  0.26074000  0.18144000  1.0
  C  C77  1  0.39235000  0.73926000  0.81856000  1.0
  C  C78  1  0.56253000  0.11001000  0.09805000  1.0
  C  C79  1  0.43748000  0.88999000  0.90196000  1.0
  C  C80  1  0.68114000  0.05328000  0.16874000  1.0
  C  C81  1  0.31886000  0.94671000  0.83126000  1.0
  C  C82  1  0.36854000  0.34749000  0.74276000  1.0
  C  C83  1  0.63146000  0.65251000  0.25724000  1.0
  C  C84  1  0.38618000  0.31010000  0.61352000  1.0
  C  C85  1  0.61382000  0.68990000  0.38648000  1.0
  N  N86  1  0.19835000  0.51913000  0.10403000  1.0
  N  N87  1  0.80165000  0.48087000  0.89597000  1.0
  N  N88  1  0.18523000  0.67569000  0.20260000  1.0
  N  N89  1  0.81477000  0.32431000  0.79740000  1.0
  N  N90  1  0.70822000  0.15024000  0.22116000  1.0
  N  N91  1  0.29178000  0.84976000  0.77884000  1.0
  N  N92  1  0.51780000  0.23890000  0.10639000  1.0
  N  N93  1  0.48220000  0.76110000  0.89361000  1.0
  O  O94  1  0.30679000  0.25880000  0.85764000  1.0
  O  O95  1  0.69321000  0.74120000  0.14236000  1.0
  O  O96  1  0.41496000  0.46219000  0.73188000  1.0
  O  O97  1  0.58504000  0.53782000  0.26812000  1.0
