# generated using pymatgen
data_ZnH18C26N4O5
_symmetry_space_group_name_H-M   'P 1'
_cell_length_a   10.23460000
_cell_length_b   10.96852746
_cell_length_c   11.68040000
_cell_angle_alpha   84.37546840
_cell_angle_beta   77.86700000
_cell_angle_gamma   62.21179103
_symmetry_Int_Tables_number   1
_chemical_formula_structural   ZnH18C26N4O5
_chemical_formula_sum   'Zn2 H36 C52 N8 O10'
_cell_volume   1134.09780114
_cell_formula_units_Z   2
loop_
 _symmetry_equiv_pos_site_id
 _symmetry_equiv_pos_as_xyz
  1  'x, y, z'
loop_
 _atom_site_type_symbol
 _atom_site_label
 _atom_site_symmetry_multiplicity
 _atom_site_fract_x
 _atom_site_fract_y
 _atom_site_fract_z
 _atom_site_occupancy
  Zn  Zn0  1  0.20431000  0.59157000  0.74997000  1.0
  Zn  Zn1  1  0.79569000  0.40843000  0.25003000  1.0
  H  H2  1  0.71827000  0.08377000  0.22662000  1.0
  H  H3  1  0.19844000  0.08367000  0.27336000  1.0
  H  H4  1  0.28173000  0.91623000  0.77338000  1.0
  H  H5  1  0.80156000  0.91633000  0.72664000  1.0
  H  H6  1  0.95301000  0.95734000  0.08151000  1.0
  H  H7  1  0.09020000  0.95730000  0.41857000  1.0
  H  H8  1  0.04699000  0.04266000  0.91849000  1.0
  H  H9  1  0.90980000  0.04270000  0.58143000  1.0
  H  H10  1  0.16278000  0.29506000  0.32107000  1.0
  H  H11  1  0.54190000  0.29531000  0.17903000  1.0
  H  H12  1  0.83722000  0.70494000  0.67893000  1.0
  H  H13  1  0.45810000  0.70469000  0.82097000  1.0
  H  H14  1  0.51312000  0.87083000  0.10160000  1.0
  H  H15  1  0.61659000  0.87075000  0.39821000  1.0
  H  H16  1  0.48688000  0.12917000  0.89840000  1.0
  H  H17  1  0.38341000  0.12925000  0.60179000  1.0
  H  H18  1  0.05836000  0.22646000  0.51495000  1.0
  H  H19  1  0.71489000  0.22659000  0.98532000  1.0
  H  H20  1  0.94164000  0.77354000  0.48505000  1.0
  H  H21  1  0.28511000  0.77341000  0.01468000  1.0
  H  H22  1  0.75029000  0.74391000  0.95522000  1.0
  H  H23  1  0.50619000  0.74388000  0.54474000  1.0
  H  H24  1  0.24971000  0.25609000  0.04478000  1.0
  H  H25  1  0.49381000  0.25612000  0.45526000  1.0
  H  H26  1  0.06836000  0.40065000  0.82778000  1.0
  H  H27  1  0.53111000  0.40033000  0.67228000  1.0
  H  H28  1  0.93164000  0.59935000  0.17222000  1.0
  H  H29  1  0.46889000  0.59967000  0.32772000  1.0
  H  H30  1  0.25527000  0.50122000  0.50500000  1.0
  H  H31  1  0.24347000  0.50144000  0.99494000  1.0
  H  H32  1  0.74472000  0.49878000  0.49500000  1.0
  H  H33  1  0.75653000  0.49856000  0.00506000  1.0
  H  H34  1  0.99951000  0.24808000  0.73500000  1.0
  H  H35  1  0.75233000  0.24798000  0.76525000  1.0
  H  H36  1  0.00049000  0.75192000  0.26500000  1.0
  H  H37  1  0.24767000  0.75202000  0.23475000  1.0
  C  C38  1  0.86754000  0.84030000  0.01079000  1.0
  C  C39  1  0.29268000  0.84030000  0.48919000  1.0
  C  C40  1  0.13246000  0.15970000  0.98921000  1.0
  C  C41  1  0.70733000  0.15969000  0.51081000  1.0
  C  C42  1  0.72606000  0.00881000  0.16740000  1.0
  C  C43  1  0.26570000  0.00874000  0.33255000  1.0
  C  C44  1  0.27394000  0.99119000  0.83260000  1.0
  C  C45  1  0.73430000  0.99126000  0.66746000  1.0
  C  C46  1  0.85738000  0.93728000  0.08641000  1.0
  C  C47  1  0.20589000  0.93725000  0.41360000  1.0
  C  C48  1  0.14262000  0.06272000  0.91359000  1.0
  C  C49  1  0.79411000  0.06275000  0.58640000  1.0
  C  C50  1  0.00992000  0.76254000  0.92553000  1.0
  C  C51  1  0.22800000  0.76251000  0.57442000  1.0
  C  C52  1  0.99008000  0.23746000  0.07447000  1.0
  C  C53  1  0.77200000  0.23749000  0.42558000  1.0
  C  C54  1  0.20401000  0.34992000  0.36566000  1.0
  C  C55  1  0.44584000  0.35023000  0.13445000  1.0
  C  C56  1  0.79599000  0.65008000  0.63434000  1.0
  C  C57  1  0.55416000  0.64977000  0.86555000  1.0
  C  C58  1  0.16628000  0.35893000  0.49304000  1.0
  C  C59  1  0.47461000  0.35918000  0.00708000  1.0
  C  C60  1  0.83372000  0.64107000  0.50696000  1.0
  C  C61  1  0.52539000  0.64082000  0.99292000  1.0
  C  C62  1  0.60418000  0.98236000  0.17252000  1.0
  C  C63  1  0.41402000  0.98231000  0.32734000  1.0
  C  C64  1  0.39582000  0.01764000  0.82748000  1.0
  C  C65  1  0.58598000  0.01769000  0.67267000  1.0
  C  C66  1  0.61123000  0.88720000  0.09696000  1.0
  C  C67  1  0.50213000  0.88709000  0.40286000  1.0
  C  C68  1  0.38877000  0.11280000  0.90304000  1.0
  C  C69  1  0.49787000  0.11291000  0.59714000  1.0
  C  C70  1  0.09167000  0.28797000  0.55904000  1.0
  C  C71  1  0.62016000  0.28808000  0.94115000  1.0
  C  C72  1  0.90833000  0.71203000  0.44096000  1.0
  C  C73  1  0.37984000  0.71192000  0.05885000  1.0
  C  C74  1  0.74254000  0.81707000  0.01619000  1.0
  C  C75  1  0.44092000  0.81701000  0.48371000  1.0
  C  C76  1  0.25746000  0.18293000  0.98381000  1.0
  C  C77  1  0.55908000  0.18299000  0.51629000  1.0
  C  C78  1  0.09537000  0.38537000  0.73328000  1.0
  C  C79  1  0.51926000  0.38521000  0.76680000  1.0
  C  C80  1  0.90463000  0.61463000  0.26673000  1.0
  C  C81  1  0.48074000  0.61479000  0.23320000  1.0
  C  C82  1  0.20032000  0.44203000  0.55292000  1.0
  C  C83  1  0.35758000  0.44217000  0.94709000  1.0
  C  C84  1  0.79968000  0.55797000  0.44708000  1.0
  C  C85  1  0.64242000  0.55783000  0.05291000  1.0
  C  C86  1  0.05717000  0.30122000  0.68056000  1.0
  C  C87  1  0.64152000  0.30119000  0.81962000  1.0
  C  C88  1  0.94283000  0.69878000  0.31945000  1.0
  C  C89  1  0.35848000  0.69881000  0.18038000  1.0
  N  N90  1  0.28407000  0.40660000  0.30861000  1.0
  N  N91  1  0.30917000  0.40674000  0.19152000  1.0
  N  N92  1  0.71593000  0.59340000  0.69139000  1.0
  N  N93  1  0.69083000  0.59326000  0.80849000  1.0
  N  N94  1  0.16493000  0.45537000  0.66950000  1.0
  N  N95  1  0.37972000  0.45531000  0.83049000  1.0
  N  N96  1  0.83507000  0.54463000  0.33050000  1.0
  N  N97  1  0.62027000  0.54469000  0.16951000  1.0
  O  O98  1  0.47124000  0.05798000  0.24990000  1.0
  O  O99  1  0.52876000  0.94202000  0.75010000  1.0
  O  O100  1  0.12133000  0.78419000  0.91867000  1.0
  O  O101  1  0.09498000  0.78411000  0.58114000  1.0
  O  O102  1  0.87867000  0.21581000  0.08133000  1.0
  O  O103  1  0.90502000  0.21589000  0.41886000  1.0
  O  O104  1  0.01046000  0.67204000  0.86063000  1.0
  O  O105  1  0.31777000  0.67212000  0.63944000  1.0
  O  O106  1  0.98954000  0.32796000  0.13937000  1.0
  O  O107  1  0.68223000  0.32788000  0.36056000  1.0
