# generated using pymatgen
data_Tb2H16C15O16
_symmetry_space_group_name_H-M   'P 1'
_cell_length_a   7.83495000
_cell_length_b   10.20824549
_cell_length_c   14.43070000
_cell_angle_alpha   96.89401550
_cell_angle_beta   105.76220000
_cell_angle_gamma   112.56926611
_symmetry_Int_Tables_number   1
_chemical_formula_structural   Tb2H16C15O16
_chemical_formula_sum   'Tb4 H32 C30 O32'
_cell_volume   992.51003571
_cell_formula_units_Z   2
loop_
 _symmetry_equiv_pos_site_id
 _symmetry_equiv_pos_as_xyz
  1  'x, y, z'
loop_
 _atom_site_type_symbol
 _atom_site_label
 _atom_site_symmetry_multiplicity
 _atom_site_fract_x
 _atom_site_fract_y
 _atom_site_fract_z
 _atom_site_occupancy
  Tb  Tb0  1  0.23789000  0.12505000  0.61445000  1.0
  Tb  Tb1  1  0.99863000  0.37492000  0.88565000  1.0
  Tb  Tb2  1  0.76212000  0.87496000  0.38555000  1.0
  Tb  Tb3  1  0.00136000  0.62507000  0.11435000  1.0
  H  H4  1  0.62894000  0.40397000  0.71596000  1.0
  H  H5  1  0.00868000  0.09583000  0.78405000  1.0
  H  H6  1  0.37106000  0.59604000  0.28404000  1.0
  H  H7  1  0.99133000  0.90417000  0.21595000  1.0
  H  H8  1  0.61019000  0.33103000  0.60921000  1.0
  H  H9  1  0.17032000  0.16884000  0.89060000  1.0
  H  H10  1  0.38982000  0.66896000  0.39080000  1.0
  H  H11  1  0.82970000  0.83118000  0.10940000  1.0
  H  H12  1  0.50684000  0.98204000  0.58963000  1.0
  H  H13  1  0.43515000  0.51786000  0.91024000  1.0
  H  H14  1  0.49317000  0.01798000  0.41033000  1.0
  H  H15  1  0.56490000  0.48211000  0.08980000  1.0
  H  H16  1  0.61561000  0.12002000  0.68149000  1.0
  H  H17  1  0.31385000  0.37976000  0.81850000  1.0
  H  H18  1  0.38438000  0.87996000  0.31850000  1.0
  H  H19  1  0.68618000  0.62026000  0.18151000  1.0
  H  H20  1  0.11869000  0.63160000  0.67729000  1.0
  H  H21  1  0.31065000  0.86802000  0.82268000  1.0
  H  H22  1  0.88132000  0.36841000  0.32271000  1.0
  H  H23  1  0.68936000  0.13198000  0.17732000  1.0
  H  H24  1  0.52467000  0.76302000  0.64768000  1.0
  H  H25  1  0.61361000  0.73646000  0.85190000  1.0
  H  H26  1  0.47533000  0.23699000  0.35233000  1.0
  H  H27  1  0.38638000  0.26354000  0.14810000  1.0
  H  H28  1  0.68086000  0.92262000  0.74832000  1.0
  H  H29  1  0.50948000  0.57661000  0.75146000  1.0
  H  H30  1  0.31916000  0.07739000  0.25169000  1.0
  H  H31  1  0.49051000  0.42339000  0.24854000  1.0
  H  H32  1  0.79264000  0.67285000  0.69735000  1.0
  H  H33  1  0.92204000  0.82621000  0.80202000  1.0
  H  H34  1  0.20736000  0.32715000  0.30266000  1.0
  H  H35  1  0.07796000  0.17379000  0.19798000  1.0
  C  C36  1  0.04693000  0.64981000  0.52602000  1.0
  C  C37  1  0.37119000  0.85019000  0.97403000  1.0
  C  C38  1  0.95306000  0.35019000  0.47398000  1.0
  C  C39  1  0.62881000  0.14980000  0.02597000  1.0
  C  C40  1  0.97943000  0.57612000  0.42495000  1.0
  C  C41  1  0.47798000  0.92408000  0.07511000  1.0
  C  C42  1  0.02057000  0.42388000  0.57505000  1.0
  C  C43  1  0.52202000  0.07591000  0.92489000  1.0
  C  C44  1  0.06601000  0.57291000  0.59940000  1.0
  C  C45  1  0.39425000  0.92685000  0.90058000  1.0
  C  C46  1  0.93399000  0.42710000  0.40060000  1.0
  C  C47  1  0.60574000  0.07314000  0.09942000  1.0
  C  C48  1  0.10868000  0.81011000  0.55990000  1.0
  C  C49  1  0.23879000  0.68989000  0.94023000  1.0
  C  C50  1  0.89132000  0.18989000  0.44010000  1.0
  C  C51  1  0.76120000  0.31010000  0.05976000  1.0
  C  C52  1  0.94886000  0.64397000  0.33798000  1.0
  C  C53  1  0.46634000  0.85621000  0.16207000  1.0
  C  C54  1  0.05114000  0.35603000  0.66202000  1.0
  C  C55  1  0.53364000  0.14378000  0.83793000  1.0
  C  C56  1  0.78999000  0.90234000  0.62759000  1.0
  C  C57  1  0.75993000  0.59738000  0.87223000  1.0
  C  C58  1  0.21000000  0.09766000  0.37241000  1.0
  C  C59  1  0.24006000  0.40262000  0.12777000  1.0
  C  C60  1  0.67836000  0.83613000  0.69386000  1.0
  C  C61  1  0.64800000  0.66329000  0.80582000  1.0
  C  C62  1  0.32165000  0.16388000  0.30615000  1.0
  C  C63  1  0.35201000  0.33672000  0.19418000  1.0
  C  C64  1  0.77435000  0.74958000  0.74974000  1.0
  C  C65  1  0.22565000  0.25042000  0.25026000  1.0
  O  O66  1  0.21779000  0.87890000  0.64849000  1.0
  O  O67  1  0.19070000  0.62099000  0.85169000  1.0
  O  O68  1  0.78221000  0.12111000  0.35151000  1.0
  O  O69  1  0.80930000  0.37901000  0.14830000  1.0
  O  O70  1  0.05521000  0.87953000  0.49705000  1.0
  O  O71  1  0.17869000  0.62060000  0.00310000  1.0
  O  O72  1  0.94479000  0.12048000  0.50296000  1.0
  O  O73  1  0.82129000  0.37939000  0.99688000  1.0
  O  O74  1  0.53218000  0.35017000  0.64661000  1.0
  O  O75  1  0.03566000  0.14980000  0.85345000  1.0
  O  O76  1  0.46784000  0.64984000  0.35340000  1.0
  O  O77  1  0.96435000  0.85020000  0.14656000  1.0
  O  O78  1  0.53042000  0.08370000  0.60997000  1.0
  O  O79  1  0.33678000  0.41620000  0.89004000  1.0
  O  O80  1  0.46957000  0.91631000  0.39002000  1.0
  O  O81  1  0.66322000  0.58380000  0.10997000  1.0
  O  O82  1  0.79987000  0.67294000  0.31383000  1.0
  O  O83  1  0.31268000  0.82745000  0.18627000  1.0
  O  O84  1  0.20014000  0.32707000  0.68617000  1.0
  O  O85  1  0.68731000  0.17253000  0.81372000  1.0
  O  O86  1  0.06133000  0.65560000  0.28833000  1.0
  O  O87  1  0.61663000  0.84416000  0.21159000  1.0
  O  O88  1  0.93865000  0.34439000  0.71166000  1.0
  O  O89  1  0.38337000  0.15585000  0.78841000  1.0
  O  O90  1  0.96114000  0.01033000  0.66918000  1.0
  O  O91  1  0.78173000  0.48943000  0.83078000  1.0
  O  O92  1  0.03886000  0.98967000  0.33082000  1.0
  O  O93  1  0.21827000  0.51057000  0.16921000  1.0
  O  O94  1  0.70977000  0.84297000  0.53493000  1.0
  O  O95  1  0.83174000  0.65693000  0.96486000  1.0
  O  O96  1  0.29023000  0.15704000  0.46507000  1.0
  O  O97  1  0.16824000  0.34306000  0.03514000  1.0
