# generated using pymatgen
data_CuH14C10SN2O7
_symmetry_space_group_name_H-M   'P 1'
_cell_length_a   7.17888000
_cell_length_b   10.14850000
_cell_length_c   11.11608001
_cell_angle_alpha   62.84574274
_cell_angle_beta   83.39961855
_cell_angle_gamma   75.52100000
_symmetry_Int_Tables_number   1
_chemical_formula_structural   CuH14C10SN2O7
_chemical_formula_sum   'Cu2 H28 C20 S2 N4 O14'
_cell_volume   697.71148668
_cell_formula_units_Z   2
loop_
 _symmetry_equiv_pos_site_id
 _symmetry_equiv_pos_as_xyz
  1  'x, y, z'
loop_
 _atom_site_type_symbol
 _atom_site_label
 _atom_site_symmetry_multiplicity
 _atom_site_fract_x
 _atom_site_fract_y
 _atom_site_fract_z
 _atom_site_occupancy
  Cu  Cu0  1  0.52544000  0.62706000  0.54268000  1.0
  Cu  Cu1  1  0.02538000  0.16967000  0.45735000  1.0
  H  H2  1  0.44985000  0.70655000  0.25014000  1.0
  H  H3  1  0.94933000  0.95658000  0.75018000  1.0
  H  H4  1  0.47693000  0.91458000  0.02977000  1.0
  H  H5  1  0.97667000  0.94448000  0.97037000  1.0
  H  H6  1  0.56586000  0.16739000  0.23868000  1.0
  H  H7  1  0.06488000  0.40641000  0.76105000  1.0
  H  H8  1  0.55571000  0.93988000  0.45080000  1.0
  H  H9  1  0.05483000  0.39069000  0.54905000  1.0
  H  H10  1  0.58076000  0.56488000  0.83014000  1.0
  H  H11  1  0.08047000  0.39508000  0.16995000  1.0
  H  H12  1  0.57614000  0.35007000  0.05607000  1.0
  H  H13  1  0.07535000  0.40654000  0.94393000  1.0
  H  H14  1  0.49644000  0.08756000  0.85505000  1.0
  H  H15  1  0.99715000  0.94254000  0.14483000  1.0
  H  H16  1  0.49738000  0.31456000  0.64061000  1.0
  H  H17  1  0.99853000  0.95480000  0.35937000  1.0
  H  H18  1  0.18559000  0.73572000  0.55615000  1.0
  H  H19  1  0.68551000  0.29201000  0.44387000  1.0
  H  H20  1  0.17961000  0.65209000  0.46612000  1.0
  H  H21  1  0.67929000  0.11844000  0.53386000  1.0
  H  H22  1  0.86982000  0.66257000  0.48353000  1.0
  H  H23  1  0.36969000  0.14604000  0.51646000  1.0
  H  H24  1  0.78496000  0.70921000  0.60699000  1.0
  H  H25  1  0.28517000  0.31595000  0.39287000  1.0
  H  H26  1  0.71404000  0.50132000  0.36790000  1.0
  H  H27  1  0.21425000  0.86920000  0.63215000  1.0
  H  H28  1  0.48625000  0.49302000  0.37277000  1.0
  H  H29  1  0.98648000  0.86589000  0.62718000  1.0
  C  C30  1  0.48234000  0.80826000  0.24420000  1.0
  C  C31  1  0.98183000  0.05243000  0.75596000  1.0
  C  C32  1  0.49289000  0.92955000  0.11883000  1.0
  C  C33  1  0.99249000  0.04848000  0.88126000  1.0
  C  C34  1  0.52470000  0.06440000  0.11085000  1.0
  C  C35  1  0.02423000  0.17546000  0.88909000  1.0
  C  C36  1  0.54473000  0.06765000  0.23353000  1.0
  C  C37  1  0.04394000  0.30142000  0.76633000  1.0
  C  C38  1  0.53794000  0.93999000  0.35495000  1.0
  C  C39  1  0.03716000  0.29501000  0.64498000  1.0
  C  C40  1  0.56285000  0.45655000  0.84112000  1.0
  C  C41  1  0.06274000  0.29772000  0.15892000  1.0
  C  C42  1  0.55887000  0.33462000  0.96762000  1.0
  C  C43  1  0.05848000  0.30248000  0.03235000  1.0
  C  C44  1  0.53253000  0.19690000  0.97870000  1.0
  C  C45  1  0.03239000  0.17578000  0.02123000  1.0
  C  C46  1  0.51272000  0.19004000  0.85768000  1.0
  C  C47  1  0.01321000  0.04770000  0.14226000  1.0
  C  C48  1  0.51515000  0.31719000  0.73516000  1.0
  C  C49  1  0.01590000  0.05215000  0.26483000  1.0
  S  S50  1  0.57323000  0.87718000  0.72435000  1.0
  S  S51  1  0.07341000  0.60108000  0.27569000  1.0
  N  N52  1  0.50799000  0.81120000  0.36112000  1.0
  N  N53  1  0.00739000  0.17226000  0.63896000  1.0
  N  N54  1  0.53965000  0.44834000  0.72639000  1.0
  N  N55  1  0.04004000  0.17458000  0.27363000  1.0
  O  O56  1  0.24375000  0.63784000  0.54918000  1.0
  O  O57  1  0.74367000  0.18719000  0.45079000  1.0
  O  O58  1  0.79092000  0.63464000  0.56884000  1.0
  O  O59  1  0.29101000  0.20325000  0.43116000  1.0
  O  O60  1  0.60340000  0.46445000  0.42747000  1.0
  O  O61  1  0.10387000  0.89178000  0.57254000  1.0
  O  O62  1  0.43519000  0.81232000  0.68873000  1.0
  O  O63  1  0.93539000  0.50038000  0.31196000  1.0
  O  O64  1  0.57347000  0.83719000  0.86786000  1.0
  O  O65  1  0.07311000  0.70440000  0.13211000  1.0
  O  O66  1  0.52350000  0.04903000  0.64257000  1.0
  O  O67  1  0.02402000  0.69132000  0.35740000  1.0
  O  O68  1  0.77044000  0.81972000  0.67788000  1.0
  O  O69  1  0.27070000  0.49739000  0.32166000  1.0
