# generated using pymatgen
data_AgH13C9NO2
_symmetry_space_group_name_H-M   'P 1'
_cell_length_a   6.71733000
_cell_length_b   9.86449000
_cell_length_c   15.14470000
_cell_angle_alpha   90.00050000
_cell_angle_beta   90.00050000
_cell_angle_gamma   103.53200000
_symmetry_Int_Tables_number   1
_chemical_formula_structural   AgH13C9NO2
_chemical_formula_sum   'Ag4 H52 C36 N4 O8'
_cell_volume   975.67506855
_cell_formula_units_Z   4
loop_
 _symmetry_equiv_pos_site_id
 _symmetry_equiv_pos_as_xyz
  1  'x, y, z'
loop_
 _atom_site_type_symbol
 _atom_site_label
 _atom_site_symmetry_multiplicity
 _atom_site_fract_x
 _atom_site_fract_y
 _atom_site_fract_z
 _atom_site_occupancy
  Ag  Ag0  1  0.88588000  0.56271000  0.97278000  1.0
  Ag  Ag1  1  0.11410000  0.43727000  0.47277000  1.0
  Ag  Ag2  1  0.95559000  0.56937000  0.15593000  1.0
  Ag  Ag3  1  0.04443000  0.43061000  0.65592000  1.0
  H  H4  1  0.64279000  0.82497000  0.22801000  1.0
  H  H5  1  0.35722000  0.17504000  0.72801000  1.0
  H  H6  1  0.71232000  0.72262000  0.14157000  1.0
  H  H7  1  0.28767000  0.27736000  0.64156000  1.0
  H  H8  1  0.45226000  0.73700000  0.15399000  1.0
  H  H9  1  0.54776000  0.26300000  0.65399000  1.0
  H  H10  1  0.45246000  0.05761000  0.92659000  1.0
  H  H11  1  0.54752000  0.94237000  0.42659000  1.0
  H  H12  1  0.19783000  0.97149000  0.89951000  1.0
  H  H13  1  0.80215000  0.02852000  0.39950000  1.0
  H  H14  1  0.09784000  0.61845000  0.33918000  1.0
  H  H15  1  0.90216000  0.38155000  0.83921000  1.0
  H  H16  1  0.30585000  0.74591000  0.37811000  1.0
  H  H17  1  0.69413000  0.25410000  0.87812000  1.0
  H  H18  1  0.24923000  0.73989000  0.26344000  1.0
  H  H19  1  0.75078000  0.26013000  0.76345000  1.0
  H  H20  1  0.85957000  0.96945000  0.11775000  1.0
  H  H21  1  0.14045000  0.03056000  0.61774000  1.0
  H  H22  1  0.85926000  0.14905000  0.11380000  1.0
  H  H23  1  0.14076000  0.85095000  0.61379000  1.0
  H  H24  1  0.87102000  0.05516000  0.01442000  1.0
  H  H25  1  0.12899000  0.94484000  0.51440000  1.0
  H  H26  1  0.89514000  0.33631000  0.23202000  1.0
  H  H27  1  0.10487000  0.66368000  0.73202000  1.0
  H  H28  1  0.89050000  0.31451000  0.34905000  1.0
  H  H29  1  0.10949000  0.68548000  0.84905000  1.0
  H  H30  1  0.70903000  0.20013000  0.28401000  1.0
  H  H31  1  0.29096000  0.79987000  0.78402000  1.0
  H  H32  1  0.49566000  0.33872000  0.12814000  1.0
  H  H33  1  0.50437000  0.66126000  0.62813000  1.0
  H  H34  1  0.57190000  0.22743000  0.04873000  1.0
  H  H35  1  0.42809000  0.77254000  0.54874000  1.0
  H  H36  1  0.54027000  0.39369000  0.01741000  1.0
  H  H37  1  0.45977000  0.60629000  0.51741000  1.0
  H  H38  1  0.58554000  0.28385000  0.47433000  1.0
  H  H39  1  0.41443000  0.71616000  0.97434000  1.0
  H  H40  1  0.31533000  0.24180000  0.45529000  1.0
  H  H41  1  0.68464000  0.75822000  0.95531000  1.0
  H  H42  1  0.48059000  0.16527000  0.38991000  1.0
  H  H43  1  0.51938000  0.83474000  0.88992000  1.0
  H  H44  1  0.16287000  0.19843000  0.22184000  1.0
  H  H45  1  0.83714000  0.80156000  0.72182000  1.0
  H  H46  1  0.14646000  0.01479000  0.22201000  1.0
  H  H47  1  0.85353000  0.98520000  0.72202000  1.0
  H  H48  1  0.38252000  0.13300000  0.19824000  1.0
  H  H49  1  0.61750000  0.86700000  0.69823000  1.0
  H  H50  1  0.40388000  0.99983000  0.07355000  1.0
  H  H51  1  0.59613000  0.00019000  0.57355000  1.0
  H  H52  1  0.32886000  0.26362000  0.89639000  1.0
  H  H53  1  0.67113000  0.73639000  0.39639000  1.0
  H  H54  1  0.07441000  0.17696000  0.91811000  1.0
  H  H55  1  0.92558000  0.82305000  0.41809000  1.0
  C  C56  1  0.13069000  0.84750000  0.05222000  1.0
  C  C57  1  0.86931000  0.15251000  0.55221000  1.0
  C  C58  1  0.59160000  0.72845000  0.18940000  1.0
  C  C59  1  0.40841000  0.27155000  0.68940000  1.0
  C  C60  1  0.29101000  0.04752000  0.94468000  1.0
  C  C61  1  0.70899000  0.95248000  0.44468000  1.0
  C  C62  1  0.25368000  0.67551000  0.32196000  1.0
  C  C63  1  0.74632000  0.32450000  0.82197000  1.0
  C  C64  1  0.55313000  0.60410000  0.24865000  1.0
  C  C65  1  0.44685000  0.39589000  0.74866000  1.0
  C  C66  1  0.92366000  0.06775000  0.08319000  1.0
  C  C67  1  0.07636000  0.93225000  0.58318000  1.0
  C  C68  1  0.79424000  0.30944000  0.28955000  1.0
  C  C69  1  0.20577000  0.69055000  0.78955000  1.0
  C  C70  1  0.47767000  0.30296000  0.05970000  1.0
  C  C71  1  0.52235000  0.69703000  0.55970000  1.0
  C  C72  1  0.65247000  0.40491000  0.29740000  1.0
  C  C73  1  0.34752000  0.59509000  0.79741000  1.0
  C  C74  1  0.46566000  0.26126000  0.42322000  1.0
  C  C75  1  0.53432000  0.73875000  0.92323000  1.0
  C  C76  1  0.21597000  0.11395000  0.18920000  1.0
  C  C77  1  0.78405000  0.88606000  0.68918000  1.0
  C  C78  1  0.39214000  0.57834000  0.31054000  1.0
  C  C79  1  0.60785000  0.42166000  0.81055000  1.0
  C  C80  1  0.49289000  0.38042000  0.35992000  1.0
  C  C81  1  0.50708000  0.61957000  0.85994000  1.0
  C  C82  1  0.15861000  0.10544000  0.09116000  1.0
  C  C83  1  0.84140000  0.89457000  0.59115000  1.0
  C  C84  1  0.25624000  0.99677000  0.04128000  1.0
  C  C85  1  0.74377000  0.00325000  0.54127000  1.0
  C  C86  1  0.23236000  0.18883000  0.94112000  1.0
  C  C87  1  0.76764000  0.81116000  0.44112000  1.0
  C  C88  1  0.25178000  0.24230000  0.03678000  1.0
  C  C89  1  0.74825000  0.75770000  0.53678000  1.0
  C  C90  1  0.13506000  0.35665000  0.05343000  1.0
  C  C91  1  0.86495000  0.64333000  0.55344000  1.0
  N  N92  1  0.68038000  0.51690000  0.24368000  1.0
  N  N93  1  0.31963000  0.48310000  0.74368000  1.0
  N  N94  1  0.36577000  0.46739000  0.36497000  1.0
  N  N95  1  0.63422000  0.53262000  0.86498000  1.0
  O  O96  1  0.01507000  0.79288000  0.98860000  1.0
  O  O97  1  0.98496000  0.20714000  0.48860000  1.0
  O  O98  1  0.14934000  0.78833000  0.12544000  1.0
  O  O99  1  0.85067000  0.21168000  0.62544000  1.0
  O  O100  1  0.16014000  0.41787000  0.12777000  1.0
  O  O101  1  0.83983000  0.58211000  0.62778000  1.0
  O  O102  1  0.02121000  0.38129000  0.99089000  1.0
  O  O103  1  0.97878000  0.61869000  0.49090000  1.0
