# generated using pymatgen
data_Cd2H35C39NO15
_symmetry_space_group_name_H-M   'P 1'
_cell_length_a   12.91690000
_cell_length_b   15.48370000
_cell_length_c   26.95650000
_cell_angle_alpha   100.91600000
_cell_angle_beta   89.99990000
_cell_angle_gamma   89.99940000
_symmetry_Int_Tables_number   1
_chemical_formula_structural   Cd2H35C39NO15
_chemical_formula_sum   'Cd8 H140 C156 N4 O60'
_cell_volume   5293.78628736
_cell_formula_units_Z   4
loop_
 _symmetry_equiv_pos_site_id
 _symmetry_equiv_pos_as_xyz
  1  'x, y, z'
loop_
 _atom_site_type_symbol
 _atom_site_label
 _atom_site_symmetry_multiplicity
 _atom_site_fract_x
 _atom_site_fract_y
 _atom_site_fract_z
 _atom_site_occupancy
  Cd  Cd0  1  0.18628000  0.74574000  0.76294000  1.0
  Cd  Cd1  1  0.68628000  0.25425000  0.73707000  1.0
  Cd  Cd2  1  0.81372000  0.25426000  0.23706000  1.0
  Cd  Cd3  1  0.31372000  0.74575000  0.26293000  1.0
  Cd  Cd4  1  0.34572000  0.76184000  0.65747000  1.0
  Cd  Cd5  1  0.84572000  0.23816000  0.84253000  1.0
  Cd  Cd6  1  0.65428000  0.23816000  0.34252000  1.0
  Cd  Cd7  1  0.15427000  0.76184000  0.15747000  1.0
  H  H8  1  0.04696000  0.64108000  0.89886000  1.0
  H  H9  1  0.54696000  0.35890000  0.60114000  1.0
  H  H10  1  0.95304000  0.35891000  0.10114000  1.0
  H  H11  1  0.45304000  0.64109000  0.39886000  1.0
  H  H12  1  0.40358000  0.87447000  0.86908000  1.0
  H  H13  1  0.90359000  0.12554000  0.63093000  1.0
  H  H14  1  0.59642000  0.12553000  0.13092000  1.0
  H  H15  1  0.09641000  0.87447000  0.36907000  1.0
  H  H16  1  0.84025000  0.41974000  0.88640000  1.0
  H  H17  1  0.34026000  0.58025000  0.61360000  1.0
  H  H18  1  0.15975000  0.58025000  0.11360000  1.0
  H  H19  1  0.65975000  0.41975000  0.38640000  1.0
  H  H20  1  0.89956000  0.53942000  0.75744000  1.0
  H  H21  1  0.39957000  0.46058000  0.74256000  1.0
  H  H22  1  0.10043000  0.46058000  0.24256000  1.0
  H  H23  1  0.60044000  0.53942000  0.25744000  1.0
  H  H24  1  0.52691000  0.98572000  0.74685000  1.0
  H  H25  1  0.02690000  0.01426000  0.75316000  1.0
  H  H26  1  0.47309000  0.01427000  0.25315000  1.0
  H  H27  1  0.97311000  0.98575000  0.24685000  1.0
  H  H28  1  0.61364000  0.85542000  0.89833000  1.0
  H  H29  1  0.11364000  0.14457000  0.60167000  1.0
  H  H30  1  0.38636000  0.14457000  0.10167000  1.0
  H  H31  1  0.88635000  0.85543000  0.39833000  1.0
  H  H32  1  0.60515000  0.10001000  0.90011000  1.0
  H  H33  1  0.10513000  0.89997000  0.59989000  1.0
  H  H34  1  0.39485000  0.89999000  0.09989000  1.0
  H  H35  1  0.89486000  0.10002000  0.40011000  1.0
  H  H36  1  0.38114000  0.11437000  0.91439000  1.0
  H  H37  1  0.88114000  0.88563000  0.58561000  1.0
  H  H38  1  0.61885000  0.88563000  0.08561000  1.0
  H  H39  1  0.11886000  0.11437000  0.41439000  1.0
  H  H40  1  0.22777000  0.45130000  0.05968000  1.0
  H  H41  1  0.72777000  0.54870000  0.44032000  1.0
  H  H42  1  0.77224000  0.54870000  0.94032000  1.0
  H  H43  1  0.27224000  0.45130000  0.55968000  1.0
  H  H44  1  0.14142000  0.50130000  0.88784000  1.0
  H  H45  1  0.64142000  0.49869000  0.61216000  1.0
  H  H46  1  0.85858000  0.49870000  0.11216000  1.0
  H  H47  1  0.35858000  0.50131000  0.38784000  1.0
  H  H48  1  0.28818000  0.54561000  0.85193000  1.0
  H  H49  1  0.78818000  0.45439000  0.64807000  1.0
  H  H50  1  0.71182000  0.45438000  0.14807000  1.0
  H  H51  1  0.21182000  0.54561000  0.35193000  1.0
  H  H52  1  0.26750000  0.42891000  0.83651000  1.0
  H  H53  1  0.76749000  0.57109000  0.66348000  1.0
  H  H54  1  0.73250000  0.57108000  0.16348000  1.0
  H  H55  1  0.23251000  0.42891000  0.33651000  1.0
  H  H56  1  0.39564000  0.47235000  0.83461000  1.0
  H  H57  1  0.89563000  0.52766000  0.66539000  1.0
  H  H58  1  0.60436000  0.52765000  0.16538000  1.0
  H  H59  1  0.10436000  0.47235000  0.33461000  1.0
  H  H60  1  0.40555000  0.93164000  0.65230000  1.0
  H  H61  1  0.90555000  0.06836000  0.84771000  1.0
  H  H62  1  0.59445000  0.06836000  0.34770000  1.0
  H  H63  1  0.09445000  0.93164000  0.15230000  1.0
  H  H64  1  0.29655000  0.90922000  0.62924000  1.0
  H  H65  1  0.79656000  0.09078000  0.87077000  1.0
  H  H66  1  0.70344000  0.09078000  0.37076000  1.0
  H  H67  1  0.20344000  0.90922000  0.12924000  1.0
  H  H68  1  0.45419000  0.69627000  0.58187000  1.0
  H  H69  1  0.95420000  0.30373000  0.91813000  1.0
  H  H70  1  0.54582000  0.30373000  0.41813000  1.0
  H  H71  1  0.04581000  0.69627000  0.08187000  1.0
  H  H72  1  0.51817000  0.64759000  0.61728000  1.0
  H  H73  1  0.01817000  0.35240000  0.88271000  1.0
  H  H74  1  0.48182000  0.35240000  0.38272000  1.0
  H  H75  1  0.98183000  0.64760000  0.11728000  1.0
  H  H76  1  0.38283000  0.50582000  0.07565000  1.0
  H  H77  1  0.88283000  0.49417000  0.42435000  1.0
  H  H78  1  0.61718000  0.49417000  0.92435000  1.0
  H  H79  1  0.11717000  0.50582000  0.57565000  1.0
  H  H80  1  0.49975000  0.45356000  0.05073000  1.0
  H  H81  1  0.99976000  0.54643000  0.44927000  1.0
  H  H82  1  0.50025000  0.54643000  0.94927000  1.0
  H  H83  1  0.00025000  0.45356000  0.55073000  1.0
  H  H84  1  0.38621000  0.38795000  0.05779000  1.0
  H  H85  1  0.88621000  0.61204000  0.44221000  1.0
  H  H86  1  0.61379000  0.61205000  0.94221000  1.0
  H  H87  1  0.11379000  0.38795000  0.55778000  1.0
  H  H88  1  0.77027000  0.82535000  0.10410000  1.0
  H  H89  1  0.27026000  0.17465000  0.39590000  1.0
  H  H90  1  0.22972000  0.17465000  0.89590000  1.0
  H  H91  1  0.72973000  0.82535000  0.60410000  1.0
  H  H92  1  0.79559000  0.70951000  0.09232000  1.0
  H  H93  1  0.29558000  0.29049000  0.40768000  1.0
  H  H94  1  0.20441000  0.29049000  0.90768000  1.0
  H  H95  1  0.70441000  0.70952000  0.59232000  1.0
  H  H96  1  0.66489000  0.74879000  0.10300000  1.0
  H  H97  1  0.16488000  0.25121000  0.39700000  1.0
  H  H98  1  0.33511000  0.25121000  0.89700000  1.0
  H  H99  1  0.83511000  0.74880000  0.60300000  1.0
  H  H100  1  0.76522000  0.78684000  0.87050000  1.0
  H  H101  1  0.26521000  0.21316000  0.62950000  1.0
  H  H102  1  0.23479000  0.21317000  0.12950000  1.0
  H  H103  1  0.73478000  0.78684000  0.37050000  1.0
  H  H104  1  0.65564000  0.71403000  0.86462000  1.0
  H  H105  1  0.15563000  0.28597000  0.63538000  1.0
  H  H106  1  0.34437000  0.28597000  0.13538000  1.0
  H  H107  1  0.84436000  0.71403000  0.36463000  1.0
  H  H108  1  0.78448000  0.67133000  0.86806000  1.0
  H  H109  1  0.28447000  0.32867000  0.63194000  1.0
  H  H110  1  0.21553000  0.32867000  0.13194000  1.0
  H  H111  1  0.71552000  0.67133000  0.36806000  1.0
  H  H112  1  0.11248000  0.65789000  0.44991000  1.0
  H  H113  1  0.61247000  0.34211000  0.05009000  1.0
  H  H114  1  0.88752000  0.34211000  0.55009000  1.0
  H  H115  1  0.38753000  0.65789000  0.94991000  1.0
  H  H116  1  0.07126000  0.76868000  0.47106000  1.0
  H  H117  1  0.57126000  0.23132000  0.02894000  1.0
  H  H118  1  0.92873000  0.23132000  0.52894000  1.0
  H  H119  1  0.42874000  0.76867000  0.97106000  1.0
  H  H120  1  0.35687000  0.66342000  0.46354000  1.0
  H  H121  1  0.85687000  0.33658000  0.03645000  1.0
  H  H122  1  0.64312000  0.33659000  0.53645000  1.0
  H  H123  1  0.14313000  0.66342000  0.96355000  1.0
  H  H124  1  0.38716000  0.77492000  0.48846000  1.0
  H  H125  1  0.88716000  0.22509000  0.01153000  1.0
  H  H126  1  0.61283000  0.22509000  0.51153000  1.0
  H  H127  1  0.11284000  0.77492000  0.98847000  1.0
  H  H128  1  0.23440000  0.82733000  0.45197000  1.0
  H  H129  1  0.73441000  0.17267000  0.04803000  1.0
  H  H130  1  0.76558000  0.17268000  0.54803000  1.0
  H  H131  1  0.26560000  0.82733000  0.95197000  1.0
  H  H132  1  0.24548000  0.72757000  0.40754000  1.0
  H  H133  1  0.74548000  0.27244000  0.09246000  1.0
  H  H134  1  0.75450000  0.27245000  0.59246000  1.0
  H  H135  1  0.25452000  0.72756000  0.90754000  1.0
  H  H136  1  0.12979000  0.69526000  0.59385000  1.0
  H  H137  1  0.62978000  0.30474000  0.90615000  1.0
  H  H138  1  0.87022000  0.30473000  0.40615000  1.0
  H  H139  1  0.37022000  0.69526000  0.09385000  1.0
  H  H140  1  0.04984000  0.63721000  0.54376000  1.0
  H  H141  1  0.54983000  0.36279000  0.95624000  1.0
  H  H142  1  0.95017000  0.36279000  0.45624000  1.0
  H  H143  1  0.45017000  0.63721000  0.04376000  1.0
  H  H144  1  0.03361000  0.75254000  0.56488000  1.0
  H  H145  1  0.53361000  0.24745000  0.93512000  1.0
  H  H146  1  0.96639000  0.24745000  0.43512000  1.0
  H  H147  1  0.46639000  0.75255000  0.06488000  1.0
  C  C148  1  0.79566000  0.40497000  0.78706000  1.0
  C  C149  1  0.29566000  0.59503000  0.71294000  1.0
  C  C150  1  0.20434000  0.59503000  0.21294000  1.0
  C  C151  1  0.70435000  0.40497000  0.28705000  1.0
  C  C152  1  0.03877000  0.66133000  0.80296000  1.0
  C  C153  1  0.53877000  0.33867000  0.69704000  1.0
  C  C154  1  0.96124000  0.33867000  0.19704000  1.0
  C  C155  1  0.46124000  0.66133000  0.30296000  1.0
  C  C156  1  0.50415000  0.98732000  0.89139000  1.0
  C  C157  1  0.00415000  0.01268000  0.60861000  1.0
  C  C158  1  0.49584000  0.01268000  0.10861000  1.0
  C  C159  1  0.99584000  0.98732000  0.39139000  1.0
  C  C160  1  0.99428000  0.59337000  0.87731000  1.0
  C  C161  1  0.49428000  0.40662000  0.62269000  1.0
  C  C162  1  0.00573000  0.40663000  0.12269000  1.0
  C  C163  1  0.50572000  0.59338000  0.37731000  1.0
  C  C164  1  0.45202000  0.92383000  0.85650000  1.0
  C  C165  1  0.95203000  0.07618000  0.64350000  1.0
  C  C166  1  0.54798000  0.07618000  0.14350000  1.0
  C  C167  1  0.04798000  0.92383000  0.35650000  1.0
  C  C168  1  0.86174000  0.47303000  0.81881000  1.0
  C  C169  1  0.36174000  0.52697000  0.68119000  1.0
  C  C170  1  0.13826000  0.52697000  0.18119000  1.0
  C  C171  1  0.63826000  0.47303000  0.31881000  1.0
  C  C172  1  0.63561000  0.12048000  0.80506000  1.0
  C  C173  1  0.13559000  0.87951000  0.69494000  1.0
  C  C174  1  0.36440000  0.87952000  0.19494000  1.0
  C  C175  1  0.86441000  0.12049000  0.30506000  1.0
  C  C176  1  0.97719000  0.59774000  0.82658000  1.0
  C  C177  1  0.47720000  0.40225000  0.67342000  1.0
  C  C178  1  0.02281000  0.40226000  0.17342000  1.0
  C  C179  1  0.52281000  0.59775000  0.32658000  1.0
  C  C180  1  0.87962000  0.46937000  0.86959000  1.0
  C  C181  1  0.37962000  0.53062000  0.63040000  1.0
  C  C182  1  0.12038000  0.53062000  0.13041000  1.0
  C  C183  1  0.62038000  0.46938000  0.36959000  1.0
  C  C184  1  0.94771000  0.52807000  0.89928000  1.0
  C  C185  1  0.44771000  0.47191000  0.60072000  1.0
  C  C186  1  0.05229000  0.47193000  0.10072000  1.0
  C  C187  1  0.55229000  0.52808000  0.39928000  1.0
  C  C188  1  0.57218000  0.05022000  0.82174000  1.0
  C  C189  1  0.07217000  0.94977000  0.67826000  1.0
  C  C190  1  0.42782000  0.94978000  0.17826000  1.0
  C  C191  1  0.92783000  0.05024000  0.32175000  1.0
  C  C192  1  0.91087000  0.53743000  0.79721000  1.0
  C  C193  1  0.41087000  0.46256000  0.70279000  1.0
  C  C194  1  0.08913000  0.46257000  0.20279000  1.0
  C  C195  1  0.58913000  0.53743000  0.29721000  1.0
  C  C196  1  0.49896000  0.99161000  0.94675000  1.0
  C  C197  1  0.99896000  0.00839000  0.55325000  1.0
  C  C198  1  0.50104000  0.00839000  0.05325000  1.0
  C  C199  1  0.00104000  0.99161000  0.44676000  1.0
  C  C200  1  0.97441000  0.51583000  0.95104000  1.0
  C  C201  1  0.47441000  0.48416000  0.54895000  1.0
  C  C202  1  0.02559000  0.48416000  0.04896000  1.0
  C  C203  1  0.52559000  0.51584000  0.45104000  1.0
  C  C204  1  0.55526000  0.93062000  0.96891000  1.0
  C  C205  1  0.05526000  0.06937000  0.53109000  1.0
  C  C206  1  0.44473000  0.06937000  0.03109000  1.0
  C  C207  1  0.94473000  0.93063000  0.46891000  1.0
  C  C208  1  0.52049000  0.98612000  0.78713000  1.0
  C  C209  1  0.02048000  0.01387000  0.71287000  1.0
  C  C210  1  0.47951000  0.01387000  0.21287000  1.0
  C  C211  1  0.97952000  0.98614000  0.28713000  1.0
  C  C212  1  0.44351000  0.06081000  0.97696000  1.0
  C  C213  1  0.94351000  0.93919000  0.52304000  1.0
  C  C214  1  0.55649000  0.93919000  0.02304000  1.0
  C  C215  1  0.05649000  0.06081000  0.47696000  1.0
  C  C216  1  0.61395000  0.86130000  0.93916000  1.0
  C  C217  1  0.11395000  0.13870000  0.56084000  1.0
  C  C218  1  0.38605000  0.13870000  0.06084000  1.0
  C  C219  1  0.88604000  0.86130000  0.43916000  1.0
  C  C220  1  0.56436000  0.04983000  0.87342000  1.0
  C  C221  1  0.06435000  0.95016000  0.62658000  1.0
  C  C222  1  0.43564000  0.95017000  0.12658000  1.0
  C  C223  1  0.93565000  0.04984000  0.37342000  1.0
  C  C224  1  0.26131000  0.47804000  0.93795000  1.0
  C  C225  1  0.76131000  0.52195000  0.56205000  1.0
  C  C226  1  0.73869000  0.52195000  0.06205000  1.0
  C  C227  1  0.23869000  0.47804000  0.43795000  1.0
  C  C228  1  0.28670000  0.46646000  0.98828000  1.0
  C  C229  1  0.78670000  0.53353000  0.51171000  1.0
  C  C230  1  0.71331000  0.53354000  0.01171000  1.0
  C  C231  1  0.21331000  0.46646000  0.48828000  1.0
  C  C232  1  0.46078000  0.92265000  0.80452000  1.0
  C  C233  1  0.96078000  0.07734000  0.69548000  1.0
  C  C234  1  0.53922000  0.07735000  0.19548000  1.0
  C  C235  1  0.03922000  0.92266000  0.30452000  1.0
  C  C236  1  0.67099000  0.80336000  0.96095000  1.0
  C  C237  1  0.17099000  0.19664000  0.53905000  1.0
  C  C238  1  0.32901000  0.19665000  0.03905000  1.0
  C  C239  1  0.82901000  0.80336000  0.46095000  1.0
  C  C240  1  0.07832000  0.49780000  0.96241000  1.0
  C  C241  1  0.57832000  0.50220000  0.53758000  1.0
  C  C242  1  0.92169000  0.50220000  0.03759000  1.0
  C  C243  1  0.42168000  0.49780000  0.46241000  1.0
  C  C244  1  0.38362000  0.12198000  0.95532000  1.0
  C  C245  1  0.88362000  0.87802000  0.54468000  1.0
  C  C246  1  0.61637000  0.87802000  0.04468000  1.0
  C  C247  1  0.11637000  0.12198000  0.45532000  1.0
  C  C248  1  0.20901000  0.46588000  0.02292000  1.0
  C  C249  1  0.70901000  0.53412000  0.47708000  1.0
  C  C250  1  0.79099000  0.53412000  0.97708000  1.0
  C  C251  1  0.29099000  0.46587000  0.52292000  1.0
  C  C252  1  0.15980000  0.49196000  0.92584000  1.0
  C  C253  1  0.65980000  0.50803000  0.57416000  1.0
  C  C254  1  0.84020000  0.50804000  0.07416000  1.0
  C  C255  1  0.34020000  0.49197000  0.42584000  1.0
  C  C256  1  0.89615000  0.51739000  0.98788000  1.0
  C  C257  1  0.39615000  0.48261000  0.51212000  1.0
  C  C258  1  0.10385000  0.48261000  0.01212000  1.0
  C  C259  1  0.60385000  0.51739000  0.48788000  1.0
  C  C260  1  0.32114000  0.48098000  0.85427000  1.0
  C  C261  1  0.82114000  0.51902000  0.64573000  1.0
  C  C262  1  0.67886000  0.51901000  0.14573000  1.0
  C  C263  1  0.17886000  0.48098000  0.35427000  1.0
  C  C264  1  0.67252000  0.81197000  0.01518000  1.0
  C  C265  1  0.17252000  0.18803000  0.48482000  1.0
  C  C266  1  0.32747000  0.18803000  0.98482000  1.0
  C  C267  1  0.82748000  0.81197000  0.51518000  1.0
  C  C268  1  0.40399000  0.85367000  0.76797000  1.0
  C  C269  1  0.90400000  0.14633000  0.73203000  1.0
  C  C270  1  0.59601000  0.14633000  0.23203000  1.0
  C  C271  1  0.09601000  0.85368000  0.26797000  1.0
  C  C272  1  0.41537000  0.44991000  0.04877000  1.0
  C  C273  1  0.91537000  0.55009000  0.45123000  1.0
  C  C274  1  0.58463000  0.55009000  0.95123000  1.0
  C  C275  1  0.08463000  0.44990000  0.54877000  1.0
  C  C276  1  0.74044000  0.76016000  0.08635000  1.0
  C  C277  1  0.24043000  0.23984000  0.41365000  1.0
  C  C278  1  0.25955000  0.23984000  0.91366000  1.0
  C  C279  1  0.75956000  0.76017000  0.58635000  1.0
  C  C280  1  0.73322000  0.72719000  0.88141000  1.0
  C  C281  1  0.23321000  0.27281000  0.61859000  1.0
  C  C282  1  0.26678000  0.27282000  0.11859000  1.0
  C  C283  1  0.76678000  0.72719000  0.38141000  1.0
  C  C284  1  0.13700000  0.72333000  0.47024000  1.0
  C  C285  1  0.63700000  0.27667000  0.02976000  1.0
  C  C286  1  0.86299000  0.27668000  0.52977000  1.0
  C  C287  1  0.36301000  0.72332000  0.97024000  1.0
  C  C288  1  0.27004000  0.71570000  0.52847000  1.0
  C  C289  1  0.77003000  0.28431000  0.97153000  1.0
  C  C290  1  0.72997000  0.28431000  0.47153000  1.0
  C  C291  1  0.22997000  0.71569000  0.02847000  1.0
  C  C292  1  0.32327000  0.72768000  0.48035000  1.0
  C  C293  1  0.82326000  0.27233000  0.01965000  1.0
  C  C294  1  0.67673000  0.27233000  0.51965000  1.0
  C  C295  1  0.17674000  0.72768000  0.98035000  1.0
  C  C296  1  0.23624000  0.75540000  0.44781000  1.0
  C  C297  1  0.73624000  0.24461000  0.05219000  1.0
  C  C298  1  0.76375000  0.24461000  0.55219000  1.0
  C  C299  1  0.26376000  0.75539000  0.94781000  1.0
  C  C300  1  0.09089000  0.69907000  0.55825000  1.0
  C  C301  1  0.59088000  0.30093000  0.94175000  1.0
  C  C302  1  0.90912000  0.30093000  0.44175000  1.0
  C  C303  1  0.40912000  0.69907000  0.05825000  1.0
  N  N304  1  0.16708000  0.71659000  0.52191000  1.0
  N  N305  1  0.66708000  0.28341000  0.97809000  1.0
  N  N306  1  0.83292000  0.28341000  0.47809000  1.0
  N  N307  1  0.33292000  0.71659000  0.02191000  1.0
  O  O308  1  0.02864000  0.66073000  0.75607000  1.0
  O  O309  1  0.52864000  0.33926000  0.74393000  1.0
  O  O310  1  0.97135000  0.33927000  0.24393000  1.0
  O  O311  1  0.47137000  0.66074000  0.25607000  1.0
  O  O312  1  0.10434000  0.71050000  0.83118000  1.0
  O  O313  1  0.60435000  0.28949000  0.66882000  1.0
  O  O314  1  0.89568000  0.28948000  0.16882000  1.0
  O  O315  1  0.39565000  0.71051000  0.33117000  1.0
  O  O316  1  0.69236000  0.16610000  0.83929000  1.0
  O  O317  1  0.19235000  0.83389000  0.66072000  1.0
  O  O318  1  0.30764000  0.83390000  0.16072000  1.0
  O  O319  1  0.80764000  0.16611000  0.33929000  1.0
  O  O320  1  0.77377000  0.40896000  0.74250000  1.0
  O  O321  1  0.27378000  0.59104000  0.75749000  1.0
  O  O322  1  0.22623000  0.59105000  0.25749000  1.0
  O  O323  1  0.72624000  0.40896000  0.24251000  1.0
  O  O324  1  0.76231000  0.34032000  0.80827000  1.0
  O  O325  1  0.26231000  0.65967000  0.69172000  1.0
  O  O326  1  0.23768000  0.65968000  0.19172000  1.0
  O  O327  1  0.73769000  0.34033000  0.30828000  1.0
  O  O328  1  0.34291000  0.47339000  0.90559000  1.0
  O  O329  1  0.84291000  0.52661000  0.59441000  1.0
  O  O330  1  0.65709000  0.52661000  0.09441000  1.0
  O  O331  1  0.15709000  0.47338000  0.40559000  1.0
  O  O332  1  0.38904000  0.45606000  0.99777000  1.0
  O  O333  1  0.88904000  0.54394000  0.50223000  1.0
  O  O334  1  0.61096000  0.54394000  0.00223000  1.0
  O  O335  1  0.11096000  0.45606000  0.49777000  1.0
  O  O336  1  0.62780000  0.13025000  0.75955000  1.0
  O  O337  1  0.12777000  0.86974000  0.74045000  1.0
  O  O338  1  0.37222000  0.86976000  0.24045000  1.0
  O  O339  1  0.87222000  0.13026000  0.25955000  1.0
  O  O340  1  0.72947000  0.73621000  0.93521000  1.0
  O  O341  1  0.22947000  0.26379000  0.56479000  1.0
  O  O342  1  0.27053000  0.26379000  0.06480000  1.0
  O  O343  1  0.77053000  0.73621000  0.43521000  1.0
  O  O344  1  0.73273000  0.75232000  0.03271000  1.0
  O  O345  1  0.23272000  0.24768000  0.46729000  1.0
  O  O346  1  0.26726000  0.24768000  0.96729000  1.0
  O  O347  1  0.76727000  0.75232000  0.53271000  1.0
  O  O348  1  0.34471000  0.80248000  0.78622000  1.0
  O  O349  1  0.84473000  0.19754000  0.71378000  1.0
  O  O350  1  0.65529000  0.19753000  0.21378000  1.0
  O  O351  1  0.15528000  0.80247000  0.28622000  1.0
  O  O352  1  0.42130000  0.85215000  0.72097000  1.0
  O  O353  1  0.92130000  0.14784000  0.77904000  1.0
  O  O354  1  0.57869000  0.14785000  0.27903000  1.0
  O  O355  1  0.07870000  0.85217000  0.22096000  1.0
  O  O356  1  0.37063000  0.89814000  0.62266000  1.0
  O  O357  1  0.87064000  0.10186000  0.87734000  1.0
  O  O358  1  0.62937000  0.10186000  0.37734000  1.0
  O  O359  1  0.12937000  0.89814000  0.12266000  1.0
  O  O360  1  0.31580000  0.70305000  0.56782000  1.0
  O  O361  1  0.81580000  0.29696000  0.93218000  1.0
  O  O362  1  0.68420000  0.29696000  0.43217000  1.0
  O  O363  1  0.18420000  0.70304000  0.06782000  1.0
  O  O364  1  0.49700000  0.70629000  0.61303000  1.0
  O  O365  1  0.99700000  0.29370000  0.88697000  1.0
  O  O366  1  0.50300000  0.29370000  0.38697000  1.0
  O  O367  1  0.00300000  0.70630000  0.11303000  1.0
