# generated using pymatgen
data_CdH18C26(N3O2)2
_symmetry_space_group_name_H-M   'P 1'
_cell_length_a   8.04425000
_cell_length_b   13.12200000
_cell_length_c   13.87680000
_cell_angle_alpha   90.00010000
_cell_angle_beta   90.00020000
_cell_angle_gamma   76.47500000
_symmetry_Int_Tables_number   1
_chemical_formula_structural   CdH18C26(N3O2)2
_chemical_formula_sum   'Cd2 H36 C52 N12 O8'
_cell_volume   1424.16693846
_cell_formula_units_Z   2
loop_
 _symmetry_equiv_pos_site_id
 _symmetry_equiv_pos_as_xyz
  1  'x, y, z'
loop_
 _atom_site_type_symbol
 _atom_site_label
 _atom_site_symmetry_multiplicity
 _atom_site_fract_x
 _atom_site_fract_y
 _atom_site_fract_z
 _atom_site_occupancy
  Cd  Cd0  1  0.99984000  0.99952000  0.17938000  1.0
  Cd  Cd1  1  0.99984000  0.49952000  0.82062000  1.0
  H  H2  1  0.86823000  0.68361000  0.01673000  1.0
  H  H3  1  0.86823000  0.18361000  0.98327000  1.0
  H  H4  1  0.65479000  0.57865000  0.97365000  1.0
  H  H5  1  0.65479000  0.07865000  0.02635000  1.0
  H  H6  1  0.25064000  0.82097000  0.09165000  1.0
  H  H7  1  0.25064000  0.32097000  0.90835000  1.0
  H  H8  1  0.46529000  0.92601000  0.13442000  1.0
  H  H9  1  0.46528000  0.42601000  0.86559000  1.0
  H  H10  1  0.09559000  0.71780000  0.81171000  1.0
  H  H11  1  0.09559000  0.21780000  0.18829000  1.0
  H  H12  1  0.31897000  0.71476000  0.82103000  1.0
  H  H13  1  0.31897000  0.21476000  0.17897000  1.0
  H  H14  1  0.16782000  0.80122000  0.89527000  1.0
  H  H15  1  0.16782000  0.30122000  0.10473000  1.0
  H  H16  1  0.56404000  0.36847000  0.68030000  1.0
  H  H17  1  0.56405000  0.86847000  0.31970000  1.0
  H  H18  1  0.76711000  0.29394000  0.54771000  1.0
  H  H19  1  0.76711000  0.79394000  0.45229000  1.0
  H  H20  1  0.34537000  0.24455000  0.37623000  1.0
  H  H21  1  0.34537000  0.74455000  0.62377000  1.0
  H  H22  1  0.14437000  0.31327000  0.51287000  1.0
  H  H23  1  0.14438000  0.81327000  0.48713000  1.0
  H  H24  1  0.90721000  0.98765000  0.40180000  1.0
  H  H25  1  0.90721000  0.48765000  0.59820000  1.0
  H  H26  1  0.72108000  0.04820000  0.47010000  1.0
  H  H27  1  0.72108000  0.54820000  0.52990000  1.0
  H  H28  1  0.91757000  0.08338000  0.49194000  1.0
  H  H29  1  0.91757000  0.58338000  0.50806000  1.0
  H  H30  1  0.50516000  0.36110000  0.11998000  1.0
  H  H31  1  0.50516000  0.86110000  0.88002000  1.0
  H  H32  1  0.26689000  0.67187000  0.22230000  1.0
  H  H33  1  0.26689000  0.17187000  0.77770000  1.0
  H  H34  1  0.40743000  0.62895000  0.38139000  1.0
  H  H35  1  0.40743000  0.12895000  0.61862000  1.0
  H  H36  1  0.59258000  0.45291000  0.41097000  1.0
  H  H37  1  0.59258000  0.95291000  0.58903000  1.0
  C  C38  1  0.80596000  0.87255000  0.10625000  1.0
  C  C39  1  0.80596000  0.37255000  0.89374000  1.0
  C  C40  1  0.67927000  0.81055000  0.07827000  1.0
  C  C41  1  0.67927000  0.31055000  0.92173000  1.0
  C  C42  1  0.73336000  0.71283000  0.03335000  1.0
  C  C43  1  0.73336000  0.21283000  0.96665000  1.0
  C  C44  1  0.61540000  0.65403000  0.01032000  1.0
  C  C45  1  0.61540000  0.15403000  0.98967000  1.0
  C  C46  1  0.44355000  0.69444000  0.03339000  1.0
  C  C47  1  0.44355000  0.19444000  0.96661000  1.0
  C  C48  1  0.38647000  0.79226000  0.07659000  1.0
  C  C49  1  0.38647000  0.29226000  0.92341000  1.0
  C  C50  1  0.50560000  0.85031000  0.09885000  1.0
  C  C51  1  0.50560000  0.35031000  0.90115000  1.0
  C  C52  1  0.19885000  0.72325000  0.86138000  1.0
  C  C53  1  0.19885000  0.22325000  0.13862000  1.0
  C  C54  1  0.21637000  0.64084000  0.93600000  1.0
  C  C55  1  0.21637000  0.14084000  0.06400000  1.0
  C  C56  1  0.29655000  0.54858000  0.06726000  1.0
  C  C57  1  0.29655000  0.04858000  0.93275000  1.0
  C  C58  1  0.21651000  0.39711000  0.67878000  1.0
  C  C59  1  0.21651000  0.89712000  0.32122000  1.0
  C  C60  1  0.34191000  0.34720000  0.60284000  1.0
  C  C61  1  0.34191000  0.84720000  0.39716000  1.0
  C  C62  1  0.51749000  0.34006000  0.61406000  1.0
  C  C63  1  0.51749000  0.84006000  0.38594000  1.0
  C  C64  1  0.63051000  0.29857000  0.54013000  1.0
  C  C65  1  0.63051000  0.79857000  0.45987000  1.0
  C  C66  1  0.56575000  0.26724000  0.45440000  1.0
  C  C67  1  0.56575000  0.76724000  0.54560000  1.0
  C  C68  1  0.39183000  0.27073000  0.44351000  1.0
  C  C69  1  0.39184000  0.77073000  0.55648000  1.0
  C  C70  1  0.28071000  0.30971000  0.51863000  1.0
  C  C71  1  0.28071000  0.80971000  0.48136000  1.0
  C  C72  1  0.83723000  0.06092000  0.43530000  1.0
  C  C73  1  0.83723000  0.56092000  0.56470000  1.0
  C  C74  1  0.79238000  0.14347000  0.36066000  1.0
  C  C75  1  0.79238000  0.64347000  0.63934000  1.0
  C  C76  1  0.66774000  0.29006000  0.28592000  1.0
  C  C77  1  0.66774000  0.79006000  0.71408000  1.0
  C  C78  1  0.55898000  0.39457000  0.26806000  1.0
  C  C79  1  0.55898000  0.89457000  0.73194000  1.0
  C  C80  1  0.48269000  0.41942000  0.17740000  1.0
  C  C81  1  0.48269000  0.91942000  0.82260000  1.0
  C  C82  1  0.37898000  0.51950000  0.16101000  1.0
  C  C83  1  0.37898000  0.01950000  0.83899000  1.0
  C  C84  1  0.35096000  0.59488000  0.23484000  1.0
  C  C85  1  0.35096000  0.09488000  0.76516000  1.0
  C  C86  1  0.42836000  0.57033000  0.32432000  1.0
  C  C87  1  0.42836000  0.07034000  0.67568000  1.0
  C  C88  1  0.53196000  0.47108000  0.34093000  1.0
  C  C89  1  0.53196000  0.97108000  0.65907000  1.0
  N  N90  1  0.13283000  0.56471000  0.94208000  1.0
  N  N91  1  0.13284000  0.06471000  0.05792000  1.0
  N  N92  1  0.18209000  0.50664000  0.02440000  1.0
  N  N93  1  0.18210000  0.00664000  0.97560000  1.0
  N  N94  1  0.32230000  0.63246000  0.01378000  1.0
  N  N95  1  0.32229000  0.13246000  0.98622000  1.0
  N  N96  1  0.85265000  0.14116000  0.27151000  1.0
  N  N97  1  0.85265000  0.64116000  0.72849000  1.0
  N  N98  1  0.77573000  0.23237000  0.22445000  1.0
  N  N99  1  0.77572000  0.73237000  0.77555000  1.0
  N  N100  1  0.67513000  0.23679000  0.37301000  1.0
  N  N101  1  0.67513000  0.73679000  0.62699000  1.0
  O  O102  1  0.74539000  0.96175000  0.14741000  1.0
  O  O103  1  0.74539000  0.46175000  0.85259000  1.0
  O  O104  1  0.96386000  0.83697000  0.09048000  1.0
  O  O105  1  0.96386000  0.33697000  0.90951000  1.0
  O  O106  1  0.25827000  0.46514000  0.73370000  1.0
  O  O107  1  0.25828000  0.96514000  0.26630000  1.0
  O  O108  1  0.07347000  0.37169000  0.68323000  1.0
  O  O109  1  0.07347000  0.87170000  0.31676000  1.0
