# generated using pymatgen
data_ZnH11C17NO4
_symmetry_space_group_name_H-M   'P 1'
_cell_length_a   11.23700000
_cell_length_b   14.17910000
_cell_length_c   24.69950000
_cell_angle_alpha   89.99990000
_cell_angle_beta   81.08630000
_cell_angle_gamma   89.99990000
_symmetry_Int_Tables_number   1
_chemical_formula_structural   ZnH11C17NO4
_chemical_formula_sum   'Zn8 H88 C136 N8 O32'
_cell_volume   3887.85658439
_cell_formula_units_Z   8
loop_
 _symmetry_equiv_pos_site_id
 _symmetry_equiv_pos_as_xyz
  1  'x, y, z'
loop_
 _atom_site_type_symbol
 _atom_site_label
 _atom_site_symmetry_multiplicity
 _atom_site_fract_x
 _atom_site_fract_y
 _atom_site_fract_z
 _atom_site_occupancy
  Zn  Zn0  1  0.04158000  0.89181000  0.99804000  1.0
  Zn  Zn1  1  0.95842000  0.39181000  0.50196000  1.0
  Zn  Zn2  1  0.95842000  0.10819000  0.00196000  1.0
  Zn  Zn3  1  0.04158000  0.60819000  0.49804000  1.0
  Zn  Zn4  1  0.26242000  0.01839000  0.95013000  1.0
  Zn  Zn5  1  0.73758000  0.51839000  0.54987000  1.0
  Zn  Zn6  1  0.73758000  0.98161000  0.04987000  1.0
  Zn  Zn7  1  0.26242000  0.48161000  0.45013000  1.0
  H  H8  1  0.92640000  0.92591000  0.88698000  1.0
  H  H9  1  0.07360000  0.42591000  0.61302000  1.0
  H  H10  1  0.07360000  0.07409000  0.11302000  1.0
  H  H11  1  0.92640000  0.57409000  0.38697000  1.0
  H  H12  1  0.81034000  0.82933000  0.82829000  1.0
  H  H13  1  0.18967000  0.32933000  0.67171000  1.0
  H  H14  1  0.18966000  0.17066000  0.17171000  1.0
  H  H15  1  0.81034000  0.67067000  0.32829000  1.0
  H  H16  1  0.74631000  0.66558000  0.85828000  1.0
  H  H17  1  0.25369000  0.16557000  0.64172000  1.0
  H  H18  1  0.25369000  0.33442000  0.14172000  1.0
  H  H19  1  0.74631000  0.83443000  0.35828000  1.0
  H  H20  1  0.80845000  0.47821000  0.01507000  1.0
  H  H21  1  0.19154000  0.97820000  0.48493000  1.0
  H  H22  1  0.19154000  0.52179000  0.98493000  1.0
  H  H23  1  0.80846000  0.02180000  0.51507000  1.0
  H  H24  1  0.74779000  0.53502000  0.92871000  1.0
  H  H25  1  0.25220000  0.03502000  0.57129000  1.0
  H  H26  1  0.25220000  0.46498000  0.07129000  1.0
  H  H27  1  0.74780000  0.96499000  0.42871000  1.0
  H  H28  1  0.06761000  0.78651000  0.10991000  1.0
  H  H29  1  0.93239000  0.28651000  0.39009000  1.0
  H  H30  1  0.93239000  0.21349000  0.89009000  1.0
  H  H31  1  0.06761000  0.71349000  0.60991000  1.0
  H  H32  1  0.02329000  0.62354000  0.14895000  1.0
  H  H33  1  0.97670000  0.12354000  0.35105000  1.0
  H  H34  1  0.97671000  0.37646000  0.85105000  1.0
  H  H35  1  0.02330000  0.87646000  0.64895000  1.0
  H  H36  1  0.91690000  0.50836000  0.09624000  1.0
  H  H37  1  0.08309000  0.00836000  0.40376000  1.0
  H  H38  1  0.08310000  0.49164000  0.90376000  1.0
  H  H39  1  0.91691000  0.99164000  0.59624000  1.0
  H  H40  1  0.53296000  0.69093000  0.77118000  1.0
  H  H41  1  0.46704000  0.19093000  0.72882000  1.0
  H  H42  1  0.46703000  0.30907000  0.22882000  1.0
  H  H43  1  0.53296000  0.80907000  0.27118000  1.0
  H  H44  1  0.46010000  0.82454000  0.83332000  1.0
  H  H45  1  0.53990000  0.32454000  0.66666667  1.0
  H  H46  1  0.53990000  0.17546000  0.16668000  1.0
  H  H47  1  0.46010000  0.67546000  0.33333333  1.0
  H  H48  1  0.17325000  0.65242000  0.91442000  1.0
  H  H49  1  0.82677000  0.15242000  0.58558000  1.0
  H  H50  1  0.82676000  0.34758000  0.08559000  1.0
  H  H51  1  0.17325000  0.84758000  0.41441000  1.0
  H  H52  1  0.24694000  0.51700000  0.85253000  1.0
  H  H53  1  0.75308000  0.01700000  0.64747000  1.0
  H  H54  1  0.75307000  0.48300000  0.14747000  1.0
  H  H55  1  0.24693000  0.98300000  0.35253000  1.0
  H  H56  1  0.21899000  0.58862000  0.75003000  1.0
  H  H57  1  0.78101000  0.08863000  0.74997000  1.0
  H  H58  1  0.78101000  0.41138000  0.24997000  1.0
  H  H59  1  0.21899000  0.91138000  0.25003000  1.0
  H  H60  1  0.13878000  0.59646000  0.66178000  1.0
  H  H61  1  0.86121000  0.09646000  0.83822000  1.0
  H  H62  1  0.86121000  0.40354000  0.33822000  1.0
  H  H63  1  0.13879000  0.90354000  0.16178000  1.0
  H  H64  1  0.47298000  0.48660000  0.57732000  1.0
  H  H65  1  0.52702000  0.98660000  0.92268000  1.0
  H  H66  1  0.52702000  0.51340000  0.42268000  1.0
  H  H67  1  0.47297000  0.01340000  0.07732000  1.0
  H  H68  1  0.55488000  0.48066000  0.66525000  1.0
  H  H69  1  0.44512000  0.98066000  0.83475000  1.0
  H  H70  1  0.44512000  0.51934000  0.33475000  1.0
  H  H71  1  0.55489000  0.01934000  0.16525000  1.0
  H  H72  1  0.28260000  0.38360000  0.73276000  1.0
  H  H73  1  0.71740000  0.88360000  0.76724000  1.0
  H  H74  1  0.71739000  0.61640000  0.26724000  1.0
  H  H75  1  0.28260000  0.11640000  0.23276000  1.0
  H  H76  1  0.20943000  0.23199000  0.77865000  1.0
  H  H77  1  0.79057000  0.73198000  0.72135000  1.0
  H  H78  1  0.79057000  0.76802000  0.22135000  1.0
  H  H79  1  0.20943000  0.26801000  0.27865000  1.0
  H  H80  1  0.42860000  0.28066000  0.90288000  1.0
  H  H81  1  0.57140000  0.78067000  0.59712000  1.0
  H  H82  1  0.57139000  0.71933000  0.09712000  1.0
  H  H83  1  0.42861000  0.21934000  0.40288000  1.0
  H  H84  1  0.49553000  0.43457000  0.86026000  1.0
  H  H85  1  0.50447000  0.93457000  0.63975000  1.0
  H  H86  1  0.50447000  0.56543000  0.13974000  1.0
  H  H87  1  0.49553000  0.06543000  0.36026000  1.0
  H  H88  1  0.08153000  0.03371000  0.91651000  1.0
  H  H89  1  0.91847000  0.53371000  0.58348000  1.0
  H  H90  1  0.91847000  0.96629000  0.08349000  1.0
  H  H91  1  0.08153000  0.46629000  0.41651000  1.0
  H  H92  1  0.59749000  0.47725000  0.78339000  1.0
  H  H93  1  0.40251000  0.97725000  0.71661000  1.0
  H  H94  1  0.40251000  0.52275000  0.21661000  1.0
  H  H95  1  0.59749000  0.02275000  0.28339000  1.0
  C  C96  1  0.89691000  0.85466000  0.89913000  1.0
  C  C97  1  0.10308000  0.35465000  0.60088000  1.0
  C  C98  1  0.10308000  0.14534000  0.10088000  1.0
  C  C99  1  0.89691000  0.64534000  0.39912000  1.0
  C  C100  1  0.83216000  0.79973000  0.86621000  1.0
  C  C101  1  0.16784000  0.29973000  0.63379000  1.0
  C  C102  1  0.16783000  0.20027000  0.13379000  1.0
  C  C103  1  0.83216000  0.70027000  0.36621000  1.0
  C  C104  1  0.79705000  0.70958000  0.88295000  1.0
  C  C105  1  0.20296000  0.20957000  0.61705000  1.0
  C  C106  1  0.20295000  0.29042000  0.11706000  1.0
  C  C107  1  0.79705000  0.79043000  0.38295000  1.0
  C  C108  1  0.82724000  0.67428000  0.93262000  1.0
  C  C109  1  0.17276000  0.17428000  0.56738000  1.0
  C  C110  1  0.17276000  0.32572000  0.06738000  1.0
  C  C111  1  0.82724000  0.82572000  0.43262000  1.0
  C  C112  1  0.89157000  0.73538000  0.96334000  1.0
  C  C113  1  0.10843000  0.23537000  0.53666000  1.0
  C  C114  1  0.10843000  0.26462000  0.03666000  1.0
  C  C115  1  0.89157000  0.76463000  0.46334000  1.0
  C  C116  1  0.92541000  0.70259000  0.01414000  1.0
  C  C117  1  0.07459000  0.20259000  0.48586000  1.0
  C  C118  1  0.07459000  0.29741000  0.98586000  1.0
  C  C119  1  0.92541000  0.79741000  0.51414000  1.0
  C  C120  1  0.89606000  0.60922000  0.03230000  1.0
  C  C121  1  0.10393000  0.10922000  0.46770000  1.0
  C  C122  1  0.10394000  0.39078000  0.96770000  1.0
  C  C123  1  0.89606000  0.89079000  0.53230000  1.0
  C  C124  1  0.83094000  0.54954000  0.00041000  1.0
  C  C125  1  0.16905000  0.04954000  0.49959000  1.0
  C  C126  1  0.16905000  0.45045000  0.99959000  1.0
  C  C127  1  0.83095000  0.95046000  0.50041000  1.0
  C  C128  1  0.79741000  0.58108000  0.95268000  1.0
  C  C129  1  0.20258000  0.08107000  0.54732000  1.0
  C  C130  1  0.20258000  0.41893000  0.04732000  1.0
  C  C131  1  0.79742000  0.91893000  0.45267000  1.0
  C  C132  1  0.01909000  0.73461000  0.08922000  1.0
  C  C133  1  0.98091000  0.23461000  0.41078000  1.0
  C  C134  1  0.98091000  0.26539000  0.91078000  1.0
  C  C135  1  0.01909000  0.76539000  0.58922000  1.0
  C  C136  1  0.99447000  0.64330000  0.11038000  1.0
  C  C137  1  0.00553000  0.14330000  0.38962000  1.0
  C  C138  1  0.00553000  0.35670000  0.88963000  1.0
  C  C139  1  0.99447000  0.85670000  0.61038000  1.0
  C  C140  1  0.93454000  0.58027000  0.08153000  1.0
  C  C141  1  0.06546000  0.08027000  0.41847000  1.0
  C  C142  1  0.06546000  0.41973000  0.91847000  1.0
  C  C143  1  0.93454000  0.91973000  0.58153000  1.0
  C  C144  1  0.43752000  0.51529000  0.76795000  1.0
  C  C145  1  0.56248000  0.01529000  0.73205000  1.0
  C  C146  1  0.56248000  0.48471000  0.23206000  1.0
  C  C147  1  0.43752000  0.98471000  0.26795000  1.0
  C  C148  1  0.39479000  0.59511000  0.80812000  1.0
  C  C149  1  0.60521000  0.09510000  0.69188000  1.0
  C  C150  1  0.60521000  0.40490000  0.19188000  1.0
  C  C151  1  0.39480000  0.90489000  0.30812000  1.0
  C  C152  1  0.45467000  0.68213000  0.80285000  1.0
  C  C153  1  0.54533000  0.18212000  0.69715000  1.0
  C  C154  1  0.54533000  0.31787000  0.19715000  1.0
  C  C155  1  0.45467000  0.81787000  0.30285000  1.0
  C  C156  1  0.41406000  0.75677000  0.83749000  1.0
  C  C157  1  0.58595000  0.25676000  0.66251000  1.0
  C  C158  1  0.58594000  0.24323000  0.16251000  1.0
  C  C159  1  0.41406000  0.74323000  0.33749000  1.0
  C  C160  1  0.31260000  0.74597000  0.87790000  1.0
  C  C161  1  0.68740000  0.24596000  0.62210000  1.0
  C  C162  1  0.68740000  0.25403000  0.12210000  1.0
  C  C163  1  0.31260000  0.75403000  0.37790000  1.0
  C  C164  1  0.25250000  0.65928000  0.88299000  1.0
  C  C165  1  0.74751000  0.15928000  0.61701000  1.0
  C  C166  1  0.74750000  0.34073000  0.11701000  1.0
  C  C167  1  0.25250000  0.84072000  0.38299000  1.0
  C  C168  1  0.29333000  0.58468000  0.84840000  1.0
  C  C169  1  0.70668000  0.08468000  0.65160000  1.0
  C  C170  1  0.70667000  0.41532000  0.15160000  1.0
  C  C171  1  0.29332000  0.91532000  0.34840000  1.0
  C  C172  1  0.26575000  0.82577000  0.91486000  1.0
  C  C173  1  0.73425000  0.32577000  0.58514000  1.0
  C  C174  1  0.73424000  0.17423000  0.08514000  1.0
  C  C175  1  0.26576000  0.67423000  0.41486000  1.0
  C  C176  1  0.39170000  0.53199000  0.71360000  1.0
  C  C177  1  0.60831000  0.03199000  0.78640000  1.0
  C  C178  1  0.60830000  0.46801000  0.28641000  1.0
  C  C179  1  0.39170000  0.96801000  0.21360000  1.0
  C  C180  1  0.27520000  0.56654000  0.71216000  1.0
  C  C181  1  0.72480000  0.06654000  0.78784000  1.0
  C  C182  1  0.72480000  0.43346000  0.28784000  1.0
  C  C183  1  0.27520000  0.93346000  0.21216000  1.0
  C  C184  1  0.23024000  0.57145000  0.66275000  1.0
  C  C185  1  0.76975000  0.07145000  0.83725000  1.0
  C  C186  1  0.76975000  0.42855000  0.33725000  1.0
  C  C187  1  0.23025000  0.92855000  0.16275000  1.0
  C  C188  1  0.30123000  0.54178000  0.61392000  1.0
  C  C189  1  0.69877000  0.04178000  0.88608000  1.0
  C  C190  1  0.69877000  0.45822000  0.38608000  1.0
  C  C191  1  0.30123000  0.95822000  0.11392000  1.0
  C  C192  1  0.41839000  0.50962000  0.61532000  1.0
  C  C193  1  0.58161000  0.00962000  0.88468000  1.0
  C  C194  1  0.58161000  0.49038000  0.38468000  1.0
  C  C195  1  0.41839000  0.99037000  0.11533000  1.0
  C  C196  1  0.46360000  0.50551000  0.66465000  1.0
  C  C197  1  0.53640000  0.00551000  0.83535000  1.0
  C  C198  1  0.53639000  0.49449000  0.33535000  1.0
  C  C199  1  0.46361000  0.99449000  0.16465000  1.0
  C  C200  1  0.25172000  0.54090000  0.56113000  1.0
  C  C201  1  0.74828000  0.04090000  0.93887000  1.0
  C  C202  1  0.74828000  0.45910000  0.43886000  1.0
  C  C203  1  0.25172000  0.95910000  0.06114000  1.0
  C  C204  1  0.39508000  0.41921000  0.79254000  1.0
  C  C205  1  0.60493000  0.91921000  0.70745000  1.0
  C  C206  1  0.60492000  0.58079000  0.20746000  1.0
  C  C207  1  0.39508000  0.08079000  0.29255000  1.0
  C  C208  1  0.31461000  0.36117000  0.77011000  1.0
  C  C209  1  0.68540000  0.86117000  0.72988000  1.0
  C  C210  1  0.68540000  0.63882000  0.22988000  1.0
  C  C211  1  0.31461000  0.13883000  0.27012000  1.0
  C  C212  1  0.27370000  0.27672000  0.79549000  1.0
  C  C213  1  0.72631000  0.77672000  0.70451000  1.0
  C  C214  1  0.72631000  0.72328000  0.20451000  1.0
  C  C215  1  0.27369000  0.22327000  0.29549000  1.0
  C  C216  1  0.31402000  0.24757000  0.84356000  1.0
  C  C217  1  0.68598000  0.74757000  0.65644000  1.0
  C  C218  1  0.68598000  0.75243000  0.15644000  1.0
  C  C219  1  0.31401000  0.25242000  0.34356000  1.0
  C  C220  1  0.39714000  0.30413000  0.86556000  1.0
  C  C221  1  0.60286000  0.80413000  0.63444000  1.0
  C  C222  1  0.60286000  0.69587000  0.13444000  1.0
  C  C223  1  0.39714000  0.19587000  0.36556000  1.0
  C  C224  1  0.43573000  0.38923000  0.84075000  1.0
  C  C225  1  0.56427000  0.88923000  0.65925000  1.0
  C  C226  1  0.56426000  0.61077000  0.15925000  1.0
  C  C227  1  0.43574000  0.11077000  0.34075000  1.0
  C  C228  1  0.26633000  0.15822000  0.87200000  1.0
  C  C229  1  0.73367000  0.65822000  0.62800000  1.0
  C  C230  1  0.73367000  0.84178000  0.12800000  1.0
  C  C231  1  0.26633000  0.34178000  0.37200000  1.0
  N  N232  1  0.92471000  0.82378000  0.94638000  1.0
  N  N233  1  0.07529000  0.32377000  0.55362000  1.0
  N  N234  1  0.07528000  0.17622000  0.05362000  1.0
  N  N235  1  0.92471000  0.67623000  0.44638000  1.0
  N  N236  1  0.98679000  0.76260000  0.04226000  1.0
  N  N237  1  0.01321000  0.26260000  0.45774000  1.0
  N  N238  1  0.01322000  0.23740000  0.95774000  1.0
  N  N239  1  0.98679000  0.73740000  0.54226000  1.0
  O  O240  1  0.08365000  0.01846000  0.95520000  1.0
  O  O241  1  0.91635000  0.51846000  0.54480000  1.0
  O  O242  1  0.91635000  0.98154000  0.04480000  1.0
  O  O243  1  0.08365000  0.48154000  0.45520000  1.0
  O  O244  1  0.17789000  0.80856000  0.95230000  1.0
  O  O245  1  0.82211000  0.30855000  0.54769000  1.0
  O  O246  1  0.82210000  0.19145000  0.04769000  1.0
  O  O247  1  0.17790000  0.69145000  0.45231000  1.0
  O  O248  1  0.31793000  0.90564000  0.90537000  1.0
  O  O249  1  0.68207000  0.40564000  0.59463000  1.0
  O  O250  1  0.68206000  0.09436000  0.09463000  1.0
  O  O251  1  0.31793000  0.59436000  0.40537000  1.0
  O  O252  1  0.15091000  0.58026000  0.55979000  1.0
  O  O253  1  0.84909000  0.08026000  0.94021000  1.0
  O  O254  1  0.84909000  0.41974000  0.44021000  1.0
  O  O255  1  0.15091000  0.91974000  0.05979000  1.0
  O  O256  1  0.31495000  0.49685000  0.52129000  1.0
  O  O257  1  0.68505000  0.99685000  0.97871000  1.0
  O  O258  1  0.68505000  0.50315000  0.47871000  1.0
  O  O259  1  0.31495000  0.00315000  0.02130000  1.0
  O  O260  1  0.18092000  0.11475000  0.85614000  1.0
  O  O261  1  0.81908000  0.61475000  0.64386000  1.0
  O  O262  1  0.81908000  0.88525000  0.14386000  1.0
  O  O263  1  0.18092000  0.38525000  0.35614000  1.0
  O  O264  1  0.31989000  0.13453000  0.91303000  1.0
  O  O265  1  0.68011000  0.63453000  0.58697000  1.0
  O  O266  1  0.68011000  0.86547000  0.08697000  1.0
  O  O267  1  0.31988000  0.36546000  0.41303000  1.0
  O  O268  1  0.56775000  0.51624000  0.75596000  1.0
  O  O269  1  0.43225000  0.01625000  0.74404000  1.0
  O  O270  1  0.43225000  0.48376000  0.24404000  1.0
  O  O271  1  0.56775000  0.98376000  0.25596000  1.0
