# generated using pymatgen
data_ZnH12C6S3(NO4)2
_symmetry_space_group_name_H-M   'P 1'
_cell_length_a   5.02172000
_cell_length_b   9.37620000
_cell_length_c   13.57570000
_cell_angle_alpha   89.99990000
_cell_angle_beta   95.11340000
_cell_angle_gamma   89.99950000
_symmetry_Int_Tables_number   1
_chemical_formula_structural   ZnH12C6S3(NO4)2
_chemical_formula_sum   'Zn2 H24 C12 S6 N4 O16'
_cell_volume   636.66321176
_cell_formula_units_Z   2
loop_
 _symmetry_equiv_pos_site_id
 _symmetry_equiv_pos_as_xyz
  1  'x, y, z'
loop_
 _atom_site_type_symbol
 _atom_site_label
 _atom_site_symmetry_multiplicity
 _atom_site_fract_x
 _atom_site_fract_y
 _atom_site_fract_z
 _atom_site_occupancy
  Zn  Zn0  1  0.89351000  0.32289000  0.61330000  1.0
  Zn  Zn1  1  0.10649000  0.82290000  0.38670000  1.0
  H  H2  1  0.56093000  0.44662000  0.86644000  1.0
  H  H3  1  0.43906000  0.94663000  0.13356000  1.0
  H  H4  1  0.37586000  0.32453000  0.93207000  1.0
  H  H5  1  0.62414000  0.82453000  0.06794000  1.0
  H  H6  1  0.52162000  0.46653000  0.31262000  1.0
  H  H7  1  0.47840000  0.96652000  0.68739000  1.0
  H  H8  1  0.31219000  0.31854000  0.32846000  1.0
  H  H9  1  0.68782000  0.81854000  0.67154000  1.0
  H  H10  1  0.08103000  0.07403000  0.66802000  1.0
  H  H11  1  0.91897000  0.57404000  0.33198000  1.0
  H  H12  1  0.96101000  0.05900000  0.55479000  1.0
  H  H13  1  0.03900000  0.55901000  0.44521000  1.0
  H  H14  1  0.31150000  0.49833000  0.58672000  1.0
  H  H15  1  0.68850000  0.99834000  0.41327000  1.0
  H  H16  1  0.33732000  0.38081000  0.50906000  1.0
  H  H17  1  0.66269000  0.88082000  0.49095000  1.0
  H  H18  1  0.77554000  0.53187000  0.71585000  1.0
  H  H19  1  0.22446000  0.03187000  0.28414000  1.0
  H  H20  1  0.81997000  0.60489000  0.61468000  1.0
  H  H21  1  0.18004000  0.10489000  0.38532000  1.0
  H  H22  1  0.46297000  0.28128000  0.72303000  1.0
  H  H23  1  0.53703000  0.78128000  0.27697000  1.0
  H  H24  1  0.71682000  0.18563000  0.76625000  1.0
  H  H25  1  0.28318000  0.68564000  0.23375000  1.0
  C  C26  1  0.13911000  0.44037000  0.81734000  1.0
  C  C27  1  0.86087000  0.94037000  0.18266000  1.0
  C  C28  1  0.36976000  0.43179000  0.89893000  1.0
  C  C29  1  0.63023000  0.93179000  0.10108000  1.0
  C  C30  1  0.14360000  0.50433000  0.06993000  1.0
  C  C31  1  0.85639000  0.00433000  0.93006000  1.0
  C  C32  1  0.82174000  0.38441000  0.16026000  1.0
  C  C33  1  0.17825000  0.88440000  0.83974000  1.0
  C  C34  1  0.51754000  0.34928000  0.31586000  1.0
  C  C35  1  0.48247000  0.84928000  0.68414000  1.0
  C  C36  1  0.71551000  0.29706000  0.40013000  1.0
  C  C37  1  0.28449000  0.79706000  0.59988000  1.0
  S  S38  1  0.38179000  0.56430000  0.99508000  1.0
  S  S39  1  0.61821000  0.06430000  0.00491000  1.0
  S  S40  1  0.96069000  0.34845000  0.04984000  1.0
  S  S41  1  0.03929000  0.84845000  0.95016000  1.0
  S  S42  1  0.57528000  0.27411000  0.19781000  1.0
  S  S43  1  0.42470000  0.77410000  0.80219000  1.0
  N  N44  1  0.09754000  0.57095000  0.15203000  1.0
  N  N45  1  0.90247000  0.07094000  0.84796000  1.0
  N  N46  1  0.91397000  0.50221000  0.20426000  1.0
  N  N47  1  0.08602000  0.00220000  0.79573000  1.0
  O  O48  1  0.17696000  0.36323000  0.74181000  1.0
  O  O49  1  0.82303000  0.86324000  0.25820000  1.0
  O  O50  1  0.93665000  0.51576000  0.82778000  1.0
  O  O51  1  0.06333000  0.01575000  0.17223000  1.0
  O  O52  1  0.93665000  0.24620000  0.38317000  1.0
  O  O53  1  0.06337000  0.74621000  0.61683000  1.0
  O  O54  1  0.63294000  0.31396000  0.48671000  1.0
  O  O55  1  0.36708000  0.81397000  0.51329000  1.0
  O  O56  1  0.06791000  0.12190000  0.60217000  1.0
  O  O57  1  0.93210000  0.62191000  0.39783000  1.0
  O  O58  1  0.19877000  0.44220000  0.53799000  1.0
  O  O59  1  0.80124000  0.94220000  0.46201000  1.0
  O  O60  1  0.71204000  0.52951000  0.64314000  1.0
  O  O61  1  0.28796000  0.02951000  0.35685000  1.0
  O  O62  1  0.62725000  0.23081000  0.70542000  1.0
  O  O63  1  0.37274000  0.73081000  0.29457000  1.0
