# generated using pymatgen
data_HgH10C22N6(OF3)2
_symmetry_space_group_name_H-M   'P 1'
_cell_length_a   8.13294000
_cell_length_b   10.54630000
_cell_length_c   12.58370000
_cell_angle_alpha   80.83290000
_cell_angle_beta   89.99990000
_cell_angle_gamma   89.99990000
_symmetry_Int_Tables_number   1
_chemical_formula_structural   HgH10C22N6(OF3)2
_chemical_formula_sum   'Hg2 H20 C44 N12 O4 F12'
_cell_volume   1065.54910716
_cell_formula_units_Z   2
loop_
 _symmetry_equiv_pos_site_id
 _symmetry_equiv_pos_as_xyz
  1  'x, y, z'
loop_
 _atom_site_type_symbol
 _atom_site_label
 _atom_site_symmetry_multiplicity
 _atom_site_fract_x
 _atom_site_fract_y
 _atom_site_fract_z
 _atom_site_occupancy
  Hg  Hg0  1  1.00000000  0.50000000  0.00000000  1.0
  Hg  Hg1  1  0.50000000  0.00000000  0.00000000  1.0
  H  H2  1  0.95006000  0.38301000  0.30602000  1.0
  H  H3  1  0.45006000  0.11699000  0.69398000  1.0
  H  H4  1  0.04994000  0.61699000  0.69398000  1.0
  H  H5  1  0.54994000  0.88301000  0.30602000  1.0
  H  H6  1  0.88754000  0.16712000  0.41619000  1.0
  H  H7  1  0.38754000  0.33288000  0.58381000  1.0
  H  H8  1  0.11246000  0.83288000  0.58381000  1.0
  H  H9  1  0.61246000  0.66712000  0.41619000  1.0
  H  H10  1  0.80966000  0.01531000  0.13544000  1.0
  H  H11  1  0.30966000  0.48469000  0.86456000  1.0
  H  H12  1  0.19034000  0.98469000  0.86456000  1.0
  H  H13  1  0.69034000  0.51531000  0.13544000  1.0
  H  H14  1  0.66460000  0.56315000  0.61931000  1.0
  H  H15  1  0.16460000  0.93686000  0.38069000  1.0
  H  H16  1  0.33540000  0.43685000  0.38069000  1.0
  H  H17  1  0.83540000  0.06314000  0.61931000  1.0
  H  H18  1  0.70078000  0.52481000  0.82011000  1.0
  H  H19  1  0.20078000  0.97519000  0.17989000  1.0
  H  H20  1  0.29922000  0.47519000  0.17989000  1.0
  H  H21  1  0.79922000  0.02481000  0.82011000  1.0
  C  C22  1  0.91925000  0.30045000  0.26769000  1.0
  C  C23  1  0.41925000  0.19955000  0.73231000  1.0
  C  C24  1  0.08075000  0.69955000  0.73231000  1.0
  C  C25  1  0.58075000  0.80045000  0.26769000  1.0
  C  C26  1  0.88431000  0.18057000  0.32838000  1.0
  C  C27  1  0.38431000  0.31943000  0.67162000  1.0
  C  C28  1  0.11569000  0.81943000  0.67162000  1.0
  C  C29  1  0.61569000  0.68057000  0.32838000  1.0
  C  C30  1  0.83976000  0.09742000  0.17451000  1.0
  C  C31  1  0.33976000  0.40258000  0.82549000  1.0
  C  C32  1  0.16024000  0.90258000  0.82549000  1.0
  C  C33  1  0.66024000  0.59742000  0.17451000  1.0
  C  C34  1  0.87074000  0.21774000  0.11258000  1.0
  C  C35  1  0.37074000  0.28226000  0.88742000  1.0
  C  C36  1  0.12927000  0.78226000  0.88742000  1.0
  C  C37  1  0.62926000  0.71774000  0.11258000  1.0
  C  C38  1  0.84848000  0.23360000  0.99226000  1.0
  C  C39  1  0.34848000  0.26640000  0.00774000  1.0
  C  C40  1  0.15152000  0.76640000  0.00774000  1.0
  C  C41  1  0.65152000  0.73360000  0.99226000  1.0
  C  C42  1  0.86609000  0.36630000  0.82078000  1.0
  C  C43  1  0.36609000  0.13370000  0.17922000  1.0
  C  C44  1  0.13391000  0.63369000  0.17921000  1.0
  C  C45  1  0.63391000  0.86630000  0.82078000  1.0
  C  C46  1  0.94908000  0.29081000  0.75575000  1.0
  C  C47  1  0.44908000  0.20920000  0.24425000  1.0
  C  C48  1  0.05092000  0.70919000  0.24425000  1.0
  C  C49  1  0.55092000  0.79081000  0.75575000  1.0
  C  C50  1  0.93479000  0.31480000  0.64400000  1.0
  C  C51  1  0.43479000  0.18520000  0.35600000  1.0
  C  C52  1  0.06521000  0.68520000  0.35600000  1.0
  C  C53  1  0.56521000  0.81480000  0.64400000  1.0
  C  C54  1  0.83254000  0.41361000  0.59608000  1.0
  C  C55  1  0.33254000  0.08639000  0.40392000  1.0
  C  C56  1  0.16746000  0.58639000  0.40392000  1.0
  C  C57  1  0.66746000  0.91361000  0.59608000  1.0
  C  C58  1  0.74650000  0.48837000  0.65839000  1.0
  C  C59  1  0.24650000  0.01163000  0.34161000  1.0
  C  C60  1  0.25350000  0.51162000  0.34161000  1.0
  C  C61  1  0.75350000  0.98837000  0.65839000  1.0
  C  C62  1  0.76434000  0.46497000  0.77005000  1.0
  C  C63  1  0.26434000  0.03503000  0.22996000  1.0
  C  C64  1  0.23566000  0.53503000  0.22995000  1.0
  C  C65  1  0.73566000  0.96497000  0.77005000  1.0
  N  N66  1  0.91240000  0.31822000  0.16022000  1.0
  N  N67  1  0.41240000  0.18178000  0.83978000  1.0
  N  N68  1  0.08760000  0.68178000  0.83978000  1.0
  N  N69  1  0.58760000  0.81822000  0.16022000  1.0
  N  N70  1  0.84567000  0.07865000  0.28212000  1.0
  N  N71  1  0.34567000  0.42135000  0.71788000  1.0
  N  N72  1  0.15433000  0.92135000  0.71788000  1.0
  N  N73  1  0.65433000  0.57865000  0.28212000  1.0
  N  N74  1  0.89048000  0.34739000  0.93353000  1.0
  N  N75  1  0.39049000  0.15261000  0.06648000  1.0
  N  N76  1  0.10952000  0.65261000  0.06647000  1.0
  N  N77  1  0.60952000  0.84739000  0.93353000  1.0
  O  O78  1  0.78790000  0.14201000  0.95294000  1.0
  O  O79  1  0.28790000  0.35799000  0.04706000  1.0
  O  O80  1  0.21210000  0.85799000  0.04706000  1.0
  O  O81  1  0.71210000  0.64200000  0.95294000  1.0
  F  F82  1  0.05025000  0.19512000  0.80008000  1.0
  F  F83  1  0.55025000  0.30488000  0.19992000  1.0
  F  F84  1  0.94975000  0.80488000  0.19992000  1.0
  F  F85  1  0.44975000  0.69512000  0.80008000  1.0
  F  F86  1  0.02049000  0.24296000  0.58262000  1.0
  F  F87  1  0.52049000  0.25704000  0.41738000  1.0
  F  F88  1  0.97952000  0.75704000  0.41738000  1.0
  F  F89  1  0.47951000  0.74296000  0.58262000  1.0
  F  F90  1  0.81894000  0.43452000  0.48710000  1.0
  F  F91  1  0.31893000  0.06548000  0.51290000  1.0
  F  F92  1  0.18107000  0.56547000  0.51289000  1.0
  F  F93  1  0.68107000  0.93452000  0.48711000  1.0
