# generated using pymatgen
data_ZnH6(CN2)4
_symmetry_space_group_name_H-M   'P 1'
_cell_length_a   10.71770000
_cell_length_b   13.20110000
_cell_length_c   19.36820000
_cell_angle_alpha   90.00000000
_cell_angle_beta   91.61450000
_cell_angle_gamma   89.99950000
_symmetry_Int_Tables_number   1
_chemical_formula_structural   ZnH6(CN2)4
_chemical_formula_sum   'Zn8 H48 C32 N64'
_cell_volume   2739.23023478
_cell_formula_units_Z   8
loop_
 _symmetry_equiv_pos_site_id
 _symmetry_equiv_pos_as_xyz
  1  'x, y, z'
loop_
 _atom_site_type_symbol
 _atom_site_label
 _atom_site_symmetry_multiplicity
 _atom_site_fract_x
 _atom_site_fract_y
 _atom_site_fract_z
 _atom_site_occupancy
  Zn  Zn0  1  0.57510000  0.39145000  0.77690000  1.0
  Zn  Zn1  1  0.07509000  0.60856000  0.77690000  1.0
  Zn  Zn2  1  0.60052000  0.10905000  0.02710000  1.0
  Zn  Zn3  1  0.10053000  0.89096000  0.02709000  1.0
  Zn  Zn4  1  0.56534000  0.10891000  0.52706000  1.0
  Zn  Zn5  1  0.06534000  0.89109000  0.52705000  1.0
  Zn  Zn6  1  0.60350000  0.39131000  0.27838000  1.0
  Zn  Zn7  1  0.10350000  0.60868000  0.27838000  1.0
  H  H8  1  0.72612000  0.09888000  0.39499000  1.0
  H  H9  1  0.22613000  0.90110000  0.39499000  1.0
  H  H10  1  0.79036000  0.20567000  0.35151000  1.0
  H  H11  1  0.29038000  0.79431000  0.35152000  1.0
  H  H12  1  0.66688000  0.13536000  0.31170000  1.0
  H  H13  1  0.16692000  0.86462000  0.31170000  1.0
  H  H14  1  0.71946000  0.29717000  0.56007000  1.0
  H  H15  1  0.21949000  0.70284000  0.56007000  1.0
  H  H16  1  0.75722000  0.36013000  0.63885000  1.0
  H  H17  1  0.25724000  0.63989000  0.63886000  1.0
  H  H18  1  0.63113000  0.40523000  0.58504000  1.0
  H  H19  1  0.13116000  0.59478000  0.58505000  1.0
  H  H20  1  0.76146000  0.38792000  0.14206000  1.0
  H  H21  1  0.26145000  0.61205000  0.14204000  1.0
  H  H22  1  0.66266000  0.37898000  0.06648000  1.0
  H  H23  1  0.16264000  0.62103000  0.06647000  1.0
  H  H24  1  0.78622000  0.29096000  0.07939000  1.0
  H  H25  1  0.28620000  0.70903000  0.07938000  1.0
  H  H26  1  0.73438000  0.20565000  0.80848000  1.0
  H  H27  1  0.23438000  0.79435000  0.80847000  1.0
  H  H28  1  0.64087000  0.09995000  0.83135000  1.0
  H  H29  1  0.14087000  0.90005000  0.83135000  1.0
  H  H30  1  0.77076000  0.13664000  0.88537000  1.0
  H  H31  1  0.27075000  0.86336000  0.88536000  1.0
  H  H32  1  0.64440000  0.86778000  0.52331000  1.0
  H  H33  1  0.14441000  0.13222000  0.52331000  1.0
  H  H34  1  0.79300000  0.81093000  0.54318000  1.0
  H  H35  1  0.29301000  0.18908000  0.54317000  1.0
  H  H36  1  0.75119000  0.84085000  0.45677000  1.0
  H  H37  1  0.25120000  0.15914000  0.45676000  1.0
  H  H38  1  0.68465000  0.62847000  0.26881000  1.0
  H  H39  1  0.18464000  0.37153000  0.26881000  1.0
  H  H40  1  0.78236000  0.64372000  0.19656000  1.0
  H  H41  1  0.28235000  0.35627000  0.19656000  1.0
  H  H42  1  0.83441000  0.68763000  0.27865000  1.0
  H  H43  1  0.33440000  0.31236000  0.27865000  1.0
  H  H44  1  0.80716000  0.69137000  0.77189000  1.0
  H  H45  1  0.30715000  0.30864000  0.77189000  1.0
  H  H46  1  0.75804000  0.64117000  0.85167000  1.0
  H  H47  1  0.25803000  0.35884000  0.85167000  1.0
  H  H48  1  0.65679000  0.63273000  0.77708000  1.0
  H  H49  1  0.15677000  0.36727000  0.77708000  1.0
  H  H50  1  0.68133000  0.86759000  0.02100000  1.0
  H  H51  1  0.18133000  0.13241000  0.02099000  1.0
  H  H52  1  0.78054000  0.85598000  0.09608000  1.0
  H  H53  1  0.28053000  0.14401000  0.09608000  1.0
  H  H54  1  0.83200000  0.80903000  0.01598000  1.0
  H  H55  1  0.33199000  0.19097000  0.01597000  1.0
  C  C56  1  0.61142000  0.23097000  0.39347000  1.0
  C  C57  1  0.11142000  0.76901000  0.39346000  1.0
  C  C58  1  0.70431000  0.16356000  0.36147000  1.0
  C  C59  1  0.20433000  0.83642000  0.36147000  1.0
  C  C60  1  0.59303000  0.26988000  0.64076000  1.0
  C  C61  1  0.09304000  0.73013000  0.64076000  1.0
  C  C62  1  0.68005000  0.33706000  0.60397000  1.0
  C  C63  1  0.18007000  0.66295000  0.60398000  1.0
  C  C64  1  0.71526000  0.33527000  0.10590000  1.0
  C  C65  1  0.21524000  0.66472000  0.10589000  1.0
  C  C66  1  0.62948000  0.26716000  0.14282000  1.0
  C  C67  1  0.12949000  0.73283000  0.14281000  1.0
  C  C68  1  0.81079000  0.53009000  0.77927000  1.0
  C  C69  1  0.31078000  0.46992000  0.77927000  1.0
  C  C70  1  0.61215000  0.23296000  0.89136000  1.0
  C  C71  1  0.11214000  0.76705000  0.89135000  1.0
  C  C72  1  0.69425000  0.16493000  0.85190000  1.0
  C  C73  1  0.19425000  0.83507000  0.85190000  1.0
  C  C74  1  0.74341000  0.86654000  0.51049000  1.0
  C  C75  1  0.24342000  0.13346000  0.51049000  1.0
  C  C76  1  0.80052000  0.96812000  0.51931000  1.0
  C  C77  1  0.30053000  0.03188000  0.51932000  1.0
  C  C78  1  0.78169000  0.62714000  0.25224000  1.0
  C  C79  1  0.28168000  0.37285000  0.25223000  1.0
  C  C80  1  0.75453000  0.62956000  0.79539000  1.0
  C  C81  1  0.25452000  0.37046000  0.79539000  1.0
  C  C82  1  0.84013000  0.52730000  0.26655000  1.0
  C  C83  1  0.34013000  0.47269000  0.26655000  1.0
  C  C84  1  0.83568000  0.96991000  0.02643000  1.0
  C  C85  1  0.33569000  0.03010000  0.02642000  1.0
  C  C86  1  0.77868000  0.86991000  0.04004000  1.0
  C  C87  1  0.27868000  0.13009000  0.04004000  1.0
  N  N88  1  0.47434000  0.29517000  0.46213000  1.0
  N  N89  1  0.97432000  0.70482000  0.46211000  1.0
  N  N90  1  0.48515000  0.35745000  0.41087000  1.0
  N  N91  1  0.98514000  0.64255000  0.41085000  1.0
  N  N92  1  0.55232000  0.21489000  0.45266000  1.0
  N  N93  1  0.05233000  0.78510000  0.45266000  1.0
  N  N94  1  0.57066000  0.31946000  0.36707000  1.0
  N  N95  1  0.07067000  0.68053000  0.36706000  1.0
  N  N96  1  0.46987000  0.20672000  0.71750000  1.0
  N  N97  1  0.96987000  0.79329000  0.71749000  1.0
  N  N98  1  0.46703000  0.14578000  0.66490000  1.0
  N  N99  1  0.96703000  0.85422000  0.66490000  1.0
  N  N100  1  0.54826000  0.28526000  0.70399000  1.0
  N  N101  1  0.04828000  0.71476000  0.70399000  1.0
  N  N102  1  0.54346000  0.18326000  0.61614000  1.0
  N  N103  1  0.04347000  0.81675000  0.61614000  1.0
  N  N104  1  0.49810000  0.29766000  0.97165000  1.0
  N  N105  1  0.99809000  0.70235000  0.97164000  1.0
  N  N106  1  0.49179000  0.35881000  0.91913000  1.0
  N  N107  1  0.99178000  0.64120000  0.91913000  1.0
  N  N108  1  0.56236000  0.32031000  0.86815000  1.0
  N  N109  1  0.06235000  0.67969000  0.86815000  1.0
  N  N110  1  0.57309000  0.21796000  0.95583000  1.0
  N  N111  1  0.07308000  0.78204000  0.95582000  1.0
  N  N112  1  0.50678000  0.20261000  0.21902000  1.0
  N  N113  1  0.00680000  0.79739000  0.21902000  1.0
  N  N114  1  0.58383000  0.17898000  0.11845000  1.0
  N  N115  1  0.08385000  0.82102000  0.11844000  1.0
  N  N116  1  0.50765000  0.14065000  0.16702000  1.0
  N  N117  1  0.00768000  0.85936000  0.16701000  1.0
  N  N118  1  0.58234000  0.28292000  0.20539000  1.0
  N  N119  1  0.08234000  0.71708000  0.20538000  1.0
  N  N120  1  0.94625000  0.41092000  0.75921000  1.0
  N  N121  1  0.44624000  0.58908000  0.75922000  1.0
  N  N122  1  0.83702000  0.36884000  0.75939000  1.0
  N  N123  1  0.33701000  0.63117000  0.75940000  1.0
  N  N124  1  0.74995000  0.44173000  0.77151000  1.0
  N  N125  1  0.24994000  0.55828000  0.77151000  1.0
  N  N126  1  0.93308000  0.51165000  0.77146000  1.0
  N  N127  1  0.43307000  0.48836000  0.77146000  1.0
  N  N128  1  0.95822000  0.98831000  0.01959000  1.0
  N  N129  1  0.45823000  0.01170000  0.01959000  1.0
  N  N130  1  0.96346000  0.50851000  0.27105000  1.0
  N  N131  1  0.46344000  0.49148000  0.27105000  1.0
  N  N132  1  0.78003000  0.43938000  0.27620000  1.0
  N  N133  1  0.28002000  0.56062000  0.27620000  1.0
  N  N134  1  0.93769000  0.08973000  0.52924000  1.0
  N  N135  1  0.43769000  0.91026000  0.52926000  1.0
  N  N136  1  0.82830000  0.13095000  0.53166000  1.0
  N  N137  1  0.32830000  0.86905000  0.53168000  1.0
  N  N138  1  0.74009000  0.05658000  0.52567000  1.0
  N  N139  1  0.24009000  0.94342000  0.52567000  1.0
  N  N140  1  0.92366000  0.98807000  0.52133000  1.0
  N  N141  1  0.42367000  0.01192000  0.52135000  1.0
  N  N142  1  0.77526000  0.05874000  0.02044000  1.0
  N  N143  1  0.27526000  0.94126000  0.02043000  1.0
  N  N144  1  0.86289000  0.13197000  0.01034000  1.0
  N  N145  1  0.36290000  0.86804000  0.01033000  1.0
  N  N146  1  0.97791000  0.40791000  0.28399000  1.0
  N  N147  1  0.47790000  0.59209000  0.28399000  1.0
  N  N148  1  0.97192000  0.08956000  0.00972000  1.0
  N  N149  1  0.47193000  0.91044000  0.00971000  1.0
  N  N150  1  0.86873000  0.36629000  0.28695000  1.0
  N  N151  1  0.36872000  0.63371000  0.28694000  1.0
