# generated using pymatgen
data_CdH28C26N4O7
_symmetry_space_group_name_H-M   'P 1'
_cell_length_a   10.72440000
_cell_length_b   11.19880000
_cell_length_c   11.47190000
_cell_angle_alpha   77.48340000
_cell_angle_beta   88.44840000
_cell_angle_gamma   75.80900000
_symmetry_Int_Tables_number   1
_chemical_formula_structural   CdH28C26N4O7
_chemical_formula_sum   'Cd2 H56 C52 N8 O14'
_cell_volume   1303.49515502
_cell_formula_units_Z   2
loop_
 _symmetry_equiv_pos_site_id
 _symmetry_equiv_pos_as_xyz
  1  'x, y, z'
loop_
 _atom_site_type_symbol
 _atom_site_label
 _atom_site_symmetry_multiplicity
 _atom_site_fract_x
 _atom_site_fract_y
 _atom_site_fract_z
 _atom_site_occupancy
  Cd  Cd0  1  0.81533000  0.16959000  0.38817000  1.0
  Cd  Cd1  1  0.18467000  0.83041000  0.61183000  1.0
  H  H2  1  0.87203000  0.93699000  0.55796000  1.0
  H  H3  1  0.12797000  0.06301000  0.44204000  1.0
  H  H4  1  0.91212000  0.03315000  0.61893000  1.0
  H  H5  1  0.08788000  0.96685000  0.38107000  1.0
  H  H6  1  0.58344000  0.57795000  0.03796000  1.0
  H  H7  1  0.41656000  0.42205000  0.96204000  1.0
  H  H8  1  0.72068000  0.40231000  0.60900000  1.0
  H  H9  1  0.27932000  0.59769000  0.39100000  1.0
  H  H10  1  0.65181000  0.40496000  0.18392000  1.0
  H  H11  1  0.34818000  0.59504000  0.81608000  1.0
  H  H12  1  0.88717000  0.46925000  0.87787000  1.0
  H  H13  1  0.11282000  0.53075000  0.12214000  1.0
  H  H14  1  0.05397000  0.27862000  0.97872000  1.0
  H  H15  1  0.94603000  0.72139000  0.02128000  1.0
  H  H16  1  0.01213000  0.16057000  0.18318000  1.0
  H  H17  1  0.98787000  0.83944000  0.81682000  1.0
  H  H18  1  0.47957000  0.75652000  0.93464000  1.0
  H  H19  1  0.52043000  0.24348000  0.06536000  1.0
  H  H20  1  0.47951000  0.74868000  0.78212000  1.0
  H  H21  1  0.52049000  0.25132000  0.21788000  1.0
  H  H22  1  0.64220000  0.87665000  0.73993000  1.0
  H  H23  1  0.35781000  0.12335000  0.26007000  1.0
  H  H24  1  0.49497000  0.95873000  0.78948000  1.0
  H  H25  1  0.50503000  0.04127000  0.21052000  1.0
  H  H26  1  0.73040000  0.82000000  0.95582000  1.0
  H  H27  1  0.26961000  0.18000000  0.04418000  1.0
  H  H28  1  0.59037000  0.92276000  0.99312000  1.0
  H  H29  1  0.40963000  0.07724000  0.00688000  1.0
  H  H30  1  0.77303000  0.02421000  0.95877000  1.0
  H  H31  1  0.22697000  0.97579000  0.04123000  1.0
  H  H32  1  0.79155000  0.99363000  0.81353000  1.0
  H  H33  1  0.20845000  0.00637000  0.18647000  1.0
  H  H34  1  0.55191000  0.16611000  0.89471000  1.0
  H  H35  1  0.44809000  0.83389000  0.10529000  1.0
  H  H36  1  0.57705000  0.13772000  0.74933000  1.0
  H  H37  1  0.42295000  0.86228000  0.25067000  1.0
  H  H38  1  0.74856000  0.25266000  0.87929000  1.0
  H  H39  1  0.25144000  0.74734000  0.12071000  1.0
  H  H40  1  0.77047000  0.22766000  0.73217000  1.0
  H  H41  1  0.22952000  0.77235000  0.26783000  1.0
  H  H42  1  0.75382000  0.61055000  0.52016000  1.0
  H  H43  1  0.24618000  0.38945000  0.47984000  1.0
  H  H44  1  0.64771000  0.83989000  0.44029000  1.0
  H  H45  1  0.35229000  0.16011000  0.55971000  1.0
  H  H46  1  0.41572000  0.92013000  0.48435000  1.0
  H  H47  1  0.58429000  0.07987000  0.51565000  1.0
  H  H48  1  0.38439000  0.56059000  0.64728000  1.0
  H  H49  1  0.61561000  0.43941000  0.35272000  1.0
  H  H50  1  0.70631000  0.85055000  0.18640000  1.0
  H  H51  1  0.29369000  0.14945000  0.81360000  1.0
  H  H52  1  0.73548000  0.63332000  0.15431000  1.0
  H  H53  1  0.26452000  0.36669000  0.84568000  1.0
  H  H54  1  0.91831000  0.45969000  0.25942000  1.0
  H  H55  1  0.08169000  0.54031000  0.74058000  1.0
  H  H56  1  0.06124000  0.50591000  0.40035000  1.0
  H  H57  1  0.93876000  0.49409000  0.59965000  1.0
  C  C58  1  0.74056000  0.37883000  0.13682000  1.0
  C  C59  1  0.25944000  0.62117000  0.86319000  1.0
  C  C60  1  0.75637000  0.45236000  0.02406000  1.0
  C  C61  1  0.24363000  0.54764000  0.97594000  1.0
  C  C62  1  0.87166000  0.41532000  0.96538000  1.0
  C  C63  1  0.12834000  0.58468000  0.03462000  1.0
  C  C64  1  0.96400000  0.30939000  0.02251000  1.0
  C  C65  1  0.03600000  0.69061000  0.97750000  1.0
  C  C66  1  0.94205000  0.24331000  0.13541000  1.0
  C  C67  1  0.05795000  0.75670000  0.86460000  1.0
  C  C68  1  0.65466000  0.64539000  0.87420000  1.0
  C  C69  1  0.34533000  0.35461000  0.12580000  1.0
  C  C70  1  0.53886000  0.75779000  0.85478000  1.0
  C  C71  1  0.46114000  0.24222000  0.14522000  1.0
  C  C72  1  0.58107000  0.88160000  0.81832000  1.0
  C  C73  1  0.41893000  0.11840000  0.18168000  1.0
  C  C74  1  0.65545000  0.90607000  0.91906000  1.0
  C  C75  1  0.34455000  0.09393000  0.08094000  1.0
  C  C76  1  0.71979000  0.01557000  0.88126000  1.0
  C  C77  1  0.28021000  0.98443000  0.11874000  1.0
  C  C78  1  0.62683000  0.14254000  0.83018000  1.0
  C  C79  1  0.37317000  0.85746000  0.16982000  1.0
  C  C80  1  0.69744000  0.24812000  0.79887000  1.0
  C  C81  1  0.30255000  0.75188000  0.20113000  1.0
  C  C82  1  0.60756000  0.37688000  0.75613000  1.0
  C  C83  1  0.39244000  0.62312000  0.24387000  1.0
  C  C84  1  0.57887000  0.56915000  0.59758000  1.0
  C  C85  1  0.42113000  0.43085000  0.40242000  1.0
  C  C86  1  0.65203000  0.64819000  0.53351000  1.0
  C  C87  1  0.34797000  0.35181000  0.46649000  1.0
  C  C88  1  0.59392000  0.77508000  0.48958000  1.0
  C  C89  1  0.40608000  0.22492000  0.51042000  1.0
  C  C90  1  0.46485000  0.82074000  0.51231000  1.0
  C  C91  1  0.53515000  0.17926000  0.48769000  1.0
  C  C92  1  0.44731000  0.62041000  0.60804000  1.0
  C  C93  1  0.55269000  0.37958000  0.39196000  1.0
  C  C94  1  0.84592000  0.93525000  0.32337000  1.0
  C  C95  1  0.15408000  0.06475000  0.67663000  1.0
  C  C96  1  0.86570000  0.80096000  0.31159000  1.0
  C  C97  1  0.13430000  0.19904000  0.68842000  1.0
  C  C98  1  0.78410000  0.77417000  0.23294000  1.0
  C  C99  1  0.21590000  0.22583000  0.76707000  1.0
  C  C100  1  0.80139000  0.65211000  0.21461000  1.0
  C  C101  1  0.19862000  0.34789000  0.78539000  1.0
  C  C102  1  0.90248000  0.55535000  0.27353000  1.0
  C  C103  1  0.09752000  0.44464000  0.72647000  1.0
  C  C104  1  0.98324000  0.58110000  0.35300000  1.0
  C  C105  1  0.01676000  0.41890000  0.64700000  1.0
  C  C106  1  0.96405000  0.70234000  0.37543000  1.0
  C  C107  1  0.03594000  0.29766000  0.62457000  1.0
  C  C108  1  0.04506000  0.72192000  0.47094000  1.0
  C  C109  1  0.95494000  0.27808000  0.52906000  1.0
  N  N110  1  0.83118000  0.27833000  0.19118000  1.0
  N  N111  1  0.16882000  0.72167000  0.80882000  1.0
  N  N112  1  0.65774000  0.55919000  0.98086000  1.0
  N  N113  1  0.34226000  0.44081000  0.01914000  1.0
  N  N114  1  0.63764000  0.44307000  0.64915000  1.0
  N  N115  1  0.36236000  0.55693000  0.35085000  1.0
  N  N116  1  0.39328000  0.74390000  0.56896000  1.0
  N  N117  1  0.60671000  0.25610000  0.43104000  1.0
  O  O118  1  0.73991000  0.63390000  0.79993000  1.0
  O  O119  1  0.26009000  0.36610000  0.20007000  1.0
  O  O120  1  0.51477000  0.41887000  0.81625000  1.0
  O  O121  1  0.48523000  0.58113000  0.18375000  1.0
  O  O122  1  0.73271000  0.99575000  0.33999000  1.0
  O  O123  1  0.26729000  0.00425000  0.66001000  1.0
  O  O124  1  0.94297000  0.98399000  0.31439000  1.0
  O  O125  1  0.05703000  0.01601000  0.68561000  1.0
  O  O126  1  0.99208000  0.79466000  0.54001000  1.0
  O  O127  1  0.00792000  0.20534000  0.45999000  1.0
  O  O128  1  0.16345000  0.66485000  0.48192000  1.0
  O  O129  1  0.83655000  0.33515000  0.51808000  1.0
  O  O130  1  0.83836000  0.02153000  0.57549000  1.0
  O  O131  1  0.16164000  0.97847000  0.42451000  1.0
