# generated using pymatgen
data_CuH10C15N6O
_symmetry_space_group_name_H-M   'P 1'
_cell_length_a   7.70626000
_cell_length_b   9.19899000
_cell_length_c   10.06190000
_cell_angle_alpha   88.16290000
_cell_angle_beta   77.77090000
_cell_angle_gamma   86.58810000
_symmetry_Int_Tables_number   1
_chemical_formula_structural   CuH10C15N6O
_chemical_formula_sum   'Cu2 H20 C30 N12 O2'
_cell_volume   695.72663584
_cell_formula_units_Z   2
loop_
 _symmetry_equiv_pos_site_id
 _symmetry_equiv_pos_as_xyz
  1  'x, y, z'
loop_
 _atom_site_type_symbol
 _atom_site_label
 _atom_site_symmetry_multiplicity
 _atom_site_fract_x
 _atom_site_fract_y
 _atom_site_fract_z
 _atom_site_occupancy
  Cu  Cu0  1  0.60822000  0.70809000  0.53792000  1.0
  Cu  Cu1  1  0.39178000  0.29192000  0.46208000  1.0
  H  H2  1  0.91119000  0.20073000  0.64674000  1.0
  H  H3  1  0.08879000  0.79926000  0.35326000  1.0
  H  H4  1  0.95741000  0.03407000  0.83612000  1.0
  H  H5  1  0.04258000  0.96593000  0.16388000  1.0
  H  H6  1  0.83557000  0.10412000  0.07659000  1.0
  H  H7  1  0.16444000  0.89588000  0.92341000  1.0
  H  H8  1  0.66302000  0.34129000  0.12692000  1.0
  H  H9  1  0.33698000  0.65872000  0.87309000  1.0
  H  H10  1  0.62268000  0.50931000  0.93422000  1.0
  H  H11  1  0.37732000  0.49069000  0.06579000  1.0
  H  H12  1  0.89341000  0.45173000  0.27320000  1.0
  H  H13  1  0.10658000  0.54827000  0.72680000  1.0
  H  H14  1  0.45360000  0.94128000  0.35714000  1.0
  H  H15  1  0.54640000  0.05873000  0.64286000  1.0
  H  H16  1  0.50675000  0.99067000  0.10721000  1.0
  H  H17  1  0.49325000  0.00933000  0.89278000  1.0
  H  H18  1  0.71368000  0.81705000  0.94918000  1.0
  H  H19  1  0.28632000  0.18295000  0.05081000  1.0
  H  H20  1  0.85947000  0.60359000  0.05091000  1.0
  H  H21  1  0.14054000  0.39640000  0.94909000  1.0
  C  C22  1  0.72611000  0.46752000  0.67091000  1.0
  C  C23  1  0.27389000  0.53248000  0.32910000  1.0
  C  C24  1  0.76211000  0.36545000  0.77969000  1.0
  C  C25  1  0.23788000  0.63455000  0.22031000  1.0
  C  C26  1  0.85723000  0.23095000  0.75177000  1.0
  C  C27  1  0.14275000  0.76905000  0.24823000  1.0
  C  C28  1  0.88300000  0.13793000  0.85875000  1.0
  C  C29  1  0.11699000  0.86206000  0.14125000  1.0
  C  C30  1  0.81477000  0.17736000  0.99355000  1.0
  C  C31  1  0.18523000  0.82264000  0.00646000  1.0
  C  C32  1  0.72022000  0.31099000  0.02214000  1.0
  C  C33  1  0.27979000  0.68901000  0.97786000  1.0
  C  C34  1  0.69528000  0.40445000  0.91523000  1.0
  C  C35  1  0.30472000  0.59556000  0.08477000  1.0
  C  C36  1  0.80535000  0.53848000  0.32627000  1.0
  C  C37  1  0.19464000  0.46152000  0.67374000  1.0
  C  C38  1  0.73127000  0.65862000  0.25611000  1.0
  C  C39  1  0.26873000  0.34138000  0.74390000  1.0
  C  C40  1  0.54197000  0.86919000  0.28579000  1.0
  C  C41  1  0.45802000  0.13081000  0.71421000  1.0
  C  C42  1  0.57255000  0.89551000  0.14558000  1.0
  C  C43  1  0.42744000  0.10449000  0.85441000  1.0
  C  C44  1  0.68655000  0.79934000  0.05921000  1.0
  C  C45  1  0.31346000  0.20065000  0.94079000  1.0
  C  C46  1  0.76758000  0.67972000  0.11499000  1.0
  C  C47  1  0.23242000  0.32028000  0.88501000  1.0
  C  C48  1  0.22705000  0.82561000  0.63650000  1.0
  C  C49  1  0.77296000  0.17440000  0.36350000  1.0
  C  C50  1  0.93016000  0.84727000  0.62001000  1.0
  C  C51  1  0.06985000  0.15273000  0.37998000  1.0
  N  N52  1  0.80514000  0.43582000  0.54161000  1.0
  N  N53  1  0.19486000  0.56418000  0.45839000  1.0
  N  N54  1  0.75690000  0.53939000  0.45847000  1.0
  N  N55  1  0.24310000  0.46062000  0.54153000  1.0
  N  N56  1  0.61930000  0.75430000  0.33884000  1.0
  N  N57  1  0.38069000  0.24570000  0.66116000  1.0
  N  N58  1  0.38374000  0.81354000  0.61041000  1.0
  N  N59  1  0.61627000  0.18647000  0.38959000  1.0
  N  N60  1  0.05875000  0.84105000  0.68477000  1.0
  N  N61  1  0.94126000  0.15894000  0.31522000  1.0
  N  N62  1  0.79976000  0.85567000  0.57539000  1.0
  N  N63  1  0.20024000  0.14433000  0.42461000  1.0
  O  O64  1  0.62099000  0.58085000  0.70500000  1.0
  O  O65  1  0.37901000  0.41916000  0.29500000  1.0
