# generated using pymatgen
data_CdH22C30(N2O)4
_symmetry_space_group_name_H-M   'P 1'
_cell_length_a   14.44320000
_cell_length_b   14.44310000
_cell_length_c   21.81017291
_cell_angle_alpha   101.14977257
_cell_angle_beta   101.14915173
_cell_angle_gamma   114.58400000
_symmetry_Int_Tables_number   1
_chemical_formula_structural   CdH22C30(N2O)4
_chemical_formula_sum   'Cd4 H88 C120 N32 O16'
_cell_volume   3863.30165778
_cell_formula_units_Z   4
loop_
 _symmetry_equiv_pos_site_id
 _symmetry_equiv_pos_as_xyz
  1  'x, y, z'
loop_
 _atom_site_type_symbol
 _atom_site_label
 _atom_site_symmetry_multiplicity
 _atom_site_fract_x
 _atom_site_fract_y
 _atom_site_fract_z
 _atom_site_occupancy
  Cd  Cd0  1  0.17961000  0.92956000  0.85919000  1.0
  Cd  Cd1  1  0.57041000  0.32037000  0.64080000  1.0
  Cd  Cd2  1  0.82038000  0.07044000  0.14081000  1.0
  Cd  Cd3  1  0.42958000  0.67963000  0.35919000  1.0
  H  H4  1  0.31769000  0.74587000  0.70256000  1.0
  H  H5  1  0.88514000  0.95699000  0.70238000  1.0
  H  H6  1  0.54301000  0.61487000  0.79764000  1.0
  H  H7  1  0.75411000  0.18232000  0.79744000  1.0
  H  H8  1  0.68231000  0.25412000  0.29744000  1.0
  H  H9  1  0.11486000  0.04301000  0.29763000  1.0
  H  H10  1  0.45700000  0.38514000  0.20237000  1.0
  H  H11  1  0.24590000  0.81770000  0.20256000  1.0
  H  H12  1  0.39538000  0.73952000  0.60831000  1.0
  H  H13  1  0.71300000  0.86910000  0.60824000  1.0
  H  H14  1  0.63091000  0.78701000  0.89177000  1.0
  H  H15  1  0.76047000  0.10464000  0.89169000  1.0
  H  H16  1  0.60463000  0.26047000  0.39169000  1.0
  H  H17  1  0.28700000  0.13090000  0.39177000  1.0
  H  H18  1  0.36910000  0.21300000  0.10823000  1.0
  H  H19  1  0.23953000  0.89538000  0.10831000  1.0
  H  H20  1  0.41344000  0.04286000  0.60306000  1.0
  H  H21  1  0.68923000  0.56043000  0.60325000  1.0
  H  H22  1  0.93956000  0.81074000  0.89674000  1.0
  H  H23  1  0.45714000  0.08656000  0.89695000  1.0
  H  H24  1  0.58656000  0.95714000  0.39694000  1.0
  H  H25  1  0.31075000  0.43956000  0.39674000  1.0
  H  H26  1  0.06044000  0.18926000  0.10326000  1.0
  H  H27  1  0.54286000  0.91344000  0.10305000  1.0
  H  H28  1  0.33357000  0.04618000  0.69518000  1.0
  H  H29  1  0.86145000  0.64920000  0.69520000  1.0
  H  H30  1  0.85078000  0.63853000  0.80480000  1.0
  H  H31  1  0.45378000  0.16641000  0.80482000  1.0
  H  H32  1  0.66643000  0.95381000  0.30482000  1.0
  H  H33  1  0.13854000  0.35079000  0.30480000  1.0
  H  H34  1  0.14924000  0.36148000  0.19521000  1.0
  H  H35  1  0.54621000  0.83359000  0.19518000  1.0
  H  H36  1  0.72580000  0.04870000  0.61412000  1.0
  H  H37  1  0.38808000  0.56530000  0.61421000  1.0
  H  H38  1  0.93470000  0.11191000  0.88578000  1.0
  H  H39  1  0.45131000  0.77421000  0.88588000  1.0
  H  H40  1  0.27420000  0.95129000  0.38587000  1.0
  H  H41  1  0.61192000  0.43470000  0.38579000  1.0
  H  H42  1  0.06530000  0.88809000  0.11422000  1.0
  H  H43  1  0.54870000  0.22579000  0.11411000  1.0
  H  H44  1  0.64270000  0.98680000  0.66077000  1.0
  H  H45  1  0.51783000  0.67388000  0.66090000  1.0
  H  H46  1  0.82612000  0.98217000  0.83910000  1.0
  H  H47  1  0.51321000  0.85730000  0.83923000  1.0
  H  H48  1  0.35730000  0.01321000  0.33923000  1.0
  H  H49  1  0.48217000  0.32612000  0.33910000  1.0
  H  H50  1  0.17388000  0.01783000  0.16090000  1.0
  H  H51  1  0.48680000  0.14270000  0.16076000  1.0
  H  H52  1  0.63553000  0.09359000  0.63622000  1.0
  H  H53  1  0.50050000  0.54256000  0.63627000  1.0
  H  H54  1  0.95744000  0.99950000  0.86373000  1.0
  H  H55  1  0.40642000  0.86447000  0.86378000  1.0
  H  H56  1  0.36448000  0.90641000  0.36378000  1.0
  H  H57  1  0.49950000  0.45744000  0.36374000  1.0
  H  H58  1  0.04255000  0.00050000  0.13626000  1.0
  H  H59  1  0.59359000  0.13553000  0.13621000  1.0
  H  H60  1  0.22954000  0.82019000  0.51349000  1.0
  H  H61  1  0.78370000  0.69330000  0.51365000  1.0
  H  H62  1  0.80670000  0.71629000  0.98635000  1.0
  H  H63  1  0.67981000  0.27047000  0.98651000  1.0
  H  H64  1  0.77046000  0.17981000  0.48651000  1.0
  H  H65  1  0.21629000  0.30671000  0.48635000  1.0
  H  H66  1  0.19330000  0.28371000  0.01365000  1.0
  H  H67  1  0.32018000  0.72953000  0.01349000  1.0
  H  H68  1  0.04204000  0.68191000  0.44824000  1.0
  H  H69  1  0.90598000  0.76617000  0.44836000  1.0
  H  H70  1  0.73384000  0.59403000  0.05165000  1.0
  H  H71  1  0.81810000  0.45798000  0.05177000  1.0
  H  H72  1  0.95796000  0.31809000  0.55176000  1.0
  H  H73  1  0.09402000  0.23385000  0.55165000  1.0
  H  H74  1  0.26617000  0.40599000  0.94836000  1.0
  H  H75  1  0.18191000  0.54202000  0.94823000  1.0
  H  H76  1  0.01190000  0.53633000  0.34973000  1.0
  H  H77  1  0.83768000  0.81329000  0.34986000  1.0
  H  H78  1  0.68670000  0.66232000  0.15014000  1.0
  H  H79  1  0.96368000  0.48811000  0.15027000  1.0
  H  H80  1  0.98810000  0.46368000  0.65027000  1.0
  H  H81  1  0.16231000  0.18671000  0.65014000  1.0
  H  H82  1  0.31332000  0.33770000  0.84987000  1.0
  H  H83  1  0.03632000  0.51189000  0.84973000  1.0
  H  H84  1  0.17382000  0.53859000  0.32058000  1.0
  H  H85  1  0.64668000  0.78192000  0.32065000  1.0
  H  H86  1  0.71807000  0.85332000  0.17935000  1.0
  H  H87  1  0.96141000  0.32618000  0.17942000  1.0
  H  H88  1  0.82618000  0.46141000  0.67942000  1.0
  H  H89  1  0.35331000  0.21807000  0.67935000  1.0
  H  H90  1  0.28195000  0.14670000  0.82066000  1.0
  H  H91  1  0.03858000  0.67382000  0.82058000  1.0
  C  C92  1  0.27768000  0.90122000  0.76141000  1.0
  C  C93  1  0.98387000  0.86050000  0.76128000  1.0
  C  C94  1  0.63947000  0.51611000  0.73871000  1.0
  C  C95  1  0.59875000  0.22231000  0.73859000  1.0
  C  C96  1  0.72232000  0.09878000  0.23859000  1.0
  C  C97  1  0.01612000  0.13948000  0.23872000  1.0
  C  C98  1  0.36054000  0.48389000  0.26129000  1.0
  C  C99  1  0.40124000  0.77769000  0.26141000  1.0
  C  C100  1  0.32140000  0.89644000  0.70417000  1.0
  C  C101  1  0.88286000  0.80799000  0.70408000  1.0
  C  C102  1  0.69200000  0.61714000  0.79592000  1.0
  C  C103  1  0.60353000  0.17859000  0.79583000  1.0
  C  C104  1  0.67859000  0.10355000  0.29583000  1.0
  C  C105  1  0.11714000  0.19200000  0.29592000  1.0
  C  C106  1  0.30802000  0.38287000  0.20409000  1.0
  C  C107  1  0.39646000  0.82141000  0.20417000  1.0
  C  C108  1  0.33868000  0.80976000  0.67991000  1.0
  C  C109  1  0.84139000  0.87047000  0.67980000  1.0
  C  C110  1  0.62953000  0.65862000  0.82021000  1.0
  C  C111  1  0.69023000  0.16132000  0.82009000  1.0
  C  C112  1  0.66132000  0.19024000  0.32009000  1.0
  C  C113  1  0.15862000  0.12954000  0.32021000  1.0
  C  C114  1  0.37047000  0.34137000  0.17979000  1.0
  C  C115  1  0.30977000  0.83869000  0.17991000  1.0
  C  C116  1  0.38218000  0.80654000  0.62836000  1.0
  C  C117  1  0.74625000  0.82215000  0.62834000  1.0
  C  C118  1  0.67786000  0.75377000  0.87167000  1.0
  C  C119  1  0.69346000  0.11785000  0.87165000  1.0
  C  C120  1  0.61784000  0.19347000  0.37165000  1.0
  C  C121  1  0.25376000  0.17785000  0.37167000  1.0
  C  C122  1  0.32215000  0.24623000  0.12833000  1.0
  C  C123  1  0.30655000  0.88217000  0.12835000  1.0
  C  C124  1  0.40910000  0.89128000  0.60171000  1.0
  C  C125  1  0.69247000  0.71071000  0.60182000  1.0
  C  C126  1  0.78930000  0.80754000  0.89819000  1.0
  C  C127  1  0.60870000  0.09091000  0.89829000  1.0
  C  C128  1  0.59091000  0.10871000  0.39829000  1.0
  C  C129  1  0.30753000  0.28929000  0.39818000  1.0
  C  C130  1  0.21071000  0.19247000  0.10182000  1.0
  C  C131  1  0.39130000  0.90910000  0.10171000  1.0
  C  C132  1  0.39212000  0.97808000  0.62484000  1.0
  C  C133  1  0.73250000  0.64700000  0.62496000  1.0
  C  C134  1  0.85300000  0.76750000  0.87504000  1.0
  C  C135  1  0.52191000  0.10789000  0.87517000  1.0
  C  C136  1  0.60789000  0.02191000  0.37516000  1.0
  C  C137  1  0.26750000  0.35300000  0.37504000  1.0
  C  C138  1  0.14701000  0.23250000  0.12496000  1.0
  C  C139  1  0.47809000  0.89211000  0.12483000  1.0
  C  C140  1  0.34735000  0.97942000  0.67589000  1.0
  C  C141  1  0.82846000  0.69673000  0.67592000  1.0
  C  C142  1  0.80327000  0.67154000  0.82408000  1.0
  C  C143  1  0.52056000  0.15264000  0.82411000  1.0
  C  C144  1  0.65265000  0.02058000  0.32411000  1.0
  C  C145  1  0.17154000  0.30327000  0.32408000  1.0
  C  C146  1  0.19674000  0.32846000  0.17592000  1.0
  C  C147  1  0.47943000  0.84735000  0.17588000  1.0
  C  C148  1  0.64640000  0.02260000  0.62054000  1.0
  C  C149  1  0.47392000  0.59788000  0.62064000  1.0
  C  C150  1  0.90212000  0.02608000  0.87936000  1.0
  C  C151  1  0.47741000  0.85361000  0.87946000  1.0
  C  C152  1  0.35360000  0.97740000  0.37946000  1.0
  C  C153  1  0.52609000  0.40213000  0.37937000  1.0
  C  C154  1  0.09788000  0.97392000  0.12064000  1.0
  C  C155  1  0.52260000  0.14640000  0.12053000  1.0
  C  C156  1  0.56527000  0.94437000  0.55814000  1.0
  C  C157  1  0.49267000  0.61383000  0.55825000  1.0
  C  C158  1  0.88618000  0.00733000  0.94175000  1.0
  C  C159  1  0.55565000  0.93475000  0.94187000  1.0
  C  C160  1  0.43474000  0.05564000  0.44186000  1.0
  C  C161  1  0.50733000  0.38617000  0.44175000  1.0
  C  C162  1  0.11382000  0.99267000  0.05825000  1.0
  C  C163  1  0.44437000  0.06526000  0.05813000  1.0
  C  C164  1  0.41117000  0.82369000  0.48623000  1.0
  C  C165  1  0.57483000  0.66269000  0.48635000  1.0
  C  C166  1  0.83731000  0.92517000  0.01365000  1.0
  C  C167  1  0.67632000  0.08884000  0.01378000  1.0
  C  C168  1  0.58884000  0.17632000  0.51378000  1.0
  C  C169  1  0.42516000  0.33731000  0.51365000  1.0
  C  C170  1  0.16269000  0.07484000  0.98635000  1.0
  C  C171  1  0.32368000  0.91116000  0.98622000  1.0
  C  C172  1  0.29829000  0.74735000  0.45253000  1.0
  C  C173  1  0.65404000  0.70524000  0.45265000  1.0
  C  C174  1  0.79476000  0.84596000  0.04735000  1.0
  C  C175  1  0.75265000  0.20173000  0.04748000  1.0
  C  C176  1  0.70172000  0.25265000  0.54747000  1.0
  C  C177  1  0.34595000  0.29476000  0.54735000  1.0
  C  C178  1  0.20524000  0.15405000  0.95265000  1.0
  C  C179  1  0.24734000  0.79827000  0.95252000  1.0
  C  C180  1  0.21371000  0.75510000  0.47140000  1.0
  C  C181  1  0.75746000  0.71626000  0.47152000  1.0
  C  C182  1  0.78374000  0.74254000  0.02848000  1.0
  C  C183  1  0.74491000  0.28631000  0.02861000  1.0
  C  C184  1  0.78629000  0.24490000  0.52860000  1.0
  C  C185  1  0.24253000  0.28374000  0.52848000  1.0
  C  C186  1  0.21627000  0.25748000  0.97153000  1.0
  C  C187  1  0.25508000  0.71368000  0.97139000  1.0
  C  C188  1  0.10939000  0.67831000  0.43443000  1.0
  C  C189  1  0.82483000  0.75596000  0.43454000  1.0
  C  C190  1  0.74404000  0.67518000  0.06546000  1.0
  C  C191  1  0.82170000  0.39063000  0.06558000  1.0
  C  C192  1  0.89061000  0.32169000  0.56557000  1.0
  C  C193  1  0.17517000  0.24404000  0.56546000  1.0
  C  C194  1  0.25597000  0.32483000  0.93454000  1.0
  C  C195  1  0.17831000  0.60938000  0.93443000  1.0
  C  C196  1  0.09224000  0.59780000  0.37974000  1.0
  C  C197  1  0.78733000  0.78178000  0.37984000  1.0
  C  C198  1  0.71821000  0.71267000  0.12016000  1.0
  C  C199  1  0.90221000  0.40778000  0.12027000  1.0
  C  C200  1  0.90776000  0.40220000  0.62026000  1.0
  C  C201  1  0.21266000  0.21822000  0.62016000  1.0
  C  C202  1  0.28180000  0.28735000  0.87985000  1.0
  C  C203  1  0.09779000  0.59222000  0.87973000  1.0
  C  C204  1  0.18098000  0.59742000  0.36351000  1.0
  C  C205  1  0.68240000  0.76601000  0.36360000  1.0
  C  C206  1  0.73398000  0.81760000  0.13640000  1.0
  C  C207  1  0.90258000  0.31903000  0.13649000  1.0
  C  C208  1  0.81902000  0.40258000  0.63649000  1.0
  C  C209  1  0.31759000  0.23398000  0.63640000  1.0
  C  C210  1  0.26602000  0.18241000  0.86360000  1.0
  C  C211  1  0.09741000  0.68097000  0.86351000  1.0
  N  N212  1  0.48686000  0.83974000  0.45727000  1.0
  N  N213  1  0.47019000  0.61747000  0.45735000  1.0
  N  N214  1  0.88253000  0.02981000  0.04264000  1.0
  N  N215  1  0.66026000  0.01314000  0.04273000  1.0
  N  N216  1  0.51314000  0.16026000  0.54273000  1.0
  N  N217  1  0.52980000  0.38253000  0.54265000  1.0
  N  N218  1  0.11747000  0.97019000  0.95735000  1.0
  N  N219  1  0.33973000  0.98685000  0.95726000  1.0
  N  N220  1  0.58352000  0.91468000  0.50210000  1.0
  N  N221  1  0.41835000  0.58729000  0.50218000  1.0
  N  N222  1  0.91271000  0.08165000  0.99782000  1.0
  N  N223  1  0.58534000  0.91649000  0.99791000  1.0
  N  N224  1  0.41648000  0.08532000  0.49790000  1.0
  N  N225  1  0.58165000  0.41271000  0.49783000  1.0
  N  N226  1  0.08729000  0.91836000  0.00218000  1.0
  N  N227  1  0.41467000  0.08351000  0.00209000  1.0
  N  N228  1  0.45734000  0.88886000  0.55022000  1.0
  N  N229  1  0.59267000  0.66163000  0.55037000  1.0
  N  N230  1  0.83838000  0.90733000  0.94963000  1.0
  N  N231  1  0.61115000  0.04267000  0.94979000  1.0
  N  N232  1  0.54266000  0.11114000  0.44978000  1.0
  N  N233  1  0.40733000  0.33838000  0.44963000  1.0
  N  N234  1  0.16162000  0.09267000  0.05037000  1.0
  N  N235  1  0.38886000  0.95733000  0.05021000  1.0
  N  N236  1  0.28121000  0.66962000  0.39939000  1.0
  N  N237  1  0.61803000  0.72980000  0.39949000  1.0
  N  N238  1  0.77019000  0.88197000  0.10050000  1.0
  N  N239  1  0.83038000  0.21880000  0.10061000  1.0
  N  N240  1  0.71879000  0.33039000  0.60061000  1.0
  N  N241  1  0.38196000  0.27019000  0.60051000  1.0
  N  N242  1  0.22982000  0.11804000  0.89950000  1.0
  N  N243  1  0.16961000  0.78120000  0.89939000  1.0
  O  O244  1  0.26020000  0.98074000  0.77983000  1.0
  O  O245  1  0.01975000  0.79941000  0.77978000  1.0
  O  O246  1  0.70055000  0.48024000  0.72021000  1.0
  O  O247  1  0.51924000  0.23980000  0.72017000  1.0
  O  O248  1  0.73980000  0.01926000  0.22017000  1.0
  O  O249  1  0.98025000  0.20057000  0.22021000  1.0
  O  O250  1  0.29945000  0.51976000  0.27979000  1.0
  O  O251  1  0.48076000  0.76021000  0.27983000  1.0
  O  O252  1  0.26170000  0.82861000  0.78855000  1.0
  O  O253  1  0.02705000  0.96026000  0.78838000  1.0
  O  O254  1  0.53971000  0.47296000  0.71163000  1.0
  O  O255  1  0.67136000  0.23830000  0.71145000  1.0
  O  O256  1  0.73830000  0.17138000  0.21145000  1.0
  O  O257  1  0.97295000  0.03972000  0.21163000  1.0
  O  O258  1  0.46029000  0.52704000  0.28836000  1.0
  O  O259  1  0.32864000  0.76170000  0.28855000  1.0
