# generated using pymatgen
data_Zn2PH21C14N4O7
_symmetry_space_group_name_H-M   'P 1'
_cell_length_a   9.83450000
_cell_length_b   13.92920000
_cell_length_c   15.48630000
_cell_angle_alpha   89.99990000
_cell_angle_beta   90.00000000
_cell_angle_gamma   89.69520000
_symmetry_Int_Tables_number   1
_chemical_formula_structural   Zn2PH21C14N4O7
_chemical_formula_sum   'Zn8 P4 H84 C56 N16 O28'
_cell_volume   2121.38738381
_cell_formula_units_Z   4
loop_
 _symmetry_equiv_pos_site_id
 _symmetry_equiv_pos_as_xyz
  1  'x, y, z'
loop_
 _atom_site_type_symbol
 _atom_site_label
 _atom_site_symmetry_multiplicity
 _atom_site_fract_x
 _atom_site_fract_y
 _atom_site_fract_z
 _atom_site_occupancy
  Zn  Zn0  1  0.59825000  0.90267000  0.90476000  1.0
  Zn  Zn1  1  0.90175000  0.59733000  0.40476000  1.0
  Zn  Zn2  1  0.40175000  0.09733000  0.09524000  1.0
  Zn  Zn3  1  0.09825000  0.40267000  0.59524000  1.0
  Zn  Zn4  1  0.58306000  0.23134000  0.86152000  1.0
  Zn  Zn5  1  0.91694000  0.26866000  0.36152000  1.0
  Zn  Zn6  1  0.41694000  0.76866000  0.13848000  1.0
  Zn  Zn7  1  0.08306000  0.73134000  0.63848000  1.0
  P  P8  1  0.38313000  0.07042000  0.89353000  1.0
  P  P9  1  0.11687000  0.42958000  0.39353000  1.0
  P  P10  1  0.61688000  0.92958000  0.10647000  1.0
  P  P11  1  0.88312000  0.57042000  0.60647000  1.0
  H  H12  1  0.12967000  0.95964000  0.92265000  1.0
  H  H13  1  0.37033000  0.54036000  0.42265000  1.0
  H  H14  1  0.87034000  0.04036000  0.07735000  1.0
  H  H15  1  0.62966000  0.45964000  0.57735000  1.0
  H  H16  1  0.85914000  0.08608000  0.73579000  1.0
  H  H17  1  0.64086000  0.41392000  0.23579000  1.0
  H  H18  1  0.14086000  0.91392000  0.26421000  1.0
  H  H19  1  0.35914000  0.58608000  0.76421000  1.0
  H  H20  1  0.26788000  0.19149000  0.76075000  1.0
  H  H21  1  0.23211000  0.30850000  0.26075000  1.0
  H  H22  1  0.73212000  0.80851000  0.23925000  1.0
  H  H23  1  0.76789000  0.69149000  0.73925000  1.0
  H  H24  1  0.78259000  0.34169000  0.66352000  1.0
  H  H25  1  0.71740000  0.15831000  0.16352000  1.0
  H  H26  1  0.21740000  0.65831000  0.33648000  1.0
  H  H27  1  0.28260000  0.84169000  0.83648000  1.0
  H  H28  1  0.83552000  0.25734000  0.74216000  1.0
  H  H29  1  0.66448000  0.24266000  0.24216000  1.0
  H  H30  1  0.16448000  0.74266000  0.25784000  1.0
  H  H31  1  0.33552000  0.75734000  0.75784000  1.0
  H  H32  1  0.87271000  0.42496000  0.79059000  1.0
  H  H33  1  0.62729000  0.07504000  0.29059000  1.0
  H  H34  1  0.12729000  0.57504000  0.20941000  1.0
  H  H35  1  0.37271000  0.92496000  0.70941000  1.0
  H  H36  1  0.69807000  0.45028000  0.77747000  1.0
  H  H37  1  0.80193000  0.04972000  0.27747000  1.0
  H  H38  1  0.30193000  0.54972000  0.22253000  1.0
  H  H39  1  0.19807000  0.95028000  0.72253000  1.0
  H  H40  1  0.45225000  0.48233000  0.93943000  1.0
  H  H41  1  0.04774000  0.01767000  0.43943000  1.0
  H  H42  1  0.54775000  0.51767000  0.06057000  1.0
  H  H43  1  0.95226000  0.98233000  0.56057000  1.0
  H  H44  1  0.49939000  0.44324000  0.83571000  1.0
  H  H45  1  0.00061000  0.05676000  0.33571000  1.0
  H  H46  1  0.50061000  0.55676000  0.16429000  1.0
  H  H47  1  0.99939000  0.94324000  0.66429000  1.0
  H  H48  1  0.69855000  0.50200000  0.92451000  1.0
  H  H49  1  0.80144000  0.99800000  0.42451000  1.0
  H  H50  1  0.30145000  0.49800000  0.07549000  1.0
  H  H51  1  0.19856000  0.00200000  0.57549000  1.0
  H  H52  1  0.66532000  0.40839000  0.00017000  1.0
  H  H53  1  0.83468000  0.09161000  0.50017000  1.0
  H  H54  1  0.33468000  0.59161000  0.99983000  1.0
  H  H55  1  0.16532000  0.90839000  0.49983000  1.0
  H  H56  1  0.89603000  0.20524000  0.02147000  1.0
  H  H57  1  0.60397000  0.29476000  0.52147000  1.0
  H  H58  1  0.10397000  0.79476000  0.97853000  1.0
  H  H59  1  0.39603000  0.70525000  0.47853000  1.0
  H  H60  1  0.74651000  0.27331000  0.04364000  1.0
  H  H61  1  0.75349000  0.22669000  0.54364000  1.0
  H  H62  1  0.25349000  0.72669000  0.95635000  1.0
  H  H63  1  0.24651000  0.77331000  0.45636000  1.0
  H  H64  1  0.91555000  0.36924000  0.96033000  1.0
  H  H65  1  0.58444000  0.13076000  0.46033000  1.0
  H  H66  1  0.08445000  0.63076000  0.03967000  1.0
  H  H67  1  0.41556000  0.86924000  0.53967000  1.0
  H  H68  1  0.91894000  0.28052000  0.87826000  1.0
  H  H69  1  0.58106000  0.21948000  0.37826000  1.0
  H  H70  1  0.08106000  0.71948000  0.12173000  1.0
  H  H71  1  0.41894000  0.78052000  0.62174000  1.0
  H  H72  1  0.45453000  0.31288000  0.98468000  1.0
  H  H73  1  0.04547000  0.18712000  0.48468000  1.0
  H  H74  1  0.54547000  0.68712000  0.01532000  1.0
  H  H75  1  0.95453000  0.81288000  0.51532000  1.0
  H  H76  1  0.35682000  0.32287000  0.89775000  1.0
  H  H77  1  0.14318000  0.17713000  0.39775000  1.0
  H  H78  1  0.64318000  0.67713000  0.10225000  1.0
  H  H79  1  0.85682000  0.82287000  0.60225000  1.0
  H  H80  1  0.76711000  0.11522000  0.91749000  1.0
  H  H81  1  0.73289000  0.38478000  0.41749000  1.0
  H  H82  1  0.23289000  0.88478000  0.08251000  1.0
  H  H83  1  0.26711000  0.61522000  0.58251000  1.0
  H  H84  1  0.55027000  0.30762000  0.70198000  1.0
  H  H85  1  0.94973000  0.19238000  0.20198000  1.0
  H  H86  1  0.44973000  0.69238000  0.29802000  1.0
  H  H87  1  0.05027000  0.80762000  0.79802000  1.0
  H  H88  1  0.62504000  0.20250000  0.70064000  1.0
  H  H89  1  0.87496000  0.29750000  0.20065000  1.0
  H  H90  1  0.37496000  0.79750000  0.29935000  1.0
  H  H91  1  0.12504000  0.70250000  0.79935000  1.0
  H  H92  1  0.65988000  0.13248000  0.99596000  1.0
  H  H93  1  0.84012000  0.36752000  0.49596000  1.0
  H  H94  1  0.34012000  0.86752000  0.00404000  1.0
  H  H95  1  0.15988000  0.63248000  0.50404000  1.0
  C  C96  1  0.21407000  0.07574000  0.84716000  1.0
  C  C97  1  0.28593000  0.42426000  0.34716000  1.0
  C  C98  1  0.78593000  0.92426000  0.15284000  1.0
  C  C99  1  0.71407000  0.57574000  0.65284000  1.0
  C  C100  1  0.11058000  0.01344000  0.87294000  1.0
  C  C101  1  0.38942000  0.48656000  0.37294000  1.0
  C  C102  1  0.88943000  0.98656000  0.12706000  1.0
  C  C103  1  0.61057000  0.51344000  0.62706000  1.0
  C  C104  1  0.98232000  0.01781000  0.83383000  1.0
  C  C105  1  0.51768000  0.48219000  0.33383000  1.0
  C  C106  1  0.01768000  0.98219000  0.16617000  1.0
  C  C107  1  0.48232000  0.51781000  0.66617000  1.0
  C  C108  1  0.95795000  0.08460000  0.76781000  1.0
  C  C109  1  0.54204000  0.41540000  0.26781000  1.0
  C  C110  1  0.04205000  0.91540000  0.23219000  1.0
  C  C111  1  0.45796000  0.58460000  0.73219000  1.0
  C  C112  1  0.06093000  0.14708000  0.74150000  1.0
  C  C113  1  0.43907000  0.35292000  0.24150000  1.0
  C  C114  1  0.93907000  0.85292000  0.25850000  1.0
  C  C115  1  0.56093000  0.64708000  0.75850000  1.0
  C  C116  1  0.18772000  0.14338000  0.78236000  1.0
  C  C117  1  0.31228000  0.35662000  0.28236000  1.0
  C  C118  1  0.81229000  0.85662000  0.21764000  1.0
  C  C119  1  0.68772000  0.64338000  0.71764000  1.0
  C  C120  1  0.87447000  0.94670000  0.85895000  1.0
  C  C121  1  0.62553000  0.55330000  0.35895000  1.0
  C  C122  1  0.12553000  0.05330000  0.14105000  1.0
  C  C123  1  0.37447000  0.44670000  0.64105000  1.0
  C  C124  1  0.04084000  0.21641000  0.66797000  1.0
  C  C125  1  0.45916000  0.28359000  0.16797000  1.0
  C  C126  1  0.95916000  0.78359000  0.33203000  1.0
  C  C127  1  0.54084000  0.71641000  0.83203000  1.0
  C  C128  1  0.75934000  0.31265000  0.72771000  1.0
  C  C129  1  0.74066000  0.18735000  0.22771000  1.0
  C  C130  1  0.24066000  0.68735000  0.27229000  1.0
  C  C131  1  0.25934000  0.81265000  0.77229000  1.0
  C  C132  1  0.77034000  0.39300000  0.79400000  1.0
  C  C133  1  0.72965000  0.10701000  0.29400000  1.0
  C  C134  1  0.22966000  0.60700000  0.20600000  1.0
  C  C135  1  0.27034000  0.89299000  0.70600000  1.0
  C  C136  1  0.50899000  0.42640000  0.90469000  1.0
  C  C137  1  0.99101000  0.07361000  0.40469000  1.0
  C  C138  1  0.49101000  0.57360000  0.09531000  1.0
  C  C139  1  0.00898000  0.92640000  0.59531000  1.0
  C  C140  1  0.65852000  0.42835000  0.93161000  1.0
  C  C141  1  0.84148000  0.07165000  0.43161000  1.0
  C  C142  1  0.34148000  0.57165000  0.06839000  1.0
  C  C143  1  0.15852000  0.92835000  0.56839000  1.0
  C  C144  1  0.80596000  0.23920000  0.99183000  1.0
  C  C145  1  0.69404000  0.26080000  0.49183000  1.0
  C  C146  1  0.19404000  0.76080000  0.00817000  1.0
  C  C147  1  0.30596000  0.73920000  0.50817000  1.0
  C  C148  1  0.85298000  0.31484000  0.92681000  1.0
  C  C149  1  0.64702000  0.18517000  0.42681000  1.0
  C  C150  1  0.14702000  0.68517000  0.07319000  1.0
  C  C151  1  0.35299000  0.81484000  0.57319000  1.0
  N  N152  1  0.73766000  0.35854000  0.88112000  1.0
  N  N153  1  0.76234000  0.14146000  0.38112000  1.0
  N  N154  1  0.26234000  0.64146000  0.11888000  1.0
  N  N155  1  0.23766000  0.85854000  0.61888000  1.0
  N  N156  1  0.45426000  0.32935000  0.91955000  1.0
  N  N157  1  0.04574000  0.17065000  0.41955000  1.0
  N  N158  1  0.54574000  0.67065000  0.08044000  1.0
  N  N159  1  0.95426000  0.82935000  0.58045000  1.0
  N  N160  1  0.62446000  0.26663000  0.73263000  1.0
  N  N161  1  0.87553000  0.23337000  0.23263000  1.0
  N  N162  1  0.37554000  0.73337000  0.26737000  1.0
  N  N163  1  0.12446000  0.76663000  0.76737000  1.0
  N  N164  1  0.71564000  0.16863000  0.95010000  1.0
  N  N165  1  0.78436000  0.33137000  0.45010000  1.0
  N  N166  1  0.28436000  0.83137000  0.04990000  1.0
  N  N167  1  0.21564000  0.66863000  0.54990000  1.0
  O  O168  1  0.41430000  0.96348000  0.91229000  1.0
  O  O169  1  0.08570000  0.53652000  0.41229000  1.0
  O  O170  1  0.58570000  0.03652000  0.08771000  1.0
  O  O171  1  0.91430000  0.46348000  0.58771000  1.0
  O  O172  1  0.37617000  0.13381000  0.97498000  1.0
  O  O173  1  0.12383000  0.36619000  0.47498000  1.0
  O  O174  1  0.62383000  0.86619000  0.02502000  1.0
  O  O175  1  0.87617000  0.63381000  0.52502000  1.0
  O  O176  1  0.47932000  0.11328000  0.82587000  1.0
  O  O177  1  0.02068000  0.38672000  0.32587000  1.0
  O  O178  1  0.52068000  0.88672000  0.17413000  1.0
  O  O179  1  0.97932000  0.61328000  0.67413000  1.0
  O  O180  1  0.90626000  0.86022000  0.86815000  1.0
  O  O181  1  0.59374000  0.63978000  0.36815000  1.0
  O  O182  1  0.09375000  0.13978000  0.13185000  1.0
  O  O183  1  0.40626000  0.36022000  0.63185000  1.0
  O  O184  1  0.75410000  0.98393000  0.86836000  1.0
  O  O185  1  0.74590000  0.51607000  0.36836000  1.0
  O  O186  1  0.24590000  0.01607000  0.13164000  1.0
  O  O187  1  0.25410000  0.48393000  0.63164000  1.0
  O  O188  1  0.97907000  0.18948000  0.60114000  1.0
  O  O189  1  0.52093000  0.31052000  0.10114000  1.0
  O  O190  1  0.02093000  0.81052000  0.39886000  1.0
  O  O191  1  0.47907000  0.68948000  0.89886000  1.0
  O  O192  1  0.09164000  0.30000000  0.68191000  1.0
  O  O193  1  0.40836000  0.20000000  0.18191000  1.0
  O  O194  1  0.90836000  0.70000000  0.31809000  1.0
  O  O195  1  0.59165000  0.80000000  0.81809000  1.0
