# generated using pymatgen
data_CuH14C19(NO)4
_symmetry_space_group_name_H-M   'P 1'
_cell_length_a   8.34699000
_cell_length_b   13.08660000
_cell_length_c   20.53150000
_cell_angle_alpha   90.00030000
_cell_angle_beta   90.00030000
_cell_angle_gamma   104.51500000
_symmetry_Int_Tables_number   1
_chemical_formula_structural   CuH14C19(NO)4
_chemical_formula_sum   'Cu4 H56 C76 N16 O16'
_cell_volume   2171.14871477
_cell_formula_units_Z   4
loop_
 _symmetry_equiv_pos_site_id
 _symmetry_equiv_pos_as_xyz
  1  'x, y, z'
loop_
 _atom_site_type_symbol
 _atom_site_label
 _atom_site_symmetry_multiplicity
 _atom_site_fract_x
 _atom_site_fract_y
 _atom_site_fract_z
 _atom_site_occupancy
  Cu  Cu0  1  0.94870000  0.79492000  0.01198000  1.0
  Cu  Cu1  1  0.05131000  0.70508000  0.51198000  1.0
  Cu  Cu2  1  0.05130000  0.20508000  0.98802000  1.0
  Cu  Cu3  1  0.94869000  0.29492000  0.48802000  1.0
  H  H4  1  0.67643000  0.31946000  0.97132000  1.0
  H  H5  1  0.32355000  0.18055000  0.47132000  1.0
  H  H6  1  0.32355000  0.68055000  0.02867000  1.0
  H  H7  1  0.67645000  0.81945000  0.52868000  1.0
  H  H8  1  0.15413000  0.00971000  0.07663000  1.0
  H  H9  1  0.84587000  0.49028000  0.57662000  1.0
  H  H10  1  0.84588000  0.99029000  0.92338000  1.0
  H  H11  1  0.15414000  0.50971000  0.42337000  1.0
  H  H12  1  0.21138000  0.87627000  0.89348000  1.0
  H  H13  1  0.78865000  0.62374000  0.39348000  1.0
  H  H14  1  0.78864000  0.12373000  0.10652000  1.0
  H  H15  1  0.21136000  0.37627000  0.60652000  1.0
  H  H16  1  0.44425000  0.06942000  0.90505000  1.0
  H  H17  1  0.55575000  0.43059000  0.40504000  1.0
  H  H18  1  0.55576000  0.93058000  0.09495000  1.0
  H  H19  1  0.44425000  0.56942000  0.59495000  1.0
  H  H20  1  0.55087000  0.15954000  0.03671000  1.0
  H  H21  1  0.44911000  0.34047000  0.53670000  1.0
  H  H22  1  0.44913000  0.84047000  0.96329000  1.0
  H  H23  1  0.55088000  0.65953000  0.46330000  1.0
  H  H24  1  0.36420000  0.17097000  0.07621000  1.0
  H  H25  1  0.63578000  0.32904000  0.57621000  1.0
  H  H26  1  0.63580000  0.82904000  0.92379000  1.0
  H  H27  1  0.36421000  0.67097000  0.42379000  1.0
  H  H28  1  0.11422000  0.43088000  0.91504000  1.0
  H  H29  1  0.88576000  0.06912000  0.41504000  1.0
  H  H30  1  0.88575000  0.56913000  0.08497000  1.0
  H  H31  1  0.11424000  0.93087000  0.58497000  1.0
  H  H32  1  0.27544000  0.59816000  0.86204000  1.0
  H  H33  1  0.72454000  0.90184000  0.36205000  1.0
  H  H34  1  0.72453000  0.40185000  0.13796000  1.0
  H  H35  1  0.27546000  0.09816000  0.63796000  1.0
  H  H36  1  0.58102000  0.64135000  0.85656000  1.0
  H  H37  1  0.41895000  0.85863000  0.35657000  1.0
  H  H38  1  0.41894000  0.35864000  0.14342000  1.0
  H  H39  1  0.58105000  0.14136000  0.64343000  1.0
  H  H40  1  0.73804000  0.52170000  0.90551000  1.0
  H  H41  1  0.26194000  0.97829000  0.40552000  1.0
  H  H42  1  0.26194000  0.47829000  0.09447000  1.0
  H  H43  1  0.73806000  0.02170000  0.59449000  1.0
  H  H44  1  0.98552000  0.54729000  0.88445000  1.0
  H  H45  1  0.01446000  0.95272000  0.38445000  1.0
  H  H46  1  0.01449000  0.45274000  0.11556000  1.0
  H  H47  1  0.98554000  0.04729000  0.61554000  1.0
  H  H48  1  0.01829000  0.43187000  0.79204000  1.0
  H  H49  1  0.98167000  0.06812000  0.29204000  1.0
  H  H50  1  0.98171000  0.56813000  0.20797000  1.0
  H  H51  1  0.01835000  0.93188000  0.70794000  1.0
  H  H52  1  0.01840000  0.49935000  0.67804000  1.0
  H  H53  1  0.98156000  0.00063000  0.17803000  1.0
  H  H54  1  0.98159000  0.50064000  0.32197000  1.0
  H  H55  1  0.01848000  0.99935000  0.82195000  1.0
  H  H56  1  0.90791000  0.78288000  0.75115000  1.0
  H  H57  1  0.09210000  0.71712000  0.25115000  1.0
  H  H58  1  0.09209000  0.21712000  0.24885000  1.0
  H  H59  1  0.90791000  0.28287000  0.74886000  1.0
  C  C60  1  0.20187000  0.99617000  0.02920000  1.0
  C  C61  1  0.79815000  0.50383000  0.52920000  1.0
  C  C62  1  0.79815000  0.00383000  0.97080000  1.0
  C  C63  1  0.20186000  0.49617000  0.47080000  1.0
  C  C64  1  0.23577000  0.93166000  0.93360000  1.0
  C  C65  1  0.76425000  0.56835000  0.43359000  1.0
  C  C66  1  0.76424000  0.06834000  0.06641000  1.0
  C  C67  1  0.23576000  0.43166000  0.56641000  1.0
  C  C68  1  0.35148000  0.02655000  0.93869000  1.0
  C  C69  1  0.64853000  0.47346000  0.43869000  1.0
  C  C70  1  0.64853000  0.97346000  0.06131000  1.0
  C  C71  1  0.35147000  0.52655000  0.56131000  1.0
  C  C72  1  0.42281000  0.16421000  0.02886000  1.0
  C  C73  1  0.57717000  0.33580000  0.52886000  1.0
  C  C74  1  0.57718000  0.83579000  0.97114000  1.0
  C  C75  1  0.42283000  0.66421000  0.47114000  1.0
  C  C76  1  0.41953000  0.25874000  0.98922000  1.0
  C  C77  1  0.58046000  0.24126000  0.48921000  1.0
  C  C78  1  0.58046000  0.74126000  0.01078000  1.0
  C  C79  1  0.41954000  0.75874000  0.51079000  1.0
  C  C80  1  0.33754000  0.38476000  0.94030000  1.0
  C  C81  1  0.66244000  0.11524000  0.44030000  1.0
  C  C82  1  0.66244000  0.61524000  0.05970000  1.0
  C  C83  1  0.33755000  0.88475000  0.55970000  1.0
  C  C84  1  0.24900000  0.45220000  0.91346000  1.0
  C  C85  1  0.75098000  0.04780000  0.41346000  1.0
  C  C86  1  0.75097000  0.54780000  0.08655000  1.0
  C  C87  1  0.24902000  0.95219000  0.58655000  1.0
  C  C88  1  0.34034000  0.54411000  0.88381000  1.0
  C  C89  1  0.65964000  0.95588000  0.38381000  1.0
  C  C90  1  0.65963000  0.45589000  0.11620000  1.0
  C  C91  1  0.34036000  0.04411000  0.61620000  1.0
  C  C92  1  0.51454000  0.56884000  0.88062000  1.0
  C  C93  1  0.48543000  0.93114000  0.38063000  1.0
  C  C94  1  0.48543000  0.43115000  0.11937000  1.0
  C  C95  1  0.51456000  0.06885000  0.61938000  1.0
  C  C96  1  0.60385000  0.50241000  0.90717000  1.0
  C  C97  1  0.39613000  0.99758000  0.40718000  1.0
  C  C98  1  0.39613000  0.49758000  0.09281000  1.0
  C  C99  1  0.60387000  0.00241000  0.59282000  1.0
  C  C100  1  0.51248000  0.41016000  0.93638000  1.0
  C  C101  1  0.48750000  0.08983000  0.43638000  1.0
  C  C102  1  0.48750000  0.58984000  0.06362000  1.0
  C  C103  1  0.51249000  0.91015000  0.56363000  1.0
  C  C104  1  0.92187000  0.73903000  0.88060000  1.0
  C  C105  1  0.07813000  0.76098000  0.38060000  1.0
  C  C106  1  0.07812000  0.26098000  0.11940000  1.0
  C  C107  1  0.92187000  0.23903000  0.61940000  1.0
  C  C108  1  0.94543000  0.67198000  0.82376000  1.0
  C  C109  1  0.05457000  0.82802000  0.32376000  1.0
  C  C110  1  0.05457000  0.32803000  0.17623000  1.0
  C  C111  1  0.94544000  0.17198000  0.67623000  1.0
  C  C112  1  0.97704000  0.57315000  0.83446000  1.0
  C  C113  1  0.02295000  0.92686000  0.33446000  1.0
  C  C114  1  0.02296000  0.42687000  0.16554000  1.0
  C  C115  1  0.97706000  0.07315000  0.66553000  1.0
  C  C116  1  0.99837000  0.50963000  0.78245000  1.0
  C  C117  1  0.00162000  0.99036000  0.28244000  1.0
  C  C118  1  0.00164000  0.49037000  0.21756000  1.0
  C  C119  1  0.99840000  0.00964000  0.71754000  1.0
  C  C120  1  0.99740000  0.54720000  0.71902000  1.0
  C  C121  1  0.00258000  0.95279000  0.21901000  1.0
  C  C122  1  0.00260000  0.45280000  0.28099000  1.0
  C  C123  1  0.99745000  0.04720000  0.78097000  1.0
  C  C124  1  0.96806000  0.64684000  0.70747000  1.0
  C  C125  1  0.03194000  0.85316000  0.20747000  1.0
  C  C126  1  0.03194000  0.35316000  0.29253000  1.0
  C  C127  1  0.96809000  0.14683000  0.79252000  1.0
  C  C128  1  0.93676000  0.70739000  0.75987000  1.0
  C  C129  1  0.06325000  0.79261000  0.25987000  1.0
  C  C130  1  0.06325000  0.29261000  0.24013000  1.0
  C  C131  1  0.93675000  0.20738000  0.74013000  1.0
  C  C132  1  0.97506000  0.68903000  0.63919000  1.0
  C  C133  1  0.02494000  0.81096000  0.13919000  1.0
  C  C134  1  0.02494000  0.31096000  0.36081000  1.0
  C  C135  1  0.97507000  0.18902000  0.86081000  1.0
  N  N136  1  0.14395000  0.91339000  0.99043000  1.0
  N  N137  1  0.85607000  0.58661000  0.49042000  1.0
  N  N138  1  0.85607000  0.08661000  0.00958000  1.0
  N  N139  1  0.14394000  0.41339000  0.50958000  1.0
  N  N140  1  0.32826000  0.06597000  0.99947000  1.0
  N  N141  1  0.67174000  0.43404000  0.49946000  1.0
  N  N142  1  0.67174000  0.93404000  0.00054000  1.0
  N  N143  1  0.32827000  0.56596000  0.50054000  1.0
  N  N144  1  0.28441000  0.29008000  0.97393000  1.0
  N  N145  1  0.71557000  0.20993000  0.47393000  1.0
  N  N146  1  0.71557000  0.70993000  0.02607000  1.0
  N  N147  1  0.28443000  0.79007000  0.52608000  1.0
  N  N148  1  0.55909000  0.32807000  0.96712000  1.0
  N  N149  1  0.44089000  0.17193000  0.46712000  1.0
  N  N150  1  0.44089000  0.67193000  0.03288000  1.0
  N  N151  1  0.55910000  0.82806000  0.53288000  1.0
  O  O152  1  0.98063000  0.71367000  0.93537000  1.0
  O  O153  1  0.01937000  0.78633000  0.43537000  1.0
  O  O154  1  0.01936000  0.28634000  0.06463000  1.0
  O  O155  1  0.98063000  0.21368000  0.56463000  1.0
  O  O156  1  0.85262000  0.81293000  0.87352000  1.0
  O  O157  1  0.14739000  0.68708000  0.37352000  1.0
  O  O158  1  0.14738000  0.18708000  0.12648000  1.0
  O  O159  1  0.85261000  0.31293000  0.62649000  1.0
  O  O160  1  0.90856000  0.76137000  0.62328000  1.0
  O  O161  1  0.09143000  0.73862000  0.12328000  1.0
  O  O162  1  0.09143000  0.23862000  0.37672000  1.0
  O  O163  1  0.90858000  0.26136000  0.87672000  1.0
  O  O164  1  0.05685000  0.64377000  0.59909000  1.0
  O  O165  1  0.94316000  0.85622000  0.09909000  1.0
  O  O166  1  0.94316000  0.35622000  0.40091000  1.0
  O  O167  1  0.05686000  0.14376000  0.90091000  1.0
