# generated using pymatgen
data_MnH14C10(N2O5)2
_symmetry_space_group_name_H-M   'P 1'
_cell_length_a   4.77528000
_cell_length_b   7.73594000
_cell_length_c   10.51160000
_cell_angle_alpha   105.32600000
_cell_angle_beta   99.79150000
_cell_angle_gamma   105.50300000
_symmetry_Int_Tables_number   1
_chemical_formula_structural   MnH14C10(N2O5)2
_chemical_formula_sum   'Mn1 H14 C10 N4 O10'
_cell_volume   348.56183222
_cell_formula_units_Z   1
loop_
 _symmetry_equiv_pos_site_id
 _symmetry_equiv_pos_as_xyz
  1  'x, y, z'
loop_
 _atom_site_type_symbol
 _atom_site_label
 _atom_site_symmetry_multiplicity
 _atom_site_fract_x
 _atom_site_fract_y
 _atom_site_fract_z
 _atom_site_occupancy
  Mn  Mn0  1  0.50000000  0.50000000  0.00000000  1.0
  H  H1  1  0.76417000  0.12184000  0.53301000  1.0
  H  H2  1  0.23582000  0.87816000  0.46699000  1.0
  H  H3  1  0.32209000  0.44871000  0.36725000  1.0
  H  H4  1  0.67789000  0.55129000  0.63274000  1.0
  H  H5  1  0.74089000  0.40164000  0.26309000  1.0
  H  H6  1  0.25910000  0.59835000  0.73691000  1.0
  H  H7  1  0.44899000  0.07801000  0.12912000  1.0
  H  H8  1  0.55102000  0.92199000  0.87088000  1.0
  H  H9  1  0.75765000  0.99520000  0.15826000  1.0
  H  H10  1  0.24235000  0.00480000  0.84174000  1.0
  H  H11  1  0.00877000  0.77451000  0.20545000  1.0
  H  H12  1  0.99122000  0.22549000  0.79455000  1.0
  H  H13  1  0.75978000  0.69914000  0.27909000  1.0
  H  H14  1  0.24023000  0.30086000  0.72092000  1.0
  C  C15  1  0.86973000  0.30442000  0.23816000  1.0
  C  C16  1  0.13027000  0.69559000  0.76184000  1.0
  C  C17  1  0.65795000  0.10214000  0.20308000  1.0
  C  C18  1  0.34206000  0.89786000  0.79691000  1.0
  C  C19  1  0.58692000  0.06293000  0.32820000  1.0
  C  C20  1  0.41308000  0.93708000  0.67180000  1.0
  C  C21  1  0.08722000  0.28673000  0.46161000  1.0
  C  C22  1  0.91277000  0.71327000  0.53840000  1.0
  C  C23  1  0.98017000  0.33494000  0.11448000  1.0
  C  C24  1  0.01987000  0.66507000  0.88553000  1.0
  N  N25  1  0.80698000  0.15659000  0.44766000  1.0
  N  N26  1  0.19302000  0.84341000  0.55234000  1.0
  N  N27  1  0.12010000  0.34861000  0.35595000  1.0
  N  N28  1  0.87990000  0.65139000  0.64404000  1.0
  O  O29  1  0.26187000  0.37820000  0.12684000  1.0
  O  O30  1  0.73813000  0.62180000  0.87316000  1.0
  O  O31  1  0.78228000  0.31478000  0.01009000  1.0
  O  O32  1  0.21773000  0.68522000  0.98990000  1.0
  O  O33  1  0.34694000  0.94830000  0.32737000  1.0
  O  O34  1  0.65305000  0.05170000  0.67263000  1.0
  O  O35  1  0.29100000  0.33899000  0.57020000  1.0
  O  O36  1  0.70900000  0.66101000  0.42981000  1.0
  O  O37  1  0.79259000  0.70818000  0.18991000  1.0
  O  O38  1  0.20741000  0.29183000  0.81010000  1.0
