# generated using pymatgen
data_Co5H100C61(N2O5)4
_symmetry_space_group_name_H-M   'P 1'
_cell_length_a   14.26190000
_cell_length_b   14.28460000
_cell_length_c   21.72440000
_cell_angle_alpha   99.91600000
_cell_angle_beta   90.00120000
_cell_angle_gamma   89.99850000
_symmetry_Int_Tables_number   1
_chemical_formula_structural   Co5H100C61(N2O5)4
_chemical_formula_sum   'Co10 H200 C122 N16 O40'
_cell_volume   4359.69901911
_cell_formula_units_Z   2
loop_
 _symmetry_equiv_pos_site_id
 _symmetry_equiv_pos_as_xyz
  1  'x, y, z'
loop_
 _atom_site_type_symbol
 _atom_site_label
 _atom_site_symmetry_multiplicity
 _atom_site_fract_x
 _atom_site_fract_y
 _atom_site_fract_z
 _atom_site_occupancy
  Co  Co0  1  0.18175000  0.18844000  0.06384000  1.0
  Co  Co1  1  0.83770000  0.84192000  0.06831000  1.0
  Co  Co2  1  0.00909000  0.56743000  0.27671000  1.0
  Co  Co3  1  0.88297000  0.59984000  0.41755000  1.0
  Co  Co4  1  0.08939000  0.63001000  0.40640000  1.0
  Co  Co5  1  0.68177000  0.81156000  0.93617000  1.0
  Co  Co6  1  0.33768000  0.15808000  0.93170000  1.0
  Co  Co7  1  0.50909000  0.43256000  0.72330000  1.0
  Co  Co8  1  0.38297000  0.40017000  0.58245000  1.0
  Co  Co9  1  0.58941000  0.36999000  0.59359000  1.0
  H  H10  1  0.30358000  0.06113000  0.03497000  1.0
  H  H11  1  0.23720000  0.03459000  0.97003000  1.0
  H  H12  1  0.94696000  0.71769000  0.36034000  1.0
  H  H13  1  0.56567000  0.30148000  0.04184000  1.0
  H  H14  1  0.51901000  0.40590000  0.01924000  1.0
  H  H15  1  0.58073000  0.41381000  0.09101000  1.0
  H  H16  1  0.44206000  0.49432000  0.15363000  1.0
  H  H17  1  0.38235000  0.49391000  0.08179000  1.0
  H  H18  1  0.32811000  0.44299000  0.14182000  1.0
  H  H19  1  0.49017000  0.23156000  0.13012000  1.0
  H  H20  1  0.50946000  0.34137000  0.18085000  1.0
  H  H21  1  0.39478000  0.29096000  0.17270000  1.0
  H  H22  1  0.17059000  0.35658000  0.85385000  1.0
  H  H23  1  0.05269000  0.39312000  0.84411000  1.0
  H  H24  1  0.94483000  0.23688000  0.94881000  1.0
  H  H25  1  0.98098000  0.35636000  0.97486000  1.0
  H  H26  1  0.92057000  0.32573000  0.90275000  1.0
  H  H27  1  0.12082000  0.18310000  0.81800000  1.0
  H  H28  1  0.02759000  0.13492000  0.85712000  1.0
  H  H29  1  0.00337000  0.22074000  0.80898000  1.0
  H  H30  1  0.11111000  0.42867000  0.91661000  1.0
  H  H31  1  0.27151000  0.09989000  0.30353000  1.0
  H  H32  1  0.29629000  0.19244000  0.26073000  1.0
  H  H33  1  0.18872000  0.13024000  0.24893000  1.0
  H  H34  1  0.42167000  0.00911000  0.26561000  1.0
  H  H35  1  0.44940000  0.99127000  0.18435000  1.0
  H  H36  1  0.44958000  0.10785000  0.22909000  1.0
  H  H37  1  0.26441000  0.92770000  0.24731000  1.0
  H  H38  1  0.18572000  0.95755000  0.19029000  1.0
  H  H39  1  0.29332000  0.89910000  0.16638000  1.0
  H  H40  1  0.67923000  0.07185000  0.29302000  1.0
  H  H41  1  0.62129000  0.98738000  0.23597000  1.0
  H  H42  1  0.74194000  0.97239000  0.25279000  1.0
  H  H43  1  0.79660000  0.18630000  0.26160000  1.0
  H  H44  1  0.86359000  0.08718000  0.22564000  1.0
  H  H45  1  0.83226000  0.17792000  0.18235000  1.0
  H  H46  1  0.62050000  0.19803000  0.23302000  1.0
  H  H47  1  0.66177000  0.20094000  0.15597000  1.0
  H  H48  1  0.57605000  0.11662000  0.16828000  1.0
  H  H49  1  0.76167000  0.47734000  0.16498000  1.0
  H  H50  1  0.79245000  0.36757000  0.18785000  1.0
  H  H51  1  0.67458000  0.38915000  0.16779000  1.0
  H  H52  1  0.61630000  0.35540000  0.27408000  1.0
  H  H53  1  0.73370000  0.32912000  0.29265000  1.0
  H  H54  1  0.66916000  0.41647000  0.34400000  1.0
  H  H55  1  0.66435000  0.60192000  0.24198000  1.0
  H  H56  1  0.57709000  0.51220000  0.23792000  1.0
  H  H57  1  0.62160000  0.56856000  0.31183000  1.0
  H  H58  1  0.91756000  0.29510000  0.29674000  1.0
  H  H59  1  0.02952000  0.30111000  0.26195000  1.0
  H  H60  1  0.99808000  0.19925000  0.29442000  1.0
  H  H61  1  0.90641000  0.29250000  0.41511000  1.0
  H  H62  1  0.99512000  0.20331000  0.40949000  1.0
  H  H63  1  0.00835000  0.31197000  0.46249000  1.0
  H  H64  1  0.17565000  0.33263000  0.33017000  1.0
  H  H65  1  0.16840000  0.33298000  0.41190000  1.0
  H  H66  1  0.15056000  0.22569000  0.35868000  1.0
  H  H67  1  0.23898000  0.74500000  0.19900000  1.0
  H  H68  1  0.35925000  0.71424000  0.18846000  1.0
  H  H69  1  0.27191000  0.62392000  0.17697000  1.0
  H  H70  1  0.34463000  0.76959000  0.36291000  1.0
  H  H71  1  0.40363000  0.79665000  0.29561000  1.0
  H  H72  1  0.28590000  0.83453000  0.31210000  1.0
  H  H73  1  0.37931000  0.59590000  0.33092000  1.0
  H  H74  1  0.34679000  0.53386000  0.25556000  1.0
  H  H75  1  0.43936000  0.61834000  0.26337000  1.0
  H  H76  1  0.06523000  0.83884000  0.65532000  1.0
  H  H77  1  0.10547000  0.72502000  0.61860000  1.0
  H  H78  1  0.13854000  0.82795000  0.58779000  1.0
  H  H79  1  0.89883000  0.87806000  0.52740000  1.0
  H  H80  1  0.94866000  0.93084000  0.60047000  1.0
  H  H81  1  0.01818000  0.91498000  0.53101000  1.0
  H  H82  1  0.85021000  0.73000000  0.57094000  1.0
  H  H83  1  0.93377000  0.66907000  0.61023000  1.0
  H  H84  1  0.89541000  0.78465000  0.64496000  1.0
  H  H85  1  0.60879000  0.87921000  0.35045000  1.0
  H  H86  1  0.71586000  0.84680000  0.31021000  1.0
  H  H87  1  0.64828000  0.75914000  0.33957000  1.0
  H  H88  1  0.60042000  0.88651000  0.46899000  1.0
  H  H89  1  0.63478000  0.76488000  0.45710000  1.0
  H  H90  1  0.69837000  0.84982000  0.50991000  1.0
  H  H91  1  0.69633000  0.00815000  0.42425000  1.0
  H  H92  1  0.79465000  0.97867000  0.46741000  1.0
  H  H93  1  0.80460000  0.97385000  0.38528000  1.0
  H  H94  1  0.23609000  0.30454000  0.18236000  1.0
  H  H95  1  0.18064000  0.45326000  0.25393000  1.0
  H  H96  1  0.93327000  0.44609000  0.15282000  1.0
  H  H97  1  0.99140000  0.30036000  0.07908000  1.0
  H  H98  1  0.95965000  0.96900000  0.16488000  1.0
  H  H99  1  0.07681000  0.10220000  0.16378000  1.0
  H  H100  1  0.07331000  0.04915000  0.96963000  1.0
  H  H101  1  0.96018000  0.91533000  0.97075000  1.0
  H  H102  1  0.78522000  0.80486000  0.19523000  1.0
  H  H103  1  0.84194000  0.69872000  0.26947000  1.0
  H  H104  1  0.07810000  0.63023000  0.15889000  1.0
  H  H105  1  0.01881000  0.73397000  0.08328000  1.0
  H  H106  1  0.79112000  0.40157000  0.58355000  1.0
  H  H107  1  0.90164000  0.49242000  0.52396000  1.0
  H  H108  1  0.67509000  0.59075000  0.43400000  1.0
  H  H109  1  0.56442000  0.49869000  0.49315000  1.0
  H  H110  1  0.80362000  0.93885000  0.96503000  1.0
  H  H111  1  0.73723000  0.96540000  0.02997000  1.0
  H  H112  1  0.44700000  0.28232000  0.63965000  1.0
  H  H113  1  0.06570000  0.69852000  0.95815000  1.0
  H  H114  1  0.01906000  0.59409000  0.98076000  1.0
  H  H115  1  0.08076000  0.58618000  0.90898000  1.0
  H  H116  1  0.94207000  0.50566000  0.84638000  1.0
  H  H117  1  0.88239000  0.50609000  0.91823000  1.0
  H  H118  1  0.82812000  0.55700000  0.85821000  1.0
  H  H119  1  0.99018000  0.76841000  0.86987000  1.0
  H  H120  1  0.00948000  0.65861000  0.81915000  1.0
  H  H121  1  0.89478000  0.70902000  0.82730000  1.0
  H  H122  1  0.67060000  0.64343000  0.14616000  1.0
  H  H123  1  0.55270000  0.60689000  0.15589000  1.0
  H  H124  1  0.44486000  0.76317000  0.05121000  1.0
  H  H125  1  0.48098000  0.64368000  0.02514000  1.0
  H  H126  1  0.42057000  0.67432000  0.09725000  1.0
  H  H127  1  0.62084000  0.81690000  0.18201000  1.0
  H  H128  1  0.52762000  0.86511000  0.14290000  1.0
  H  H129  1  0.50338000  0.77928000  0.19103000  1.0
  H  H130  1  0.61112000  0.57135000  0.08339000  1.0
  H  H131  1  0.77151000  0.90010000  0.69648000  1.0
  H  H132  1  0.79630000  0.80756000  0.73927000  1.0
  H  H133  1  0.68873000  0.86976000  0.75107000  1.0
  H  H134  1  0.92166000  0.99089000  0.73440000  1.0
  H  H135  1  0.94940000  0.00874000  0.81565000  1.0
  H  H136  1  0.94958000  0.89216000  0.77091000  1.0
  H  H137  1  0.76439000  0.07230000  0.75269000  1.0
  H  H138  1  0.68572000  0.04244000  0.80972000  1.0
  H  H139  1  0.79331000  0.10090000  0.83362000  1.0
  H  H140  1  0.17921000  0.92813000  0.70697000  1.0
  H  H141  1  0.12127000  0.01262000  0.76402000  1.0
  H  H142  1  0.24192000  0.02760000  0.74719000  1.0
  H  H143  1  0.29657000  0.81370000  0.73839000  1.0
  H  H144  1  0.36357000  0.91281000  0.77435000  1.0
  H  H145  1  0.33224000  0.82206000  0.81763000  1.0
  H  H146  1  0.12047000  0.80199000  0.76698000  1.0
  H  H147  1  0.16176000  0.79907000  0.84403000  1.0
  H  H148  1  0.07603000  0.88339000  0.83172000  1.0
  H  H149  1  0.26168000  0.52267000  0.83504000  1.0
  H  H150  1  0.29246000  0.63244000  0.81216000  1.0
  H  H151  1  0.17460000  0.61087000  0.83223000  1.0
  H  H152  1  0.11629000  0.64462000  0.72595000  1.0
  H  H153  1  0.23368000  0.67091000  0.70737000  1.0
  H  H154  1  0.16915000  0.58356000  0.65602000  1.0
  H  H155  1  0.16434000  0.39811000  0.75804000  1.0
  H  H156  1  0.07709000  0.48785000  0.76209000  1.0
  H  H157  1  0.12160000  0.43147000  0.68818000  1.0
  H  H158  1  0.41754000  0.70492000  0.70325000  1.0
  H  H159  1  0.52951000  0.69890000  0.73804000  1.0
  H  H160  1  0.49806000  0.80076000  0.70557000  1.0
  H  H161  1  0.40637000  0.70752000  0.58489000  1.0
  H  H162  1  0.49508000  0.79670000  0.59051000  1.0
  H  H163  1  0.50830000  0.68807000  0.53750000  1.0
  H  H164  1  0.67563000  0.66740000  0.66982000  1.0
  H  H165  1  0.66837000  0.66706000  0.58810000  1.0
  H  H166  1  0.65051000  0.77434000  0.64131000  1.0
  H  H167  1  0.73900000  0.25500000  0.80101000  1.0
  H  H168  1  0.85927000  0.28575000  0.81154000  1.0
  H  H169  1  0.77194000  0.37609000  0.82304000  1.0
  H  H170  1  0.84467000  0.23040000  0.63711000  1.0
  H  H171  1  0.90365000  0.20337000  0.70442000  1.0
  H  H172  1  0.78594000  0.16546000  0.68792000  1.0
  H  H173  1  0.87933000  0.40409000  0.66909000  1.0
  H  H174  1  0.84682000  0.46614000  0.74446000  1.0
  H  H175  1  0.93937000  0.38163000  0.73664000  1.0
  H  H176  1  0.56521000  0.16112000  0.34467000  1.0
  H  H177  1  0.60548000  0.27493000  0.38137000  1.0
  H  H178  1  0.63854000  0.17201000  0.41219000  1.0
  H  H179  1  0.39885000  0.12191000  0.47258000  1.0
  H  H180  1  0.44868000  0.06915000  0.39952000  1.0
  H  H181  1  0.51820000  0.08500000  0.46898000  1.0
  H  H182  1  0.35022000  0.26996000  0.42904000  1.0
  H  H183  1  0.43376000  0.33089000  0.38975000  1.0
  H  H184  1  0.39542000  0.21530000  0.35503000  1.0
  H  H185  1  0.10882000  0.12078000  0.64952000  1.0
  H  H186  1  0.21590000  0.15318000  0.68976000  1.0
  H  H187  1  0.14831000  0.24085000  0.66041000  1.0
  H  H188  1  0.10042000  0.11347000  0.53100000  1.0
  H  H189  1  0.13476000  0.23512000  0.54288000  1.0
  H  H190  1  0.19833000  0.15017000  0.49006000  1.0
  H  H191  1  0.19633000  0.99186000  0.57572000  1.0
  H  H192  1  0.29465000  0.02133000  0.53255000  1.0
  H  H193  1  0.30461000  0.02614000  0.61468000  1.0
  H  H194  1  0.73611000  0.69545000  0.81764000  1.0
  H  H195  1  0.68065000  0.54674000  0.74607000  1.0
  H  H196  1  0.43329000  0.55390000  0.84718000  1.0
  H  H197  1  0.49142000  0.69964000  0.92093000  1.0
  H  H198  1  0.45962000  0.03100000  0.83512000  1.0
  H  H199  1  0.57681000  0.89782000  0.83622000  1.0
  H  H200  1  0.57332000  0.95083000  0.03038000  1.0
  H  H201  1  0.46016000  0.08465000  0.02926000  1.0
  H  H202  1  0.28520000  0.19515000  0.80477000  1.0
  H  H203  1  0.34193000  0.30128000  0.73052000  1.0
  H  H204  1  0.57810000  0.36973000  0.84112000  1.0
  H  H205  1  0.51878000  0.26599000  0.91672000  1.0
  H  H206  1  0.29108000  0.59842000  0.41645000  1.0
  H  H207  1  0.40160000  0.50755000  0.47604000  1.0
  H  H208  1  0.17506000  0.40929000  0.56602000  1.0
  H  H209  1  0.06439000  0.50134000  0.50686000  1.0
  C  C210  1  0.37049000  0.29423000  0.04992000  1.0
  C  C211  1  0.44022000  0.35625000  0.09349000  1.0
  C  C212  1  0.53184000  0.36991000  0.05928000  1.0
  C  C213  1  0.39530000  0.45258000  0.11918000  1.0
  C  C214  1  0.45961000  0.30165000  0.14755000  1.0
  C  C215  1  0.14064000  0.24700000  0.94139000  1.0
  C  C216  1  0.06598000  0.28039000  0.89889000  1.0
  C  C217  1  0.10246000  0.37011000  0.87703000  1.0
  C  C218  1  0.97260000  0.30076000  0.93348000  1.0
  C  C219  1  0.05393000  0.19989000  0.84237000  1.0
  C  C220  1  0.30080000  0.07819000  0.14206000  1.0
  C  C221  1  0.30993000  0.04907000  0.20694000  1.0
  C  C222  1  0.26378000  0.12209000  0.25776000  1.0
  C  C223  1  0.41399000  0.03865000  0.22233000  1.0
  C  C224  1  0.26027000  0.95237000  0.20224000  1.0
  C  C225  1  0.73572000  0.01595000  0.13549000  1.0
  C  C226  1  0.71615000  0.08337000  0.19746000  1.0
  C  C227  1  0.68782000  0.02502000  0.24766000  1.0
  C  C228  1  0.80789000  0.13674000  0.21763000  1.0
  C  C229  1  0.63912000  0.15399000  0.18812000  1.0
  C  C230  1  0.80453000  0.50942000  0.29306000  1.0
  C  C231  1  0.71623000  0.46446000  0.25917000  1.0
  C  C232  1  0.73774000  0.42220000  0.19098000  1.0
  C  C233  1  0.68199000  0.38659000  0.29471000  1.0
  C  C234  1  0.64032000  0.54162000  0.26303000  1.0
  C  C235  1  0.01349000  0.43030000  0.37205000  1.0
  C  C236  1  0.03243000  0.32246000  0.36444000  1.0
  C  C237  1  0.99193000  0.27705000  0.30037000  1.0
  C  C238  1  0.98228000  0.28030000  0.41594000  1.0
  C  C239  1  0.13810000  0.30271000  0.36631000  1.0
  C  C240  1  0.20573000  0.65638000  0.30022000  1.0
  C  C241  1  0.30092000  0.68301000  0.27469000  1.0
  C  C242  1  0.29191000  0.69189000  0.20567000  1.0
  C  C243  1  0.33590000  0.77655000  0.31374000  1.0
  C  C244  1  0.37030000  0.60265000  0.28165000  1.0
  C  C245  1  0.01991000  0.72342000  0.50655000  1.0
  C  C246  1  0.99266000  0.78489000  0.56859000  1.0
  C  C247  1  0.08122000  0.79467000  0.60997000  1.0
  C  C248  1  0.96278000  0.88344000  0.55593000  1.0
  C  C249  1  0.91317000  0.73914000  0.60041000  1.0
  C  C250  1  0.81222000  0.79123000  0.40523000  1.0
  C  C251  1  0.72488000  0.85640000  0.41152000  1.0
  C  C252  1  0.67131000  0.83375000  0.34905000  1.0
  C  C253  1  0.66106000  0.83824000  0.46502000  1.0
  C  C254  1  0.75727000  0.96061000  0.42267000  1.0
  C  C255  1  0.16924000  0.33778000  0.17557000  1.0
  C  C256  1  0.13882000  0.41911000  0.21458000  1.0
  C  C257  1  0.00189000  0.41529000  0.15852000  1.0
  C  C258  1  0.03299000  0.33433000  0.11883000  1.0
  C  C259  1  0.98650000  0.98670000  0.12139000  1.0
  C  C260  1  0.04978000  0.06028000  0.12077000  1.0
  C  C261  1  0.04837000  0.03132000  0.01344000  1.0
  C  C262  1  0.98606000  0.95682000  0.01411000  1.0
  C  C263  1  0.85010000  0.76453000  0.18706000  1.0
  C  C264  1  0.88107000  0.70561000  0.22747000  1.0
  C  C265  1  0.01176000  0.66827000  0.16621000  1.0
  C  C266  1  0.98030000  0.72638000  0.12548000  1.0
  C  C267  1  0.76587000  0.44398000  0.54989000  1.0
  C  C268  1  0.82608000  0.49374000  0.51735000  1.0
  C  C269  1  0.70041000  0.54834000  0.46768000  1.0
  C  C270  1  0.63998000  0.49802000  0.49996000  1.0
  C  C271  1  0.87051000  0.70577000  0.95008000  1.0
  C  C272  1  0.94023000  0.64375000  0.90651000  1.0
  C  C273  1  0.03187000  0.63009000  0.94072000  1.0
  C  C274  1  0.89533000  0.54742000  0.88083000  1.0
  C  C275  1  0.95962000  0.69833000  0.85245000  1.0
  C  C276  1  0.64065000  0.75302000  0.05862000  1.0
  C  C277  1  0.56600000  0.71963000  0.10112000  1.0
  C  C278  1  0.60246000  0.62990000  0.12298000  1.0
  C  C279  1  0.47262000  0.69928000  0.06653000  1.0
  C  C280  1  0.55395000  0.80012000  0.15765000  1.0
  C  C281  1  0.80081000  0.92180000  0.85794000  1.0
  C  C282  1  0.80994000  0.95093000  0.79305000  1.0
  C  C283  1  0.76378000  0.87790000  0.74224000  1.0
  C  C284  1  0.91399000  0.96136000  0.77767000  1.0
  C  C285  1  0.76026000  0.04762000  0.79777000  1.0
  C  C286  1  0.23570000  0.98402000  0.86450000  1.0
  C  C287  1  0.21613000  0.91662000  0.80252000  1.0
  C  C288  1  0.18779000  0.97498000  0.75233000  1.0
  C  C289  1  0.30787000  0.86325000  0.78235000  1.0
  C  C290  1  0.13910000  0.84601000  0.81187000  1.0
  C  C291  1  0.30454000  0.49060000  0.70696000  1.0
  C  C292  1  0.21624000  0.53556000  0.74084000  1.0
  C  C293  1  0.23775000  0.57781000  0.80904000  1.0
  C  C294  1  0.18199000  0.61343000  0.70531000  1.0
  C  C295  1  0.14032000  0.45841000  0.73698000  1.0
  C  C296  1  0.51348000  0.56970000  0.62794000  1.0
  C  C297  1  0.53240000  0.67755000  0.63555000  1.0
  C  C298  1  0.49191000  0.72296000  0.69962000  1.0
  C  C299  1  0.48224000  0.71971000  0.58406000  1.0
  C  C300  1  0.63807000  0.69731000  0.63368000  1.0
  C  C301  1  0.70573000  0.34362000  0.69979000  1.0
  C  C302  1  0.80093000  0.31699000  0.72532000  1.0
  C  C303  1  0.79193000  0.30811000  0.79434000  1.0
  C  C304  1  0.83592000  0.22345000  0.68628000  1.0
  C  C305  1  0.87032000  0.39735000  0.71836000  1.0
  C  C306  1  0.51992000  0.27657000  0.49343000  1.0
  C  C307  1  0.49267000  0.21509000  0.43140000  1.0
  C  C308  1  0.58122000  0.20529000  0.39001000  1.0
  C  C309  1  0.46281000  0.11654000  0.44406000  1.0
  C  C310  1  0.41317000  0.26082000  0.39957000  1.0
  C  C311  1  0.31223000  0.20877000  0.59475000  1.0
  C  C312  1  0.22490000  0.14361000  0.58845000  1.0
  C  C313  1  0.17134000  0.16624000  0.65093000  1.0
  C  C314  1  0.16105000  0.16176000  0.53496000  1.0
  C  C315  1  0.25727000  0.03939000  0.57730000  1.0
  C  C316  1  0.66925000  0.66221000  0.82443000  1.0
  C  C317  1  0.63883000  0.58089000  0.78543000  1.0
  C  C318  1  0.50191000  0.58470000  0.84149000  1.0
  C  C319  1  0.53301000  0.66566000  0.88118000  1.0
  C  C320  1  0.48648000  0.01330000  0.87862000  1.0
  C  C321  1  0.54978000  0.93973000  0.87923000  1.0
  C  C322  1  0.54837000  0.96867000  0.98656000  1.0
  C  C323  1  0.48604000  0.04318000  0.98589000  1.0
  C  C324  1  0.35009000  0.23547000  0.81295000  1.0
  C  C325  1  0.38107000  0.29438000  0.77253000  1.0
  C  C326  1  0.51176000  0.33170000  0.83380000  1.0
  C  C327  1  0.48029000  0.27359000  0.87452000  1.0
  C  C328  1  0.26584000  0.55601000  0.45012000  1.0
  C  C329  1  0.32605000  0.50625000  0.48266000  1.0
  C  C330  1  0.20038000  0.45168000  0.53233000  1.0
  C  C331  1  0.13995000  0.50200000  0.50006000  1.0
  N  N332  1  0.11675000  0.29489000  0.12727000  1.0
  N  N333  1  0.05462000  0.45826000  0.20674000  1.0
  N  N334  1  0.95373000  0.93471000  0.06800000  1.0
  N  N335  1  0.08110000  0.08330000  0.06672000  1.0
  N  N336  1  0.89893000  0.77468000  0.13547000  1.0
  N  N337  1  0.96213000  0.65689000  0.21736000  1.0
  N  N338  1  0.67203000  0.44516000  0.54140000  1.0
  N  N339  1  0.79414000  0.54593000  0.47571000  1.0
  N  N340  1  0.61677000  0.70511000  0.87274000  1.0
  N  N341  1  0.55463000  0.54173000  0.79326000  1.0
  N  N342  1  0.45368000  0.06529000  0.93200000  1.0
  N  N343  1  0.58112000  0.91670000  0.93329000  1.0
  N  N344  1  0.39891000  0.22530000  0.86454000  1.0
  N  N345  1  0.46213000  0.34310000  0.78264000  1.0
  N  N346  1  0.17200000  0.55484000  0.45861000  1.0
  N  N347  1  0.29411000  0.45408000  0.52430000  1.0
  O  O348  1  0.28600000  0.29440000  0.06736000  1.0
  O  O349  1  0.26711000  0.08942000  0.00173000  1.0
  O  O350  1  0.40478000  0.24467000  0.00030000  1.0
  O  O351  1  0.97491000  0.65095000  0.35776000  1.0
  O  O352  1  0.11312000  0.22656000  0.99321000  1.0
  O  O353  1  0.22446000  0.24049000  0.92141000  1.0
  O  O354  1  0.24630000  0.14846000  0.13821000  1.0
  O  O355  1  0.34427000  0.03087000  0.09619000  1.0
  O  O356  1  0.78785000  0.94403000  0.13917000  1.0
  O  O357  1  0.70238000  0.03543000  0.08506000  1.0
  O  O358  1  0.88364000  0.49413000  0.26621000  1.0
  O  O359  1  0.79096000  0.55835000  0.34699000  1.0
  O  O360  1  0.06942000  0.48126000  0.34473000  1.0
  O  O361  1  0.94327000  0.46291000  0.40436000  1.0
  O  O362  1  0.14192000  0.62373000  0.26198000  1.0
  O  O363  1  0.19792000  0.66734000  0.35962000  1.0
  O  O364  1  0.08159000  0.75298000  0.47234000  1.0
  O  O365  1  0.98423000  0.63955000  0.48997000  1.0
  O  O366  1  0.81500000  0.72664000  0.43966000  1.0
  O  O367  1  0.87476000  0.80353000  0.36603000  1.0
  O  O368  1  0.78602000  0.70559000  0.93263000  1.0
  O  O369  1  0.76713000  0.91058000  0.99827000  1.0
  O  O370  1  0.90481000  0.75534000  0.99969000  1.0
  O  O371  1  0.47496000  0.34904000  0.64224000  1.0
  O  O372  1  0.61313000  0.77347000  0.00680000  1.0
  O  O373  1  0.72448000  0.75951000  0.07860000  1.0
  O  O374  1  0.74632000  0.85153000  0.86178000  1.0
  O  O375  1  0.84429000  0.96911000  0.90381000  1.0
  O  O376  1  0.28783000  0.05596000  0.86084000  1.0
  O  O377  1  0.20239000  0.96456000  0.91492000  1.0
  O  O378  1  0.38365000  0.50585000  0.73382000  1.0
  O  O379  1  0.29099000  0.44169000  0.65302000  1.0
  O  O380  1  0.56940000  0.51875000  0.65529000  1.0
  O  O381  1  0.44330000  0.53706000  0.59562000  1.0
  O  O382  1  0.64190000  0.37624000  0.73802000  1.0
  O  O383  1  0.69793000  0.33269000  0.64038000  1.0
  O  O384  1  0.58160000  0.24704000  0.52766000  1.0
  O  O385  1  0.48424000  0.36044000  0.51004000  1.0
  O  O386  1  0.31500000  0.27340000  0.56034000  1.0
  O  O387  1  0.37479000  0.19645000  0.63394000  1.0
