# generated using pymatgen
data_AgH5C9(NO2)2
_symmetry_space_group_name_H-M   'P 1'
_cell_length_a   4.92278000
_cell_length_b   9.01209000
_cell_length_c   19.99580000
_cell_angle_alpha   90.00000000
_cell_angle_beta   90.00020000
_cell_angle_gamma   93.15650000
_symmetry_Int_Tables_number   1
_chemical_formula_structural   AgH5C9(NO2)2
_chemical_formula_sum   'Ag4 H20 C36 N8 O16'
_cell_volume   885.75853303
_cell_formula_units_Z   4
loop_
 _symmetry_equiv_pos_site_id
 _symmetry_equiv_pos_as_xyz
  1  'x, y, z'
loop_
 _atom_site_type_symbol
 _atom_site_label
 _atom_site_symmetry_multiplicity
 _atom_site_fract_x
 _atom_site_fract_y
 _atom_site_fract_z
 _atom_site_occupancy
  Ag  Ag0  1  0.28851000  0.40462000  0.02321000  1.0
  Ag  Ag1  1  0.21149000  0.09537000  0.52321000  1.0
  Ag  Ag2  1  0.71149000  0.59538000  0.97679000  1.0
  Ag  Ag3  1  0.78851000  0.90462000  0.47679000  1.0
  H  H4  1  0.01584000  0.17501000  0.86784000  1.0
  H  H5  1  0.48415000  0.32500000  0.36784000  1.0
  H  H6  1  0.98415000  0.82499000  0.13216000  1.0
  H  H7  1  0.51585000  0.67500000  0.63216000  1.0
  H  H8  1  0.70555000  0.95859000  0.96565000  1.0
  H  H9  1  0.79444000  0.54141000  0.46565000  1.0
  H  H10  1  0.29444000  0.04141000  0.03435000  1.0
  H  H11  1  0.20556000  0.45859000  0.53435000  1.0
  H  H12  1  0.75879000  0.58329000  0.80698000  1.0
  H  H13  1  0.74120000  0.91671000  0.30698000  1.0
  H  H14  1  0.24120000  0.41671000  0.19302000  1.0
  H  H15  1  0.25880000  0.08329000  0.69302000  1.0
  H  H16  1  0.04212000  0.68248000  0.69738000  1.0
  H  H17  1  0.45787000  0.81752000  0.19738000  1.0
  H  H18  1  0.95787000  0.31751000  0.30262000  1.0
  H  H19  1  0.54213000  0.18249000  0.80262000  1.0
  H  H20  1  0.81542000  0.94940000  0.66409000  1.0
  H  H21  1  0.68457000  0.55061000  0.16409000  1.0
  H  H22  1  0.18457000  0.05061000  0.33591000  1.0
  H  H23  1  0.31543000  0.44939000  0.83591000  1.0
  C  C24  1  0.70607000  0.25978000  0.93406000  1.0
  C  C25  1  0.79393000  0.24022000  0.43406000  1.0
  C  C26  1  0.29393000  0.74022000  0.06594000  1.0
  C  C27  1  0.20608000  0.75978000  0.56594000  1.0
  C  C28  1  0.86384000  0.13944000  0.90496000  1.0
  C  C29  1  0.63616000  0.36056000  0.40496000  1.0
  C  C30  1  0.13616000  0.86056000  0.09504000  1.0
  C  C31  1  0.36385000  0.63944000  0.59504000  1.0
  C  C32  1  0.84755000  0.99746000  0.92662000  1.0
  C  C33  1  0.65245000  0.50254000  0.42662000  1.0
  C  C34  1  0.15244000  0.00254000  0.07338000  1.0
  C  C35  1  0.34756000  0.49746000  0.57338000  1.0
  C  C36  1  0.02620000  0.88945000  0.90215000  1.0
  C  C37  1  0.47380000  0.61055000  0.40216000  1.0
  C  C38  1  0.97380000  0.11055000  0.09785000  1.0
  C  C39  1  0.52621000  0.38945000  0.59785000  1.0
  C  C40  1  0.34163000  0.79741000  0.84311000  1.0
  C  C41  1  0.15837000  0.70259000  0.34311000  1.0
  C  C42  1  0.65837000  0.20259000  0.15689000  1.0
  C  C43  1  0.84163000  0.29741000  0.65689000  1.0
  C  C44  1  0.54716000  0.79003000  0.79318000  1.0
  C  C45  1  0.95284000  0.70997000  0.29318000  1.0
  C  C46  1  0.45283000  0.20997000  0.20682000  1.0
  C  C47  1  0.04717000  0.29003000  0.70682000  1.0
  C  C48  1  0.73177000  0.68482000  0.77931000  1.0
  C  C49  1  0.76823000  0.81518000  0.27931000  1.0
  C  C50  1  0.26823000  0.31518000  0.22070000  1.0
  C  C51  1  0.23178000  0.18482000  0.72069000  1.0
  C  C52  1  0.88114000  0.73799000  0.72242000  1.0
  C  C53  1  0.61886000  0.76201000  0.22242000  1.0
  C  C54  1  0.11886000  0.26201000  0.27758000  1.0
  C  C55  1  0.38115000  0.23799000  0.77758000  1.0
  C  C56  1  0.77861000  0.87090000  0.70476000  1.0
  C  C57  1  0.72139000  0.62911000  0.20476000  1.0
  C  C58  1  0.22139000  0.12910000  0.29524000  1.0
  C  C59  1  0.27861000  0.37090000  0.79524000  1.0
  N  N60  1  0.05139000  0.75167000  0.92230000  1.0
  N  N61  1  0.44861000  0.74833000  0.42230000  1.0
  N  N62  1  0.94860000  0.24833000  0.07770000  1.0
  N  N63  1  0.55140000  0.25167000  0.57770000  1.0
  N  N64  1  0.25415000  0.69176000  0.88467000  1.0
  N  N65  1  0.24585000  0.80825000  0.38467000  1.0
  N  N66  1  0.74585000  0.30824000  0.11533000  1.0
  N  N67  1  0.75415000  0.19175000  0.61533000  1.0
  O  O68  1  0.49145000  0.22538000  0.96720000  1.0
  O  O69  1  0.00855000  0.27462000  0.46720000  1.0
  O  O70  1  0.50854000  0.77462000  0.03280000  1.0
  O  O71  1  0.99146000  0.72538000  0.53280000  1.0
  O  O72  1  0.81128000  0.39041000  0.92279000  1.0
  O  O73  1  0.68871000  0.10959000  0.42279000  1.0
  O  O74  1  0.18871000  0.60959000  0.07721000  1.0
  O  O75  1  0.31129000  0.89041000  0.57721000  1.0
  O  O76  1  0.20806000  0.92524000  0.85156000  1.0
  O  O77  1  0.29194000  0.57476000  0.35156000  1.0
  O  O78  1  0.79193000  0.07476000  0.14844000  1.0
  O  O79  1  0.70807000  0.42524000  0.64844000  1.0
  O  O80  1  0.57490000  0.90498000  0.74781000  1.0
  O  O81  1  0.92509000  0.59502000  0.24781000  1.0
  O  O82  1  0.42510000  0.09502000  0.25219000  1.0
  O  O83  1  0.07491000  0.40498000  0.75219000  1.0
