# generated using pymatgen
data_HgH6(C5N6)2
_symmetry_space_group_name_H-M   'P 1'
_cell_length_a   8.94882000
_cell_length_b   9.96833000
_cell_length_c   15.57900000
_cell_angle_alpha   90.00000000
_cell_angle_beta   91.86760000
_cell_angle_gamma   90.00000000
_symmetry_Int_Tables_number   1
_chemical_formula_structural   HgH6(C5N6)2
_chemical_formula_sum   'Hg4 H24 C40 N48'
_cell_volume   1388.98322383
_cell_formula_units_Z   4
loop_
 _symmetry_equiv_pos_site_id
 _symmetry_equiv_pos_as_xyz
  1  'x, y, z'
loop_
 _atom_site_type_symbol
 _atom_site_label
 _atom_site_symmetry_multiplicity
 _atom_site_fract_x
 _atom_site_fract_y
 _atom_site_fract_z
 _atom_site_occupancy
  Hg  Hg0  1  0.53036000  0.88019000  0.11983000  1.0
  Hg  Hg1  1  0.46964000  0.38019000  0.38017000  1.0
  Hg  Hg2  1  0.46964000  0.11981000  0.88017000  1.0
  Hg  Hg3  1  0.53036000  0.61981000  0.61983000  1.0
  H  H4  1  0.10818000  0.77221000  0.03756000  1.0
  H  H5  1  0.89182000  0.27221000  0.46244000  1.0
  H  H6  1  0.89182000  0.22779000  0.96244000  1.0
  H  H7  1  0.10818000  0.72779000  0.53756000  1.0
  H  H8  1  0.04153000  0.64647000  0.28829000  1.0
  H  H9  1  0.95846000  0.14647000  0.21171000  1.0
  H  H10  1  0.95847000  0.35353000  0.71171000  1.0
  H  H11  1  0.04153000  0.85353000  0.78829000  1.0
  H  H12  1  0.78336000  0.74967000  0.28152000  1.0
  H  H13  1  0.21664000  0.24967000  0.21848000  1.0
  H  H14  1  0.21664000  0.25033000  0.71848000  1.0
  H  H15  1  0.78336000  0.75033000  0.78152000  1.0
  H  H16  1  0.21428000  0.40061000  0.03783000  1.0
  H  H17  1  0.78572000  0.90061000  0.46217000  1.0
  H  H18  1  0.78572000  0.59939000  0.96217000  1.0
  H  H19  1  0.21428000  0.09939000  0.53783000  1.0
  H  H20  1  0.21416000  0.60458000  0.80494000  1.0
  H  H21  1  0.78584000  0.10458000  0.69506000  1.0
  H  H22  1  0.78584000  0.39542000  0.19506000  1.0
  H  H23  1  0.21416000  0.89542000  0.30494000  1.0
  H  H24  1  0.37736000  0.78502000  0.87297000  1.0
  H  H25  1  0.62264000  0.28502000  0.62703000  1.0
  H  H26  1  0.62264000  0.21498000  0.12703000  1.0
  H  H27  1  0.37736000  0.71498000  0.37297000  1.0
  C  C28  1  0.82706000  0.88158000  0.01037000  1.0
  C  C29  1  0.17294000  0.38159000  0.48963000  1.0
  C  C30  1  0.17294000  0.11842000  0.98963000  1.0
  C  C31  1  0.82706000  0.61842000  0.51037000  1.0
  C  C32  1  0.89133000  0.81825000  0.08756000  1.0
  C  C33  1  0.10867000  0.31825000  0.41244000  1.0
  C  C34  1  0.10867000  0.18175000  0.91244000  1.0
  C  C35  1  0.89132000  0.68175000  0.58756000  1.0
  C  C36  1  0.03603000  0.76474000  0.09246000  1.0
  C  C37  1  0.96396000  0.26475000  0.40754000  1.0
  C  C38  1  0.96397000  0.23526000  0.90754000  1.0
  C  C39  1  0.03603000  0.73526000  0.59246000  1.0
  C  C40  1  0.00006000  0.69741000  0.23023000  1.0
  C  C41  1  0.99994000  0.19741000  0.26977000  1.0
  C  C42  1  0.99994000  0.30259000  0.76977000  1.0
  C  C43  1  0.00006000  0.80259000  0.73023000  1.0
  C  C44  1  0.85659000  0.75327000  0.22710000  1.0
  C  C45  1  0.14341000  0.25327000  0.27290000  1.0
  C  C46  1  0.14341000  0.24673000  0.77290000  1.0
  C  C47  1  0.85659000  0.74673000  0.72710000  1.0
  C  C48  1  0.39681000  0.57570000  0.12671000  1.0
  C  C49  1  0.60319000  0.07570000  0.37329000  1.0
  C  C50  1  0.60319000  0.42430000  0.87329000  1.0
  C  C51  1  0.39681000  0.92430000  0.62671000  1.0
  C  C52  1  0.34367000  0.58450000  0.03748000  1.0
  C  C53  1  0.65633000  0.08450000  0.46252000  1.0
  C  C54  1  0.65633000  0.41550000  0.96252000  1.0
  C  C55  1  0.34367000  0.91550000  0.53748000  1.0
  C  C56  1  0.25065000  0.48597000  0.99984000  1.0
  C  C57  1  0.74935000  0.98597000  0.50016000  1.0
  C  C58  1  0.74935000  0.51402000  0.00016000  1.0
  C  C59  1  0.25065000  0.01402000  0.49984000  1.0
  C  C60  1  0.24933000  0.59965000  0.87267000  1.0
  C  C61  1  0.75067000  0.09965000  0.62733000  1.0
  C  C62  1  0.75067000  0.40035000  0.12733000  1.0
  C  C63  1  0.24933000  0.90035000  0.37266000  1.0
  C  C64  1  0.33974000  0.69957000  0.91030000  1.0
  C  C65  1  0.66026000  0.19957000  0.58970000  1.0
  C  C66  1  0.66026000  0.30043000  0.08970000  1.0
  C  C67  1  0.33974000  0.80042000  0.41030000  1.0
  N  N68  1  0.68736000  0.93155000  0.00709000  1.0
  N  N69  1  0.31263000  0.43155000  0.49291000  1.0
  N  N70  1  0.31264000  0.06845000  0.99291000  1.0
  N  N71  1  0.68736000  0.56845000  0.50709000  1.0
  N  N72  1  0.66838000  0.98101000  0.92774000  1.0
  N  N73  1  0.33162000  0.48101000  0.57226000  1.0
  N  N74  1  0.33162000  0.01899000  0.07226000  1.0
  N  N75  1  0.66837000  0.51899000  0.42774000  1.0
  N  N76  1  0.79148000  0.96274000  0.88413000  1.0
  N  N77  1  0.20852000  0.46274000  0.61587000  1.0
  N  N78  1  0.20852000  0.03726000  0.11587000  1.0
  N  N79  1  0.79147000  0.53726000  0.38413000  1.0
  N  N80  1  0.89306000  0.89957000  0.93464000  1.0
  N  N81  1  0.10694000  0.39957000  0.56536000  1.0
  N  N82  1  0.10694000  0.10043000  0.06536000  1.0
  N  N83  1  0.89306000  0.60043000  0.43464000  1.0
  N  N84  1  0.09035000  0.70442000  0.16339000  1.0
  N  N85  1  0.90964000  0.20442000  0.33661000  1.0
  N  N86  1  0.90965000  0.29558000  0.83661000  1.0
  N  N87  1  0.09035000  0.79558000  0.66339000  1.0
  N  N88  1  0.80344000  0.81325000  0.15587000  1.0
  N  N89  1  0.19656000  0.31326000  0.34413000  1.0
  N  N90  1  0.19656000  0.18675000  0.84413000  1.0
  N  N91  1  0.80344000  0.68674000  0.65587000  1.0
  N  N92  1  0.46935000  0.67598000  0.16881000  1.0
  N  N93  1  0.53066000  0.17598000  0.33119000  1.0
  N  N94  1  0.53066000  0.32402000  0.83119000  1.0
  N  N95  1  0.46934000  0.82402000  0.66881000  1.0
  N  N96  1  0.50028000  0.63339000  0.24843000  1.0
  N  N97  1  0.49972000  0.13339000  0.25157000  1.0
  N  N98  1  0.49972000  0.36661000  0.75157000  1.0
  N  N99  1  0.50028000  0.86661000  0.74843000  1.0
  N  N100  1  0.44711000  0.50996000  0.25308000  1.0
  N  N101  1  0.55289000  0.00996000  0.24692000  1.0
  N  N102  1  0.55289000  0.49004000  0.74692000  1.0
  N  N103  1  0.44711000  0.99004000  0.75308000  1.0
  N  N104  1  0.38170000  0.46993000  0.17873000  1.0
  N  N105  1  0.61830000  0.96993000  0.32127000  1.0
  N  N106  1  0.61830000  0.53007000  0.82127000  1.0
  N  N107  1  0.38171000  0.03007000  0.67873000  1.0
  N  N108  1  0.20350000  0.49336000  0.91767000  1.0
  N  N109  1  0.79650000  0.99336000  0.58233000  1.0
  N  N110  1  0.79650000  0.50664000  0.08233000  1.0
  N  N111  1  0.20350000  0.00664000  0.41767000  1.0
  N  N112  1  0.38672000  0.69251000  0.99255000  1.0
  N  N113  1  0.61328000  0.19251000  0.50745000  1.0
  N  N114  1  0.61328000  0.30749000  0.00745000  1.0
  N  N115  1  0.38672000  0.80749000  0.49255000  1.0
