# generated using pymatgen
data_CoH14C14(N2O)6
_symmetry_space_group_name_H-M   'P 1'
_cell_length_a   6.94047000
_cell_length_b   8.26387000
_cell_length_c   9.35627000
_cell_angle_alpha   111.91370000
_cell_angle_beta   98.26120000
_cell_angle_gamma   91.33920000
_symmetry_Int_Tables_number   1
_chemical_formula_structural   CoH14C14(N2O)6
_chemical_formula_sum   'Co1 H14 C14 N12 O6'
_cell_volume   490.95536244
_cell_formula_units_Z   1
loop_
 _symmetry_equiv_pos_site_id
 _symmetry_equiv_pos_as_xyz
  1  'x, y, z'
loop_
 _atom_site_type_symbol
 _atom_site_label
 _atom_site_symmetry_multiplicity
 _atom_site_fract_x
 _atom_site_fract_y
 _atom_site_fract_z
 _atom_site_occupancy
  Co  Co0  1  0.00000000  0.00000000  0.00000000  1.0
  H  H1  1  0.79495000  0.66331000  0.91591000  1.0
  H  H2  1  0.20504000  0.33667000  0.08410000  1.0
  H  H3  1  0.95876000  0.72368000  0.06780000  1.0
  H  H4  1  0.04123000  0.27632000  0.93221000  1.0
  H  H5  1  0.45765000  0.99228000  0.68368000  1.0
  H  H6  1  0.54232000  0.00772000  0.31632000  1.0
  H  H7  1  0.40283000  0.14971000  0.86344000  1.0
  H  H8  1  0.59717000  0.85031000  0.13655000  1.0
  H  H9  1  0.19282000  0.67300000  0.89059000  1.0
  H  H10  1  0.80717000  0.32701000  0.10943000  1.0
  H  H11  1  0.07223000  0.82401000  0.43439000  1.0
  H  H12  1  0.92780000  0.17599000  0.56561000  1.0
  H  H13  1  0.97323000  0.01724000  0.68952000  1.0
  H  H14  1  0.02679000  0.98276000  0.31047000  1.0
  C  C15  1  0.70758000  0.14949000  0.83624000  1.0
  C  C16  1  0.29241000  0.85051000  0.16375000  1.0
  C  C17  1  0.48977000  0.12675000  0.76936000  1.0
  C  C18  1  0.51023000  0.87324000  0.23064000  1.0
  C  C19  1  0.16835000  0.71120000  0.79077000  1.0
  C  C20  1  0.83164000  0.28880000  0.20923000  1.0
  C  C21  1  0.22466000  0.60730000  0.64927000  1.0
  C  C22  1  0.77534000  0.39270000  0.35074000  1.0
  C  C23  1  0.31831000  0.44712000  0.63656000  1.0
  C  C24  1  0.68169000  0.55288000  0.36344000  1.0
  C  C25  1  0.10087000  0.79200000  0.53808000  1.0
  C  C26  1  0.89916000  0.20799000  0.46193000  1.0
  C  C27  1  0.04548000  0.89893000  0.67786000  1.0
  C  C28  1  0.95453000  0.10108000  0.32214000  1.0
  N  N29  1  0.42896000  0.24164000  0.68933000  1.0
  N  N30  1  0.57103000  0.75836000  0.31067000  1.0
  N  N31  1  0.36355000  0.39686000  0.75748000  1.0
  N  N32  1  0.63645000  0.60313000  0.24252000  1.0
  N  N33  1  0.18913000  0.64571000  0.52103000  1.0
  N  N34  1  0.81089000  0.35430000  0.47898000  1.0
  N  N35  1  0.35671000  0.32555000  0.50060000  1.0
  N  N36  1  0.64331000  0.67446000  0.49940000  1.0
  N  N37  1  0.42606000  0.19610000  0.53537000  1.0
  N  N38  1  0.57395000  0.80391000  0.46462000  1.0
  N  N39  1  0.07831000  0.85788000  0.80573000  1.0
  N  N40  1  0.92169000  0.14212000  0.19428000  1.0
  O  O41  1  0.75301000  0.03154000  0.89093000  1.0
  O  O42  1  0.24699000  0.96846000  0.10906000  1.0
  O  O43  1  0.84461000  0.76197000  0.01269000  1.0
  O  O44  1  0.15537000  0.23802000  0.98731000  1.0
  O  O45  1  0.81816000  0.27120000  0.83400000  1.0
  O  O46  1  0.18183000  0.72881000  0.16599000  1.0
