# generated using pymatgen
data_RbH12C6SNO3
_symmetry_space_group_name_H-M   'P 1'
_cell_length_a   6.39487000
_cell_length_b   8.62626000
_cell_length_c   17.47908506
_cell_angle_alpha   86.42141401
_cell_angle_beta   79.45697820
_cell_angle_gamma   90.01270000
_symmetry_Int_Tables_number   1
_chemical_formula_structural   RbH12C6SNO3
_chemical_formula_sum   'Rb4 H48 C24 S4 N4 O12'
_cell_volume   946.01995334
_cell_formula_units_Z   4
loop_
 _symmetry_equiv_pos_site_id
 _symmetry_equiv_pos_as_xyz
  1  'x, y, z'
loop_
 _atom_site_type_symbol
 _atom_site_label
 _atom_site_symmetry_multiplicity
 _atom_site_fract_x
 _atom_site_fract_y
 _atom_site_fract_z
 _atom_site_occupancy
  Rb  Rb0  1  0.14760000  0.88307000  0.56442000  1.0
  Rb  Rb1  1  0.71178000  0.61699000  0.43565000  1.0
  Rb  Rb2  1  0.85239000  0.11693000  0.43558000  1.0
  Rb  Rb3  1  0.28822000  0.38301000  0.56434000  1.0
  H  H4  1  0.31015000  0.74619000  0.76301000  1.0
  H  H5  1  0.07287000  0.75373000  0.23706000  1.0
  H  H6  1  0.68985000  0.25380000  0.23698000  1.0
  H  H7  1  0.92714000  0.24627000  0.76294000  1.0
  H  H8  1  0.60055000  0.99770000  0.80527000  1.0
  H  H9  1  0.40499000  0.50195000  0.19476000  1.0
  H  H10  1  0.39945000  0.00229000  0.19473000  1.0
  H  H11  1  0.59501000  0.49806000  0.80524000  1.0
  H  H12  1  0.66664000  0.80043000  0.79423000  1.0
  H  H13  1  0.46051000  0.69929000  0.20579000  1.0
  H  H14  1  0.33337000  0.19956000  0.20577000  1.0
  H  H15  1  0.53948000  0.30072000  0.79422000  1.0
  H  H16  1  0.37923000  0.71833000  0.90584000  1.0
  H  H17  1  0.28478000  0.78147000  0.09420000  1.0
  H  H18  1  0.62078000  0.28165000  0.09415000  1.0
  H  H19  1  0.71522000  0.21855000  0.90580000  1.0
  H  H20  1  0.55243000  0.85187000  0.93578000  1.0
  H  H21  1  0.48760000  0.64770000  0.06427000  1.0
  H  H22  1  0.44759000  0.14812000  0.06422000  1.0
  H  H23  1  0.51241000  0.35231000  0.93573000  1.0
  H  H24  1  0.16739000  0.91196000  0.98495000  1.0
  H  H25  1  0.15154000  0.58793000  0.01517000  1.0
  H  H26  1  0.83261000  0.08801000  0.01505000  1.0
  H  H27  1  0.84845000  0.41209000  0.98483000  1.0
  H  H28  1  0.29964000  0.06608000  0.92330000  1.0
  H  H29  1  0.22193000  0.43373000  0.07676000  1.0
  H  H30  1  0.70035000  0.93390000  0.07671000  1.0
  H  H31  1  0.77807000  0.56629000  0.92324000  1.0
  H  H32  1  0.94825000  0.01733000  0.88764000  1.0
  H  H33  1  0.83492000  0.48271000  0.11253000  1.0
  H  H34  1  0.05175000  0.98266000  0.11236000  1.0
  H  H35  1  0.16509000  0.51729000  0.88747000  1.0
  H  H36  1  0.00670000  0.81921000  0.87730000  1.0
  H  H37  1  0.88353000  0.68080000  0.12285000  1.0
  H  H38  1  0.99330000  0.18078000  0.12270000  1.0
  H  H39  1  0.11647000  0.31921000  0.87715000  1.0
  H  H40  1  0.06213000  0.96249000  0.74716000  1.0
  H  H41  1  0.80873000  0.53759000  0.25295000  1.0
  H  H42  1  0.93787000  0.03751000  0.25284000  1.0
  H  H43  1  0.19128000  0.46242000  0.74705000  1.0
  H  H44  1  0.23925000  0.09427000  0.77658000  1.0
  H  H45  1  0.01484000  0.40558000  0.22357000  1.0
  H  H46  1  0.76076000  0.90572000  0.22342000  1.0
  H  H47  1  0.98516000  0.59443000  0.77643000  1.0
  H  H48  1  0.52319000  0.01842000  0.66707000  1.0
  H  H49  1  0.19002000  0.48151000  0.33300000  1.0
  H  H50  1  0.47680000  0.98158000  0.33293000  1.0
  H  H51  1  0.80999000  0.51849000  0.66700000  1.0
  C  C52  1  0.36945000  0.86703000  0.75942000  1.0
  C  C53  1  0.12845000  0.63285000  0.24065000  1.0
  C  C54  1  0.63055000  0.13297000  0.24058000  1.0
  C  C55  1  0.87155000  0.36716000  0.75935000  1.0
  C  C56  1  0.53401000  0.87846000  0.81284000  1.0
  C  C57  1  0.34634000  0.62128000  0.18719000  1.0
  C  C58  1  0.46599000  0.12153000  0.18715000  1.0
  C  C59  1  0.65366000  0.37873000  0.81281000  1.0
  C  C60  1  0.43293000  0.84097000  0.89834000  1.0
  C  C61  1  0.33066000  0.65876000  0.10172000  1.0
  C  C62  1  0.56708000  0.15901000  0.10165000  1.0
  C  C63  1  0.66934000  0.34126000  0.89828000  1.0
  C  C64  1  0.24252000  0.94495000  0.92434000  1.0
  C  C65  1  0.16604000  0.55491000  0.07577000  1.0
  C  C66  1  0.75749000  0.05503000  0.07566000  1.0
  C  C67  1  0.83396000  0.44511000  0.92423000  1.0
  C  C68  1  0.07932000  0.93657000  0.87058000  1.0
  C  C69  1  0.94916000  0.56337000  0.12956000  1.0
  C  C70  1  0.92069000  0.06342000  0.12942000  1.0
  C  C71  1  0.05083000  0.43665000  0.87044000  1.0
  C  C72  1  0.18046000  0.97294000  0.78505000  1.0
  C  C73  1  0.96494000  0.52698000  0.21505000  1.0
  C  C74  1  0.81955000  0.02705000  0.21495000  1.0
  C  C75  1  0.03506000  0.47302000  0.78495000  1.0
  S  S76  1  0.60105000  0.78073000  0.62417000  1.0
  S  S77  1  0.22496000  0.71929000  0.37582000  1.0
  S  S78  1  0.39894000  0.21927000  0.37583000  1.0
  S  S79  1  0.77504000  0.28071000  0.62418000  1.0
  N  N80  1  0.45580000  0.90825000  0.67654000  1.0
  N  N81  1  0.13208000  0.59168000  0.32350000  1.0
  N  N82  1  0.54419000  0.09176000  0.32346000  1.0
  N  N83  1  0.86792000  0.40833000  0.67650000  1.0
  O  O84  1  0.67011000  0.86631000  0.54788000  1.0
  O  O85  1  0.21762000  0.63383000  0.45215000  1.0
  O  O86  1  0.32987000  0.13370000  0.45212000  1.0
  O  O87  1  0.78238000  0.36617000  0.54785000  1.0
  O  O88  1  0.78387000  0.72999000  0.65996000  1.0
  O  O89  1  0.44364000  0.76989000  0.33998000  1.0
  O  O90  1  0.21614000  0.27001000  0.34003000  1.0
  O  O91  1  0.55636000  0.23011000  0.66003000  1.0
  O  O92  1  0.45432000  0.65114000  0.62070000  1.0
  O  O93  1  0.07493000  0.84891000  0.37923000  1.0
  O  O94  1  0.54566000  0.34886000  0.37930000  1.0
  O  O95  1  0.92508000  0.15110000  0.62077000  1.0
