# generated using pymatgen
data_CdH12(C9N7)2
_symmetry_space_group_name_H-M   'P 1'
_cell_length_a   6.92725000
_cell_length_b   6.92723000
_cell_length_c   11.09620000
_cell_angle_alpha   96.70620000
_cell_angle_beta   96.70530000
_cell_angle_gamma   109.23200000
_symmetry_Int_Tables_number   1
_chemical_formula_structural   CdH12(C9N7)2
_chemical_formula_sum   'Cd1 H12 C18 N14'
_cell_volume   492.42523584
_cell_formula_units_Z   1
loop_
 _symmetry_equiv_pos_site_id
 _symmetry_equiv_pos_as_xyz
  1  'x, y, z'
loop_
 _atom_site_type_symbol
 _atom_site_label
 _atom_site_symmetry_multiplicity
 _atom_site_fract_x
 _atom_site_fract_y
 _atom_site_fract_z
 _atom_site_occupancy
  Cd  Cd0  1  0.28588000  0.71412000  1.00000000  1.0
  H  H1  1  0.05814000  0.41502000  0.67427000  1.0
  H  H2  1  0.58496000  0.94185000  0.32573000  1.0
  H  H3  1  0.89634000  0.59851000  0.51523000  1.0
  H  H4  1  0.40147000  0.10367000  0.48477000  1.0
  H  H5  1  0.70642000  0.19737000  0.10226000  1.0
  H  H6  1  0.80263000  0.29360000  0.89773000  1.0
  H  H7  1  0.29880000  0.49713000  0.23695000  1.0
  H  H8  1  0.50288000  0.70123000  0.76305000  1.0
  H  H9  1  0.94072000  0.33935000  0.30317000  1.0
  H  H10  1  0.66063000  0.05930000  0.69682000  1.0
  H  H11  1  0.55603000  0.63597000  0.43130000  1.0
  H  H12  1  0.36402000  0.44399000  0.56870000  1.0
  C  C13  1  0.06228000  0.57411000  0.68867000  1.0
  C  C14  1  0.42587000  0.93771000  0.31133000  1.0
  C  C15  1  0.10836000  0.88420000  0.76931000  1.0
  C  C16  1  0.11578000  0.89163000  0.23070000  1.0
  C  C17  1  0.18158000  0.06609000  0.86462000  1.0
  C  C18  1  0.93390000  0.81842000  0.13538000  1.0
  C  C19  1  0.34218000  0.25526000  0.03467000  1.0
  C  C20  1  0.74474000  0.65784000  0.96532000  1.0
  C  C21  1  0.66761000  0.29542000  0.17218000  1.0
  C  C22  1  0.70457000  0.33241000  0.82782000  1.0
  C  C23  1  0.48292000  0.33777000  0.15194000  1.0
  C  C24  1  0.66223000  0.51710000  0.84806000  1.0
  C  C25  1  0.44065000  0.46119000  0.24733000  1.0
  C  C26  1  0.53881000  0.55937000  0.75267000  1.0
  C  C27  1  0.79916000  0.37555000  0.28453000  1.0
  C  C28  1  0.62444000  0.20085000  0.71546000  1.0
  C  C29  1  0.58300000  0.53728000  0.35570000  1.0
  C  C30  1  0.46271000  0.41702000  0.64430000  1.0
  N  N31  1  0.14971000  0.70987000  0.79217000  1.0
  N  N32  1  0.29011000  0.85028000  0.20784000  1.0
  N  N33  1  0.00214000  0.86201000  0.65701000  1.0
  N  N34  1  0.13797000  0.99787000  0.34299000  1.0
  N  N35  1  0.97579000  0.66374000  0.60770000  1.0
  N  N36  1  0.33624000  0.02421000  0.39231000  1.0
  N  N37  1  0.13340000  0.23864000  0.86609000  1.0
  N  N38  1  0.76135000  0.86660000  0.13392000  1.0
  N  N39  1  0.31158000  0.06920000  0.96736000  1.0
  N  N40  1  0.93080000  0.68844000  0.03264000  1.0
  N  N41  1  0.23553000  0.35942000  0.97610000  1.0
  N  N42  1  0.64057000  0.76448000  0.02390000  1.0
  N  N43  1  0.75906000  0.49554000  0.37549000  1.0
  N  N44  1  0.50445000  0.24095000  0.62451000  1.0
