# generated using pymatgen
data_ZnH4C9(NO2)2
_symmetry_space_group_name_H-M   'P 1'
_cell_length_a   6.22474000
_cell_length_b   8.44164000
_cell_length_c   17.90730000
_cell_angle_alpha   89.99950000
_cell_angle_beta   84.96580000
_cell_angle_gamma   89.99960000
_symmetry_Int_Tables_number   1
_chemical_formula_structural   ZnH4C9(NO2)2
_chemical_formula_sum   'Zn4 H16 C36 N8 O16'
_cell_volume   937.34533253
_cell_formula_units_Z   4
loop_
 _symmetry_equiv_pos_site_id
 _symmetry_equiv_pos_as_xyz
  1  'x, y, z'
loop_
 _atom_site_type_symbol
 _atom_site_label
 _atom_site_symmetry_multiplicity
 _atom_site_fract_x
 _atom_site_fract_y
 _atom_site_fract_z
 _atom_site_occupancy
  Zn  Zn0  1  0.17259000  0.02320000  0.18873000  1.0
  Zn  Zn1  1  0.32741000  0.52320000  0.31128000  1.0
  Zn  Zn2  1  0.82739000  0.97680000  0.81127000  1.0
  Zn  Zn3  1  0.67261000  0.47680000  0.68872000  1.0
  H  H4  1  0.41769000  0.74828000  0.78701000  1.0
  H  H5  1  0.08232000  0.24828000  0.71299000  1.0
  H  H6  1  0.58230000  0.25172000  0.21299000  1.0
  H  H7  1  0.91770000  0.75172000  0.28701000  1.0
  H  H8  1  0.20857000  0.60618000  0.05831000  1.0
  H  H9  1  0.29143000  0.10617000  0.44169000  1.0
  H  H10  1  0.79142000  0.39381000  0.94168000  1.0
  H  H11  1  0.70859000  0.89383000  0.55831000  1.0
  H  H12  1  0.86501000  0.94136000  0.98887000  1.0
  H  H13  1  0.63499000  0.44135000  0.51113000  1.0
  H  H14  1  0.13497000  0.05864000  0.01113000  1.0
  H  H15  1  0.36502000  0.55865000  0.48887000  1.0
  H  H16  1  0.20375000  0.61431000  0.89253000  1.0
  H  H17  1  0.29626000  0.11431000  0.60747000  1.0
  H  H18  1  0.79624000  0.38568000  0.10746000  1.0
  H  H19  1  0.70376000  0.88569000  0.39253000  1.0
  C  C20  1  0.45242000  0.75903000  0.84534000  1.0
  C  C21  1  0.04759000  0.25904000  0.65466000  1.0
  C  C22  1  0.54757000  0.24097000  0.15466000  1.0
  C  C23  1  0.95243000  0.74097000  0.34534000  1.0
  C  C24  1  0.59643000  0.81474000  0.94914000  1.0
  C  C25  1  0.90358000  0.31473000  0.55086000  1.0
  C  C26  1  0.40356000  0.18526000  0.05086000  1.0
  C  C27  1  0.09644000  0.68527000  0.44914000  1.0
  C  C28  1  0.41366000  0.71859000  0.96865000  1.0
  C  C29  1  0.08634000  0.21859000  0.53135000  1.0
  C  C30  1  0.58633000  0.28141000  0.03135000  1.0
  C  C31  1  0.91367000  0.78141000  0.46865000  1.0
  C  C32  1  0.35082000  0.67847000  0.04299000  1.0
  C  C33  1  0.14919000  0.17846000  0.45701000  1.0
  C  C34  1  0.64917000  0.32153000  0.95700000  1.0
  C  C35  1  0.85082000  0.82153000  0.54300000  1.0
  C  C36  1  0.66259000  0.82983000  0.07859000  1.0
  C  C37  1  0.83741000  0.32983000  0.42141000  1.0
  C  C38  1  0.33739000  0.17017000  0.92141000  1.0
  C  C39  1  0.16260000  0.67017000  0.57859000  1.0
  C  C40  1  0.72316000  0.86932000  0.00400000  1.0
  C  C41  1  0.77684000  0.36932000  0.49601000  1.0
  C  C42  1  0.27682000  0.13068000  0.99600000  1.0
  C  C43  1  0.22317000  0.63069000  0.50400000  1.0
  C  C44  1  0.47586000  0.73681000  0.09794000  1.0
  C  C45  1  0.02415000  0.23680000  0.40206000  1.0
  C  C46  1  0.52413000  0.26319000  0.90205000  1.0
  C  C47  1  0.97587000  0.76319000  0.59794000  1.0
  C  C48  1  0.79899000  0.88271000  0.13914000  1.0
  C  C49  1  0.70101000  0.38271000  0.36086000  1.0
  C  C50  1  0.20098000  0.11729000  0.86086000  1.0
  C  C51  1  0.29902000  0.61729000  0.63914000  1.0
  C  C52  1  0.39875000  0.70656000  0.17884000  1.0
  C  C53  1  0.10125000  0.20656000  0.32116000  1.0
  C  C54  1  0.60124000  0.29343000  0.82115000  1.0
  C  C55  1  0.89876000  0.79344000  0.67884000  1.0
  N  N56  1  0.61451000  0.83809000  0.87158000  1.0
  N  N57  1  0.88550000  0.33809000  0.62842000  1.0
  N  N58  1  0.38548000  0.16191000  0.12842000  1.0
  N  N59  1  0.11452000  0.66191000  0.37158000  1.0
  N  N60  1  0.32902000  0.68650000  0.90143000  1.0
  N  N61  1  0.17099000  0.18649000  0.59857000  1.0
  N  N62  1  0.67097000  0.31350000  0.09857000  1.0
  N  N63  1  0.82903000  0.81351000  0.40143000  1.0
  O  O64  1  0.76130000  0.82784000  0.20369000  1.0
  O  O65  1  0.73870000  0.32784000  0.29631000  1.0
  O  O66  1  0.23867000  0.17216000  0.79631000  1.0
  O  O67  1  0.26132000  0.67217000  0.70369000  1.0
  O  O68  1  0.95193000  0.98270000  0.11860000  1.0
  O  O69  1  0.54807000  0.48269000  0.38140000  1.0
  O  O70  1  0.04805000  0.01730000  0.88141000  1.0
  O  O71  1  0.45195000  0.51731000  0.61860000  1.0
  O  O72  1  0.42870000  0.56893000  0.20526000  1.0
  O  O73  1  0.07130000  0.06893000  0.29474000  1.0
  O  O74  1  0.57130000  0.43107000  0.79474000  1.0
  O  O75  1  0.92869000  0.93107000  0.70526000  1.0
  O  O76  1  0.29011000  0.81245000  0.21571000  1.0
  O  O77  1  0.20989000  0.31245000  0.28429000  1.0
  O  O78  1  0.70987000  0.18754000  0.78429000  1.0
  O  O79  1  0.79013000  0.68754000  0.71571000  1.0
