# generated using pymatgen
data_ZnH12(C3N)4
_symmetry_space_group_name_H-M   'P 1'
_cell_length_a   14.99010000
_cell_length_b   14.99450000
_cell_length_c   15.00510182
_cell_angle_alpha   102.81536036
_cell_angle_beta   112.96835356
_cell_angle_gamma   112.79300000
_symmetry_Int_Tables_number   1
_chemical_formula_structural   ZnH12(C3N)4
_chemical_formula_sum   'Zn4 H48 C48 N16'
_cell_volume   2571.61698594
_cell_formula_units_Z   4
loop_
 _symmetry_equiv_pos_site_id
 _symmetry_equiv_pos_as_xyz
  1  'x, y, z'
loop_
 _atom_site_type_symbol
 _atom_site_label
 _atom_site_symmetry_multiplicity
 _atom_site_fract_x
 _atom_site_fract_y
 _atom_site_fract_z
 _atom_site_occupancy
  Zn  Zn0  1  0.15252000  0.66026000  0.01968000  1.0
  Zn  Zn1  1  0.88204000  0.38032000  0.02301000  1.0
  Zn  Zn2  1  0.87273000  0.52054000  0.88574000  1.0
  Zn  Zn3  1  0.15740000  0.52634000  0.16561000  1.0
  H  H4  1  0.20229000  0.86484000  0.20416000  1.0
  H  H5  1  0.58390000  0.15342000  0.57201000  1.0
  H  H6  1  0.82487000  0.50703000  0.17867000  1.0
  H  H7  1  0.59337000  0.09197000  0.65971000  1.0
  H  H8  1  0.59011000  0.85300000  0.52497000  1.0
  H  H9  1  0.71672000  0.00586000  0.68316000  1.0
  H  H10  1  0.64655000  0.99885000  0.35482000  1.0
  H  H11  1  0.56085000  0.05046000  0.36232000  1.0
  H  H12  1  0.72789000  0.20173000  0.51152000  1.0
  H  H13  1  0.80430000  0.13590000  0.52480000  1.0
  H  H14  1  0.81578000  0.04126000  0.64202000  1.0
  H  H15  1  0.83362000  0.16851000  0.84978000  1.0
  H  H16  1  0.16262000  0.73286000  0.67546000  1.0
  H  H17  1  0.61157000  0.48310000  0.81847000  1.0
  H  H18  1  0.17143000  0.73871000  0.52649000  1.0
  H  H19  1  0.91045000  0.62419000  0.39190000  1.0
  H  H20  1  0.44506000  0.41937000  0.86048000  1.0
  H  H21  1  0.29380000  0.29809000  0.98631000  1.0
  H  H22  1  0.28405000  0.40121000  0.82968000  1.0
  H  H23  1  0.85515000  0.02453000  0.12365000  1.0
  H  H24  1  0.11370000  0.13663000  0.21901000  1.0
  H  H25  1  0.84853000  0.85922000  0.09643000  1.0
  H  H26  1  0.82289000  0.57962000  0.67257000  1.0
  H  H27  1  0.40966000  0.70636000  0.38482000  1.0
  H  H28  1  0.11077000  0.98914000  0.22585000  1.0
  H  H29  1  0.62501000  0.28438000  0.98730000  1.0
  H  H30  1  0.41238000  0.88399000  0.19397000  1.0
  H  H31  1  0.19472000  0.69816000  0.37412000  1.0
  H  H32  1  0.83228000  0.68412000  0.02050000  1.0
  H  H33  1  0.18440000  0.52289000  0.84438000  1.0
  H  H34  1  0.26086000  0.74121000  0.83538000  1.0
  H  H35  1  0.24643000  0.85477000  0.85417000  1.0
  H  H36  1  0.27505000  0.81059000  0.95731000  1.0
  H  H37  1  0.21017000  0.35283000  0.25804000  1.0
  H  H38  1  0.75052000  0.85406000  0.51541000  1.0
  H  H39  1  0.63413000  0.80398000  0.38320000  1.0
  H  H40  1  0.75401000  0.93719000  0.44782000  1.0
  H  H41  1  0.85264000  0.71529000  0.59625000  1.0
  H  H42  1  0.90090000  0.73327000  0.50656000  1.0
  H  H43  1  0.82357000  0.60235000  0.49463000  1.0
  H  H44  1  0.36356000  0.19001000  0.98501000  1.0
  H  H45  1  0.43833000  0.18134000  0.91945000  1.0
  H  H46  1  0.51187000  0.28457000  0.05136000  1.0
  H  H47  1  0.84111000  0.16406000  0.06856000  1.0
  H  H48  1  0.18230000  0.34776000  0.03890000  1.0
  H  H49  1  0.81852000  0.35586000  0.66821000  1.0
  H  H50  1  0.46577000  0.91843000  0.51609000  1.0
  H  H51  1  0.43348000  0.98177000  0.43288000  1.0
  C  C52  1  0.11144000  0.80568000  0.15076000  1.0
  C  C53  1  0.10272000  0.71298000  0.82327000  1.0
  C  C54  1  0.17675000  0.39930000  0.99897000  1.0
  C  C55  1  0.91616000  0.54546000  0.21231000  1.0
  C  C56  1  0.83000000  0.32425000  0.72764000  1.0
  C  C57  1  0.20449000  0.41266000  0.92122000  1.0
  C  C58  1  0.79959000  0.21905000  0.71473000  1.0
  C  C59  1  0.00684000  0.68376000  0.72468000  1.0
  C  C60  1  0.02636000  0.21896000  0.17377000  1.0
  C  C61  1  0.50391000  0.97852000  0.49045000  1.0
  C  C62  1  0.59610000  0.08921000  0.58702000  1.0
  C  C63  1  0.00727000  0.62395000  0.31752000  1.0
  C  C64  1  0.64050000  0.91685000  0.50950000  1.0
  C  C65  1  0.61993000  0.02835000  0.40759000  1.0
  C  C66  1  0.55511000  0.93777000  0.43130000  1.0
  C  C67  1  0.63203000  0.43752000  0.86153000  1.0
  C  C68  1  0.71667000  0.11670000  0.61115000  1.0
  C  C69  1  0.72843000  0.02049000  0.61867000  1.0
  C  C70  1  0.72409000  0.12767000  0.51403000  1.0
  C  C71  1  0.08468000  0.71968000  0.61115000  1.0
  C  C72  1  0.99887000  0.70113000  0.63058000  1.0
  C  C73  1  0.08653000  0.71102000  0.51418000  1.0
  C  C74  1  0.56928000  0.37470000  0.89749000  1.0
  C  C75  1  0.99764000  0.65737000  0.40980000  1.0
  C  C76  1  0.40434000  0.31008000  0.92599000  1.0
  C  C77  1  0.46780000  0.36674000  0.89103000  1.0
  C  C78  1  0.31610000  0.32503000  0.93176000  1.0
  C  C79  1  0.39388000  0.73531000  0.32339000  1.0
  C  C80  1  0.26717000  0.37598000  0.88736000  1.0
  C  C81  1  0.93793000  0.03125000  0.15466000  1.0
  C  C82  1  0.02994000  0.12776000  0.18730000  1.0
  C  C83  1  0.93430000  0.93142000  0.14389000  1.0
  C  C84  1  0.02437000  0.91772000  0.17528000  1.0
  C  C85  1  0.45716000  0.83715000  0.33070000  1.0
  C  C86  1  0.63730000  0.33550000  0.94685000  1.0
  C  C87  1  0.39523000  0.82554000  0.22629000  1.0
  C  C88  1  0.10484000  0.64288000  0.31265000  1.0
  C  C89  1  0.92267000  0.71388000  0.05721000  1.0
  C  C90  1  0.01829000  0.81732000  0.13556000  1.0
  C  C91  1  0.22746000  0.78330000  0.86957000  1.0
  C  C92  1  0.69776000  0.87571000  0.46103000  1.0
  C  C93  1  0.88843000  0.68746000  0.55295000  1.0
  C  C94  1  0.43068000  0.23764000  0.97266000  1.0
  C  C95  1  0.17711000  0.48857000  0.89967000  1.0
  C  C96  1  0.83777000  0.22900000  0.82016000  1.0
  C  C97  1  0.91354000  0.62007000  0.73107000  1.0
  C  C98  1  0.11946000  0.32110000  0.20853000  1.0
  C  C99  1  0.93143000  0.22491000  0.11281000  1.0
  N  N100  1  0.07361000  0.70501000  0.08494000  1.0
  N  N101  1  0.72767000  0.43576000  0.88721000  1.0
  N  N102  1  0.30177000  0.66867000  0.22280000  1.0
  N  N103  1  0.73091000  0.37249000  0.94065000  1.0
  N  N104  1  0.30233000  0.72478000  0.16205000  1.0
  N  N105  1  0.07281000  0.57876000  0.21387000  1.0
  N  N106  1  0.95760000  0.64881000  0.02768000  1.0
  N  N107  1  0.14005000  0.51956000  0.96219000  1.0
  N  N108  1  0.88506000  0.33191000  0.88935000  1.0
  N  N109  1  0.94958000  0.61023000  0.82359000  1.0
  N  N110  1  0.08291000  0.38195000  0.17164000  1.0
  N  N111  1  0.96566000  0.32155000  0.11165000  1.0
  N  N112  1  0.06669000  0.66840000  0.88069000  1.0
  N  N113  1  0.13968000  0.46432000  0.02284000  1.0
  N  N114  1  0.88028000  0.39055000  0.83243000  1.0
  N  N115  1  0.95698000  0.51869000  0.15204000  1.0
