# generated using pymatgen
data_ZnH8C13NO4
_symmetry_space_group_name_H-M   'P 1'
_cell_length_a   10.98490000
_cell_length_b   11.02320000
_cell_length_c   14.03730000
_cell_angle_alpha   89.40380000
_cell_angle_beta   88.52370000
_cell_angle_gamma   76.59380000
_symmetry_Int_Tables_number   1
_chemical_formula_structural   ZnH8C13NO4
_chemical_formula_sum   'Zn4 H32 C52 N4 O16'
_cell_volume   1652.87602187
_cell_formula_units_Z   4
loop_
 _symmetry_equiv_pos_site_id
 _symmetry_equiv_pos_as_xyz
  1  'x, y, z'
loop_
 _atom_site_type_symbol
 _atom_site_label
 _atom_site_symmetry_multiplicity
 _atom_site_fract_x
 _atom_site_fract_y
 _atom_site_fract_z
 _atom_site_occupancy
  Zn  Zn0  1  0.66401000  0.26615000  0.19457000  1.0
  Zn  Zn1  1  0.65957000  0.26410000  0.40000000  1.0
  Zn  Zn2  1  0.33600000  0.73385000  0.80543000  1.0
  Zn  Zn3  1  0.34043000  0.73590000  0.60001000  1.0
  H  H4  1  0.27939000  0.22972000  0.43998000  1.0
  H  H5  1  0.05859000  0.20384000  0.43742000  1.0
  H  H6  1  0.04230000  0.29774000  0.13996000  1.0
  H  H7  1  0.26463000  0.32193000  0.14231000  1.0
  H  H8  1  0.61146000  0.66254000  0.45045000  1.0
  H  H9  1  0.61663000  0.88791000  0.45048000  1.0
  H  H10  1  0.70302000  0.87265000  0.15058000  1.0
  H  H11  1  0.69653000  0.64610000  0.14960000  1.0
  H  H12  1  0.69798000  0.06843000  0.54913000  1.0
  H  H13  1  0.70389000  0.05318000  0.72695000  1.0
  H  H14  1  0.64667000  0.45516000  0.73226000  1.0
  H  H15  1  0.64434000  0.45288000  0.55416000  1.0
  H  H16  1  0.82443000  0.08894000  0.86645000  1.0
  H  H17  1  0.81324000  0.10101000  0.04523000  1.0
  H  H18  1  0.51382000  0.40661000  0.04089000  1.0
  H  H19  1  0.51554000  0.41429000  0.86197000  1.0
  H  H20  1  0.72061000  0.77029000  0.56002000  1.0
  H  H21  1  0.94141000  0.79618000  0.56257000  1.0
  H  H22  1  0.95771000  0.70226000  0.86003000  1.0
  H  H23  1  0.73538000  0.67808000  0.85768000  1.0
  H  H24  1  0.38853000  0.33746000  0.54955000  1.0
  H  H25  1  0.38336000  0.11209000  0.54952000  1.0
  H  H26  1  0.29697000  0.12736000  0.84943000  1.0
  H  H27  1  0.30345000  0.35392000  0.85041000  1.0
  H  H28  1  0.30203000  0.93157000  0.45087000  1.0
  H  H29  1  0.29611000  0.94681000  0.27305000  1.0
  H  H30  1  0.35332000  0.54484000  0.26774000  1.0
  H  H31  1  0.35565000  0.54711000  0.44584000  1.0
  H  H32  1  0.17557000  0.91104000  0.13355000  1.0
  H  H33  1  0.18676000  0.89898000  0.95477000  1.0
  H  H34  1  0.48618000  0.59338000  0.95910000  1.0
  H  H35  1  0.48446000  0.58569000  0.13803000  1.0
  C  C36  1  0.41800000  0.29040000  0.29305000  1.0
  C  C37  1  0.28500000  0.27748000  0.29145000  1.0
  C  C38  1  0.22712000  0.24362000  0.37450000  1.0
  C  C39  1  0.10470000  0.22907000  0.37307000  1.0
  C  C40  1  0.03805000  0.24851000  0.28830000  1.0
  C  C41  1  0.09593000  0.28186000  0.20499000  1.0
  C  C42  1  0.21854000  0.29608000  0.20649000  1.0
  C  C43  1  0.90365000  0.24010000  0.28753000  1.0
  C  C44  1  0.64939000  0.50567000  0.29895000  1.0
  C  C45  1  0.65378000  0.64055000  0.29974000  1.0
  C  C46  1  0.63204000  0.70830000  0.38485000  1.0
  C  C47  1  0.63562000  0.83360000  0.38515000  1.0
  C  C48  1  0.66242000  0.89266000  0.30095000  1.0
  C  C49  1  0.68345000  0.82516000  0.21567000  1.0
  C  C50  1  0.67933000  0.69997000  0.21516000  1.0
  C  C51  1  0.66809000  0.02709000  0.30230000  1.0
  C  C52  1  0.68837000  0.15114000  0.59310000  1.0
  C  C53  1  0.69225000  0.14371000  0.69184000  1.0
  C  C54  1  0.67542000  0.25393000  0.74450000  1.0
  C  C55  1  0.65885000  0.36720000  0.69447000  1.0
  C  C56  1  0.65750000  0.36686000  0.59560000  1.0
  C  C57  1  0.67217000  0.25274000  0.84959000  1.0
  C  C58  1  0.75468000  0.16186000  0.90223000  1.0
  C  C59  1  0.74919000  0.16755000  0.00121000  1.0
  C  C60  1  0.58287000  0.34067000  0.99860000  1.0
  C  C61  1  0.58421000  0.34394000  0.89975000  1.0
  C  C62  1  0.58200000  0.70960000  0.70695000  1.0
  C  C63  1  0.71500000  0.72252000  0.70855000  1.0
  C  C64  1  0.77288000  0.75639000  0.62550000  1.0
  C  C65  1  0.89531000  0.77094000  0.62692000  1.0
  C  C66  1  0.96196000  0.75151000  0.71170000  1.0
  C  C67  1  0.90407000  0.71815000  0.79501000  1.0
  C  C68  1  0.78147000  0.70392000  0.79351000  1.0
  C  C69  1  0.09635000  0.75991000  0.71247000  1.0
  C  C70  1  0.35061000  0.49433000  0.70105000  1.0
  C  C71  1  0.34621000  0.35944000  0.70027000  1.0
  C  C72  1  0.36796000  0.29169000  0.61515000  1.0
  C  C73  1  0.36437000  0.16640000  0.61486000  1.0
  C  C74  1  0.33757000  0.10734000  0.69906000  1.0
  C  C75  1  0.31654000  0.17484000  0.78434000  1.0
  C  C76  1  0.32067000  0.30003000  0.78484000  1.0
  C  C77  1  0.33191000  0.97291000  0.69772000  1.0
  C  C78  1  0.31163000  0.84885000  0.40690000  1.0
  C  C79  1  0.30775000  0.85629000  0.30817000  1.0
  C  C80  1  0.32457000  0.74606000  0.25551000  1.0
  C  C81  1  0.34114000  0.63280000  0.30553000  1.0
  C  C82  1  0.34250000  0.63313000  0.40440000  1.0
  C  C83  1  0.32783000  0.74725000  0.15041000  1.0
  C  C84  1  0.24532000  0.83813000  0.09777000  1.0
  C  C85  1  0.25081000  0.83244000  0.99879000  1.0
  C  C86  1  0.41713000  0.65932000  0.00140000  1.0
  C  C87  1  0.41579000  0.65604000  0.10026000  1.0
  N  N88  1  0.67059000  0.26064000  0.54578000  1.0
  N  N89  1  0.66491000  0.25577000  0.04857000  1.0
  N  N90  1  0.32941000  0.73935000  0.45422000  1.0
  N  N91  1  0.33510000  0.74422000  0.95143000  1.0
  O  O92  1  0.47107000  0.30168000  0.21256000  1.0
  O  O93  1  0.46818000  0.28812000  0.37409000  1.0
  O  O94  1  0.84887000  0.23646000  0.36803000  1.0
  O  O95  1  0.85420000  0.24020000  0.20625000  1.0
  O  O96  1  0.64995000  0.45497000  0.21751000  1.0
  O  O97  1  0.64486000  0.45212000  0.37933000  1.0
  O  O98  1  0.66773000  0.07711000  0.38373000  1.0
  O  O99  1  0.67213000  0.08102000  0.22200000  1.0
  O  O100  1  0.52893000  0.69834000  0.78744000  1.0
  O  O101  1  0.53183000  0.71186000  0.62590000  1.0
  O  O102  1  0.15113000  0.76357000  0.63196000  1.0
  O  O103  1  0.14581000  0.75979000  0.79374000  1.0
  O  O104  1  0.35009000  0.54502000  0.78248000  1.0
  O  O105  1  0.35511000  0.54789000  0.62066000  1.0
  O  O106  1  0.33229000  0.92288000  0.61627000  1.0
  O  O107  1  0.32786000  0.91899000  0.77800000  1.0
