# generated using pymatgen
data_VH4(C3O2)2
_symmetry_space_group_name_H-M   'P 1'
_cell_length_a   4.97390000
_cell_length_b   6.24658000
_cell_length_c   19.63660000
_cell_angle_alpha   89.99610000
_cell_angle_beta   94.41240000
_cell_angle_gamma   89.99480000
_symmetry_Int_Tables_number   1
_chemical_formula_structural   VH4(C3O2)2
_chemical_formula_sum   'V4 H16 C24 O16'
_cell_volume   608.29821312
_cell_formula_units_Z   4
loop_
 _symmetry_equiv_pos_site_id
 _symmetry_equiv_pos_as_xyz
  1  'x, y, z'
loop_
 _atom_site_type_symbol
 _atom_site_label
 _atom_site_symmetry_multiplicity
 _atom_site_fract_x
 _atom_site_fract_y
 _atom_site_fract_z
 _atom_site_occupancy
  V  V0  1  0.14417000  0.62543000  0.22860000  1.0
  V  V1  1  0.35590000  0.12540000  0.27139000  1.0
  V  V2  1  0.85527000  0.37482000  0.77136000  1.0
  V  V3  1  0.64468000  0.87487000  0.72865000  1.0
  H  H4  1  0.58533000  0.44015000  0.21900000  1.0
  H  H5  1  0.91477000  0.94015000  0.28101000  1.0
  H  H6  1  0.41436000  0.56019000  0.78085000  1.0
  H  H7  1  0.08556000  0.06017000  0.71914000  1.0
  H  H8  1  0.67213000  0.72004000  0.38795000  1.0
  H  H9  1  0.82789000  0.22000000  0.11206000  1.0
  H  H10  1  0.32800000  0.27969000  0.61214000  1.0
  H  H11  1  0.17193000  0.77981000  0.88784000  1.0
  H  H12  1  0.33046000  0.90133000  0.45205000  1.0
  H  H13  1  0.16957000  0.40129000  0.04796000  1.0
  H  H14  1  0.66984000  0.09853000  0.54806000  1.0
  H  H15  1  0.83011000  0.59860000  0.95192000  1.0
  H  H16  1  0.03977000  0.90522000  0.55054000  1.0
  H  H17  1  0.46025000  0.40520000  0.94948000  1.0
  H  H18  1  0.96069000  0.09468000  0.44961000  1.0
  H  H19  1  0.53928000  0.59473000  0.05037000  1.0
  C  C20  1  0.00862000  0.40731000  0.35615000  1.0
  C  C21  1  0.49140000  0.90731000  0.14385000  1.0
  C  C22  1  0.99163000  0.59253000  0.64395000  1.0
  C  C23  1  0.50837000  0.09254000  0.85607000  1.0
  C  C24  1  0.83602000  0.40977000  0.41425000  1.0
  C  C25  1  0.66397000  0.90977000  0.08575000  1.0
  C  C26  1  0.16421000  0.59006000  0.58586000  1.0
  C  C27  1  0.33577000  0.09009000  0.91415000  1.0
  C  C28  1  0.67146000  0.58520000  0.42315000  1.0
  C  C29  1  0.82856000  0.08519000  0.07686000  1.0
  C  C30  1  0.32873000  0.41458000  0.57696000  1.0
  C  C31  1  0.17123000  0.91465000  0.92303000  1.0
  C  C32  1  0.49990000  0.58945000  0.47712000  1.0
  C  C33  1  0.00012000  0.08943000  0.02288000  1.0
  C  C34  1  0.50042000  0.41042000  0.52302000  1.0
  C  C35  1  0.99952000  0.91046000  0.97697000  1.0
  C  C36  1  0.32894000  0.76693000  0.48751000  1.0
  C  C37  1  0.17108000  0.26690000  0.01251000  1.0
  C  C38  1  0.67143000  0.23296000  0.51263000  1.0
  C  C39  1  0.82849000  0.73303000  0.98736000  1.0
  C  C40  1  0.16713000  0.76854000  0.54114000  1.0
  C  C41  1  0.33290000  0.26854000  0.95887000  1.0
  C  C42  1  0.83324000  0.23130000  0.45899000  1.0
  C  C43  1  0.66666667  0.73135000  0.04100000  1.0
  O  O44  1  0.12825000  0.23257000  0.34300000  1.0
  O  O45  1  0.37169000  0.73260000  0.15699000  1.0
  O  O46  1  0.87289000  0.76760000  0.65725000  1.0
  O  O47  1  0.62728000  0.26754000  0.84278000  1.0
  O  O48  1  0.43974000  0.42536000  0.25074000  1.0
  O  O49  1  0.06033000  0.92537000  0.24925000  1.0
  O  O50  1  0.55943000  0.57476000  0.74897000  1.0
  O  O51  1  0.94055000  0.07474000  0.75104000  1.0
  O  O52  1  0.02270000  0.58026000  0.32143000  1.0
  O  O53  1  0.47741000  0.08023000  0.17857000  1.0
  O  O54  1  0.97659000  0.41941000  0.67851000  1.0
  O  O55  1  0.52325000  0.91945000  0.82148000  1.0
  O  O56  1  0.90479000  0.50004000  0.18472000  1.0
  O  O57  1  0.59531000  0.00009000  0.31530000  1.0
  O  O58  1  0.09406000  0.50070000  0.81526000  1.0
  O  O59  1  0.40589000  0.00068000  0.68471000  1.0
