# generated using pymatgen
data_CuH8C10(N4Cl)2
_symmetry_space_group_name_H-M   'P 1'
_cell_length_a   8.03942000
_cell_length_b   8.91148000
_cell_length_c   9.46834000
_cell_angle_alpha   89.99950000
_cell_angle_beta   73.36200000
_cell_angle_gamma   89.99970000
_symmetry_Int_Tables_number   1
_chemical_formula_structural   CuH8C10(N4Cl)2
_chemical_formula_sum   'Cu2 H16 C20 N16 Cl4'
_cell_volume   649.94131828
_cell_formula_units_Z   2
loop_
 _symmetry_equiv_pos_site_id
 _symmetry_equiv_pos_as_xyz
  1  'x, y, z'
loop_
 _atom_site_type_symbol
 _atom_site_label
 _atom_site_symmetry_multiplicity
 _atom_site_fract_x
 _atom_site_fract_y
 _atom_site_fract_z
 _atom_site_occupancy
  Cu  Cu0  1  0.00000000  0.00000000  0.00000000  1.0
  Cu  Cu1  1  0.50000000  0.50000000  0.00000000  1.0
  H  H2  1  0.22227000  0.56839000  0.50373000  1.0
  H  H3  1  0.27774000  0.06840000  0.49627000  1.0
  H  H4  1  0.77773000  0.43161000  0.49627000  1.0
  H  H5  1  0.72227000  0.93161000  0.50373000  1.0
  H  H6  1  0.38490000  0.33552000  0.51961000  1.0
  H  H7  1  0.11510000  0.83553000  0.48039000  1.0
  H  H8  1  0.61510000  0.66448000  0.48039000  1.0
  H  H9  1  0.88490000  0.16448000  0.51961000  1.0
  H  H10  1  0.94975000  0.62832000  0.71852000  1.0
  H  H11  1  0.55025000  0.12832000  0.28147000  1.0
  H  H12  1  0.05024000  0.37168000  0.28148000  1.0
  H  H13  1  0.44976000  0.87168000  0.71852000  1.0
  H  H14  1  0.75165000  0.27678000  0.11251000  1.0
  H  H15  1  0.74835000  0.77678000  0.88749000  1.0
  H  H16  1  0.24835000  0.72322000  0.88749000  1.0
  H  H17  1  0.25165000  0.22321000  0.11251000  1.0
  C  C18  1  0.17463000  0.49357000  0.59733000  1.0
  C  C19  1  0.32537000  0.99358000  0.40267000  1.0
  C  C20  1  0.82537000  0.50643000  0.40267000  1.0
  C  C21  1  0.67463000  0.00643000  0.59733000  1.0
  C  C22  1  0.26431000  0.35912000  0.60526000  1.0
  C  C23  1  0.23570000  0.85912000  0.39475000  1.0
  C  C24  1  0.73570000  0.64089000  0.39475000  1.0
  C  C25  1  0.76431000  0.14088000  0.60526000  1.0
  C  C26  1  0.06542000  0.28964000  0.81603000  1.0
  C  C27  1  0.43458000  0.78964000  0.18397000  1.0
  C  C28  1  0.93458000  0.71037000  0.18397000  1.0
  C  C29  1  0.56542000  0.21036000  0.81603000  1.0
  C  C30  1  0.02764000  0.52703000  0.70908000  1.0
  C  C31  1  0.47237000  0.02703000  0.29092000  1.0
  C  C32  1  0.97236000  0.47298000  0.29092000  1.0
  C  C33  1  0.52764000  0.97298000  0.70908000  1.0
  C  C34  1  0.84665000  0.30418000  0.00903000  1.0
  C  C35  1  0.65335000  0.80418000  0.99097000  1.0
  C  C36  1  0.15335000  0.69582000  0.99097000  1.0
  C  C37  1  0.34664000  0.19581000  0.00903000  1.0
  N  N38  1  0.21104000  0.25674000  0.71104000  1.0
  N  N39  1  0.28896000  0.75675000  0.28896000  1.0
  N  N40  1  0.78897000  0.74326000  0.28896000  1.0
  N  N41  1  0.71104000  0.24325000  0.71104000  1.0
  N  N42  1  0.97767000  0.42507000  0.81939000  1.0
  N  N43  1  0.52233000  0.92507000  0.18061000  1.0
  N  N44  1  0.02232000  0.57493000  0.18062000  1.0
  N  N45  1  0.47767000  0.07493000  0.81939000  1.0
  N  N46  1  0.84041000  0.43498000  0.94249000  1.0
  N  N47  1  0.65959000  0.93497000  0.05751000  1.0
  N  N48  1  0.15959000  0.56503000  0.05751000  1.0
  N  N49  1  0.34041000  0.06502000  0.94249000  1.0
  N  N50  1  0.97789000  0.21177000  0.93741000  1.0
  N  N51  1  0.52211000  0.71177000  0.06259000  1.0
  N  N52  1  0.02211000  0.78823000  0.06259000  1.0
  N  N53  1  0.47789000  0.28823000  0.93741000  1.0
  Cl  Cl54  1  0.96116000  0.08409000  0.23934000  1.0
  Cl  Cl55  1  0.53884000  0.58409000  0.76067000  1.0
  Cl  Cl56  1  0.03884000  0.91591000  0.76066000  1.0
  Cl  Cl57  1  0.46116000  0.41590000  0.23933000  1.0
