# generated using pymatgen
data_Cu2Mo4H12C16N4O13
_symmetry_space_group_name_H-M   'P 1'
_cell_length_a   8.29976000
_cell_length_b   11.80920000
_cell_length_c   12.52770000
_cell_angle_alpha   114.84000000
_cell_angle_beta   96.35720000
_cell_angle_gamma   98.87370000
_symmetry_Int_Tables_number   1
_chemical_formula_structural   Cu2Mo4H12C16N4O13
_chemical_formula_sum   'Cu4 Mo8 H24 C32 N8 O26'
_cell_volume   1079.64599550
_cell_formula_units_Z   2
loop_
 _symmetry_equiv_pos_site_id
 _symmetry_equiv_pos_as_xyz
  1  'x, y, z'
loop_
 _atom_site_type_symbol
 _atom_site_label
 _atom_site_symmetry_multiplicity
 _atom_site_fract_x
 _atom_site_fract_y
 _atom_site_fract_z
 _atom_site_occupancy
  Cu  Cu0  1  0.19528000  0.48899000  0.09451000  1.0
  Cu  Cu1  1  0.80472000  0.51101000  0.90549000  1.0
  Cu  Cu2  1  0.24905000  0.08360000  0.53134000  1.0
  Cu  Cu3  1  0.75095000  0.91639000  0.46866000  1.0
  Mo  Mo4  1  0.18092000  0.36767000  0.47760000  1.0
  Mo  Mo5  1  0.81908000  0.63233000  0.52240000  1.0
  Mo  Mo6  1  0.57370000  0.36179000  0.48541000  1.0
  Mo  Mo7  1  0.42630000  0.63821000  0.51460000  1.0
  Mo  Mo8  1  0.43258000  0.32085000  0.22209000  1.0
  Mo  Mo9  1  0.56742000  0.67914000  0.77790000  1.0
  Mo  Mo10  1  0.16142000  0.67187000  0.76504000  1.0
  Mo  Mo11  1  0.83858000  0.32814000  0.23495000  1.0
  H  H12  1  0.01331000  0.25844000  0.03135000  1.0
  H  H13  1  0.98669000  0.74156000  0.96865000  1.0
  H  H14  1  0.87507000  0.02802000  0.94473000  1.0
  H  H15  1  0.12491000  0.97198000  0.05527000  1.0
  H  H16  1  0.92753000  0.87432000  0.75089000  1.0
  H  H17  1  0.07245000  0.12569000  0.24911000  1.0
  H  H18  1  0.11486000  0.94939000  0.64084000  1.0
  H  H19  1  0.88514000  0.05061000  0.35917000  1.0
  H  H20  1  0.40808000  0.34893000  0.70676000  1.0
  H  H21  1  0.59193000  0.65106000  0.29323000  1.0
  H  H22  1  0.36837000  0.49977000  0.90295000  1.0
  H  H23  1  0.63165000  0.50022000  0.09705000  1.0
  H  H24  1  0.43512000  0.09163000  0.36985000  1.0
  H  H25  1  0.56489000  0.90837000  0.63016000  1.0
  H  H26  1  0.56683000  0.05738000  0.19253000  1.0
  H  H27  1  0.43316000  0.94262000  0.80747000  1.0
  H  H28  1  0.51079000  0.84176000  0.02151000  1.0
  H  H29  1  0.48921000  0.15824000  0.97849000  1.0
  H  H30  1  0.32906000  0.65679000  0.02900000  1.0
  H  H31  1  0.67094000  0.34320000  0.97100000  1.0
  H  H32  1  0.04167000  0.60818000  0.30772000  1.0
  H  H33  1  0.95833000  0.39182000  0.69228000  1.0
  H  H34  1  0.07804000  0.82505000  0.47069000  1.0
  H  H35  1  0.92196000  0.17494000  0.52931000  1.0
  C  C36  1  0.13795000  0.23557000  0.88439000  1.0
  C  C37  1  0.86205000  0.76443000  0.11561000  1.0
  C  C38  1  0.03330000  0.18990000  0.94575000  1.0
  C  C39  1  0.96670000  0.81010000  0.05425000  1.0
  C  C40  1  0.95775000  0.06203000  0.89761000  1.0
  C  C41  1  0.04224000  0.93799000  0.10240000  1.0
  C  C42  1  0.98684000  0.97492000  0.78716000  1.0
  C  C43  1  0.01315000  0.02508000  0.21284000  1.0
  C  C44  1  0.08924000  0.01631000  0.72522000  1.0
  C  C45  1  0.91076000  0.98369000  0.27478000  1.0
  C  C46  1  0.16498000  0.14694000  0.77043000  1.0
  C  C47  1  0.83502000  0.85305000  0.22957000  1.0
  C  C48  1  0.33195000  0.31313000  0.75624000  1.0
  C  C49  1  0.66806000  0.68687000  0.24376000  1.0
  C  C50  1  0.30899000  0.39920000  0.86901000  1.0
  C  C51  1  0.69101000  0.60079000  0.13098000  1.0
  C  C52  1  0.31260000  0.89468000  0.30179000  1.0
  C  C53  1  0.68740000  0.10532000  0.69821000  1.0
  C  C54  1  0.41492000  0.99725000  0.29508000  1.0
  C  C55  1  0.58508000  0.00275000  0.70492000  1.0
  C  C56  1  0.48702000  0.97760000  0.19657000  1.0
  C  C57  1  0.51298000  0.02240000  0.80343000  1.0
  C  C58  1  0.45648000  0.85441000  0.09972000  1.0
  C  C59  1  0.54352000  0.14558000  0.90028000  1.0
  C  C60  1  0.35801000  0.75203000  0.10427000  1.0
  C  C61  1  0.64198000  0.24797000  0.89573000  1.0
  C  C62  1  0.28594000  0.76851000  0.20495000  1.0
  C  C63  1  0.71405000  0.23148000  0.79505000  1.0
  C  C64  1  0.11769000  0.68871000  0.30268000  1.0
  C  C65  1  0.88231000  0.31129000  0.69731000  1.0
  C  C66  1  0.14110000  0.81273000  0.39632000  1.0
  C  C67  1  0.85890000  0.18727000  0.60369000  1.0
  N  N68  1  0.21055000  0.36439000  0.93260000  1.0
  N  N69  1  0.78945000  0.63561000  0.06739000  1.0
  N  N70  1  0.25909000  0.18883000  0.70466000  1.0
  N  N71  1  0.74092000  0.81116000  0.29534000  1.0
  N  N72  1  0.23664000  0.91626000  0.39909000  1.0
  N  N73  1  0.76336000  0.08373000  0.60091000  1.0
  N  N74  1  0.18938000  0.66428000  0.20760000  1.0
  N  N75  1  0.81062000  0.33572000  0.79240000  1.0
  O  O76  1  0.12247000  0.47098000  0.60753000  1.0
  O  O77  1  0.87753000  0.52902000  0.39247000  1.0
  O  O78  1  0.42240000  0.45852000  0.57082000  1.0
  O  O79  1  0.57760000  0.54148000  0.42918000  1.0
  O  O80  1  0.17522000  0.22633000  0.49323000  1.0
  O  O81  1  0.82477000  0.77367000  0.50677000  1.0
  O  O82  1  0.34623000  0.30851000  0.35574000  1.0
  O  O83  1  0.65377000  0.69149000  0.64426000  1.0
  O  O84  1  0.23551000  0.52961000  0.43186000  1.0
  O  O85  1  0.76448000  0.47039000  0.56814000  1.0
  O  O86  1  0.55374000  0.24361000  0.53229000  1.0
  O  O87  1  0.44625000  0.75639000  0.46771000  1.0
  O  O88  1  0.33160000  0.42843000  0.19572000  1.0
  O  O89  1  0.66840000  0.57157000  0.80428000  1.0
  O  O90  1  0.63595000  0.36676000  0.17747000  1.0
  O  O91  1  0.36405000  0.63324000  0.82253000  1.0
  O  O92  1  0.63428000  0.29089000  0.33333333  1.0
  O  O93  1  0.36572000  0.70911000  0.66666667  1.0
  O  O94  1  0.34039000  0.17359000  0.10783000  1.0
  O  O95  1  0.65960000  0.82641000  0.89217000  1.0
  O  O96  1  0.19753000  0.83007000  0.86414000  1.0
  O  O97  1  0.80249000  0.16993000  0.13586000  1.0
  O  O98  1  0.02980000  0.59639000  0.82488000  1.0
  O  O99  1  0.97019000  0.40361000  0.17512000  1.0
  O  O100  1  0.99309000  0.31765000  0.35988000  1.0
  O  O101  1  0.00691000  0.68236000  0.64012000  1.0
