# generated using pymatgen
data_ZnH13C14NO5
_symmetry_space_group_name_H-M   'P 1'
_cell_length_a   7.86764000
_cell_length_b   18.84870000
_cell_length_c   20.08550659
_cell_angle_alpha   89.99965700
_cell_angle_beta   80.61335895
_cell_angle_gamma   89.99990000
_symmetry_Int_Tables_number   1
_chemical_formula_structural   ZnH13C14NO5
_chemical_formula_sum   'Zn8 H104 C112 N8 O40'
_cell_volume   2938.69341301
_cell_formula_units_Z   8
loop_
 _symmetry_equiv_pos_site_id
 _symmetry_equiv_pos_as_xyz
  1  'x, y, z'
loop_
 _atom_site_type_symbol
 _atom_site_label
 _atom_site_symmetry_multiplicity
 _atom_site_fract_x
 _atom_site_fract_y
 _atom_site_fract_z
 _atom_site_occupancy
  Zn  Zn0  1  0.00708000  0.19902000  0.01299000  1.0
  Zn  Zn1  1  0.99292000  0.69903000  0.48701000  1.0
  Zn  Zn2  1  0.99292000  0.80098000  0.98701000  1.0
  Zn  Zn3  1  0.00708000  0.30098000  0.51299000  1.0
  Zn  Zn4  1  0.40311000  0.28715000  0.98101000  1.0
  Zn  Zn5  1  0.59689000  0.78715000  0.51899000  1.0
  Zn  Zn6  1  0.59689000  0.71285000  0.01899000  1.0
  Zn  Zn7  1  0.40311000  0.21285000  0.48101000  1.0
  H  H8  1  0.63675000  0.25405000  0.05625000  1.0
  H  H9  1  0.36325000  0.75406000  0.44375000  1.0
  H  H10  1  0.36325000  0.74595000  0.94375000  1.0
  H  H11  1  0.63675000  0.24595000  0.55625000  1.0
  H  H12  1  0.73197000  0.28342000  0.98497000  1.0
  H  H13  1  0.26802000  0.78342000  0.51504000  1.0
  H  H14  1  0.26804000  0.71658000  0.01503000  1.0
  H  H15  1  0.73196000  0.21658000  0.48497000  1.0
  H  H16  1  0.20263000  0.00070000  0.96711000  1.0
  H  H17  1  0.79738000  0.50070000  0.53289000  1.0
  H  H18  1  0.79737000  0.99930000  0.03289000  1.0
  H  H19  1  0.20262000  0.49930000  0.46711000  1.0
  H  H20  1  0.64785000  0.88622000  0.87314000  1.0
  H  H21  1  0.35215000  0.38622000  0.62686000  1.0
  H  H22  1  0.35214000  0.11378000  0.12686000  1.0
  H  H23  1  0.64785000  0.61378000  0.37314000  1.0
  H  H24  1  0.66931000  0.11500000  0.89964000  1.0
  H  H25  1  0.33070000  0.61500000  0.60036000  1.0
  H  H26  1  0.33069000  0.88500000  0.10036000  1.0
  H  H27  1  0.66930000  0.38500000  0.39964000  1.0
  H  H28  1  0.89974000  0.89108000  0.88316000  1.0
  H  H29  1  0.10026000  0.39108000  0.61684000  1.0
  H  H30  1  0.10025000  0.10893000  0.11684000  1.0
  H  H31  1  0.89973000  0.60892000  0.38317000  1.0
  H  H32  1  0.08807000  0.93875000  0.85618000  1.0
  H  H33  1  0.91194000  0.43875000  0.64382000  1.0
  H  H34  1  0.91192000  0.06125000  0.14382000  1.0
  H  H35  1  0.08807000  0.56125000  0.35618000  1.0
  H  H36  1  0.09911000  0.81011000  0.79625000  1.0
  H  H37  1  0.90088000  0.31011000  0.70375000  1.0
  H  H38  1  0.90088000  0.18989000  0.20375000  1.0
  H  H39  1  0.09912000  0.68989000  0.29625000  1.0
  H  H40  1  0.10169000  0.75826000  0.68190000  1.0
  H  H41  1  0.89831000  0.25826000  0.81810000  1.0
  H  H42  1  0.89832000  0.24174000  0.31810000  1.0
  H  H43  1  0.10169000  0.74174000  0.18190000  1.0
  H  H44  1  0.81697000  0.93739000  0.62686000  1.0
  H  H45  1  0.18304000  0.43739000  0.87314000  1.0
  H  H46  1  0.18304000  0.06261000  0.37314000  1.0
  H  H47  1  0.81697000  0.56261000  0.12686000  1.0
  H  H48  1  0.82273000  0.99138000  0.74012000  1.0
  H  H49  1  0.17727000  0.49138000  0.75988000  1.0
  H  H50  1  0.17726000  0.00862000  0.25988000  1.0
  H  H51  1  0.82273000  0.50862000  0.24013000  1.0
  H  H52  1  0.09238000  0.04451000  0.88377000  1.0
  H  H53  1  0.90762000  0.54451000  0.61624000  1.0
  H  H54  1  0.90761000  0.95549000  0.11624000  1.0
  H  H55  1  0.09238000  0.45549000  0.38376000  1.0
  H  H56  1  0.90812000  0.09620000  0.90772000  1.0
  H  H57  1  0.09189000  0.59620000  0.59228000  1.0
  H  H58  1  0.09187000  0.90380000  0.09229000  1.0
  H  H59  1  0.90812000  0.40379000  0.40771000  1.0
  H  H60  1  0.75245000  0.10776000  0.78398000  1.0
  H  H61  1  0.24756000  0.60777000  0.71602000  1.0
  H  H62  1  0.24753000  0.89223000  0.21603000  1.0
  H  H63  1  0.75246000  0.39223000  0.28397000  1.0
  H  H64  1  0.82655000  0.17263000  0.67497000  1.0
  H  H65  1  0.17345000  0.67264000  0.82503000  1.0
  H  H66  1  0.17342000  0.82736000  0.32504000  1.0
  H  H67  1  0.82656000  0.32736000  0.17496000  1.0
  H  H68  1  0.36248000  0.16631000  0.69309000  1.0
  H  H69  1  0.63753000  0.66631000  0.80691000  1.0
  H  H70  1  0.63751000  0.83369000  0.30691000  1.0
  H  H71  1  0.36248000  0.33369000  0.19308000  1.0
  H  H72  1  0.28857000  0.10471000  0.80469000  1.0
  H  H73  1  0.71145000  0.60471000  0.69530000  1.0
  H  H74  1  0.71142000  0.89530000  0.19531000  1.0
  H  H75  1  0.28856000  0.39530000  0.30469000  1.0
  H  H76  1  0.59046000  0.29405000  0.75810000  1.0
  H  H77  1  0.40955000  0.79404000  0.74190000  1.0
  H  H78  1  0.40953000  0.70595000  0.24190000  1.0
  H  H79  1  0.59047000  0.20596000  0.25809000  1.0
  H  H80  1  0.37037000  0.31531000  0.78317000  1.0
  H  H81  1  0.62963000  0.81530000  0.71684000  1.0
  H  H82  1  0.62963000  0.68470000  0.21683000  1.0
  H  H83  1  0.37038000  0.18470000  0.28316000  1.0
  H  H84  1  0.47107000  0.25361000  0.83179000  1.0
  H  H85  1  0.52892000  0.75361000  0.66822000  1.0
  H  H86  1  0.52891000  0.74639000  0.16822000  1.0
  H  H87  1  0.47108000  0.24639000  0.33178000  1.0
  H  H88  1  0.54550000  0.52766000  0.86208000  1.0
  H  H89  1  0.45451000  0.02766000  0.63792000  1.0
  H  H90  1  0.45451000  0.47234000  0.13792000  1.0
  H  H91  1  0.54548000  0.97235000  0.36208000  1.0
  H  H92  1  0.76413000  0.49949000  0.84177000  1.0
  H  H93  1  0.23587000  0.99949000  0.65823000  1.0
  H  H94  1  0.23588000  0.50051000  0.15823000  1.0
  H  H95  1  0.76411000  0.00051000  0.34178000  1.0
  H  H96  1  0.62784000  0.46278000  0.91386000  1.0
  H  H97  1  0.37216000  0.96277000  0.58614000  1.0
  H  H98  1  0.37217000  0.53723000  0.08614000  1.0
  H  H99  1  0.62782000  0.03723000  0.41386000  1.0
  H  H100  1  0.55462000  0.39751000  0.72077000  1.0
  H  H101  1  0.44538000  0.89751000  0.77923000  1.0
  H  H102  1  0.44538000  0.60249000  0.27923000  1.0
  H  H103  1  0.55462000  0.10249000  0.22077000  1.0
  H  H104  1  0.71064000  0.46423000  0.72847000  1.0
  H  H105  1  0.28936000  0.96423000  0.77153000  1.0
  H  H106  1  0.28936000  0.53577000  0.27153000  1.0
  H  H107  1  0.71064000  0.03577000  0.22847000  1.0
  H  H108  1  0.48745000  0.48485000  0.74603000  1.0
  H  H109  1  0.51255000  0.98485000  0.75397000  1.0
  H  H110  1  0.51255000  0.51515000  0.25397000  1.0
  H  H111  1  0.48745000  0.01515000  0.24603000  1.0
  C  C112  1  0.34365000  0.13300000  0.95503000  1.0
  C  C113  1  0.65636000  0.63300000  0.54497000  1.0
  C  C114  1  0.65635000  0.86700000  0.04498000  1.0
  C  C115  1  0.34365000  0.36700000  0.45502000  1.0
  C  C116  1  0.32035000  0.86899000  0.92744000  1.0
  C  C117  1  0.67965000  0.36899000  0.57256000  1.0
  C  C118  1  0.67964000  0.13101000  0.07256000  1.0
  C  C119  1  0.32036000  0.63101000  0.42744000  1.0
  C  C120  1  0.33562000  0.00099000  0.94180000  1.0
  C  C121  1  0.66439000  0.50100000  0.55820000  1.0
  C  C122  1  0.66438000  0.99900000  0.05820000  1.0
  C  C123  1  0.33561000  0.49901000  0.44180000  1.0
  C  C124  1  0.41769000  0.93777000  0.91897000  1.0
  C  C125  1  0.58232000  0.43777000  0.58103000  1.0
  C  C126  1  0.58231000  0.06223000  0.08103000  1.0
  C  C127  1  0.41768000  0.56223000  0.41897000  1.0
  C  C128  1  0.59147000  0.93715000  0.88993000  1.0
  C  C129  1  0.40854000  0.43715000  0.61007000  1.0
  C  C130  1  0.40852000  0.06285000  0.11007000  1.0
  C  C131  1  0.59146000  0.56285000  0.38994000  1.0
  C  C132  1  0.69062000  0.00004000  0.88507000  1.0
  C  C133  1  0.30939000  0.50004000  0.61493000  1.0
  C  C134  1  0.30938000  0.99996000  0.11493000  1.0
  C  C135  1  0.69061000  0.49996000  0.38507000  1.0
  C  C136  1  0.60309000  0.06419000  0.90401000  1.0
  C  C137  1  0.39692000  0.56419000  0.59599000  1.0
  C  C138  1  0.39691000  0.93581000  0.09599000  1.0
  C  C139  1  0.60308000  0.43581000  0.40401000  1.0
  C  C140  1  0.42895000  0.06435000  0.93241000  1.0
  C  C141  1  0.57107000  0.56435000  0.56759000  1.0
  C  C142  1  0.57106000  0.93565000  0.06759000  1.0
  C  C143  1  0.42893000  0.43565000  0.43241000  1.0
  C  C144  1  0.95519000  0.93207000  0.84688000  1.0
  C  C145  1  0.04482000  0.43207000  0.65312000  1.0
  C  C146  1  0.04480000  0.06793000  0.15312000  1.0
  C  C147  1  0.95519000  0.56793000  0.34688000  1.0
  C  C148  1  0.95860000  0.90394000  0.77594000  1.0
  C  C149  1  0.04141000  0.40394000  0.72406000  1.0
  C  C150  1  0.04140000  0.09606000  0.22406000  1.0
  C  C151  1  0.95860000  0.59606000  0.27594000  1.0
  C  C152  1  0.04009000  0.83874000  0.75862000  1.0
  C  C153  1  0.95991000  0.33873000  0.74138000  1.0
  C  C154  1  0.95991000  0.16126000  0.24138000  1.0
  C  C155  1  0.04010000  0.66127000  0.25862000  1.0
  C  C156  1  0.04164000  0.80955000  0.69492000  1.0
  C  C157  1  0.95838000  0.30955000  0.80507000  1.0
  C  C158  1  0.95837000  0.19045000  0.30508000  1.0
  C  C159  1  0.04164000  0.69045000  0.19492000  1.0
  C  C160  1  0.95866000  0.84442000  0.64751000  1.0
  C  C161  1  0.04136000  0.34442000  0.85248000  1.0
  C  C162  1  0.04137000  0.15558000  0.35248000  1.0
  C  C163  1  0.95865000  0.65558000  0.14752000  1.0
  C  C164  1  0.88086000  0.91040000  0.66398000  1.0
  C  C165  1  0.11915000  0.41040000  0.83602000  1.0
  C  C166  1  0.11915000  0.08960000  0.33602000  1.0
  C  C167  1  0.88086000  0.58960000  0.16398000  1.0
  C  C168  1  0.88242000  0.93998000  0.72747000  1.0
  C  C169  1  0.11760000  0.43998000  0.77252000  1.0
  C  C170  1  0.11758000  0.06002000  0.27253000  1.0
  C  C171  1  0.88241000  0.56002000  0.22748000  1.0
  C  C172  1  0.93791000  0.80826000  0.58342000  1.0
  C  C173  1  0.06209000  0.30826000  0.91658000  1.0
  C  C174  1  0.06210000  0.19174000  0.41658000  1.0
  C  C175  1  0.93792000  0.69174000  0.08342000  1.0
  C  C176  1  0.97244000  0.06155000  0.86730000  1.0
  C  C177  1  0.02757000  0.56155000  0.63270000  1.0
  C  C178  1  0.02755000  0.93845000  0.13270000  1.0
  C  C179  1  0.97244000  0.43845000  0.36730000  1.0
  C  C180  1  0.01594000  0.10168000  0.80162000  1.0
  C  C181  1  0.98408000  0.60168000  0.69838000  1.0
  C  C182  1  0.98406000  0.89832000  0.19839000  1.0
  C  C183  1  0.01593000  0.39832000  0.30161000  1.0
  C  C184  1  0.88637000  0.12109000  0.76463000  1.0
  C  C185  1  0.11364000  0.62109000  0.73537000  1.0
  C  C186  1  0.11362000  0.87891000  0.23537000  1.0
  C  C187  1  0.88636000  0.37891000  0.26463000  1.0
  C  C188  1  0.92686000  0.15675000  0.70355000  1.0
  C  C189  1  0.07315000  0.65676000  0.79645000  1.0
  C  C190  1  0.07312000  0.84324000  0.29646000  1.0
  C  C191  1  0.92686000  0.34325000  0.20354000  1.0
  C  C192  1  0.09919000  0.17239000  0.67745000  1.0
  C  C193  1  0.90082000  0.67239000  0.82255000  1.0
  C  C194  1  0.90079000  0.82761000  0.32256000  1.0
  C  C195  1  0.09920000  0.32761000  0.17744000  1.0
  C  C196  1  0.22924000  0.15356000  0.71402000  1.0
  C  C197  1  0.77076000  0.65356000  0.78598000  1.0
  C  C198  1  0.77075000  0.84644000  0.28598000  1.0
  C  C199  1  0.22924000  0.34644000  0.21402000  1.0
  C  C200  1  0.18717000  0.11919000  0.77601000  1.0
  C  C201  1  0.81284000  0.61919000  0.72399000  1.0
  C  C202  1  0.81283000  0.88081000  0.22399000  1.0
  C  C203  1  0.18717000  0.38081000  0.27600000  1.0
  C  C204  1  0.14177000  0.20917000  0.61103000  1.0
  C  C205  1  0.85823000  0.70917000  0.88897000  1.0
  C  C206  1  0.85822000  0.79083000  0.38897000  1.0
  C  C207  1  0.14177000  0.29082000  0.11103000  1.0
  C  C208  1  0.53799000  0.36084000  0.84698000  1.0
  C  C209  1  0.46201000  0.86084000  0.65302000  1.0
  C  C210  1  0.46201000  0.63916000  0.15302000  1.0
  C  C211  1  0.53800000  0.13917000  0.34698000  1.0
  C  C212  1  0.48994000  0.30252000  0.80216000  1.0
  C  C213  1  0.51005000  0.80251000  0.69785000  1.0
  C  C214  1  0.51006000  0.69749000  0.19784000  1.0
  C  C215  1  0.48996000  0.19749000  0.30215000  1.0
  C  C216  1  0.63267000  0.48206000  0.86232000  1.0
  C  C217  1  0.36734000  0.98205000  0.63768000  1.0
  C  C218  1  0.36734000  0.51794000  0.13768000  1.0
  C  C219  1  0.63265000  0.01795000  0.36232000  1.0
  C  C220  1  0.58341000  0.44334000  0.75019000  1.0
  C  C221  1  0.41658000  0.94334000  0.74982000  1.0
  C  C222  1  0.41659000  0.55666000  0.24981000  1.0
  C  C223  1  0.58341000  0.05666000  0.25019000  1.0
  N  N224  1  0.86644000  0.99870000  0.86340000  1.0
  N  N225  1  0.13357000  0.49870000  0.63660000  1.0
  N  N226  1  0.13356000  0.00130000  0.13660000  1.0
  N  N227  1  0.86643000  0.50130000  0.36340000  1.0
  N  N228  1  0.58186000  0.42511000  0.82049000  1.0
  N  N229  1  0.41815000  0.92511000  0.67951000  1.0
  N  N230  1  0.41815000  0.57489000  0.17951000  1.0
  N  N231  1  0.58185000  0.07489000  0.32049000  1.0
  O  O232  1  0.19078000  0.12888000  0.98787000  1.0
  O  O233  1  0.80923000  0.62888000  0.51214000  1.0
  O  O234  1  0.80922000  0.87112000  0.01214000  1.0
  O  O235  1  0.19078000  0.37112000  0.48786000  1.0
  O  O236  1  0.63215000  0.29134000  0.02049000  1.0
  O  O237  1  0.36784000  0.79135000  0.47951000  1.0
  O  O238  1  0.36785000  0.70866000  0.97951000  1.0
  O  O239  1  0.63215000  0.20866000  0.52049000  1.0
  O  O240  1  0.42806000  0.19015000  0.94003000  1.0
  O  O241  1  0.57194000  0.69015000  0.55997000  1.0
  O  O242  1  0.57193000  0.80985000  0.05997000  1.0
  O  O243  1  0.42805000  0.30985000  0.44003000  1.0
  O  O244  1  0.17929000  0.87094000  0.97060000  1.0
  O  O245  1  0.82070000  0.37094000  0.52940000  1.0
  O  O246  1  0.82070000  0.12906000  0.02940000  1.0
  O  O247  1  0.17929000  0.62906000  0.47060000  1.0
  O  O248  1  0.37949000  0.81532000  0.89405000  1.0
  O  O249  1  0.62052000  0.31532000  0.60594000  1.0
  O  O250  1  0.62051000  0.18468000  0.10595000  1.0
  O  O251  1  0.37949000  0.68468000  0.39405000  1.0
  O  O252  1  0.04259000  0.75639000  0.56397000  1.0
  O  O253  1  0.95741000  0.25639000  0.93603000  1.0
  O  O254  1  0.95742000  0.24361000  0.43603000  1.0
  O  O255  1  0.04259000  0.74361000  0.06397000  1.0
  O  O256  1  0.81842000  0.82806000  0.55270000  1.0
  O  O257  1  0.18158000  0.32806000  0.94730000  1.0
  O  O258  1  0.18159000  0.17194000  0.44730000  1.0
  O  O259  1  0.81842000  0.67194000  0.05270000  1.0
  O  O260  1  0.02048000  0.24717000  0.59432000  1.0
  O  O261  1  0.97952000  0.74717000  0.90568000  1.0
  O  O262  1  0.97951000  0.75283000  0.40568000  1.0
  O  O263  1  0.02048000  0.25283000  0.09432000  1.0
  O  O264  1  0.29153000  0.20048000  0.57774000  1.0
  O  O265  1  0.70847000  0.70048000  0.92226000  1.0
  O  O266  1  0.70845000  0.79951000  0.42226000  1.0
  O  O267  1  0.29154000  0.29951000  0.07774000  1.0
  O  O268  1  0.54077000  0.35032000  0.90906000  1.0
  O  O269  1  0.45923000  0.85032000  0.59094000  1.0
  O  O270  1  0.45923000  0.64968000  0.09094000  1.0
  O  O271  1  0.54078000  0.14969000  0.40906000  1.0
