# generated using pymatgen
data_TbH3C4O9
_symmetry_space_group_name_H-M   'P 1'
_cell_length_a   9.93999000
_cell_length_b   10.68290000
_cell_length_c   12.11960000
_cell_angle_alpha   72.48200000
_cell_angle_beta   89.99970000
_cell_angle_gamma   89.99920000
_symmetry_Int_Tables_number   1
_chemical_formula_structural   TbH3C4O9
_chemical_formula_sum   'Tb4 H12 C16 O36'
_cell_volume   1227.26925996
_cell_formula_units_Z   4
loop_
 _symmetry_equiv_pos_site_id
 _symmetry_equiv_pos_as_xyz
  1  'x, y, z'
loop_
 _atom_site_type_symbol
 _atom_site_label
 _atom_site_symmetry_multiplicity
 _atom_site_fract_x
 _atom_site_fract_y
 _atom_site_fract_z
 _atom_site_occupancy
  Tb  Tb0  1  0.57164000  0.29483000  0.38503000  1.0
  Tb  Tb1  1  0.07164000  0.20518000  0.11496000  1.0
  Tb  Tb2  1  0.42837000  0.70518000  0.61496000  1.0
  Tb  Tb3  1  0.92835000  0.79482000  0.88503000  1.0
  H  H4  1  0.75844000  0.40781000  0.16130000  1.0
  H  H5  1  0.25845000  0.09219000  0.33870000  1.0
  H  H6  1  0.24156000  0.59219000  0.83869000  1.0
  H  H7  1  0.74156000  0.90781000  0.66130000  1.0
  H  H8  1  0.55161000  0.36935000  0.11354000  1.0
  H  H9  1  0.05165000  0.13067000  0.38647000  1.0
  H  H10  1  0.44836000  0.63066000  0.88645000  1.0
  H  H11  1  0.94838000  0.86932000  0.61355000  1.0
  H  H12  1  0.66406000  0.51768000  0.18320000  1.0
  H  H13  1  0.16406000  0.98233000  0.31681000  1.0
  H  H14  1  0.33594000  0.48232000  0.81679000  1.0
  H  H15  1  0.83595000  0.01767000  0.68320000  1.0
  C  C16  1  0.87857000  0.21422000  0.39364000  1.0
  C  C17  1  0.37856000  0.28579000  0.10636000  1.0
  C  C18  1  0.12144000  0.78577000  0.60636000  1.0
  C  C19  1  0.62143000  0.71420000  0.89365000  1.0
  C  C20  1  0.44024000  0.00454000  0.45825000  1.0
  C  C21  1  0.94024000  0.49546000  0.04175000  1.0
  C  C22  1  0.55976000  0.99546000  0.54175000  1.0
  C  C23  1  0.05976000  0.50454000  0.95825000  1.0
  C  C24  1  0.46023000  0.44709000  0.54724000  1.0
  C  C25  1  0.96021000  0.05292000  0.95275000  1.0
  C  C26  1  0.53977000  0.55293000  0.45275000  1.0
  C  C27  1  0.03977000  0.94708000  0.04724000  1.0
  C  C28  1  0.81831000  0.15497000  0.30169000  1.0
  C  C29  1  0.31829000  0.34503000  0.19831000  1.0
  C  C30  1  0.18170000  0.84502000  0.69831000  1.0
  C  C31  1  0.68170000  0.65497000  0.80169000  1.0
  O  O32  1  0.80809000  0.28905000  0.42993000  1.0
  O  O33  1  0.30809000  0.21095000  0.07009000  1.0
  O  O34  1  0.19192000  0.71095000  0.57007000  1.0
  O  O35  1  0.69190000  0.78903000  0.92994000  1.0
  O  O36  1  0.00149000  0.18306000  0.43094000  1.0
  O  O37  1  0.50147000  0.31696000  0.06907000  1.0
  O  O38  1  0.99852000  0.81692000  0.56908000  1.0
  O  O39  1  0.49851000  0.68304000  0.93093000  1.0
  O  O40  1  0.41080000  0.11908000  0.39202000  1.0
  O  O41  1  0.91079000  0.38092000  0.10797000  1.0
  O  O42  1  0.58920000  0.88092000  0.60798000  1.0
  O  O43  1  0.08920000  0.61908000  0.89201000  1.0
  O  O44  1  0.37928000  0.90052000  0.46156000  1.0
  O  O45  1  0.87928000  0.59950000  0.03844000  1.0
  O  O46  1  0.62073000  0.09949000  0.53842000  1.0
  O  O47  1  0.12072000  0.40051000  0.96157000  1.0
  O  O48  1  0.46252000  0.33123000  0.54044000  1.0
  O  O49  1  0.96251000  0.16877000  0.95957000  1.0
  O  O50  1  0.53748000  0.66879000  0.45955000  1.0
  O  O51  1  0.03748000  0.83122000  0.04045000  1.0
  O  O52  1  0.40026000  0.48633000  0.62285000  1.0
  O  O53  1  0.90025000  0.01366000  0.87715000  1.0
  O  O54  1  0.59973000  0.51368000  0.37714000  1.0
  O  O55  1  0.09974000  0.98632000  0.12285000  1.0
  O  O56  1  0.89950000  0.11368000  0.24058000  1.0
  O  O57  1  0.39947000  0.38632000  0.25942000  1.0
  O  O58  1  0.10052000  0.88632000  0.75942000  1.0
  O  O59  1  0.60052000  0.61368000  0.74057000  1.0
  O  O60  1  0.69198000  0.15743000  0.29576000  1.0
  O  O61  1  0.19196000  0.34258000  0.20424000  1.0
  O  O62  1  0.30803000  0.84257000  0.70424000  1.0
  O  O63  1  0.80803000  0.65742000  0.79576000  1.0
  O  O64  1  0.66605000  0.42472000  0.18781000  1.0
  O  O65  1  0.16606000  0.07528000  0.31220000  1.0
  O  O66  1  0.33395000  0.57528000  0.81219000  1.0
  O  O67  1  0.83395000  0.92471000  0.68781000  1.0
