# generated using pymatgen
data_HoCuH10C16N5O9
_symmetry_space_group_name_H-M   'P 1'
_cell_length_a   10.35860000
_cell_length_b   10.49225320
_cell_length_c   11.68780000
_cell_angle_alpha   99.81949289
_cell_angle_beta   97.98030000
_cell_angle_gamma   117.20575875
_symmetry_Int_Tables_number   1
_chemical_formula_structural   HoCuH10C16N5O9
_chemical_formula_sum   'Ho2 Cu2 H20 C32 N10 O18'
_cell_volume   1078.60189355
_cell_formula_units_Z   2
loop_
 _symmetry_equiv_pos_site_id
 _symmetry_equiv_pos_as_xyz
  1  'x, y, z'
loop_
 _atom_site_type_symbol
 _atom_site_label
 _atom_site_symmetry_multiplicity
 _atom_site_fract_x
 _atom_site_fract_y
 _atom_site_fract_z
 _atom_site_occupancy
  Ho  Ho0  1  0.56058000  0.99384000  0.81717000  1.0
  Ho  Ho1  1  0.43942000  0.00616000  0.18284000  1.0
  Cu  Cu2  1  0.00000000  0.00000000  0.00000000  1.0
  Cu  Cu3  1  0.00001000  0.00000000  0.50000000  1.0
  H  H4  1  0.30892000  0.22658000  0.49443000  1.0
  H  H5  1  0.69107000  0.77342000  0.50555000  1.0
  H  H6  1  0.48400000  0.50027000  0.58830000  1.0
  H  H7  1  0.51597000  0.49974000  0.41166000  1.0
  H  H8  1  0.14594000  0.51312000  0.75711000  1.0
  H  H9  1  0.85405000  0.48688000  0.24287000  1.0
  H  H10  1  0.97993000  0.23895000  0.65518000  1.0
  H  H11  1  0.02007000  0.76105000  0.34482000  1.0
  H  H12  1  0.73547000  0.74790000  0.81656000  1.0
  H  H13  1  0.26454000  0.25210000  0.18344000  1.0
  H  H14  1  0.60540000  0.46769000  0.76213000  1.0
  H  H15  1  0.39459000  0.53230000  0.23789000  1.0
  H  H16  1  0.91486000  0.49995000  0.06557000  1.0
  H  H17  1  0.08515000  0.50006000  0.93444000  1.0
  H  H18  1  0.03804000  0.77820000  0.10806000  1.0
  H  H19  1  0.96196000  0.22181000  0.89195000  1.0
  H  H20  1  0.81223000  0.01974000  0.71831000  1.0
  H  H21  1  0.18779000  0.98027000  0.28170000  1.0
  H  H22  1  0.72652000  0.05558000  0.61860000  1.0
  H  H23  1  0.27348000  0.94441000  0.38141000  1.0
  C  C24  1  0.16907000  0.97239000  0.70715000  1.0
  C  C25  1  0.83094000  0.02760000  0.29285000  1.0
  C  C26  1  0.17318000  0.98623000  0.82939000  1.0
  C  C27  1  0.82683000  0.01376000  0.17062000  1.0
  C  C28  1  0.26296000  0.95498000  0.62455000  1.0
  C  C29  1  0.73706000  0.04502000  0.37546000  1.0
  C  C30  1  0.28491000  0.01186000  0.93737000  1.0
  C  C31  1  0.71510000  0.98814000  0.06263000  1.0
  C  C32  1  0.27660000  0.29386000  0.55264000  1.0
  C  C33  1  0.72339000  0.70614000  0.44735000  1.0
  C  C34  1  0.37313000  0.44498000  0.60490000  1.0
  C  C35  1  0.62685000  0.55503000  0.39507000  1.0
  C  C36  1  0.32729000  0.52566000  0.68044000  1.0
  C  C37  1  0.67268000  0.47434000  0.31953000  1.0
  C  C38  1  0.18396000  0.45172000  0.69930000  1.0
  C  C39  1  0.81602000  0.54828000  0.30068000  1.0
  C  C40  1  0.09282000  0.30103000  0.64359000  1.0
  C  C41  1  0.90717000  0.69897000  0.35641000  1.0
  C  C42  1  0.42715000  0.68883000  0.74027000  1.0
  C  C43  1  0.57284000  0.31117000  0.25971000  1.0
  C  C44  1  0.77262000  0.68893000  0.86904000  1.0
  C  C45  1  0.22739000  0.31107000  0.13097000  1.0
  C  C46  1  0.70045000  0.53456000  0.83949000  1.0
  C  C47  1  0.29954000  0.46543000  0.16052000  1.0
  C  C48  1  0.75212000  0.46426000  0.90987000  1.0
  C  C49  1  0.24788000  0.53574000  0.09014000  1.0
  C  C50  1  0.87289000  0.55229000  0.00950000  1.0
  C  C51  1  0.12711000  0.44772000  0.99052000  1.0
  C  C52  1  0.94056000  0.70616000  0.03350000  1.0
  C  C53  1  0.05944000  0.29384000  0.96651000  1.0
  C  C54  1  0.68282000  0.29787000  0.87606000  1.0
  C  C55  1  0.31719000  0.70213000  0.12396000  1.0
  N  N56  1  0.04046000  0.96964000  0.65832000  1.0
  N  N57  1  0.95956000  0.03036000  0.34168000  1.0
  N  N58  1  0.96662000  0.97828000  0.74093000  1.0
  N  N59  1  0.03340000  0.02173000  0.25907000  1.0
  N  N60  1  0.04633000  0.98803000  0.84413000  1.0
  N  N61  1  0.95367000  0.01197000  0.15587000  1.0
  N  N62  1  0.13913000  0.22380000  0.57246000  1.0
  N  N63  1  0.86085000  0.77619000  0.42754000  1.0
  N  N64  1  0.89155000  0.77263000  0.96392000  1.0
  N  N65  1  0.10846000  0.22737000  0.03609000  1.0
  O  O66  1  0.22581000  0.96483000  0.51968000  1.0
  O  O67  1  0.77419000  0.03515000  0.48032000  1.0
  O  O68  1  0.36529000  0.92673000  0.66152000  1.0
  O  O69  1  0.63473000  0.07327000  0.33848000  1.0
  O  O70  1  0.41134000  0.03064000  0.92731000  1.0
  O  O71  1  0.58866000  0.96935000  0.07269000  1.0
  O  O72  1  0.25020000  0.01919000  0.03842000  1.0
  O  O73  1  0.74980000  0.98080000  0.96159000  1.0
  O  O74  1  0.54365000  0.76310000  0.70429000  1.0
  O  O75  1  0.45634000  0.23690000  0.29570000  1.0
  O  O76  1  0.38971000  0.74853000  0.82380000  1.0
  O  O77  1  0.61028000  0.25147000  0.17619000  1.0
  O  O78  1  0.73617000  0.23816000  0.94054000  1.0
  O  O79  1  0.26385000  0.76185000  0.05948000  1.0
  O  O80  1  0.57542000  0.22155000  0.78275000  1.0
  O  O81  1  0.42459000  0.77845000  0.21727000  1.0
  O  O82  1  0.74559000  0.06363000  0.70631000  1.0
  O  O83  1  0.25443000  0.93638000  0.29371000  1.0
