# generated using pymatgen
data_Co3Mo8H24C18(N7O16)2
_symmetry_space_group_name_H-M   'P 1'
_cell_length_a   10.90320000
_cell_length_b   12.18300000
_cell_length_c   12.27590000
_cell_angle_alpha   108.77500000
_cell_angle_beta   112.40800000
_cell_angle_gamma   101.42200000
_symmetry_Int_Tables_number   1
_chemical_formula_structural   Co3Mo8H24C18(N7O16)2
_chemical_formula_sum   'Co3 Mo8 H24 C18 N14 O32'
_cell_volume   1328.04349969
_cell_formula_units_Z   1
loop_
 _symmetry_equiv_pos_site_id
 _symmetry_equiv_pos_as_xyz
  1  'x, y, z'
loop_
 _atom_site_type_symbol
 _atom_site_label
 _atom_site_symmetry_multiplicity
 _atom_site_fract_x
 _atom_site_fract_y
 _atom_site_fract_z
 _atom_site_occupancy
  Co  Co0  1  0.23056000  0.95358000  0.37300000  1.0
  Co  Co1  1  0.76944000  0.04642000  0.62701000  1.0
  Co  Co2  1  0.50000000  0.50000000  0.50000000  1.0
  Mo  Mo3  1  0.59005000  0.92401000  0.92500000  1.0
  Mo  Mo4  1  0.40995000  0.07599000  0.07500000  1.0
  Mo  Mo5  1  0.49101000  0.04141000  0.70264000  1.0
  Mo  Mo6  1  0.50900000  0.95859000  0.29735000  1.0
  Mo  Mo7  1  0.70306000  0.25500000  0.00351000  1.0
  Mo  Mo8  1  0.29694000  0.74500000  0.99649000  1.0
  Mo  Mo9  1  0.23370000  0.82879000  0.75881000  1.0
  Mo  Mo10  1  0.76629000  0.17120000  0.24118000  1.0
  H  H11  1  0.34403000  0.72158000  0.57629000  1.0
  H  H12  1  0.65597000  0.27842000  0.42371000  1.0
  H  H13  1  0.00324000  0.98408000  0.67385000  1.0
  H  H14  1  0.99676000  0.01591000  0.32615000  1.0
  H  H15  1  0.87783000  0.89237000  0.53347000  1.0
  H  H16  1  0.12217000  0.10763000  0.46652000  1.0
  H  H17  1  0.90923000  0.18430000  0.87784000  1.0
  H  H18  1  0.09078000  0.81569000  0.12216000  1.0
  H  H19  1  0.81511000  0.05880000  0.85353000  1.0
  H  H20  1  0.18488000  0.94120000  0.14647000  1.0
  H  H21  1  0.37402000  0.46756000  0.25284000  1.0
  H  H22  1  0.62598000  0.53244000  0.74715000  1.0
  H  H23  1  0.36749000  0.33425000  0.24168000  1.0
  H  H24  1  0.63251000  0.66575000  0.75831000  1.0
  H  H25  1  0.76315000  0.44941000  0.38270000  1.0
  H  H26  1  0.23685000  0.55059000  0.61730000  1.0
  H  H27  1  0.92899000  0.45242000  0.31154000  1.0
  H  H28  1  0.07101000  0.54759000  0.68845000  1.0
  H  H29  1  0.99082000  0.84074000  0.40842000  1.0
  H  H30  1  0.00918000  0.15926000  0.59159000  1.0
  H  H31  1  0.11334000  0.47852000  0.23953000  1.0
  H  H32  1  0.88667000  0.52149000  0.76049000  1.0
  H  H33  1  0.22979000  0.68854000  0.25745000  1.0
  H  H34  1  0.77023000  0.31147000  0.74257000  1.0
  C  C35  1  0.43824000  0.74905000  0.56565000  1.0
  C  C36  1  0.56176000  0.25095000  0.43435000  1.0
  C  C37  1  0.61257000  0.74869000  0.52655000  1.0
  C  C38  1  0.38743000  0.25131000  0.47344000  1.0
  C  C39  1  0.69706000  0.69027000  0.48034000  1.0
  C  C40  1  0.30293000  0.30973000  0.51965000  1.0
  C  C41  1  0.83534000  0.63980000  0.40671000  1.0
  C  C42  1  0.16466000  0.36020000  0.59328000  1.0
  C  C43  1  0.94318000  0.64463000  0.36418000  1.0
  C  C44  1  0.05683000  0.35538000  0.63582000  1.0
  C  C45  1  0.98032000  0.54221000  0.31781000  1.0
  C  C46  1  0.01969000  0.45780000  0.68219000  1.0
  C  C47  1  0.01420000  0.75805000  0.37146000  1.0
  C  C48  1  0.98581000  0.24196000  0.62855000  1.0
  C  C49  1  0.08369000  0.55680000  0.27811000  1.0
  C  C50  1  0.91632000  0.44321000  0.72191000  1.0
  C  C51  1  0.14913000  0.67263000  0.28815000  1.0
  C  C52  1  0.85088000  0.32737000  0.71187000  1.0
  N  N53  1  0.51496000  0.86695000  0.60260000  1.0
  N  N54  1  0.48504000  0.13305000  0.39740000  1.0
  N  N55  1  0.62801000  0.86800000  0.57897000  1.0
  N  N56  1  0.37198000  0.13199000  0.42103000  1.0
  N  N57  1  0.88427000  0.22777000  0.66463000  1.0
  N  N58  1  0.11574000  0.77224000  0.33538000  1.0
  N  N59  1  0.49574000  0.67126000  0.51748000  1.0
  N  N60  1  0.50426000  0.32874000  0.48252000  1.0
  N  N61  1  0.67135000  0.57033000  0.45796000  1.0
  N  N62  1  0.32865000  0.42966000  0.54203000  1.0
  N  N63  1  0.79590000  0.73609000  0.44994000  1.0
  N  N64  1  0.20410000  0.26391000  0.55006000  1.0
  N  N65  1  0.75981000  0.53994000  0.41082000  1.0
  N  N66  1  0.24019000  0.46006000  0.58918000  1.0
  O  O67  1  0.66722000  0.04184000  0.87631000  1.0
  O  O68  1  0.33277000  0.95816000  0.12369000  1.0
  O  O69  1  0.42628000  0.87120000  0.94691000  1.0
  O  O70  1  0.57371000  0.12879000  0.05309000  1.0
  O  O71  1  0.60255000  0.78792000  0.83702000  1.0
  O  O72  1  0.39744000  0.21208000  0.16298000  1.0
  O  O73  1  0.40529000  0.92520000  0.76542000  1.0
  O  O74  1  0.59470000  0.07480000  0.23458000  1.0
  O  O75  1  0.72420000  0.97968000  0.08649000  1.0
  O  O76  1  0.27579000  0.02031000  0.91352000  1.0
  O  O77  1  0.32901000  0.00910000  0.57068000  1.0
  O  O78  1  0.67100000  0.99090000  0.42933000  1.0
  O  O79  1  0.62015000  0.09846000  0.66035000  1.0
  O  O80  1  0.37986000  0.90154000  0.33966000  1.0
  O  O81  1  0.52212000  0.18643000  0.83905000  1.0
  O  O82  1  0.47788000  0.81357000  0.16094000  1.0
  O  O83  1  0.82095000  0.30324000  0.95132000  1.0
  O  O84  1  0.17905000  0.69677000  0.04868000  1.0
  O  O85  1  0.68597000  0.38656000  0.09075000  1.0
  O  O86  1  0.31402000  0.61344000  0.90925000  1.0
  O  O87  1  0.83806000  0.22920000  0.14343000  1.0
  O  O88  1  0.16194000  0.77080000  0.85657000  1.0
  O  O89  1  0.21825000  0.68350000  0.65283000  1.0
  O  O90  1  0.78174000  0.31649000  0.34716000  1.0
  O  O91  1  0.10057000  0.86180000  0.66074000  1.0
  O  O92  1  0.89942000  0.13819000  0.33925000  1.0
  O  O93  1  0.91983000  0.98148000  0.60220000  1.0
  O  O94  1  0.08017000  0.01852000  0.39780000  1.0
  O  O95  1  0.88693000  0.09476000  0.83037000  1.0
  O  O96  1  0.11306000  0.90524000  0.16962000  1.0
  O  O97  1  0.35730000  0.41217000  0.29206000  1.0
  O  O98  1  0.64269000  0.58783000  0.70793000  1.0
