# generated using pymatgen
data_MnH14C18(NO2)2
_symmetry_space_group_name_H-M   'P 1'
_cell_length_a   8.72141000
_cell_length_b   9.54658000
_cell_length_c   10.28310000
_cell_angle_alpha   75.64690000
_cell_angle_beta   73.24550000
_cell_angle_gamma   89.49100000
_symmetry_Int_Tables_number   1
_chemical_formula_structural   MnH14C18(NO2)2
_chemical_formula_sum   'Mn2 H28 C36 N4 O8'
_cell_volume   792.42304488
_cell_formula_units_Z   2
loop_
 _symmetry_equiv_pos_site_id
 _symmetry_equiv_pos_as_xyz
  1  'x, y, z'
loop_
 _atom_site_type_symbol
 _atom_site_label
 _atom_site_symmetry_multiplicity
 _atom_site_fract_x
 _atom_site_fract_y
 _atom_site_fract_z
 _atom_site_occupancy
  Mn  Mn0  1  0.45710000  0.86204000  0.86161000  1.0
  Mn  Mn1  1  0.54289000  0.13796000  0.13839000  1.0
  H  H2  1  0.30938000  0.46986000  0.69068000  1.0
  H  H3  1  0.69063000  0.53014000  0.30932000  1.0
  H  H4  1  0.24767000  0.37463000  0.50490000  1.0
  H  H5  1  0.75232000  0.62538000  0.49510000  1.0
  H  H6  1  0.28422000  0.53878000  0.26654000  1.0
  H  H7  1  0.71578000  0.46122000  0.73346000  1.0
  H  H8  1  0.43476000  0.89189000  0.40351000  1.0
  H  H9  1  0.56525000  0.10811000  0.59649000  1.0
  H  H10  1  0.26808000  0.98596000  0.63590000  1.0
  H  H11  1  0.73192000  0.01404000  0.36410000  1.0
  H  H12  1  0.04699000  0.14844000  0.60734000  1.0
  H  H13  1  0.95301000  0.85156000  0.39266000  1.0
  H  H14  1  0.92621000  0.27846000  0.79404000  1.0
  H  H15  1  0.07380000  0.72154000  0.20596000  1.0
  H  H16  1  0.03136000  0.23693000  0.00275000  1.0
  H  H17  1  0.96864000  0.76306000  0.99725000  1.0
  H  H18  1  0.24854000  0.06569000  0.01805000  1.0
  H  H19  1  0.75145000  0.93431000  0.98195000  1.0
  H  H20  1  0.58599000  0.57921000  0.03361000  1.0
  H  H21  1  0.41401000  0.42079000  0.96639000  1.0
  H  H22  1  0.82770000  0.43825000  0.00768000  1.0
  H  H23  1  0.17230000  0.56175000  0.99232000  1.0
  H  H24  1  0.07066000  0.53225000  0.79474000  1.0
  H  H25  1  0.92934000  0.46774000  0.20525000  1.0
  H  H26  1  0.05207000  0.75886000  0.61818000  1.0
  H  H27  1  0.94793000  0.24114000  0.38182000  1.0
  H  H28  1  0.79344000  0.88559000  0.66007000  1.0
  H  H29  1  0.20656000  0.11440000  0.33993000  1.0
  C  C30  1  0.41361000  0.74641000  0.66714000  1.0
  C  C31  1  0.58640000  0.25359000  0.33286000  1.0
  C  C32  1  0.37545000  0.68669000  0.55782000  1.0
  C  C33  1  0.62456000  0.31331000  0.44218000  1.0
  C  C34  1  0.32048000  0.54134000  0.58717000  1.0
  C  C35  1  0.67952000  0.45867000  0.41283000  1.0
  C  C36  1  0.28691000  0.48829000  0.48295000  1.0
  C  C37  1  0.71309000  0.51171000  0.51705000  1.0
  C  C38  1  0.30761000  0.57955000  0.34937000  1.0
  C  C39  1  0.69239000  0.42046000  0.65063000  1.0
  C  C40  1  0.35937000  0.72596000  0.31975000  1.0
  C  C41  1  0.64063000  0.27404000  0.68025000  1.0
  C  C42  1  0.37632000  0.82543000  0.17801000  1.0
  C  C43  1  0.62368000  0.17459000  0.82200000  1.0
  C  C44  1  0.39349000  0.77880000  0.42453000  1.0
  C  C45  1  0.60651000  0.22121000  0.57547000  1.0
  C  C46  1  0.20930000  0.04061000  0.71651000  1.0
  C  C47  1  0.79070000  0.95940000  0.28349000  1.0
  C  C48  1  0.08811000  0.13320000  0.70014000  1.0
  C  C49  1  0.91189000  0.86680000  0.29986000  1.0
  C  C50  1  0.02199000  0.20610000  0.80314000  1.0
  C  C51  1  0.97802000  0.79390000  0.19686000  1.0
  C  C52  1  0.08010000  0.18344000  0.91906000  1.0
  C  C53  1  0.91990000  0.81656000  0.08095000  1.0
  C  C54  1  0.20048000  0.08801000  0.92858000  1.0
  C  C55  1  0.79952000  0.91199000  0.07142000  1.0
  C  C56  1  0.69120000  0.61469000  0.94228000  1.0
  C  C57  1  0.30880000  0.38531000  0.05772000  1.0
  C  C58  1  0.82835000  0.53677000  0.92709000  1.0
  C  C59  1  0.17165000  0.46323000  0.07291000  1.0
  C  C60  1  0.96039000  0.58857000  0.80965000  1.0
  C  C61  1  0.03961000  0.41143000  0.19036000  1.0
  C  C62  1  0.95047000  0.71566000  0.71088000  1.0
  C  C63  1  0.04953000  0.28433000  0.28912000  1.0
  C  C64  1  0.80863000  0.78618000  0.73351000  1.0
  C  C65  1  0.19137000  0.21382000  0.26649000  1.0
  N  N66  1  0.26417000  0.01686000  0.82947000  1.0
  N  N67  1  0.73583000  0.98314000  0.17053000  1.0
  N  N68  1  0.68093000  0.73697000  0.84726000  1.0
  N  N69  1  0.31907000  0.26303000  0.15275000  1.0
  O  O70  1  0.34486000  0.68637000  0.79722000  1.0
  O  O71  1  0.65515000  0.31362000  0.20278000  1.0
  O  O72  1  0.51012000  0.85876000  0.62835000  1.0
  O  O73  1  0.48989000  0.14125000  0.37165000  1.0
  O  O74  1  0.38605000  0.96168000  0.16416000  1.0
  O  O75  1  0.61395000  0.03831000  0.83584000  1.0
  O  O76  1  0.37531000  0.76793000  0.07828000  1.0
  O  O77  1  0.62468000  0.23206000  0.92172000  1.0
