# generated using pymatgen
data_Mn2H15C19(NO5)3
_symmetry_space_group_name_H-M   'P 1'
_cell_length_a   13.09970000
_cell_length_b   15.32830000
_cell_length_c   15.32770000
_cell_angle_alpha   67.19640000
_cell_angle_beta   76.34820000
_cell_angle_gamma   76.34140000
_symmetry_Int_Tables_number   1
_chemical_formula_structural   Mn2H15C19(NO5)3
_chemical_formula_sum   'Mn8 H60 C76 N12 O60'
_cell_volume   2720.83960951
_cell_formula_units_Z   4
loop_
 _symmetry_equiv_pos_site_id
 _symmetry_equiv_pos_as_xyz
  1  'x, y, z'
loop_
 _atom_site_type_symbol
 _atom_site_label
 _atom_site_symmetry_multiplicity
 _atom_site_fract_x
 _atom_site_fract_y
 _atom_site_fract_z
 _atom_site_occupancy
  Mn  Mn0  1  0.15485000  0.70777000  0.54796000  1.0
  Mn  Mn1  1  0.34523000  0.45169000  0.29231000  1.0
  Mn  Mn2  1  0.84519000  0.29241000  0.45166000  1.0
  Mn  Mn3  1  0.65515000  0.54824000  0.70779000  1.0
  Mn  Mn4  1  0.87770000  0.68505000  0.67405000  1.0
  Mn  Mn5  1  0.62241000  0.32611000  0.31494000  1.0
  Mn  Mn6  1  0.12246000  0.31496000  0.32603000  1.0
  Mn  Mn7  1  0.37799000  0.67436000  0.68506000  1.0
  H  H8  1  0.98764000  0.36989000  0.75354000  1.0
  H  H9  1  0.51266000  0.24655000  0.63003000  1.0
  H  H10  1  0.01250000  0.63033000  0.24638000  1.0
  H  H11  1  0.48738000  0.75362000  0.36989000  1.0
  H  H12  1  0.18867000  0.45328000  0.47927000  1.0
  H  H13  1  0.31132000  0.52068000  0.54684000  1.0
  H  H14  1  0.81160000  0.54668000  0.52068000  1.0
  H  H15  1  0.68851000  0.47939000  0.45342000  1.0
  H  H16  1  0.04560000  0.99555000  0.55905000  1.0
  H  H17  1  0.45424000  0.44057000  0.00476000  1.0
  H  H18  1  0.95414000  0.00473000  0.44075000  1.0
  H  H19  1  0.54595000  0.55905000  0.99536000  1.0
  H  H20  1  0.32755000  0.91177000  0.68942000  1.0
  H  H21  1  0.17230000  0.31029000  0.08817000  1.0
  H  H22  1  0.67203000  0.08814000  0.31065000  1.0
  H  H23  1  0.82770000  0.68958000  0.91201000  1.0
  H  H24  1  0.05727000  0.61689000  0.76521000  1.0
  H  H25  1  0.44280000  0.23484000  0.38278000  1.0
  H  H26  1  0.94271000  0.38292000  0.23486000  1.0
  H  H27  1  0.55767000  0.76522000  0.61695000  1.0
  H  H28  1  0.04620000  0.73068000  0.71639000  1.0
  H  H29  1  0.45401000  0.28362000  0.26902000  1.0
  H  H30  1  0.95391000  0.26916000  0.28353000  1.0
  H  H31  1  0.54633000  0.71668000  0.73077000  1.0
  H  H32  1  0.36813000  0.68832000  0.48266000  1.0
  H  H33  1  0.13196000  0.51743000  0.31163000  1.0
  H  H34  1  0.63193000  0.31182000  0.51738000  1.0
  H  H35  1  0.86835000  0.48255000  0.68818000  1.0
  H  H36  1  0.31475000  0.74036000  0.38604000  1.0
  H  H37  1  0.18562000  0.61389000  0.25930000  1.0
  H  H38  1  0.68552000  0.25947000  0.61387000  1.0
  H  H39  1  0.81478000  0.38603000  0.74048000  1.0
  H  H40  1  0.66666667  0.85675000  0.61972000  1.0
  H  H41  1  0.83338000  0.38041000  0.14328000  1.0
  H  H42  1  0.33329000  0.14328000  0.38049000  1.0
  H  H43  1  0.16726000  0.61999000  0.85613000  1.0
  H  H44  1  0.71635000  0.03710000  0.73353000  1.0
  H  H45  1  0.78396000  0.26634000  0.96303000  1.0
  H  H46  1  0.28402000  0.96297000  0.26643000  1.0
  H  H47  1  0.21592000  0.73337000  0.03720000  1.0
  H  H48  1  0.79686000  0.07044000  0.61792000  1.0
  H  H49  1  0.70328000  0.38187000  0.92965000  1.0
  H  H50  1  0.20326000  0.92963000  0.38194000  1.0
  H  H51  1  0.29658000  0.61781000  0.07054000  1.0
  H  H52  1  0.83015000  0.95496000  0.70568000  1.0
  H  H53  1  0.67013000  0.29411000  0.04515000  1.0
  H  H54  1  0.17015000  0.04513000  0.29413000  1.0
  H  H55  1  0.33001000  0.70576000  0.95522000  1.0
  H  H56  1  0.62983000  0.09324000  0.54000000  1.0
  H  H57  1  0.87027000  0.46000000  0.90681000  1.0
  H  H58  1  0.36999000  0.90678000  0.46029000  1.0
  H  H59  1  0.13004000  0.53964000  0.09272000  1.0
  H  H60  1  0.55219000  0.05838000  0.65791000  1.0
  H  H61  1  0.94798000  0.34210000  0.94172000  1.0
  H  H62  1  0.44791000  0.94157000  0.34246000  1.0
  H  H63  1  0.05210000  0.65743000  0.05793000  1.0
  H  H64  1  0.56314000  0.99180000  0.58236000  1.0
  H  H65  1  0.93693000  0.41770000  0.00828000  1.0
  H  H66  1  0.43674000  0.00821000  0.41803000  1.0
  H  H67  1  0.06364000  0.58200000  0.99107000  1.0
  C  C68  1  0.06744000  0.25752000  0.69998000  1.0
  C  C69  1  0.43274000  0.29991000  0.74247000  1.0
  C  C70  1  0.93251000  0.74262000  0.29995000  1.0
  C  C71  1  0.56719000  0.70003000  0.25758000  1.0
  C  C72  1  0.04008000  0.35256000  0.69410000  1.0
  C  C73  1  0.46010000  0.30590000  0.64740000  1.0
  C  C74  1  0.96002000  0.64758000  0.30582000  1.0
  C  C75  1  0.53987000  0.69419000  0.35259000  1.0
  C  C76  1  0.08288000  0.42349000  0.61423000  1.0
  C  C77  1  0.41725000  0.38578000  0.57652000  1.0
  C  C78  1  0.91735000  0.57659000  0.38570000  1.0
  C  C79  1  0.58268000  0.61437000  0.42355000  1.0
  C  C80  1  0.15527000  0.39764000  0.54195000  1.0
  C  C81  1  0.34476000  0.45798000  0.60245000  1.0
  C  C82  1  0.84494000  0.60237000  0.45802000  1.0
  C  C83  1  0.65508000  0.54206000  0.39775000  1.0
  C  C84  1  0.18659000  0.30151000  0.55002000  1.0
  C  C85  1  0.31335000  0.44979000  0.69861000  1.0
  C  C86  1  0.81351000  0.69848000  0.44998000  1.0
  C  C87  1  0.68642000  0.55010000  0.30162000  1.0
  C  C88  1  0.14322000  0.22852000  0.63047000  1.0
  C  C89  1  0.35685000  0.36932000  0.77154000  1.0
  C  C90  1  0.85674000  0.77153000  0.36951000  1.0
  C  C91  1  0.64303000  0.63053000  0.22860000  1.0
  C  C92  1  0.16251000  0.12870000  0.63073000  1.0
  C  C93  1  0.33757000  0.36891000  0.87143000  1.0
  C  C94  1  0.83733000  0.87136000  0.36925000  1.0
  C  C95  1  0.66244000  0.63083000  0.12874000  1.0
  C  C96  1  0.09251000  0.10594000  0.58889000  1.0
  C  C97  1  0.40754000  0.41070000  0.89429000  1.0
  C  C98  1  0.90728000  0.89424000  0.41104000  1.0
  C  C99  1  0.59256000  0.58896000  0.10587000  1.0
  C  C100  1  0.10265000  0.01338000  0.58849000  1.0
  C  C101  1  0.39727000  0.41111000  0.98686000  1.0
  C  C102  1  0.89708000  0.98683000  0.41139000  1.0
  C  C103  1  0.60288000  0.58854000  0.01329000  1.0
  C  C104  1  0.18792000  0.94361000  0.62296000  1.0
  C  C105  1  0.31186000  0.37674000  0.05653000  1.0
  C  C106  1  0.81166000  0.05649000  0.37702000  1.0
  C  C107  1  0.68822000  0.62302000  0.94362000  1.0
  C  C108  1  0.26044000  0.96531000  0.66240000  1.0
  C  C109  1  0.23947000  0.33724000  0.03473000  1.0
  C  C110  1  0.73921000  0.03467000  0.33759000  1.0
  C  C111  1  0.76055000  0.66256000  0.96545000  1.0
  C  C112  1  0.24504000  0.05581000  0.66824000  1.0
  C  C113  1  0.25501000  0.33139000  0.94422000  1.0
  C  C114  1  0.75472000  0.94415000  0.33177000  1.0
  C  C115  1  0.74501000  0.66838000  0.05596000  1.0
  C  C116  1  0.05200000  0.52573000  0.60745000  1.0
  C  C117  1  0.44814000  0.39262000  0.47426000  1.0
  C  C118  1  0.94824000  0.47436000  0.39244000  1.0
  C  C119  1  0.55181000  0.60771000  0.52577000  1.0
  C  C120  1  0.26832000  0.27994000  0.47070000  1.0
  C  C121  1  0.23153000  0.52910000  0.72024000  1.0
  C  C122  1  0.73185000  0.71998000  0.52937000  1.0
  C  C123  1  0.76819000  0.47079000  0.28003000  1.0
  C  C124  1  0.00604000  0.18070000  0.54176000  1.0
  C  C125  1  0.49375000  0.45814000  0.81946000  1.0
  C  C126  1  0.99374000  0.81953000  0.45821000  1.0
  C  C127  1  0.50604000  0.54184000  0.18056000  1.0
  C  C128  1  0.20563000  0.84821000  0.61270000  1.0
  C  C129  1  0.29370000  0.38718000  0.15186000  1.0
  C  C130  1  0.79358000  0.15188000  0.38731000  1.0
  C  C131  1  0.70637000  0.61275000  0.84821000  1.0
  C  C132  1  0.72155000  0.87801000  0.64959000  1.0
  C  C133  1  0.77855000  0.35046000  0.12204000  1.0
  C  C134  1  0.27851000  0.12204000  0.35049000  1.0
  C  C135  1  0.22186000  0.64988000  0.87767000  1.0
  C  C136  1  0.76452000  0.01039000  0.67712000  1.0
  C  C137  1  0.73572000  0.32273000  0.98971000  1.0
  C  C138  1  0.23572000  0.98967000  0.32280000  1.0
  C  C139  1  0.26431000  0.67706000  0.01046000  1.0
  C  C140  1  0.60586000  0.03221000  0.60326000  1.0
  C  C141  1  0.89425000  0.39675000  0.96786000  1.0
  C  C142  1  0.39411000  0.96779000  0.39704000  1.0
  C  C143  1  0.10605000  0.60293000  0.03170000  1.0
  N  N144  1  0.01142000  0.18879000  0.78346000  1.0
  N  N145  1  0.48880000  0.21642000  0.81113000  1.0
  N  N146  1  0.98827000  0.81145000  0.21634000  1.0
  N  N147  1  0.51111000  0.78346000  0.18886000  1.0
  N  N148  1  0.31860000  0.07349000  0.71651000  1.0
  N  N149  1  0.18153000  0.28311000  0.92644000  1.0
  N  N150  1  0.68120000  0.92638000  0.28354000  1.0
  N  N151  1  0.81846000  0.71661000  0.07380000  1.0
  N  N152  1  0.69895000  0.96946000  0.64309000  1.0
  N  N153  1  0.80120000  0.35689000  0.03061000  1.0
  N  N154  1  0.30114000  0.03058000  0.35701000  1.0
  N  N155  1  0.19908000  0.64305000  0.96921000  1.0
  O  O156  1  0.05243000  0.10338000  0.80965000  1.0
  O  O157  1  0.44785000  0.19010000  0.89655000  1.0
  O  O158  1  0.94713000  0.89683000  0.19022000  1.0
  O  O159  1  0.55212000  0.80974000  0.10345000  1.0
  O  O160  1  0.92437000  0.22176000  0.82272000  1.0
  O  O161  1  0.57585000  0.17720000  0.77812000  1.0
  O  O162  1  0.07525000  0.77859000  0.17690000  1.0
  O  O163  1  0.42400000  0.82264000  0.22182000  1.0
  O  O164  1  0.96238000  0.54914000  0.65499000  1.0
  O  O165  1  0.53776000  0.34507000  0.45084000  1.0
  O  O166  1  0.03783000  0.45095000  0.34486000  1.0
  O  O167  1  0.46230000  0.65548000  0.54906000  1.0
  O  O168  1  0.11758000  0.58178000  0.55539000  1.0
  O  O169  1  0.38254000  0.44467000  0.41822000  1.0
  O  O170  1  0.88263000  0.41833000  0.44445000  1.0
  O  O171  1  0.61731000  0.55562000  0.58190000  1.0
  O  O172  1  0.25219000  0.33397000  0.38369000  1.0
  O  O173  1  0.24764000  0.61611000  0.66644000  1.0
  O  O174  1  0.74800000  0.66593000  0.61635000  1.0
  O  O175  1  0.75209000  0.38378000  0.33402000  1.0
  O  O176  1  0.34804000  0.21610000  0.48902000  1.0
  O  O177  1  0.15178000  0.51063000  0.78405000  1.0
  O  O178  1  0.65214000  0.78387000  0.51108000  1.0
  O  O179  1  0.84789000  0.48915000  0.21620000  1.0
  O  O180  1  0.03148000  0.24065000  0.45764000  1.0
  O  O181  1  0.46771000  0.54203000  0.75952000  1.0
  O  O182  1  0.96821000  0.75929000  0.54211000  1.0
  O  O183  1  0.53145000  0.45771000  0.24052000  1.0
  O  O184  1  0.91035000  0.18110000  0.58279000  1.0
  O  O185  1  0.58965000  0.41757000  0.81902000  1.0
  O  O186  1  0.08953000  0.81934000  0.41742000  1.0
  O  O187  1  0.41035000  0.58287000  0.18093000  1.0
  O  O188  1  0.12484000  0.81648000  0.60921000  1.0
  O  O189  1  0.37417000  0.39103000  0.18381000  1.0
  O  O190  1  0.87410000  0.18383000  0.39107000  1.0
  O  O191  1  0.62585000  0.60904000  0.81622000  1.0
  O  O192  1  0.30104000  0.80570000  0.60350000  1.0
  O  O193  1  0.19813000  0.39614000  0.19413000  1.0
  O  O194  1  0.69805000  0.19423000  0.39620000  1.0
  O  O195  1  0.80192000  0.60384000  0.80591000  1.0
  O  O196  1  0.30606000  0.15427000  0.72155000  1.0
  O  O197  1  0.19426000  0.27794000  0.84569000  1.0
  O  O198  1  0.69378000  0.84554000  0.27863000  1.0
  O  O199  1  0.80572000  0.72174000  0.15458000  1.0
  O  O200  1  0.79895000  0.81926000  0.68577000  1.0
  O  O201  1  0.70119000  0.31424000  0.18079000  1.0
  O  O202  1  0.20118000  0.18079000  0.31419000  1.0
  O  O203  1  0.29915000  0.68641000  0.81908000  1.0
  O  O204  1  0.00474000  0.67789000  0.75055000  1.0
  O  O205  1  0.49540000  0.24950000  0.32186000  1.0
  O  O206  1  0.99531000  0.32198000  0.24948000  1.0
  O  O207  1  0.50501000  0.75069000  0.67788000  1.0
  O  O208  1  0.30171000  0.70226000  0.45403000  1.0
  O  O209  1  0.19850000  0.54592000  0.29753000  1.0
  O  O210  1  0.69846000  0.29767000  0.54590000  1.0
  O  O211  1  0.80183000  0.45401000  0.70232000  1.0
  O  O212  1  0.38942000  0.00651000  0.74952000  1.0
  O  O213  1  0.11057000  0.25022000  0.99333000  1.0
  O  O214  1  0.61040000  0.99335000  0.25042000  1.0
  O  O215  1  0.88942000  0.74953000  0.00695000  1.0
