# generated using pymatgen
data_ZnH16C26N3(O2F3)3
_symmetry_space_group_name_H-M   'P 1'
_cell_length_a   16.20310000
_cell_length_b   17.06190000
_cell_length_c   17.08990000
_cell_angle_alpha   91.19110000
_cell_angle_beta   94.91220000
_cell_angle_gamma   90.57760000
_symmetry_Int_Tables_number   1
_chemical_formula_structural   ZnH16C26N3(O2F3)3
_chemical_formula_sum   'Zn2 H32 C52 N6 O12 F18'
_cell_volume   4705.89598063
_cell_formula_units_Z   2
loop_
 _symmetry_equiv_pos_site_id
 _symmetry_equiv_pos_as_xyz
  1  'x, y, z'
loop_
 _atom_site_type_symbol
 _atom_site_label
 _atom_site_symmetry_multiplicity
 _atom_site_fract_x
 _atom_site_fract_y
 _atom_site_fract_z
 _atom_site_occupancy
  Zn  Zn0  1  0.58512000  0.50106000  0.50401000  1.0
  Zn  Zn1  1  0.40722000  0.50400000  0.51110000  1.0
  H  H2  1  0.57898000  0.12577000  0.35270000  1.0
  H  H3  1  0.40681000  0.90794000  0.49446000  1.0
  H  H4  1  0.53050000  0.59491000  0.10523000  1.0
  H  H5  1  0.44353000  0.39509000  0.90021000  1.0
  H  H6  1  0.29812000  0.70147000  0.48237000  1.0
  H  H7  1  0.30271000  0.80168000  0.45463000  1.0
  H  H8  1  0.24227000  0.74476000  0.60914000  1.0
  H  H9  1  0.24743000  0.84359000  0.58053000  1.0
  H  H10  1  0.14485000  0.81342000  0.46323000  1.0
  H  H11  1  0.10239000  0.78872000  0.55200000  1.0
  H  H12  1  0.13987000  0.71405000  0.49112000  1.0
  H  H13  1  0.72776000  0.28384000  0.37761000  1.0
  H  H14  1  0.69280000  0.18606000  0.38951000  1.0
  H  H15  1  0.69233000  0.31894000  0.51342000  1.0
  H  H16  1  0.65292000  0.22371000  0.52457000  1.0
  H  H17  1  0.79420000  0.16622000  0.51047000  1.0
  H  H18  1  0.79718000  0.23507000  0.58989000  1.0
  H  H19  1  0.83577000  0.26173000  0.49985000  1.0
  H  H20  1  0.32402000  0.53096000  0.71822000  1.0
  H  H21  1  0.24353000  0.60247000  0.72355000  1.0
  H  H22  1  0.42763000  0.63826000  0.71110000  1.0
  H  H23  1  0.34988000  0.70944000  0.71614000  1.0
  H  H24  1  0.32112000  0.66295000  0.85161000  1.0
  H  H25  1  0.42635000  0.69181000  0.84937000  1.0
  H  H26  1  0.39884000  0.59083000  0.84633000  1.0
  H  H27  1  0.64368000  0.41600000  0.27011000  1.0
  H  H28  1  0.75172000  0.39656000  0.28555000  1.0
  H  H29  1  0.67334000  0.55991000  0.27785000  1.0
  H  H30  1  0.78098000  0.54258000  0.29321000  1.0
  H  H31  1  0.77947000  0.47441000  0.16070000  1.0
  H  H32  1  0.74171000  0.57134000  0.15166000  1.0
  H  H33  1  0.67132000  0.49103000  0.14394000  1.0
  C  C34  1  0.52138000  0.48222000  0.65733000  1.0
  C  C35  1  0.47163000  0.51631000  0.35680000  1.0
  C  C36  1  0.53069000  0.48051000  0.74596000  1.0
  C  C37  1  0.47047000  0.50450000  0.26915000  1.0
  C  C38  1  0.48216000  0.43066000  0.78841000  1.0
  C  C39  1  0.49991000  0.56185000  0.22041000  1.0
  C  C40  1  0.48268000  0.43376000  0.86902000  1.0
  C  C41  1  0.50714000  0.54938000  0.14147000  1.0
  C  C42  1  0.53349000  0.49003000  0.91188000  1.0
  C  C43  1  0.48404000  0.47571000  0.10707000  1.0
  C  C44  1  0.58439000  0.53930000  0.87133000  1.0
  C  C45  1  0.45212000  0.41781000  0.15382000  1.0
  C  C46  1  0.58273000  0.53390000  0.78958000  1.0
  C  C47  1  0.44598000  0.43254000  0.23374000  1.0
  C  C48  1  0.22663000  0.46003000  0.46985000  1.0
  C  C49  1  0.76582000  0.53227000  0.55724000  1.0
  C  C50  1  0.14069000  0.46066000  0.47009000  1.0
  C  C51  1  0.85183000  0.53011000  0.55944000  1.0
  C  C52  1  0.10503000  0.51081000  0.52417000  1.0
  C  C53  1  0.88743000  0.49280000  0.49649000  1.0
  C  C54  1  0.15998000  0.55525000  0.57617000  1.0
  C  C55  1  0.83345000  0.46260000  0.43429000  1.0
  C  C56  1  0.50363000  0.65056000  0.51279000  1.0
  C  C57  1  0.48473000  0.35586000  0.47252000  1.0
  C  C58  1  0.24605000  0.55040000  0.57368000  1.0
  C  C59  1  0.74726000  0.47020000  0.43421000  1.0
  C  C60  1  0.51073000  0.73502000  0.49100000  1.0
  C  C61  1  0.47604000  0.27210000  0.44327000  1.0
  C  C62  1  0.44874000  0.78987000  0.50534000  1.0
  C  C63  1  0.53752000  0.23325000  0.40273000  1.0
  C  C64  1  0.45397000  0.86645000  0.47977000  1.0
  C  C65  1  0.53073000  0.15341000  0.38369000  1.0
  C  C66  1  0.52012000  0.89191000  0.43837000  1.0
  C  C67  1  0.46362000  0.10788000  0.40374000  1.0
  C  C68  1  0.58156000  0.83776000  0.42381000  1.0
  C  C69  1  0.40026000  0.14659000  0.43924000  1.0
  C  C70  1  0.57715000  0.76120000  0.45047000  1.0
  C  C71  1  0.40638000  0.22637000  0.45812000  1.0
  C  C72  1  0.52629000  0.97458000  0.41922000  1.0
  C  C73  1  0.46278000  0.02249000  0.39718000  1.0
  C  C74  1  0.30476000  0.76238000  0.50521000  1.0
  C  C75  1  0.23723000  0.78303000  0.55800000  1.0
  C  C76  1  0.15143000  0.77438000  0.51375000  1.0
  C  C77  1  0.68449000  0.24771000  0.40792000  1.0
  C  C78  1  0.70057000  0.25716000  0.49672000  1.0
  C  C79  1  0.78662000  0.22854000  0.52573000  1.0
  C  C80  1  0.30493000  0.59091000  0.70323000  1.0
  C  C81  1  0.36880000  0.65089000  0.73608000  1.0
  C  C82  1  0.37922000  0.64894000  0.82576000  1.0
  C  C83  1  0.70342000  0.43930000  0.29605000  1.0
  C  C84  1  0.72241000  0.51916000  0.26388000  1.0
  C  C85  1  0.72913000  0.51347000  0.17519000  1.0
  N  N86  1  0.53356000  0.50430000  0.99286000  1.0
  N  N87  1  0.48924000  0.45645000  0.02758000  1.0
  N  N88  1  0.27713000  0.50270000  0.51961000  1.0
  N  N89  1  0.71578000  0.50391000  0.49753000  1.0
  N  N90  1  0.02054000  0.52778000  0.52591000  1.0
  N  N91  1  0.97180000  0.47538000  0.49471000  1.0
  O  O92  1  0.58474000  0.46844000  0.62135000  1.0
  O  O93  1  0.40457000  0.50407000  0.38735000  1.0
  O  O94  1  0.44928000  0.49980000  0.62883000  1.0
  O  O95  1  0.54194000  0.53497000  0.39073000  1.0
  O  O96  1  0.56990000  0.61560000  0.53603000  1.0
  O  O97  1  0.42153000  0.38673000  0.49935000  1.0
  O  O98  1  0.43140000  0.62037000  0.50343000  1.0
  O  O99  1  0.55459000  0.38969000  0.46926000  1.0
  O  O100  1  0.38498000  0.76985000  0.54923000  1.0
  O  O101  1  0.60350000  0.27477000  0.37916000  1.0
  O  O102  1  0.30044000  0.59570000  0.61732000  1.0
  O  O103  1  0.69053000  0.44266000  0.37964000  1.0
  F  F104  1  0.73112000  0.56516000  0.61754000  1.0
  F  F105  1  0.26024000  0.41443000  0.41733000  1.0
  F  F106  1  0.89781000  0.55879000  0.62289000  1.0
  F  F107  1  0.09502000  0.41687000  0.41629000  1.0
  F  F108  1  0.12910000  0.60537000  0.62776000  1.0
  F  F109  1  0.86614000  0.42521000  0.37385000  1.0
  F  F110  1  0.34296000  0.25567000  0.49537000  1.0
  F  F111  1  0.63825000  0.71230000  0.43264000  1.0
  F  F112  1  0.38743000  0.98793000  0.37601000  1.0
  F  F113  1  0.60313000  0.00794000  0.43624000  1.0
  F  F114  1  0.64610000  0.85831000  0.38279000  1.0
  F  F115  1  0.33364000  0.10645000  0.46122000  1.0
  F  F116  1  0.52195000  0.63325000  0.25312000  1.0
  F  F117  1  0.43172000  0.37737000  0.74715000  1.0
  F  F118  1  0.63399000  0.59383000  0.91005000  1.0
  F  F119  1  0.42924000  0.34664000  0.12318000  1.0
  F  F120  1  0.63024000  0.58451000  0.75293000  1.0
  F  F121  1  0.41815000  0.37409000  0.27698000  1.0
