# generated using pymatgen
data_Ag2HC3(NO)3
_symmetry_space_group_name_H-M   'P 1'
_cell_length_a   6.61337000
_cell_length_b   9.12219000
_cell_length_c   9.12222000
_cell_angle_alpha   91.24600000
_cell_angle_beta   95.09060000
_cell_angle_gamma   95.09050000
_symmetry_Int_Tables_number   1
_chemical_formula_structural   Ag2HC3(NO)3
_chemical_formula_sum   'Ag8 H4 C12 N12 O12'
_cell_volume   545.75299588
_cell_formula_units_Z   4
loop_
 _symmetry_equiv_pos_site_id
 _symmetry_equiv_pos_as_xyz
  1  'x, y, z'
loop_
 _atom_site_type_symbol
 _atom_site_label
 _atom_site_symmetry_multiplicity
 _atom_site_fract_x
 _atom_site_fract_y
 _atom_site_fract_z
 _atom_site_occupancy
  Ag  Ag0  1  0.92171000  0.02508000  0.85223000  1.0
  Ag  Ag1  1  0.57829000  0.14777000  0.97492000  1.0
  Ag  Ag2  1  0.07829000  0.97492000  0.14777000  1.0
  Ag  Ag3  1  0.42171000  0.85223000  0.02508000  1.0
  Ag  Ag4  1  0.00000000  0.50000000  0.50000000  1.0
  Ag  Ag5  1  0.50000000  0.50000000  0.50000000  1.0
  Ag  Ag6  1  0.25000000  0.32018000  0.67982000  1.0
  Ag  Ag7  1  0.75000000  0.67983000  0.32018000  1.0
  H  H8  1  0.77435000  0.49877000  0.03653000  1.0
  H  H9  1  0.72564000  0.96347000  0.50123000  1.0
  H  H10  1  0.22565000  0.50124000  0.96347000  1.0
  H  H11  1  0.27436000  0.03653000  0.49877000  1.0
  C  C12  1  0.84404000  0.70834000  0.95628000  1.0
  C  C13  1  0.65596000  0.04372000  0.29165000  1.0
  C  C14  1  0.15596000  0.29166000  0.04372000  1.0
  C  C15  1  0.34404000  0.95628000  0.70835000  1.0
  C  C16  1  0.65525000  0.50385000  0.81978000  1.0
  C  C17  1  0.84475000  0.18022000  0.49616000  1.0
  C  C18  1  0.34475000  0.49616000  0.18022000  1.0
  C  C19  1  0.15525000  0.81978000  0.50384000  1.0
  C  C20  1  0.72674000  0.73203000  0.70695000  1.0
  C  C21  1  0.77326000  0.29304000  0.26796000  1.0
  C  C22  1  0.27327000  0.26796000  0.29305000  1.0
  C  C23  1  0.22673000  0.70695000  0.73204000  1.0
  N  N24  1  0.82199000  0.79360000  0.83729000  1.0
  N  N25  1  0.67801000  0.16271000  0.20640000  1.0
  N  N26  1  0.17801000  0.20640000  0.16271000  1.0
  N  N27  1  0.32198000  0.83729000  0.79360000  1.0
  N  N28  1  0.76490000  0.56379000  0.94448000  1.0
  N  N29  1  0.73509000  0.05552000  0.43620000  1.0
  N  N30  1  0.23510000  0.43621000  0.05553000  1.0
  N  N31  1  0.26490000  0.94448000  0.56380000  1.0
  N  N32  1  0.64595000  0.58789000  0.69936000  1.0
  N  N33  1  0.85405000  0.30064000  0.41211000  1.0
  N  N34  1  0.35405000  0.41212000  0.30064000  1.0
  N  N35  1  0.14595000  0.69936000  0.58789000  1.0
  O  O36  1  0.56760000  0.37550000  0.82044000  1.0
  O  O37  1  0.93239000  0.17956000  0.62449000  1.0
  O  O38  1  0.43240000  0.62450000  0.17956000  1.0
  O  O39  1  0.06760000  0.82044000  0.37551000  1.0
  O  O40  1  0.93097000  0.75401000  0.08044000  1.0
  O  O41  1  0.56903000  0.91956000  0.24598000  1.0
  O  O42  1  0.06903000  0.24599000  0.91957000  1.0
  O  O43  1  0.43097000  0.08043000  0.75401000  1.0
  O  O44  1  0.71101000  0.80710000  0.59321000  1.0
  O  O45  1  0.78900000  0.40679000  0.19290000  1.0
  O  O46  1  0.28900000  0.19291000  0.40679000  1.0
  O  O47  1  0.21100000  0.59321000  0.80709000  1.0
