# generated using pymatgen
data_ZnPH15C17(NO3)2
_symmetry_space_group_name_H-M   'P 1'
_cell_length_a   6.82940000
_cell_length_b   9.89822000
_cell_length_c   12.28850000
_cell_angle_alpha   87.82140000
_cell_angle_beta   89.99970000
_cell_angle_gamma   89.99950000
_symmetry_Int_Tables_number   1
_chemical_formula_structural   ZnPH15C17(NO3)2
_chemical_formula_sum   'Zn2 P2 H30 C34 N4 O12'
_cell_volume   830.08869277
_cell_formula_units_Z   2
loop_
 _symmetry_equiv_pos_site_id
 _symmetry_equiv_pos_as_xyz
  1  'x, y, z'
loop_
 _atom_site_type_symbol
 _atom_site_label
 _atom_site_symmetry_multiplicity
 _atom_site_fract_x
 _atom_site_fract_y
 _atom_site_fract_z
 _atom_site_occupancy
  Zn  Zn0  1  0.13657000  0.67525000  0.75334000  1.0
  Zn  Zn1  1  0.63657000  0.32475000  0.24666000  1.0
  P  P2  1  0.30217000  0.63016000  0.49940000  1.0
  P  P3  1  0.80216000  0.36983000  0.50060000  1.0
  H  H4  1  0.61667000  0.58657000  0.52666000  1.0
  H  H5  1  0.11667000  0.41342000  0.47334000  1.0
  H  H6  1  0.72788000  0.71113000  0.73568000  1.0
  H  H7  1  0.22788000  0.28887000  0.26432000  1.0
  H  H8  1  0.81543000  0.58441000  0.67038000  1.0
  H  H9  1  0.31543000  0.41559000  0.32962000  1.0
  H  H10  1  0.18020000  0.37549000  0.68724000  1.0
  H  H11  1  0.68018000  0.62450000  0.31277000  1.0
  H  H12  1  0.15134000  0.14498000  0.78114000  1.0
  H  H13  1  0.65133000  0.85502000  0.21886000  1.0
  H  H14  1  0.10930000  0.13358000  0.98566000  1.0
  H  H15  1  0.60930000  0.86642000  0.01434000  1.0
  H  H16  1  0.09876000  0.34389000  0.08558000  1.0
  H  H17  1  0.59876000  0.65612000  0.91442000  1.0
  H  H18  1  0.14795000  0.52707000  0.15967000  1.0
  H  H19  1  0.64795000  0.47293000  0.84033000  1.0
  H  H20  1  0.13460000  0.75608000  0.23499000  1.0
  H  H21  1  0.63460000  0.24392000  0.76501000  1.0
  H  H22  1  0.12166000  0.95954000  0.10712000  1.0
  H  H23  1  0.62166000  0.04046000  0.89288000  1.0
  H  H24  1  0.12013000  0.92119000  0.90380000  1.0
  H  H25  1  0.62013000  0.07881000  0.09620000  1.0
  H  H26  1  0.46512000  0.87432000  0.38797000  1.0
  H  H27  1  0.96512000  0.12567000  0.61203000  1.0
  H  H28  1  0.30667000  0.07400000  0.29774000  1.0
  H  H29  1  0.80666000  0.92599000  0.70226000  1.0
  H  H30  1  0.74357000  0.92585000  0.40381000  1.0
  H  H31  1  0.24357000  0.07414000  0.59618000  1.0
  H  H32  1  0.90105000  0.72295000  0.49093000  1.0
  H  H33  1  0.40105000  0.27705000  0.50906000  1.0
  C  C34  1  0.16411000  0.36290000  0.77530000  1.0
  C  C35  1  0.66410000  0.63710000  0.22471000  1.0
  C  C36  1  0.14668000  0.23615000  0.82807000  1.0
  C  C37  1  0.64667000  0.76385000  0.17193000  1.0
  C  C38  1  0.12484000  0.23004000  0.94090000  1.0
  C  C39  1  0.62483000  0.76996000  0.05910000  1.0
  C  C40  1  0.12048000  0.34892000  0.99782000  1.0
  C  C41  1  0.62048000  0.65108000  0.00219000  1.0
  C  C42  1  0.13916000  0.47219000  0.93923000  1.0
  C  C43  1  0.63916000  0.52782000  0.06077000  1.0
  C  C44  1  0.13379000  0.60421000  0.99195000  1.0
  C  C45  1  0.63379000  0.39580000  0.00805000  1.0
  C  C46  1  0.13726000  0.61621000  0.10517000  1.0
  C  C47  1  0.63726000  0.38380000  0.89483000  1.0
  C  C48  1  0.13200000  0.74466000  0.14726000  1.0
  C  C49  1  0.63200000  0.25535000  0.85273000  1.0
  C  C50  1  0.12542000  0.85794000  0.07601000  1.0
  C  C51  1  0.62541000  0.14207000  0.92399000  1.0
  C  C52  1  0.12357000  0.83786000  0.96454000  1.0
  C  C53  1  0.62357000  0.16215000  0.03546000  1.0
  C  C54  1  0.19404000  0.78367000  0.44283000  1.0
  C  C55  1  0.69404000  0.21633000  0.55718000  1.0
  C  C56  1  0.30662000  0.88456000  0.38959000  1.0
  C  C57  1  0.80662000  0.11543000  0.61041000  1.0
  C  C58  1  0.21713000  0.99675000  0.33902000  1.0
  C  C59  1  0.71713000  0.00325000  0.66098000  1.0
  C  C60  1  0.01291000  0.01038000  0.34148000  1.0
  C  C61  1  0.51291000  0.98962000  0.65852000  1.0
  C  C62  1  0.90114000  0.91177000  0.39824000  1.0
  C  C63  1  0.40115000  0.08824000  0.60176000  1.0
  C  C64  1  0.98999000  0.79909000  0.44786000  1.0
  C  C65  1  0.48999000  0.20091000  0.55214000  1.0
  C  C66  1  0.91406000  0.12828000  0.28476000  1.0
  C  C67  1  0.41406000  0.87172000  0.71524000  1.0
  N  N68  1  0.16090000  0.47744000  0.83004000  1.0
  N  N69  1  0.66090000  0.52256000  0.16996000  1.0
  N  N70  1  0.12706000  0.71427000  0.92385000  1.0
  N  N71  1  0.62707000  0.28573000  0.07615000  1.0
  O  O72  1  0.24937000  0.51517000  0.42419000  1.0
  O  O73  1  0.74936000  0.48483000  0.57581000  1.0
  O  O74  1  0.52727000  0.66454000  0.49476000  1.0
  O  O75  1  0.02727000  0.33545000  0.50523000  1.0
  O  O76  1  0.22876000  0.59869000  0.61409000  1.0
  O  O77  1  0.72875000  0.40130000  0.38591000  1.0
  O  O78  1  0.01534000  0.21917000  0.23582000  1.0
  O  O79  1  0.51534000  0.78083000  0.76418000  1.0
  O  O80  1  0.72554000  0.13112000  0.28776000  1.0
  O  O81  1  0.22554000  0.86887000  0.71224000  1.0
  O  O82  1  0.84308000  0.64913000  0.72947000  1.0
  O  O83  1  0.34308000  0.35086000  0.27053000  1.0
