# generated using pymatgen
data_ZnPH6C3NO3
_symmetry_space_group_name_H-M   'P 1'
_cell_length_a   6.22289000
_cell_length_b   8.48553000
_cell_length_c   10.66340000
_cell_angle_alpha   90.00000000
_cell_angle_beta   90.00000000
_cell_angle_gamma   101.23600000
_symmetry_Int_Tables_number   1
_chemical_formula_structural   ZnPH6C3NO3
_chemical_formula_sum   'Zn4 P4 H24 C12 N4 O12'
_cell_volume   552.28319933
_cell_formula_units_Z   4
loop_
 _symmetry_equiv_pos_site_id
 _symmetry_equiv_pos_as_xyz
  1  'x, y, z'
loop_
 _atom_site_type_symbol
 _atom_site_label
 _atom_site_symmetry_multiplicity
 _atom_site_fract_x
 _atom_site_fract_y
 _atom_site_fract_z
 _atom_site_occupancy
  Zn  Zn0  1  0.84039000  0.27494000  0.10495000  1.0
  Zn  Zn1  1  0.65961000  0.22506000  0.60495000  1.0
  Zn  Zn2  1  0.15961000  0.72506000  0.89505000  1.0
  Zn  Zn3  1  0.34039000  0.77494000  0.39505000  1.0
  P  P4  1  0.75309000  0.09519000  0.34303000  1.0
  P  P5  1  0.74691000  0.40481000  0.84303000  1.0
  P  P6  1  0.24691000  0.90481000  0.65697000  1.0
  P  P7  1  0.25309000  0.59519000  0.15697000  1.0
  H  H8  1  0.13796000  0.15427000  0.28991000  1.0
  H  H9  1  0.36204000  0.34572000  0.78991000  1.0
  H  H10  1  0.86204000  0.84573000  0.71009000  1.0
  H  H11  1  0.63796000  0.65428000  0.21009000  1.0
  H  H12  1  0.03654000  0.94315000  0.29239000  1.0
  H  H13  1  0.46346000  0.55685000  0.79239000  1.0
  H  H14  1  0.96346000  0.05685000  0.70761000  1.0
  H  H15  1  0.53654000  0.44316000  0.20761000  1.0
  H  H16  1  0.30092000  0.18805000  0.09588000  1.0
  H  H17  1  0.19908000  0.31195000  0.59588000  1.0
  H  H18  1  0.69908000  0.81195000  0.90412000  1.0
  H  H19  1  0.80092000  0.68805000  0.40412000  1.0
  H  H20  1  0.26545000  0.97435000  0.09517000  1.0
  H  H21  1  0.23455000  0.52565000  0.59517000  1.0
  H  H22  1  0.73455000  0.02565000  0.90483000  1.0
  H  H23  1  0.76545000  0.47435000  0.40483000  1.0
  H  H24  1  0.66384000  0.91279000  0.11884000  1.0
  H  H25  1  0.83616000  0.58721000  0.61884000  1.0
  H  H26  1  0.33616000  0.08721000  0.88116000  1.0
  H  H27  1  0.16384000  0.41279000  0.38116000  1.0
  H  H28  1  0.88985000  0.81314000  0.10731000  1.0
  H  H29  1  0.61015000  0.68686000  0.60731000  1.0
  H  H30  1  0.11015000  0.18686000  0.89269000  1.0
  H  H31  1  0.38985000  0.31314000  0.39268000  1.0
  C  C32  1  0.99993000  0.05923000  0.26312000  1.0
  C  C33  1  0.50007000  0.44077000  0.76312000  1.0
  C  C34  1  0.00007000  0.94077000  0.73688000  1.0
  C  C35  1  0.49993000  0.55923000  0.23688000  1.0
  C  C36  1  0.19372000  0.07706000  0.06435000  1.0
  C  C37  1  0.30628000  0.42294000  0.56435000  1.0
  C  C38  1  0.80628000  0.92294000  0.93565000  1.0
  C  C39  1  0.69372000  0.57706000  0.43565000  1.0
  C  C40  1  0.82627000  0.91972000  0.07695000  1.0
  C  C41  1  0.67373000  0.58028000  0.57695000  1.0
  C  C42  1  0.17373000  0.08028000  0.92305000  1.0
  C  C43  1  0.32627000  0.41972000  0.42305000  1.0
  N  N44  1  0.97612000  0.06569000  0.12447000  1.0
  N  N45  1  0.52388000  0.43431000  0.62447000  1.0
  N  N46  1  0.02388000  0.93431000  0.87553000  1.0
  N  N47  1  0.47612000  0.56569000  0.37553000  1.0
  O  O48  1  0.65627000  0.20926000  0.25573000  1.0
  O  O49  1  0.84374000  0.29074000  0.75573000  1.0
  O  O50  1  0.34373000  0.79074000  0.74427000  1.0
  O  O51  1  0.15626000  0.70926000  0.24427000  1.0
  O  O52  1  0.83531000  0.17632000  0.46839000  1.0
  O  O53  1  0.66469000  0.32368000  0.96839000  1.0
  O  O54  1  0.16469000  0.82368000  0.53161000  1.0
  O  O55  1  0.33531000  0.67632000  0.03161000  1.0
  O  O56  1  0.60163000  0.93226000  0.35938000  1.0
  O  O57  1  0.89837000  0.56773000  0.85939000  1.0
  O  O58  1  0.39837000  0.06773000  0.64062000  1.0
  O  O59  1  0.10163000  0.43226000  0.14062000  1.0
