# generated using pymatgen
data_TbH5C4SN2O7
_symmetry_space_group_name_H-M   'P 1'
_cell_length_a   6.48158000
_cell_length_b   11.18510000
_cell_length_c   12.16920000
_cell_angle_alpha   108.28500000
_cell_angle_beta   90.00000000
_cell_angle_gamma   89.99990000
_symmetry_Int_Tables_number   1
_chemical_formula_structural   TbH5C4SN2O7
_chemical_formula_sum   'Tb4 H20 C16 S4 N8 O28'
_cell_volume   837.68599181
_cell_formula_units_Z   4
loop_
 _symmetry_equiv_pos_site_id
 _symmetry_equiv_pos_as_xyz
  1  'x, y, z'
loop_
 _atom_site_type_symbol
 _atom_site_label
 _atom_site_symmetry_multiplicity
 _atom_site_fract_x
 _atom_site_fract_y
 _atom_site_fract_z
 _atom_site_occupancy
  Tb  Tb0  1  0.86382000  0.16009000  0.60682000  1.0
  Tb  Tb1  1  0.36382000  0.83991000  0.89318000  1.0
  Tb  Tb2  1  0.13618000  0.83991000  0.39318000  1.0
  Tb  Tb3  1  0.63618000  0.16009000  0.10682000  1.0
  H  H4  1  0.72107000  0.56361000  0.44074000  1.0
  H  H5  1  0.22108000  0.43639000  0.05926000  1.0
  H  H6  1  0.27893000  0.43639000  0.55925000  1.0
  H  H7  1  0.77893000  0.56361000  0.94074000  1.0
  H  H8  1  0.77819000  0.51512000  0.76915000  1.0
  H  H9  1  0.27819000  0.48489000  0.73085000  1.0
  H  H10  1  0.22181000  0.48489000  0.23085000  1.0
  H  H11  1  0.72181000  0.51512000  0.26915000  1.0
  H  H12  1  0.72411000  0.66995000  0.65426000  1.0
  H  H13  1  0.22412000  0.33005000  0.84574000  1.0
  H  H14  1  0.27588000  0.33005000  0.34574000  1.0
  H  H15  1  0.77588000  0.66995000  0.15426000  1.0
  H  H16  1  0.04217000  0.08643000  0.80354000  1.0
  H  H17  1  0.54217000  0.91357000  0.69646000  1.0
  H  H18  1  0.95783000  0.91357000  0.19646000  1.0
  H  H19  1  0.45783000  0.08643000  0.30354000  1.0
  H  H20  1  0.06909000  0.96627000  0.68768000  1.0
  H  H21  1  0.56909000  0.03373000  0.81232000  1.0
  H  H22  1  0.93091000  0.03373000  0.31232000  1.0
  H  H23  1  0.43091000  0.96627000  0.18768000  1.0
  C  C24  1  0.73917000  0.51278000  0.50242000  1.0
  C  C25  1  0.23917000  0.48722000  0.99758000  1.0
  C  C26  1  0.26083000  0.48722000  0.49758000  1.0
  C  C27  1  0.76083000  0.51278000  0.00242000  1.0
  C  C28  1  0.77206000  0.48997000  0.67604000  1.0
  C  C29  1  0.27206000  0.51003000  0.82396000  1.0
  C  C30  1  0.22795000  0.51003000  0.32396000  1.0
  C  C31  1  0.72794000  0.48997000  0.17604000  1.0
  C  C32  1  0.76782000  0.38739000  0.49204000  1.0
  C  C33  1  0.26782000  0.61261000  0.00796000  1.0
  C  C34  1  0.23218000  0.61261000  0.50796000  1.0
  C  C35  1  0.73218000  0.38739000  0.99204000  1.0
  C  C36  1  0.77956000  0.27295000  0.39155000  1.0
  C  C37  1  0.27956000  0.72705000  0.10845000  1.0
  C  C38  1  0.22044000  0.72705000  0.60845000  1.0
  C  C39  1  0.72044000  0.27295000  0.89155000  1.0
  S  S40  1  0.32226000  0.16393000  0.53966000  1.0
  S  S41  1  0.82226000  0.83607000  0.96034000  1.0
  S  S42  1  0.67774000  0.83607000  0.46034000  1.0
  S  S43  1  0.17774000  0.16393000  0.03966000  1.0
  N  N44  1  0.74363000  0.57521000  0.61866000  1.0
  N  N45  1  0.24363000  0.42479000  0.88134000  1.0
  N  N46  1  0.25637000  0.42479000  0.38134000  1.0
  N  N47  1  0.75637000  0.57521000  0.11866000  1.0
  N  N48  1  0.78841000  0.37510000  0.60135000  1.0
  N  N49  1  0.28841000  0.62490000  0.89865000  1.0
  N  N50  1  0.21159000  0.62490000  0.39865000  1.0
  N  N51  1  0.71159000  0.37510000  0.10135000  1.0
  O  O52  1  0.72569000  0.27793000  0.29287000  1.0
  O  O53  1  0.22569000  0.72207000  0.20713000  1.0
  O  O54  1  0.27431000  0.72207000  0.70713000  1.0
  O  O55  1  0.77431000  0.27793000  0.79287000  1.0
  O  O56  1  0.84474000  0.17396000  0.41275000  1.0
  O  O57  1  0.34474000  0.82604000  0.08725000  1.0
  O  O58  1  0.15526000  0.82604000  0.58725000  1.0
  O  O59  1  0.65526000  0.17396000  0.91275000  1.0
  O  O60  1  0.50936000  0.13674000  0.59697000  1.0
  O  O61  1  0.00936000  0.86326000  0.90303000  1.0
  O  O62  1  0.49064000  0.86326000  0.40303000  1.0
  O  O63  1  0.99064000  0.13674000  0.09697000  1.0
  O  O64  1  0.37273000  0.19857000  0.43619000  1.0
  O  O65  1  0.87273000  0.80143000  0.06381000  1.0
  O  O66  1  0.62727000  0.80143000  0.56381000  1.0
  O  O67  1  0.12727000  0.19858000  0.93619000  1.0
  O  O68  1  0.19547000  0.26335000  0.62418000  1.0
  O  O69  1  0.69547000  0.73665000  0.87582000  1.0
  O  O70  1  0.80453000  0.73665000  0.37582000  1.0
  O  O71  1  0.30453000  0.26335000  0.12418000  1.0
  O  O72  1  0.18097000  0.05064000  0.50811000  1.0
  O  O73  1  0.68097000  0.94936000  0.99189000  1.0
  O  O74  1  0.81903000  0.94936000  0.49189000  1.0
  O  O75  1  0.31903000  0.05064000  0.00811000  1.0
  O  O76  1  0.99115000  0.04564000  0.72401000  1.0
  O  O77  1  0.49115000  0.95436000  0.77599000  1.0
  O  O78  1  0.00885000  0.95436000  0.27599000  1.0
  O  O79  1  0.50885000  0.04564000  0.22401000  1.0
