# generated using pymatgen
data_Cu2Mo4H16C22N4O15
_symmetry_space_group_name_H-M   'P 1'
_cell_length_a   10.85060000
_cell_length_b   11.71960000
_cell_length_c   13.55840000
_cell_angle_alpha   98.03610000
_cell_angle_beta   102.54000000
_cell_angle_gamma   117.49500000
_symmetry_Int_Tables_number   1
_chemical_formula_structural   Cu2Mo4H16C22N4O15
_chemical_formula_sum   'Cu4 Mo8 H32 C44 N8 O30'
_cell_volume   1434.41467466
_cell_formula_units_Z   2
loop_
 _symmetry_equiv_pos_site_id
 _symmetry_equiv_pos_as_xyz
  1  'x, y, z'
loop_
 _atom_site_type_symbol
 _atom_site_label
 _atom_site_symmetry_multiplicity
 _atom_site_fract_x
 _atom_site_fract_y
 _atom_site_fract_z
 _atom_site_occupancy
  Cu  Cu0  1  0.47128000  0.28965000  0.09315000  1.0
  Cu  Cu1  1  0.52872000  0.71034000  0.90685000  1.0
  Cu  Cu2  1  0.99686000  0.03062000  0.31779000  1.0
  Cu  Cu3  1  0.00314000  0.96938000  0.68221000  1.0
  Mo  Mo4  1  0.31694000  0.31073000  0.30381000  1.0
  Mo  Mo5  1  0.68307000  0.68927000  0.69619000  1.0
  Mo  Mo6  1  0.42165000  0.61123000  0.48909000  1.0
  Mo  Mo7  1  0.57835000  0.38878000  0.51091000  1.0
  Mo  Mo8  1  0.23251000  0.33233000  0.53695000  1.0
  Mo  Mo9  1  0.76749000  0.66767000  0.46305000  1.0
  Mo  Mo10  1  0.49820000  0.59260000  0.24499000  1.0
  Mo  Mo11  1  0.50180000  0.40739000  0.75502000  1.0
  H  H12  1  0.16695000  0.09491000  0.06698000  1.0
  H  H13  1  0.83305000  0.90509000  0.93302000  1.0
  H  H14  1  0.95246000  0.12805000  0.05026000  1.0
  H  H15  1  0.04754000  0.87195000  0.94974000  1.0
  H  H16  1  0.15929000  0.44524000  0.91054000  1.0
  H  H17  1  0.84071000  0.55476000  0.08946000  1.0
  H  H18  1  0.37204000  0.40989000  0.94262000  1.0
  H  H19  1  0.62797000  0.59011000  0.05738000  1.0
  H  H20  1  0.65793000  0.28441000  0.96908000  1.0
  H  H21  1  0.34207000  0.71559000  0.03092000  1.0
  H  H22  1  0.05999000  0.37016000  0.19421000  1.0
  H  H23  1  0.94001000  0.62984000  0.80580000  1.0
  H  H24  1  0.94228000  0.37011000  0.33442000  1.0
  H  H25  1  0.05772000  0.62990000  0.66559000  1.0
  H  H26  1  0.68578000  0.32593000  0.28444000  1.0
  H  H27  1  0.31422000  0.67407000  0.71556000  1.0
  H  H28  1  0.79264000  0.98600000  0.11588000  1.0
  H  H29  1  0.20736000  0.01400000  0.88412000  1.0
  H  H30  1  0.54764000  0.96149000  0.05498000  1.0
  H  H31  1  0.45236000  0.03851000  0.94502000  1.0
  H  H32  1  0.55637000  0.02123000  0.37962000  1.0
  H  H33  1  0.44363000  0.97876000  0.62038000  1.0
  H  H34  1  0.80022000  0.03948000  0.42649000  1.0
  H  H35  1  0.19978000  0.96051000  0.57351000  1.0
  H  H36  1  0.17728000  0.02573000  0.19540000  1.0
  H  H37  1  0.82273000  0.97427000  0.80460000  1.0
  H  H38  1  0.35654000  0.78875000  0.30427000  1.0
  H  H39  1  0.64346000  0.21125000  0.69573000  1.0
  H  H40  1  0.18878000  0.72763000  0.41261000  1.0
  H  H41  1  0.81123000  0.27238000  0.58739000  1.0
  H  H42  1  0.03025000  0.82829000  0.41321000  1.0
  H  H43  1  0.96975000  0.17171000  0.58679000  1.0
  C  C44  1  0.16174000  0.17320000  0.03492000  1.0
  C  C45  1  0.83826000  0.82680000  0.96508000  1.0
  C  C46  1  0.04285000  0.19182000  0.02486000  1.0
  C  C47  1  0.95714000  0.80818000  0.97514000  1.0
  C  C48  1  0.04325000  0.29565000  0.98483000  1.0
  C  C49  1  0.95675000  0.70435000  0.01517000  1.0
  C  C50  1  0.15887000  0.36894000  0.94798000  1.0
  C  C51  1  0.84112000  0.63106000  0.05202000  1.0
  C  C52  1  0.27721000  0.34883000  0.96523000  1.0
  C  C53  1  0.72279000  0.65117000  0.03476000  1.0
  C  C54  1  0.92706000  0.33111000  0.98129000  1.0
  C  C55  1  0.07294000  0.66889000  0.01871000  1.0
  C  C56  1  0.72241000  0.30020000  0.04886000  1.0
  C  C57  1  0.27759000  0.69980000  0.95114000  1.0
  C  C58  1  0.86528000  0.32301000  0.07001000  1.0
  C  C59  1  0.13472000  0.67699000  0.92999000  1.0
  C  C60  1  0.94677000  0.34772000  0.17415000  1.0
  C  C61  1  0.05323000  0.65228000  0.82586000  1.0
  C  C62  1  0.88196000  0.34884000  0.25226000  1.0
  C  C63  1  0.11804000  0.65116000  0.74775000  1.0
  C  C64  1  0.73911000  0.32471000  0.22520000  1.0
  C  C65  1  0.26089000  0.67529000  0.77480000  1.0
  C  C66  1  0.73643000  0.99303000  0.17175000  1.0
  C  C67  1  0.26357000  0.00696000  0.82824000  1.0
  C  C68  1  0.59916000  0.97917000  0.13823000  1.0
  C  C69  1  0.40085000  0.02083000  0.86177000  1.0
  C  C70  1  0.52776000  0.98434000  0.21188000  1.0
  C  C71  1  0.47224000  0.01566000  0.78812000  1.0
  C  C72  1  0.60268000  0.00967000  0.31797000  1.0
  C  C73  1  0.39732000  0.99032000  0.68203000  1.0
  C  C74  1  0.73991000  0.02213000  0.34527000  1.0
  C  C75  1  0.26009000  0.97786000  0.65473000  1.0
  C  C76  1  0.37670000  0.96177000  0.17547000  1.0
  C  C77  1  0.62330000  0.03823000  0.82453000  1.0
  C  C78  1  0.18413000  0.96142000  0.24388000  1.0
  C  C79  1  0.81587000  0.03858000  0.75613000  1.0
  C  C80  1  0.28303000  0.91713000  0.24364000  1.0
  C  C81  1  0.71697000  0.08287000  0.75636000  1.0
  C  C82  1  0.28622000  0.83126000  0.30521000  1.0
  C  C83  1  0.71378000  0.16874000  0.69478000  1.0
  C  C84  1  0.19213000  0.79616000  0.36522000  1.0
  C  C85  1  0.80787000  0.20384000  0.63478000  1.0
  C  C86  1  0.10233000  0.85069000  0.36526000  1.0
  C  C87  1  0.89767000  0.14931000  0.63474000  1.0
  N  N88  1  0.28275000  0.25606000  0.01275000  1.0
  N  N89  1  0.71724000  0.74394000  0.98725000  1.0
  N  N90  1  0.65955000  0.30000000  0.12442000  1.0
  N  N91  1  0.34045000  0.70000000  0.87559000  1.0
  N  N92  1  0.80633000  0.01257000  0.27356000  1.0
  N  N93  1  0.19367000  0.98743000  0.72643000  1.0
  N  N94  1  0.09861000  0.93363000  0.30588000  1.0
  N  N95  1  0.90140000  0.06637000  0.69412000  1.0
  O  O96  1  0.88586000  0.37001000  0.90779000  1.0
  O  O97  1  0.11413000  0.62999000  0.09221000  1.0
  O  O98  1  0.32969000  0.97899000  0.09028000  1.0
  O  O99  1  0.67031000  0.02101000  0.90971000  1.0
  O  O100  1  0.40016000  0.24743000  0.23545000  1.0
  O  O101  1  0.59984000  0.75257000  0.76455000  1.0
  O  O102  1  0.25741000  0.42703000  0.42488000  1.0
  O  O103  1  0.74259000  0.57297000  0.57512000  1.0
  O  O104  1  0.13113000  0.18937000  0.25790000  1.0
  O  O105  1  0.86887000  0.81064000  0.74210000  1.0
  O  O106  1  0.53430000  0.49286000  0.40708000  1.0
  O  O107  1  0.46569000  0.50714000  0.59292000  1.0
  O  O108  1  0.36970000  0.27075000  0.43881000  1.0
  O  O109  1  0.63030000  0.72925000  0.56119000  1.0
  O  O110  1  0.31400000  0.43653000  0.23000000  1.0
  O  O111  1  0.68600000  0.56346000  0.77000000  1.0
  O  O112  1  0.42291000  0.65926000  0.37067000  1.0
  O  O113  1  0.57709000  0.34074000  0.62933000  1.0
  O  O114  1  0.34625000  0.68673000  0.55084000  1.0
  O  O115  1  0.65375000  0.31327000  0.44917000  1.0
  O  O116  1  0.08587000  0.17320000  0.46283000  1.0
  O  O117  1  0.91413000  0.82680000  0.53716000  1.0
  O  O118  1  0.15621000  0.40568000  0.59978000  1.0
  O  O119  1  0.84379000  0.59432000  0.40022000  1.0
  O  O120  1  0.68013000  0.71826000  0.35243000  1.0
  O  O121  1  0.31987000  0.28173000  0.64757000  1.0
  O  O122  1  0.56003000  0.50209000  0.17805000  1.0
  O  O123  1  0.43996000  0.49791000  0.82195000  1.0
  O  O124  1  0.46310000  0.68015000  0.16332000  1.0
  O  O125  1  0.53689000  0.31985000  0.83668000  1.0
