# generated using pymatgen
data_Zn4H11C28S2Br2O13F
_symmetry_space_group_name_H-M   'P 1'
_cell_length_a   18.46410000
_cell_length_b   19.65690000
_cell_length_c   32.66360000
_cell_angle_alpha   86.17190000
_cell_angle_beta   73.75840000
_cell_angle_gamma   62.30350000
_symmetry_Int_Tables_number   1
_chemical_formula_structural   Zn4H11C28S2Br2O13F
_chemical_formula_sum   'Zn16 H44 C112 S8 Br8 O52 F4'
_cell_volume   10049.97731727
_cell_formula_units_Z   4
loop_
 _symmetry_equiv_pos_site_id
 _symmetry_equiv_pos_as_xyz
  1  'x, y, z'
loop_
 _atom_site_type_symbol
 _atom_site_label
 _atom_site_symmetry_multiplicity
 _atom_site_fract_x
 _atom_site_fract_y
 _atom_site_fract_z
 _atom_site_occupancy
  Zn  Zn0  1  0.87488000  0.55044000  0.51847000  1.0
  Zn  Zn1  1  0.04284000  0.48136000  0.43785000  1.0
  Zn  Zn2  1  0.04832000  0.39984000  0.52403000  1.0
  Zn  Zn3  1  0.04197000  0.56608000  0.51701000  1.0
  Zn  Zn4  1  0.62501000  0.18909000  0.73335000  1.0
  Zn  Zn5  1  0.46849000  0.35154000  0.72540000  1.0
  Zn  Zn6  1  0.45165000  0.26788000  0.81166000  1.0
  Zn  Zn7  1  0.45245000  0.19593000  0.72632000  1.0
  Zn  Zn8  1  0.46515000  0.76077000  0.31391000  1.0
  Zn  Zn9  1  0.45832000  0.68606000  0.23147000  1.0
  Zn  Zn10  1  0.62613000  0.69736000  0.23017000  1.0
  Zn  Zn11  1  0.45302000  0.84973000  0.22787000  1.0
  Zn  Zn12  1  0.03289000  0.90073000  0.02505000  1.0
  Zn  Zn13  1  0.05564000  0.05434000  0.01801000  1.0
  Zn  Zn14  1  0.87543000  0.06163000  0.02063000  1.0
  Zn  Zn15  1  0.03267000  0.98816000  0.93764000  1.0
  H  H16  1  0.80118000  0.95992000  0.65757000  1.0
  H  H17  1  0.32240000  0.97334000  0.40465000  1.0
  H  H18  1  0.82282000  0.23612000  0.65792000  1.0
  H  H19  1  0.55836000  0.47232000  0.61889000  1.0
  H  H20  1  0.56049000  0.51689000  0.66398000  1.0
  H  H21  1  0.66200000  0.55991000  0.61523000  1.0
  H  H22  1  0.66020000  0.51489000  0.57027000  1.0
  H  H23  1  0.28234000  0.61238000  0.29488000  1.0
  H  H24  1  0.35498000  0.66453000  0.43393000  1.0
  H  H25  1  0.26607000  0.75565000  0.43351000  1.0
  H  H26  1  0.16637000  0.70753000  0.47849000  1.0
  H  H27  1  0.25518000  0.61659000  0.47932000  1.0
  H  H28  1  0.81505000  0.59759000  0.29371000  1.0
  H  H29  1  0.55653000  0.76029000  0.43064000  1.0
  H  H30  1  0.54899000  0.67289000  0.43256000  1.0
  H  H31  1  0.65069000  0.61943000  0.47807000  1.0
  H  H32  1  0.65809000  0.70681000  0.47649000  1.0
  H  H33  1  0.31900000  0.46365000  0.64295000  1.0
  H  H34  1  0.31800000  0.19342000  0.63195000  1.0
  H  H35  1  0.22559000  0.24056000  0.67605000  1.0
  H  H36  1  0.13503000  0.29450000  0.62482000  1.0
  H  H37  1  0.22767000  0.24816000  0.58088000  1.0
  H  H38  1  0.18099000  0.66172000  0.96262000  1.0
  H  H39  1  0.68117000  0.14385000  0.95975000  1.0
  H  H40  1  0.94041000  0.08788000  0.81972000  1.0
  H  H41  1  0.94223000  0.99629000  0.82101000  1.0
  H  H42  1  0.83863000  0.04260000  0.77636000  1.0
  H  H43  1  0.83715000  0.13396000  0.77504000  1.0
  H  H44  1  0.18066000  0.05896000  0.84201000  1.0
  H  H45  1  0.18289000  0.20715000  0.97279000  1.0
  H  H46  1  0.27522000  0.11753000  0.97104000  1.0
  H  H47  1  0.36604000  0.16752000  0.91894000  1.0
  H  H48  1  0.27351000  0.25664000  0.92040000  1.0
  H  H49  1  0.93867000  0.28813000  0.09012000  1.0
  H  H50  1  0.18465000  0.79164000  0.10643000  1.0
  H  H51  1  0.27325000  0.01812000  0.07431000  1.0
  H  H52  1  0.18118000  0.06341000  0.11882000  1.0
  H  H53  1  0.27276000  0.00862000  0.16921000  1.0
  H  H54  1  0.36516000  0.96443000  0.12481000  1.0
  H  H55  1  0.68183000  0.01262000  0.09385000  1.0
  H  H56  1  0.94067000  0.72937000  0.08680000  1.0
  H  H57  1  0.94271000  0.77194000  0.13272000  1.0
  H  H58  1  0.83890000  0.73034000  0.17987000  1.0
  H  H59  1  0.83711000  0.68716000  0.13417000  1.0
  C  C60  1  0.87014000  0.56495000  0.42912000  1.0
  C  C61  1  0.12000000  0.31389000  0.44011000  1.0
  C  C62  1  0.87689000  0.42073000  0.57090000  1.0
  C  C63  1  0.14646000  0.44585000  0.56400000  1.0
  C  C64  1  0.86488000  0.68221000  0.56157000  1.0
  C  C65  1  0.13559000  0.56910000  0.42996000  1.0
  C  C66  1  0.64934000  0.31142000  0.68380000  1.0
  C  C67  1  0.37909000  0.43702000  0.81000000  1.0
  C  C68  1  0.62266000  0.17799000  0.82470000  1.0
  C  C69  1  0.35640000  0.18240000  0.81187000  1.0
  C  C70  1  0.62279000  0.06929000  0.68465000  1.0
  C  C71  1  0.36344000  0.32808000  0.67994000  1.0
  C  C72  1  0.36139000  0.68168000  0.31966000  1.0
  C  C73  1  0.63306000  0.56415000  0.19097000  1.0
  C  C74  1  0.64315000  0.68109000  0.31808000  1.0
  C  C75  1  0.62318000  0.82841000  0.17914000  1.0
  C  C76  1  0.37832000  0.93006000  0.31445000  1.0
  C  C77  1  0.36054000  0.80807000  0.18324000  1.0
  C  C78  1  0.13899000  0.92697000  0.06916000  1.0
  C  C79  1  0.88937000  0.18435000  0.06094000  1.0
  C  C80  1  0.85472000  0.93706000  0.06945000  1.0
  C  C81  1  0.85416000  0.07269000  0.93397000  1.0
  C  C82  1  0.11621000  0.81814000  0.93908000  1.0
  C  C83  1  0.13869000  0.06719000  0.92846000  1.0
  C  C84  1  0.72797000  0.80627000  0.59822000  1.0
  C  C85  1  0.75674000  0.94529000  0.64929000  1.0
  C  C86  1  0.81502000  0.75723000  0.58630000  1.0
  C  C87  1  0.66982000  0.99366000  0.66037000  1.0
  C  C88  1  0.77747000  0.87712000  0.62650000  1.0
  C  C89  1  0.70537000  0.87510000  0.62100000  1.0
  C  C90  1  0.19275000  0.22280000  0.37178000  1.0
  C  C91  1  0.30412000  0.01916000  0.38317000  1.0
  C  C92  1  0.16888000  0.23892000  0.41567000  1.0
  C  C93  1  0.32769000  0.00503000  0.33928000  1.0
  C  C94  1  0.25504000  0.09896000  0.39490000  1.0
  C  C95  1  0.24215000  0.14338000  0.35940000  1.0
  C  C96  1  0.70813000  0.33796000  0.65523000  1.0
  C  C97  1  0.82363000  0.38862000  0.59965000  1.0
  C  C98  1  0.67857000  0.40871000  0.63725000  1.0
  C  C99  1  0.85320000  0.31634000  0.61802000  1.0
  C  C100  1  0.73480000  0.43230000  0.61048000  1.0
  C  C101  1  0.79718000  0.29211000  0.64477000  1.0
  C  C102  1  0.59999000  0.48120000  0.63387000  1.0
  C  C103  1  0.66357000  0.50807000  0.60344000  1.0
  C  C104  1  0.30239000  0.65482000  0.34764000  1.0
  C  C105  1  0.18969000  0.59902000  0.40023000  1.0
  C  C106  1  0.27933000  0.66325000  0.39214000  1.0
  C  C107  1  0.21235000  0.59168000  0.35489000  1.0
  C  C108  1  0.22439000  0.63660000  0.41710000  1.0
  C  C109  1  0.26676000  0.61883000  0.32958000  1.0
  C  C110  1  0.29000000  0.69302000  0.43054000  1.0
  C  C111  1  0.22759000  0.66283000  0.45892000  1.0
  C  C112  1  0.70099000  0.65115000  0.34608000  1.0
  C  C113  1  0.81623000  0.59123000  0.39910000  1.0
  C  C114  1  0.67150000  0.66212000  0.39052000  1.0
  C  C115  1  0.84573000  0.57918000  0.35378000  1.0
  C  C116  1  0.72770000  0.63274000  0.41569000  1.0
  C  C117  1  0.78977000  0.60845000  0.32832000  1.0
  C  C118  1  0.59322000  0.69718000  0.42861000  1.0
  C  C119  1  0.65684000  0.66382000  0.45725000  1.0
  C  C120  1  0.30717000  0.35932000  0.65122000  1.0
  C  C121  1  0.20191000  0.42077000  0.59332000  1.0
  C  C122  1  0.26957000  0.31974000  0.63912000  1.0
  C  C123  1  0.23989000  0.46102000  0.60617000  1.0
  C  C124  1  0.21926000  0.34994000  0.61112000  1.0
  C  C125  1  0.29076000  0.43106000  0.63410000  1.0
  C  C126  1  0.25896000  0.24739000  0.64372000  1.0
  C  C127  1  0.20217000  0.28142000  0.61182000  1.0
  C  C128  1  0.30011000  0.58540000  0.82068000  1.0
  C  C129  1  0.19559000  0.67092000  0.92873000  1.0
  C  C130  1  0.32836000  0.51174000  0.83489000  1.0
  C  C131  1  0.16795000  0.74363000  0.91365000  1.0
  C  C132  1  0.24368000  0.61335000  0.89457000  1.0
  C  C133  1  0.25165000  0.64399000  0.85423000  1.0
  C  C134  1  0.79486000  0.09872000  0.90665000  1.0
  C  C135  1  0.67691000  0.15123000  0.85473000  1.0
  C  C136  1  0.82302000  0.08881000  0.86218000  1.0
  C  C137  1  0.64874000  0.16025000  0.90018000  1.0
  C  C138  1  0.76569000  0.11451000  0.83758000  1.0
  C  C139  1  0.70587000  0.13513000  0.92505000  1.0
  C  C140  1  0.90072000  0.05880000  0.82365000  1.0
  C  C141  1  0.83596000  0.08780000  0.79566000  1.0
  C  C142  1  0.19388000  0.09629000  0.89879000  1.0
  C  C143  1  0.29959000  0.15263000  0.83943000  1.0
  C  C144  1  0.23150000  0.13400000  0.91276000  1.0
  C  C145  1  0.26069000  0.11445000  0.82543000  1.0
  C  C146  1  0.28181000  0.16126000  0.88387000  1.0
  C  C147  1  0.20962000  0.08748000  0.85419000  1.0
  C  C148  1  0.24200000  0.16270000  0.95155000  1.0
  C  C149  1  0.29897000  0.19378000  0.91885000  1.0
  C  C150  1  0.65611000  0.44274000  0.15283000  1.0
  C  C151  1  0.87113000  0.30434000  0.09856000  1.0
  C  C152  1  0.68418000  0.48985000  0.16576000  1.0
  C  C153  1  0.84069000  0.25898000  0.08616000  1.0
  C  C154  1  0.80329000  0.37183000  0.12279000  1.0
  C  C155  1  0.72298000  0.37555000  0.12824000  1.0
  C  C156  1  0.19507000  0.89670000  0.09815000  1.0
  C  C157  1  0.30283000  0.83488000  0.15502000  1.0
  C  C158  1  0.23178000  0.93691000  0.11057000  1.0
  C  C159  1  0.26489000  0.79440000  0.14241000  1.0
  C  C160  1  0.28304000  0.90668000  0.13819000  1.0
  C  C161  1  0.21285000  0.82451000  0.11501000  1.0
  C  C162  1  0.24074000  0.01009000  0.10656000  1.0
  C  C163  1  0.29850000  0.97605000  0.13804000  1.0
  C  C164  1  0.79542000  0.90960000  0.09662000  1.0
  C  C165  1  0.67738000  0.85964000  0.15036000  1.0
  C  C166  1  0.82352000  0.83803000  0.11373000  1.0
  C  C167  1  0.64926000  0.93218000  0.13233000  1.0
  C  C168  1  0.76611000  0.81487000  0.13971000  1.0
  C  C169  1  0.70644000  0.95617000  0.10659000  1.0
  C  C170  1  0.90110000  0.76454000  0.11706000  1.0
  C  C171  1  0.83620000  0.73820000  0.14663000  1.0
  S  S172  1  0.87070000  0.79557000  0.60341000  1.0
  S  S173  1  0.61247000  0.95705000  0.64340000  1.0
  S  S174  1  0.20719000  0.15546000  0.44245000  1.0
  S  S175  1  0.29086000  0.08771000  0.31182000  1.0
  S  S176  1  0.29516000  0.51393000  0.89044000  1.0
  S  S177  1  0.20002000  0.74308000  0.85816000  1.0
  S  S178  1  0.79472000  0.45126000  0.14752000  1.0
  S  S179  1  0.73028000  0.29726000  0.10359000  1.0
  Br  Br180  1  0.97107000  0.24402000  0.60792000  1.0
  Br  Br181  1  0.16625000  0.54915000  0.32473000  1.0
  Br  Br182  1  0.96275000  0.51882000  0.32326000  1.0
  Br  Br183  1  0.22701000  0.55868000  0.58656000  1.0
  Br  Br184  1  0.53130000  0.20703000  0.93222000  1.0
  Br  Br185  1  0.27053000  0.09941000  0.76659000  1.0
  Br  Br186  1  0.27739000  0.69765000  0.16315000  1.0
  Br  Br187  1  0.53181000  0.00501000  0.14175000  1.0
  O  O188  1  0.99984000  0.50018000  0.50043000  1.0
  O  O189  1  0.83118000  0.56460000  0.46823000  1.0
  O  O190  1  0.08954000  0.37304000  0.41937000  1.0
  O  O191  1  0.95730000  0.38413000  0.56415000  1.0
  O  O192  1  0.94874000  0.54686000  0.41418000  1.0
  O  O193  1  0.83523000  0.48419000  0.55557000  1.0
  O  O194  1  0.11260000  0.31277000  0.48033000  1.0
  O  O195  1  0.12583000  0.39579000  0.55553000  1.0
  O  O196  1  0.94564000  0.65396000  0.55452000  1.0
  O  O197  1  0.12380000  0.51264000  0.55019000  1.0
  O  O198  1  0.82521000  0.65234000  0.54947000  1.0
  O  O199  1  0.13471000  0.50983000  0.41715000  1.0
  O  O200  1  0.09592000  0.60496000  0.46706000  1.0
  O  O201  1  0.50042000  0.25066000  0.74922000  1.0
  O  O202  1  0.68223000  0.24535000  0.69845000  1.0
  O  O203  1  0.40375000  0.43777000  0.76946000  1.0
  O  O204  1  0.54200000  0.21338000  0.83993000  1.0
  O  O205  1  0.57005000  0.35831000  0.69103000  1.0
  O  O206  1  0.66407000  0.16271000  0.78503000  1.0
  O  O207  1  0.39382000  0.37760000  0.83169000  1.0
  O  O208  1  0.36570000  0.23151000  0.83082000  1.0
  O  O209  1  0.54263000  0.10500000  0.68870000  1.0
  O  O210  1  0.39197000  0.15660000  0.77290000  1.0
  O  O211  1  0.66547000  0.09218000  0.69950000  1.0
  O  O212  1  0.39623000  0.36849000  0.68785000  1.0
  O  O213  1  0.37428000  0.26269000  0.69393000  1.0
  O  O214  1  0.50133000  0.74871000  0.25127000  1.0
  O  O215  1  0.39110000  0.71336000  0.33868000  1.0
  O  O216  1  0.55343000  0.58596000  0.20602000  1.0
  O  O217  1  0.67770000  0.67136000  0.27776000  1.0
  O  O218  1  0.37731000  0.67072000  0.27935000  1.0
  O  O219  1  0.56338000  0.71400000  0.33728000  1.0
  O  O220  1  0.67340000  0.60018000  0.19547000  1.0
  O  O221  1  0.66452000  0.76574000  0.19513000  1.0
  O  O222  1  0.39485000  0.93258000  0.27378000  1.0
  O  O223  1  0.54274000  0.86451000  0.18555000  1.0
  O  O224  1  0.40070000  0.87010000  0.33544000  1.0
  O  O225  1  0.40025000  0.73628000  0.18759000  1.0
  O  O226  1  0.36652000  0.86135000  0.20026000  1.0
  O  O227  1  0.00010000  0.00124000  0.00039000  1.0
  O  O228  1  0.10859000  0.88484000  0.06060000  1.0
  O  O229  1  0.97052000  0.15487000  0.04936000  1.0
  O  O230  1  0.82153000  0.00521000  0.05739000  1.0
  O  O231  1  0.12606000  0.99295000  0.05542000  1.0
  O  O232  1  0.93424000  0.88959000  0.06064000  1.0
  O  O233  1  0.84425000  0.15599000  0.05314000  1.0
  O  O234  1  0.82101000  0.09004000  0.97411000  1.0
  O  O235  1  0.09742000  0.87817000  0.91782000  1.0
  O  O236  1  0.93359000  0.03494000  0.91459000  1.0
  O  O237  1  0.09494000  0.81606000  0.97964000  1.0
  O  O238  1  0.12915000  0.07630000  0.96834000  1.0
  O  O239  1  0.10561000  0.03603000  0.91167000  1.0
  F  F240  1  0.66985000  0.79127000  0.58912000  1.0
  F  F241  1  0.17249000  0.27607000  0.34327000  1.0
  F  F242  1  0.31612000  0.60103000  0.77937000  1.0
  F  F243  1  0.57415000  0.45819000  0.16197000  1.0
