# generated using pymatgen
data_ErH12(C5O3)3
_symmetry_space_group_name_H-M   'P 1'
_cell_length_a   9.96401000
_cell_length_b   12.14780000
_cell_length_c   13.75300000
_cell_angle_alpha   105.33800000
_cell_angle_beta   90.00000000
_cell_angle_gamma   90.00000000
_symmetry_Int_Tables_number   1
_chemical_formula_structural   ErH12(C5O3)3
_chemical_formula_sum   'Er4 H48 C60 O36'
_cell_volume   1605.38209993
_cell_formula_units_Z   4
loop_
 _symmetry_equiv_pos_site_id
 _symmetry_equiv_pos_as_xyz
  1  'x, y, z'
loop_
 _atom_site_type_symbol
 _atom_site_label
 _atom_site_symmetry_multiplicity
 _atom_site_fract_x
 _atom_site_fract_y
 _atom_site_fract_z
 _atom_site_occupancy
  Er  Er0  1  0.21184000  0.05971000  0.07704000  1.0
  Er  Er1  1  0.71184000  0.44029000  0.92296000  1.0
  Er  Er2  1  0.78816000  0.94029000  0.92296000  1.0
  Er  Er3  1  0.28816000  0.55971000  0.07704000  1.0
  H  H4  1  0.22570000  0.42592000  0.33408000  1.0
  H  H5  1  0.72570000  0.07408000  0.66592000  1.0
  H  H6  1  0.77430000  0.57408000  0.66592000  1.0
  H  H7  1  0.27430000  0.92592000  0.33408000  1.0
  H  H8  1  0.25479000  0.54340000  0.51103000  1.0
  H  H9  1  0.75479000  0.95660000  0.48897000  1.0
  H  H10  1  0.74521000  0.45660000  0.48897000  1.0
  H  H11  1  0.24521000  0.04340000  0.51103000  1.0
  H  H12  1  0.41815000  0.25263000  0.59392000  1.0
  H  H13  1  0.91815000  0.24737000  0.40608000  1.0
  H  H14  1  0.58185000  0.74737000  0.40608000  1.0
  H  H15  1  0.08185000  0.75263000  0.59392000  1.0
  H  H16  1  0.38494000  0.13338000  0.41591000  1.0
  H  H17  1  0.88494000  0.36662000  0.58409000  1.0
  H  H18  1  0.61506000  0.86662000  0.58409000  1.0
  H  H19  1  0.11506000  0.63338000  0.41591000  1.0
  H  H20  1  0.47989000  0.65819000  0.70440000  1.0
  H  H21  1  0.97989000  0.84181000  0.29561000  1.0
  H  H22  1  0.52011000  0.34181000  0.29560000  1.0
  H  H23  1  0.02011000  0.15819000  0.70440000  1.0
  H  H24  1  0.37617000  0.84526000  0.79861000  1.0
  H  H25  1  0.87617000  0.65474000  0.20139000  1.0
  H  H26  1  0.62383000  0.15474000  0.20139000  1.0
  H  H27  1  0.12383000  0.34526000  0.79861000  1.0
  H  H28  1  0.99328000  0.67945000  0.79011000  1.0
  H  H29  1  0.49328000  0.82055000  0.20989000  1.0
  H  H30  1  0.00672000  0.32055000  0.20989000  1.0
  H  H31  1  0.50672000  0.17945000  0.79011000  1.0
  H  H32  1  0.09718000  0.49314000  0.69880000  1.0
  H  H33  1  0.59718000  0.00686000  0.30120000  1.0
  H  H34  1  0.90282000  0.50686000  0.30120000  1.0
  H  H35  1  0.40282000  0.99314000  0.69880000  1.0
  H  H36  1  0.03198000  0.86350000  0.08368000  1.0
  H  H37  1  0.53198000  0.63649000  0.91632000  1.0
  H  H38  1  0.96802000  0.13649000  0.91632000  1.0
  H  H39  1  0.46802000  0.36351000  0.08368000  1.0
  H  H40  1  0.16694000  0.84210000  0.13972000  1.0
  H  H41  1  0.66694000  0.65790000  0.86028000  1.0
  H  H42  1  0.83306000  0.15790000  0.86028000  1.0
  H  H43  1  0.33306000  0.34210000  0.13972000  1.0
  H  H44  1  0.12626000  0.27267000  0.01745000  1.0
  H  H45  1  0.62626000  0.22733000  0.98255000  1.0
  H  H46  1  0.87374000  0.72733000  0.98255000  1.0
  H  H47  1  0.37374000  0.77267000  0.01745000  1.0
  H  H48  1  0.20473000  0.19041000  0.92834000  1.0
  H  H49  1  0.70473000  0.30959000  0.07166000  1.0
  H  H50  1  0.79527000  0.80959000  0.07166000  1.0
  H  H51  1  0.29527000  0.69041000  0.92834000  1.0
  C  C52  1  0.28191000  0.19966000  0.26067000  1.0
  C  C53  1  0.78191000  0.30034000  0.73933000  1.0
  C  C54  1  0.71809000  0.80034000  0.73933000  1.0
  C  C55  1  0.21809000  0.69966000  0.26067000  1.0
  C  C56  1  0.30094000  0.27132000  0.36469000  1.0
  C  C57  1  0.80094000  0.22868000  0.63531000  1.0
  C  C58  1  0.69906000  0.72868000  0.63531000  1.0
  C  C59  1  0.19906000  0.77132000  0.36469000  1.0
  C  C60  1  0.26509000  0.38717000  0.39128000  1.0
  C  C61  1  0.76509000  0.11283000  0.60872000  1.0
  C  C62  1  0.73491000  0.61283000  0.60872000  1.0
  C  C63  1  0.23491000  0.88717000  0.39128000  1.0
  C  C64  1  0.28140000  0.45324000  0.48999000  1.0
  C  C65  1  0.78141000  0.04676000  0.51001000  1.0
  C  C66  1  0.71859000  0.54676000  0.51001000  1.0
  C  C67  1  0.21859000  0.95325000  0.48999000  1.0
  C  C68  1  0.33553000  0.40317000  0.56204000  1.0
  C  C69  1  0.83553000  0.09683000  0.43796000  1.0
  C  C70  1  0.66447000  0.59683000  0.43796000  1.0
  C  C71  1  0.16447000  0.90317000  0.56204000  1.0
  C  C72  1  0.37468000  0.28827000  0.53622000  1.0
  C  C73  1  0.87468000  0.21173000  0.46378000  1.0
  C  C74  1  0.62531000  0.71173000  0.46378000  1.0
  C  C75  1  0.12532000  0.78827000  0.53622000  1.0
  C  C76  1  0.35618000  0.22309000  0.43799000  1.0
  C  C77  1  0.85618000  0.27691000  0.56201000  1.0
  C  C78  1  0.64382000  0.77691000  0.56201000  1.0
  C  C79  1  0.14382000  0.72309000  0.43799000  1.0
  C  C80  1  0.29449000  0.56700000  0.69866000  1.0
  C  C81  1  0.79449000  0.93300000  0.30134000  1.0
  C  C82  1  0.70551000  0.43300000  0.30134000  1.0
  C  C83  1  0.20551000  0.06700000  0.69866000  1.0
  C  C84  1  0.37381000  0.66492000  0.72373000  1.0
  C  C85  1  0.87381000  0.83508000  0.27628000  1.0
  C  C86  1  0.62619000  0.33508000  0.27628000  1.0
  C  C87  1  0.12619000  0.16492000  0.72372000  1.0
  C  C88  1  0.31578000  0.76803000  0.77526000  1.0
  C  C89  1  0.81578000  0.73197000  0.22474000  1.0
  C  C90  1  0.68422000  0.23197000  0.22474000  1.0
  C  C91  1  0.18422000  0.26803000  0.77526000  1.0
  C  C92  1  0.17914000  0.77321000  0.80045000  1.0
  C  C93  1  0.67913000  0.72679000  0.19955000  1.0
  C  C94  1  0.82086000  0.22679000  0.19955000  1.0
  C  C95  1  0.32086000  0.27321000  0.80045000  1.0
  C  C96  1  0.09942000  0.67464000  0.77027000  1.0
  C  C97  1  0.59942000  0.82536000  0.22973000  1.0
  C  C98  1  0.90058000  0.32536000  0.22973000  1.0
  C  C99  1  0.40058000  0.17464000  0.77027000  1.0
  C  C100  1  0.15703000  0.57095000  0.71954000  1.0
  C  C101  1  0.65702000  0.92905000  0.28046000  1.0
  C  C102  1  0.84297000  0.42905000  0.28046000  1.0
  C  C103  1  0.34297000  0.07095000  0.71954000  1.0
  C  C104  1  0.12114000  0.88054000  0.86596000  1.0
  C  C105  1  0.62114000  0.61946000  0.13405000  1.0
  C  C106  1  0.87886000  0.11946000  0.13405000  1.0
  C  C107  1  0.37886000  0.38054000  0.86595000  1.0
  C  C108  1  0.49630000  0.94094000  0.01118000  1.0
  C  C109  1  0.99630000  0.55905000  0.98882000  1.0
  C  C110  1  0.50370000  0.05906000  0.98882000  1.0
  C  C111  1  0.00370000  0.44094000  0.01118000  1.0
  O  O112  1  0.29455000  0.09098000  0.24104000  1.0
  O  O113  1  0.79455000  0.40902000  0.75896000  1.0
  O  O114  1  0.70545000  0.90902000  0.75896000  1.0
  O  O115  1  0.20545000  0.59098000  0.24104000  1.0
  O  O116  1  0.25023000  0.24549000  0.18918000  1.0
  O  O117  1  0.75024000  0.25451000  0.81082000  1.0
  O  O118  1  0.74977000  0.75451000  0.81082000  1.0
  O  O119  1  0.24977000  0.74549000  0.18917000  1.0
  O  O120  1  0.35842000  0.46307000  0.66006000  1.0
  O  O121  1  0.85842000  0.03693000  0.33994000  1.0
  O  O122  1  0.64159000  0.53693000  0.33994000  1.0
  O  O123  1  0.14158000  0.96307000  0.66006000  1.0
  O  O124  1  0.99476000  0.88725000  0.87623000  1.0
  O  O125  1  0.49476000  0.61276000  0.12377000  1.0
  O  O126  1  0.00524000  0.11275000  0.12377000  1.0
  O  O127  1  0.50524000  0.38724000  0.87623000  1.0
  O  O128  1  0.20173000  0.95821000  0.91193000  1.0
  O  O129  1  0.70173000  0.54179000  0.08807000  1.0
  O  O130  1  0.79826000  0.04179000  0.08807000  1.0
  O  O131  1  0.29826000  0.45821000  0.91193000  1.0
  O  O132  1  0.39100000  0.91954000  0.05491000  1.0
  O  O133  1  0.89100000  0.58046000  0.94509000  1.0
  O  O134  1  0.60900000  0.08046000  0.94509000  1.0
  O  O135  1  0.10900000  0.41954000  0.05491000  1.0
  O  O136  1  0.59419000  0.87414000  0.98351000  1.0
  O  O137  1  0.09419000  0.62586000  0.01649000  1.0
  O  O138  1  0.40581000  0.12586000  0.01649000  1.0
  O  O139  1  0.90581000  0.37414000  0.98351000  1.0
  O  O140  1  0.11947000  0.89680000  0.10912000  1.0
  O  O141  1  0.61947000  0.60320000  0.89088000  1.0
  O  O142  1  0.88053000  0.10320000  0.89088000  1.0
  O  O143  1  0.38053000  0.39680000  0.10912000  1.0
  O  O144  1  0.13844000  0.19020000  0.98066000  1.0
  O  O145  1  0.63844000  0.30980000  0.01934000  1.0
  O  O146  1  0.86156000  0.80980000  0.01934000  1.0
  O  O147  1  0.36156000  0.69020000  0.98066000  1.0
