# generated using pymatgen
data_CdH6C6(NO3)2
_symmetry_space_group_name_H-M   'P 1'
_cell_length_a   6.75139000
_cell_length_b   7.46999000
_cell_length_c   17.79055543
_cell_angle_alpha   89.99983303
_cell_angle_beta   98.30879239
_cell_angle_gamma   89.99910000
_symmetry_Int_Tables_number   1
_chemical_formula_structural   CdH6C6(NO3)2
_chemical_formula_sum   'Cd4 H24 C24 N8 O24'
_cell_volume   887.81016533
_cell_formula_units_Z   4
loop_
 _symmetry_equiv_pos_site_id
 _symmetry_equiv_pos_as_xyz
  1  'x, y, z'
loop_
 _atom_site_type_symbol
 _atom_site_label
 _atom_site_symmetry_multiplicity
 _atom_site_fract_x
 _atom_site_fract_y
 _atom_site_fract_z
 _atom_site_occupancy
  Cd  Cd0  1  0.13334000  0.79025000  0.37555000  1.0
  Cd  Cd1  1  0.36666000  0.29025000  0.12446000  1.0
  Cd  Cd2  1  0.86664000  0.20976000  0.62444000  1.0
  Cd  Cd3  1  0.63334000  0.70977000  0.87555000  1.0
  H  H4  1  0.93626000  0.48794000  0.36022000  1.0
  H  H5  1  0.56373000  0.98795000  0.13979000  1.0
  H  H6  1  0.06370000  0.51206000  0.63978000  1.0
  H  H7  1  0.43626000  0.01204000  0.86022000  1.0
  H  H8  1  0.11248000  0.41712000  0.42392000  1.0
  H  H9  1  0.38752000  0.91713000  0.07608000  1.0
  H  H10  1  0.88751000  0.58288000  0.57607000  1.0
  H  H11  1  0.61248000  0.08286000  0.92392000  1.0
  H  H12  1  0.31507000  0.00574000  0.28529000  1.0
  H  H13  1  0.18493000  0.50575000  0.21471000  1.0
  H  H14  1  0.68492000  0.99428000  0.71471000  1.0
  H  H15  1  0.81506000  0.49423000  0.78529000  1.0
  H  H16  1  0.09593000  0.04114000  0.24300000  1.0
  H  H17  1  0.40406000  0.54115000  0.25700000  1.0
  H  H18  1  0.90407000  0.95887000  0.75699000  1.0
  H  H19  1  0.59595000  0.45884000  0.74300000  1.0
  H  H20  1  0.56602000  0.64747000  0.65836000  1.0
  H  H21  1  0.93398000  0.14741000  0.84165000  1.0
  H  H22  1  0.43397000  0.35253000  0.34163000  1.0
  H  H23  1  0.06605000  0.85258000  0.15836000  1.0
  H  H24  1  0.36693000  0.56145000  0.53139000  1.0
  H  H25  1  0.13311000  0.06146000  0.96862000  1.0
  H  H26  1  0.63307000  0.43856000  0.46860000  1.0
  H  H27  1  0.86691000  0.93853000  0.03139000  1.0
  C  C28  1  0.27993000  0.99514000  0.53188000  1.0
  C  C29  1  0.22005000  0.49511000  0.96811000  1.0
  C  C30  1  0.72006000  0.00486000  0.46812000  1.0
  C  C31  1  0.77997000  0.50489000  0.03189000  1.0
  C  C32  1  0.37261000  0.03760000  0.60561000  1.0
  C  C33  1  0.12739000  0.53762000  0.89438000  1.0
  C  C34  1  0.62739000  0.96242000  0.39439000  1.0
  C  C35  1  0.87260000  0.46237000  0.10561000  1.0
  C  C36  1  0.47578000  0.74463000  0.62302000  1.0
  C  C37  1  0.02424000  0.24461000  0.87699000  1.0
  C  C38  1  0.52420000  0.25537000  0.37697000  1.0
  C  C39  1  0.97579000  0.75536000  0.12302000  1.0
  C  C40  1  0.37271000  0.69924000  0.55182000  1.0
  C  C41  1  0.12732000  0.19923000  0.94819000  1.0
  C  C42  1  0.62733000  0.30077000  0.44816000  1.0
  C  C43  1  0.87270000  0.80077000  0.05183000  1.0
  C  C44  1  0.17914000  0.13377000  0.47721000  1.0
  C  C45  1  0.32090000  0.63379000  0.02280000  1.0
  C  C46  1  0.82087000  0.86623000  0.52279000  1.0
  C  C47  1  0.67911000  0.36621000  0.97720000  1.0
  C  C48  1  0.37011000  0.21996000  0.64285000  1.0
  C  C49  1  0.12989000  0.71991000  0.85715000  1.0
  C  C50  1  0.62989000  0.78005000  0.35714000  1.0
  C  C51  1  0.87010000  0.28008000  0.14286000  1.0
  N  N52  1  0.28193000  0.82600000  0.50621000  1.0
  N  N53  1  0.21809000  0.32599000  0.99380000  1.0
  N  N54  1  0.71809000  0.17401000  0.49379000  1.0
  N  N55  1  0.78191000  0.67402000  0.00621000  1.0
  N  N56  1  0.47596000  0.91245000  0.64934000  1.0
  N  N57  1  0.02406000  0.41244000  0.85068000  1.0
  N  N58  1  0.52401000  0.08757000  0.35066000  1.0
  N  N59  1  0.97595000  0.58755000  0.14933000  1.0
  O  O60  1  0.08868000  0.07946000  0.41389000  1.0
  O  O61  1  0.41134000  0.57947000  0.08613000  1.0
  O  O62  1  0.91132000  0.92053000  0.58611000  1.0
  O  O63  1  0.58866000  0.42053000  0.91388000  1.0
  O  O64  1  0.19145000  0.29581000  0.49847000  1.0
  O  O65  1  0.30859000  0.79584000  0.00153000  1.0
  O  O66  1  0.80858000  0.70418000  0.50154000  1.0
  O  O67  1  0.69143000  0.20416000  0.99848000  1.0
  O  O68  1  0.53351000  0.30698000  0.65192000  1.0
  O  O69  1  0.96651000  0.80694000  0.84808000  1.0
  O  O70  1  0.46648000  0.69304000  0.34807000  1.0
  O  O71  1  0.03349000  0.19306000  0.15193000  1.0
  O  O72  1  0.21204000  0.26665000  0.66805000  1.0
  O  O73  1  0.28794000  0.76661000  0.83195000  1.0
  O  O74  1  0.78796000  0.73334000  0.33194000  1.0
  O  O75  1  0.71205000  0.23340000  0.16806000  1.0
  O  O76  1  0.08099000  0.49133000  0.37596000  1.0
  O  O77  1  0.41900000  0.99134000  0.12403000  1.0
  O  O78  1  0.91898000  0.50870000  0.62402000  1.0
  O  O79  1  0.58098000  0.00866000  0.87597000  1.0
  O  O80  1  0.18366000  0.94635000  0.26782000  1.0
  O  O81  1  0.31634000  0.44636000  0.23218000  1.0
  O  O82  1  0.81633000  0.05366000  0.73218000  1.0
  O  O83  1  0.68367000  0.55364000  0.76783000  1.0
