# generated using pymatgen
data_Zn4H36C36N4O13
_symmetry_space_group_name_H-M   'P 1'
_cell_length_a   17.76110000
_cell_length_b   18.63220000
_cell_length_c   23.46520000
_cell_angle_alpha   66.83200000
_cell_angle_beta   69.80860000
_cell_angle_gamma   89.94370000
_symmetry_Int_Tables_number   1
_chemical_formula_structural   Zn4H36C36N4O13
_chemical_formula_sum   'Zn8 H72 C72 N8 O26'
_cell_volume   6618.05132621
_cell_formula_units_Z   2
loop_
 _symmetry_equiv_pos_site_id
 _symmetry_equiv_pos_as_xyz
  1  'x, y, z'
loop_
 _atom_site_type_symbol
 _atom_site_label
 _atom_site_symmetry_multiplicity
 _atom_site_fract_x
 _atom_site_fract_y
 _atom_site_fract_z
 _atom_site_occupancy
  Zn  Zn0  1  0.11720000  0.53067000  0.94207000  1.0
  Zn  Zn1  1  0.97172000  0.55830000  0.05208000  1.0
  Zn  Zn2  1  0.97503000  0.38967000  0.05177000  1.0
  Zn  Zn3  1  0.93947000  0.53054000  0.93501000  1.0
  Zn  Zn4  1  0.38577000  0.97733000  0.05024000  1.0
  Zn  Zn5  1  0.52931000  0.11497000  0.93690000  1.0
  Zn  Zn6  1  0.52329000  0.94683000  0.93739000  1.0
  Zn  Zn7  1  0.56610000  0.97261000  0.05177000  1.0
  H  H8  1  0.43277000  0.80593000  0.39050000  1.0
  H  H9  1  0.19472000  0.80491000  0.38107000  1.0
  H  H10  1  0.31805000  0.69146000  0.61010000  1.0
  H  H11  1  0.08138000  0.70434000  0.59796000  1.0
  H  H12  1  0.69852000  0.08341000  0.60245000  1.0
  H  H13  1  0.70224000  0.31310000  0.60552000  1.0
  H  H14  1  0.81221000  0.19167000  0.38651000  1.0
  H  H15  1  0.80455000  0.42278000  0.38658000  1.0
  H  H16  1  0.19630000  0.30110000  0.91223000  1.0
  H  H17  1  0.12517000  0.22918000  0.98808000  1.0
  H  H18  1  0.21530000  0.13805000  0.98431000  1.0
  H  H19  1  0.28636000  0.21081000  0.90899000  1.0
  H  H20  1  0.21536000  0.12404000  0.09502000  1.0
  H  H21  1  0.28735000  0.18485000  0.09940000  1.0
  H  H22  1  0.12662000  0.21677000  0.09867000  1.0
  H  H23  1  0.20004000  0.27788000  0.10117000  1.0
  H  H24  1  0.30093000  0.39047000  0.91524000  1.0
  H  H25  1  0.30236000  0.38243000  0.99204000  1.0
  H  H26  1  0.39127000  0.28993000  0.99083000  1.0
  H  H27  1  0.39089000  0.29933000  0.91346000  1.0
  H  H28  1  0.89025000  0.79938000  0.90684000  1.0
  H  H29  1  0.88682000  0.78696000  0.98649000  1.0
  H  H30  1  0.79791000  0.87978000  0.98693000  1.0
  H  H31  1  0.80100000  0.89059000  0.90776000  1.0
  H  H32  1  0.69496000  0.77667000  0.09177000  1.0
  H  H33  1  0.62238000  0.71536000  0.08843000  1.0
  H  H34  1  0.78195000  0.68224000  0.09113000  1.0
  H  H35  1  0.71002000  0.62284000  0.08542000  1.0
  H  H36  1  0.78922000  0.71297000  0.89797000  1.0
  H  H37  1  0.71618000  0.63969000  0.97033000  1.0
  H  H38  1  0.62595000  0.73064000  0.97378000  1.0
  H  H39  1  0.69823000  0.80329000  0.90060000  1.0
  H  H40  1  0.16087000  0.79206000  0.93805000  1.0
  H  H41  1  0.24545000  0.75628000  0.89706000  1.0
  H  H42  1  0.33254000  0.85258000  0.89439000  1.0
  H  H43  1  0.24752000  0.88742000  0.93588000  1.0
  H  H44  1  0.39433000  0.74501000  0.96081000  1.0
  H  H45  1  0.35351000  0.70428000  0.04905000  1.0
  H  H46  1  0.30641000  0.64860000  0.96383000  1.0
  H  H47  1  0.26603000  0.60889000  0.05201000  1.0
  H  H48  1  0.10166000  0.73462000  0.06512000  1.0
  H  H49  1  0.14424000  0.65963000  0.11178000  1.0
  H  H50  1  0.23232000  0.75508000  0.10911000  1.0
  H  H51  1  0.18922000  0.82996000  0.06294000  1.0
  H  H52  1  0.89988000  0.26723000  0.92962000  1.0
  H  H53  1  0.85552000  0.34299000  0.88446000  1.0
  H  H54  1  0.76929000  0.24735000  0.88553000  1.0
  H  H55  1  0.81311000  0.17205000  0.93168000  1.0
  H  H56  1  0.64956000  0.29757000  0.94477000  1.0
  H  H57  1  0.60653000  0.25718000  0.03290000  1.0
  H  H58  1  0.73612000  0.39232000  0.94494000  1.0
  H  H59  1  0.69349000  0.35040000  0.03308000  1.0
  H  H60  1  0.83991000  0.20626000  0.05670000  1.0
  H  H61  1  0.75628000  0.24041000  0.09943000  1.0
  H  H62  1  0.66776000  0.14710000  0.10028000  1.0
  H  H63  1  0.75141000  0.11187000  0.05881000  1.0
  H  H64  1  0.54086000  0.89407000  0.21191000  1.0
  H  H65  1  0.54630000  0.85757000  0.29201000  1.0
  H  H66  1  0.26594000  0.90073000  0.20238000  1.0
  H  H67  1  0.18267000  0.85975000  0.27891000  1.0
  H  H68  1  0.24366000  0.60715000  0.78931000  1.0
  H  H69  1  0.32818000  0.64351000  0.71328000  1.0
  H  H70  1  0.97092000  0.61109000  0.77558000  1.0
  H  H71  1  0.96723000  0.65251000  0.69522000  1.0
  H  H72  1  0.60874000  0.97520000  0.78102000  1.0
  H  H73  1  0.64961000  0.97197000  0.70243000  1.0
  H  H74  1  0.59772000  0.24033000  0.78314000  1.0
  H  H75  1  0.64350000  0.32250000  0.70611000  1.0
  H  H76  1  0.89260000  0.26286000  0.20750000  1.0
  H  H77  1  0.85715000  0.18084000  0.28587000  1.0
  H  H78  1  0.89486000  0.52908000  0.20803000  1.0
  H  H79  1  0.85630000  0.53309000  0.28640000  1.0
  C  C80  1  0.14164000  0.63472000  0.00357000  1.0
  C  C81  1  0.90734000  0.41046000  0.17857000  1.0
  C  C82  1  0.14359000  0.36382000  0.00171000  1.0
  C  C83  1  0.86125000  0.36624000  0.98995000  1.0
  C  C84  1  0.09194000  0.59434000  0.81191000  1.0
  C  C85  1  0.86043000  0.64268000  0.98996000  1.0
  C  C86  1  0.36068000  0.14208000  0.99662000  1.0
  C  C87  1  0.58615000  0.09310000  0.81096000  1.0
  C  C88  1  0.35536000  0.86438000  0.99780000  1.0
  C  C89  1  0.64267000  0.86453000  0.99344000  1.0
  C  C90  1  0.41821000  0.91216000  0.17776000  1.0
  C  C91  1  0.64743000  0.13954000  0.99147000  1.0
  C  C92  1  0.38172000  0.87358000  0.25087000  1.0
  C  C93  1  0.43111000  0.85453000  0.29091000  1.0
  C  C94  1  0.39453000  0.81954000  0.36108000  1.0
  C  C95  1  0.30981000  0.80207000  0.39353000  1.0
  C  C96  1  0.26056000  0.81913000  0.35576000  1.0
  C  C97  1  0.29465000  0.85411000  0.28561000  1.0
  C  C98  1  0.27341000  0.76704000  0.46446000  1.0
  C  C99  1  0.24087000  0.73692000  0.52539000  1.0
  C  C100  1  0.20378000  0.70179000  0.59627000  1.0
  C  C101  1  0.25214000  0.68089000  0.63477000  1.0
  C  C102  1  0.21699000  0.64580000  0.70493000  1.0
  C  C103  1  0.12978000  0.63084000  0.73881000  1.0
  C  C104  1  0.08136000  0.65311000  0.69799000  1.0
  C  C105  1  0.11893000  0.68780000  0.62796000  1.0
  C  C106  1  0.62670000  0.12997000  0.73832000  1.0
  C  C107  1  0.64666000  0.08280000  0.70049000  1.0
  C  C108  1  0.68460000  0.11954000  0.63059000  1.0
  C  C109  1  0.70388000  0.20202000  0.59655000  1.0
  C  C110  1  0.68630000  0.24903000  0.63226000  1.0
  C  C111  1  0.64823000  0.21470000  0.70217000  1.0
  C  C112  1  0.74045000  0.23785000  0.52582000  1.0
  C  C113  1  0.77066000  0.26832000  0.46484000  1.0
  C  C114  1  0.80489000  0.30353000  0.39399000  1.0
  C  C115  1  0.82350000  0.25576000  0.35900000  1.0
  C  C116  1  0.85684000  0.28937000  0.28884000  1.0
  C  C117  1  0.87239000  0.37418000  0.25159000  1.0
  C  C118  1  0.85262000  0.42198000  0.28891000  1.0
  C  C119  1  0.81954000  0.38598000  0.35906000  1.0
  C  C120  1  0.18852000  0.25905000  0.96313000  1.0
  C  C121  1  0.24830000  0.19852000  0.96101000  1.0
  C  C122  1  0.30358000  0.20286000  0.99850000  1.0
  C  C123  1  0.24885000  0.18427000  0.07150000  1.0
  C  C124  1  0.19018000  0.24568000  0.07322000  1.0
  C  C125  1  0.20359000  0.30538000  0.00147000  1.0
  C  C126  1  0.29185000  0.34779000  0.96612000  1.0
  C  C127  1  0.35103000  0.28700000  0.96495000  1.0
  C  C128  1  0.84894000  0.78578000  0.95836000  1.0
  C  C129  1  0.78960000  0.84699000  0.95898000  1.0
  C  C130  1  0.70082000  0.80444000  0.99162000  1.0
  C  C131  1  0.68605000  0.74441000  0.06364000  1.0
  C  C132  1  0.74437000  0.68279000  0.06245000  1.0
  C  C133  1  0.80070000  0.70149000  0.98975000  1.0
  C  C134  1  0.74900000  0.69983000  0.94956000  1.0
  C  C135  1  0.68923000  0.76012000  0.95134000  1.0
  C  C136  1  0.21802000  0.77067000  0.94020000  1.0
  C  C137  1  0.27586000  0.83426000  0.93856000  1.0
  C  C138  1  0.29657000  0.80132000  0.00212000  1.0
  C  C139  1  0.33731000  0.72738000  0.00456000  1.0
  C  C140  1  0.27909000  0.66379000  0.00649000  1.0
  C  C141  1  0.19867000  0.69423000  0.00517000  1.0
  C  C142  1  0.15945000  0.71405000  0.06562000  1.0
  C  C143  1  0.21761000  0.77730000  0.06396000  1.0
  C  C144  1  0.84176000  0.28775000  0.92974000  1.0
  C  C145  1  0.78400000  0.22448000  0.93065000  1.0
  C  C146  1  0.70422000  0.19956000  0.99289000  1.0
  C  C147  1  0.66440000  0.27416000  0.98978000  1.0
  C  C148  1  0.72212000  0.33658000  0.98971000  1.0
  C  C149  1  0.80191000  0.30533000  0.99194000  1.0
  C  C150  1  0.78282000  0.22785000  0.05517000  1.0
  C  C151  1  0.72445000  0.16561000  0.05603000  1.0
  N  N152  1  0.51372000  0.87048000  0.26249000  1.0
  N  N153  1  0.24270000  0.86665000  0.25238000  1.0
  N  N154  1  0.26793000  0.62496000  0.73901000  1.0
  N  N155  1  0.99858000  0.64326000  0.72547000  1.0
  N  N156  1  0.62754000  0.00235000  0.73043000  1.0
  N  N157  1  0.63488000  0.26368000  0.73412000  1.0
  N  N158  1  0.87522000  0.23951000  0.25797000  1.0
  N  N159  1  0.86321000  0.50252000  0.25814000  1.0
  O  O160  1  0.00041000  0.50277000  0.99417000  1.0
  O  O161  1  0.17234000  0.60333000  0.96280000  1.0
  O  O162  1  0.92567000  0.48659000  0.14720000  1.0
  O  O163  1  0.07045000  0.33574000  0.04280000  1.0
  O  O164  1  0.06720000  0.62241000  0.04158000  1.0
  O  O165  1  0.17016000  0.43572000  0.95999000  1.0
  O  O166  1  0.91924000  0.36584000  0.14667000  1.0
  O  O167  1  0.90265000  0.33957000  0.02653000  1.0
  O  O168  1  0.01367000  0.57586000  0.84059000  1.0
  O  O169  1  0.86640000  0.43870000  0.95123000  1.0
  O  O170  1  0.13789000  0.58139000  0.84627000  1.0
  O  O171  1  0.89699000  0.63201000  0.03027000  1.0
  O  O172  1  0.86996000  0.60924000  0.95037000  1.0
  O  O173  1  0.50154000  0.00221000  0.99539000  1.0
  O  O174  1  0.32889000  0.06928000  0.03060000  1.0
  O  O175  1  0.55969000  0.13709000  0.84246000  1.0
  O  O176  1  0.42588000  0.88233000  0.95163000  1.0
  O  O177  1  0.43572000  0.16822000  0.96103000  1.0
  O  O178  1  0.33017000  0.89496000  0.03963000  1.0
  O  O179  1  0.57708000  0.01703000  0.84248000  1.0
  O  O180  1  0.59979000  0.87419000  0.95804000  1.0
  O  O181  1  0.49641000  0.92260000  0.14765000  1.0
  O  O182  1  0.64107000  0.90033000  0.03041000  1.0
  O  O183  1  0.37103000  0.93551000  0.14481000  1.0
  O  O184  1  0.61914000  0.16560000  0.94511000  1.0
  O  O185  1  0.63260000  0.06866000  0.03578000  1.0
