# generated using pymatgen
data_CuH10C16N2(OF3)4
_symmetry_space_group_name_H-M   'P 1'
_cell_length_a   7.77259000
_cell_length_b   8.60696000
_cell_length_c   8.79776000
_cell_angle_alpha   94.87930000
_cell_angle_beta   114.34100000
_cell_angle_gamma   99.65280000
_symmetry_Int_Tables_number   1
_chemical_formula_structural   CuH10C16N2(OF3)4
_chemical_formula_sum   'Cu1 H10 C16 N2 O4 F12'
_cell_volume   520.80097390
_cell_formula_units_Z   1
loop_
 _symmetry_equiv_pos_site_id
 _symmetry_equiv_pos_as_xyz
  1  'x, y, z'
loop_
 _atom_site_type_symbol
 _atom_site_label
 _atom_site_symmetry_multiplicity
 _atom_site_fract_x
 _atom_site_fract_y
 _atom_site_fract_z
 _atom_site_occupancy
  Cu  Cu0  1  0.00000000  0.00000000  0.00000000  1.0
  H  H1  1  0.22177000  0.77835000  0.90328000  1.0
  H  H2  1  0.77823000  0.22165000  0.09672000  1.0
  H  H3  1  0.50614000  0.32104000  0.26041000  1.0
  H  H4  1  0.49386000  0.67897000  0.73959000  1.0
  H  H5  1  0.31241000  0.31773000  0.06258000  1.0
  H  H6  1  0.68759000  0.68227000  0.93742000  1.0
  H  H7  1  0.55693000  0.40155000  0.10114000  1.0
  H  H8  1  0.44307000  0.59845000  0.89886000  1.0
  H  H9  1  0.25249000  0.88322000  0.50973000  1.0
  H  H10  1  0.74752000  0.11678000  0.49027000  1.0
  C  C11  1  0.34761000  0.87800000  0.94648000  1.0
  C  C12  1  0.65238000  0.12200000  0.05352000  1.0
  C  C13  1  0.48037000  0.14506000  0.05879000  1.0
  C  C14  1  0.51963000  0.85494000  0.94120000  1.0
  C  C15  1  0.46263000  0.30526000  0.12324000  1.0
  C  C16  1  0.53737000  0.69474000  0.87676000  1.0
  C  C17  1  0.10702000  0.61362000  0.27333000  1.0
  C  C18  1  0.89298000  0.38637000  0.72666000  1.0
  C  C19  1  0.10845000  0.78796000  0.24329000  1.0
  C  C20  1  0.89156000  0.21205000  0.75672000  1.0
  C  C21  1  0.19032000  0.91196000  0.38325000  1.0
  C  C22  1  0.80968000  0.08804000  0.61675000  1.0
  C  C23  1  0.18623000  0.07117000  0.36400000  1.0
  C  C24  1  0.81377000  0.92882000  0.63601000  1.0
  C  C25  1  0.27369000  0.20082000  0.52402000  1.0
  C  C26  1  0.72631000  0.79918000  0.47598000  1.0
  N  N27  1  0.32743000  0.01966000  0.00393000  1.0
  N  N28  1  0.67257000  0.98034000  0.99607000  1.0
  O  O29  1  0.03009000  0.79775000  0.08754000  1.0
  O  O30  1  0.96991000  0.20225000  0.91246000  1.0
  O  O31  1  0.11715000  0.12865000  0.22895000  1.0
  O  O32  1  0.88285000  0.87135000  0.77105000  1.0
  F  F33  1  0.92127000  0.52517000  0.20266000  1.0
  F  F34  1  0.07873000  0.47483000  0.79734000  1.0
  F  F35  1  0.18742000  0.60156000  0.43998000  1.0
  F  F36  1  0.81259000  0.39844000  0.56002000  1.0
  F  F37  1  0.20490000  0.54593000  0.19886000  1.0
  F  F38  1  0.79510000  0.45407000  0.80114000  1.0
  F  F39  1  0.13652000  0.27727000  0.52995000  1.0
  F  F40  1  0.86348000  0.72272000  0.47005000  1.0
  F  F41  1  0.41889000  0.31224000  0.52237000  1.0
  F  F42  1  0.58110000  0.68777000  0.47763000  1.0
  F  F43  1  0.34790000  0.14109000  0.67056000  1.0
  F  F44  1  0.65211000  0.85891000  0.32945000  1.0
