# generated using pymatgen
data_Pr2H18(C3O8)3
_symmetry_space_group_name_H-M   'P 1'
_cell_length_a   8.95650000
_cell_length_b   8.95637000
_cell_length_c   8.95643000
_cell_angle_alpha   65.77370000
_cell_angle_beta   65.77350000
_cell_angle_gamma   65.77370000
_symmetry_Int_Tables_number   1
_chemical_formula_structural   Pr2H18(C3O8)3
_chemical_formula_sum   'Pr2 H18 C9 O24'
_cell_volume   571.63973590
_cell_formula_units_Z   1
loop_
 _symmetry_equiv_pos_site_id
 _symmetry_equiv_pos_as_xyz
  1  'x, y, z'
loop_
 _atom_site_type_symbol
 _atom_site_label
 _atom_site_symmetry_multiplicity
 _atom_site_fract_x
 _atom_site_fract_y
 _atom_site_fract_z
 _atom_site_occupancy
  Pr  Pr0  1  0.22937000  0.22937000  0.22936000  1.0
  Pr  Pr1  1  0.77063000  0.77064000  0.77063000  1.0
  H  H2  1  0.54703000  0.32755000  0.18716000  1.0
  H  H3  1  0.32754000  0.18716000  0.54703000  1.0
  H  H4  1  0.18717000  0.54703000  0.32755000  1.0
  H  H5  1  0.45297000  0.81284000  0.67245000  1.0
  H  H6  1  0.67246000  0.45296000  0.81283000  1.0
  H  H7  1  0.81283000  0.67245000  0.45296000  1.0
  H  H8  1  0.28483000  0.21532000  0.85613000  1.0
  H  H9  1  0.21533000  0.85612000  0.28483000  1.0
  H  H10  1  0.85613000  0.28483000  0.21533000  1.0
  H  H11  1  0.71518000  0.14387000  0.78467000  1.0
  H  H12  1  0.78467000  0.71517000  0.14387000  1.0
  H  H13  1  0.14387000  0.78466000  0.71518000  1.0
  H  H14  1  0.37326000  0.03369000  0.97035000  1.0
  H  H15  1  0.03369000  0.97035000  0.37326000  1.0
  H  H16  1  0.97035000  0.37326000  0.03369000  1.0
  H  H17  1  0.62674000  0.02965000  0.96630000  1.0
  H  H18  1  0.96631000  0.62674000  0.02965000  1.0
  H  H19  1  0.02965000  0.96630000  0.62674000  1.0
  C  C20  1  0.46265000  0.53735000  0.00000000  1.0
  C  C21  1  0.53734000  0.00000000  0.46265000  1.0
  C  C22  1  0.00000000  0.46265000  0.53735000  1.0
  C  C23  1  0.31848000  0.58837000  0.91647000  1.0
  C  C24  1  0.58837000  0.91646000  0.31849000  1.0
  C  C25  1  0.91647000  0.31848000  0.58838000  1.0
  C  C26  1  0.68150000  0.08354000  0.41164000  1.0
  C  C27  1  0.41164000  0.68151000  0.08354000  1.0
  C  C28  1  0.08353000  0.41165000  0.68151000  1.0
  O  O29  1  0.46132000  0.37599000  0.11931000  1.0
  O  O30  1  0.37599000  0.11931000  0.46132000  1.0
  O  O31  1  0.11932000  0.46132000  0.37599000  1.0
  O  O32  1  0.53868000  0.88068000  0.62400000  1.0
  O  O33  1  0.62400000  0.53868000  0.88068000  1.0
  O  O34  1  0.88068000  0.62400000  0.53868000  1.0
  O  O35  1  0.20185000  0.51478000  0.00182000  1.0
  O  O36  1  0.51478000  0.00182000  0.20184000  1.0
  O  O37  1  0.00182000  0.20184000  0.51478000  1.0
  O  O38  1  0.79814000  0.99820000  0.48523000  1.0
  O  O39  1  0.48523000  0.79815000  0.99818000  1.0
  O  O40  1  0.99818000  0.48523000  0.79815000  1.0
  O  O41  1  0.32299000  0.70394000  0.77475000  1.0
  O  O42  1  0.70394000  0.77476000  0.32299000  1.0
  O  O43  1  0.77477000  0.32298000  0.70394000  1.0
  O  O44  1  0.67700000  0.22525000  0.29606000  1.0
  O  O45  1  0.29607000  0.67700000  0.22525000  1.0
  O  O46  1  0.22525000  0.29606000  0.67700000  1.0
  O  O47  1  0.31826000  0.15557000  0.96425000  1.0
  O  O48  1  0.15557000  0.96424000  0.31825000  1.0
  O  O49  1  0.96424000  0.31825000  0.15558000  1.0
  O  O50  1  0.68174000  0.03576000  0.84442000  1.0
  O  O51  1  0.84442000  0.68174000  0.03575000  1.0
  O  O52  1  0.03576000  0.84442000  0.68174000  1.0
