# generated using pymatgen
data_ErH5C6(NO3)2
_symmetry_space_group_name_H-M   'P 1'
_cell_length_a   5.99248000
_cell_length_b   11.81692896
_cell_length_c   12.39896973
_cell_angle_alpha   77.14182347
_cell_angle_beta   76.03099555
_cell_angle_gamma   75.34040795
_symmetry_Int_Tables_number   1
_chemical_formula_structural   ErH5C6(NO3)2
_chemical_formula_sum   'Er4 H20 C24 N8 O24'
_cell_volume   812.02250526
_cell_formula_units_Z   4
loop_
 _symmetry_equiv_pos_site_id
 _symmetry_equiv_pos_as_xyz
  1  'x, y, z'
loop_
 _atom_site_type_symbol
 _atom_site_label
 _atom_site_symmetry_multiplicity
 _atom_site_fract_x
 _atom_site_fract_y
 _atom_site_fract_z
 _atom_site_occupancy
  Er  Er0  1  0.17723000  0.02769000  0.36074000  1.0
  Er  Er1  1  0.56578000  0.47246000  0.13925000  1.0
  Er  Er2  1  0.82278000  0.97231000  0.63925000  1.0
  Er  Er3  1  0.43422000  0.52754000  0.86075000  1.0
  H  H4  1  0.23515000  0.85902000  0.21101000  1.0
  H  H5  1  0.30513000  0.64096000  0.28910000  1.0
  H  H6  1  0.76485000  0.14098000  0.78899000  1.0
  H  H7  1  0.69487000  0.35904000  0.71090000  1.0
  H  H8  1  0.99762000  0.84293000  0.30467000  1.0
  H  H9  1  0.14549000  0.65709000  0.19525000  1.0
  H  H10  1  0.00238000  0.15707000  0.69533000  1.0
  H  H11  1  0.85452000  0.34291000  0.80475000  1.0
  H  H12  1  0.67482000  0.06328000  0.42810000  1.0
  H  H13  1  0.16622000  0.43663000  0.07193000  1.0
  H  H14  1  0.32518000  0.93672000  0.57190000  1.0
  H  H15  1  0.83376000  0.56337000  0.92808000  1.0
  H  H16  1  0.12615000  0.48660000  0.66598000  1.0
  H  H17  1  0.27970000  0.01324000  0.83390000  1.0
  H  H18  1  0.87385000  0.51340000  0.33402000  1.0
  H  H19  1  0.72029000  0.98676000  0.16610000  1.0
  H  H20  1  0.11176000  0.55384000  0.45650000  1.0
  H  H21  1  0.12315000  0.94634000  0.04336000  1.0
  H  H22  1  0.88824000  0.44615000  0.54351000  1.0
  H  H23  1  0.87686000  0.05366000  0.95664000  1.0
  C  C24  1  0.62338000  0.79246000  0.39697000  1.0
  C  C25  1  0.81329000  0.70765000  0.10310000  1.0
  C  C26  1  0.37662000  0.20754000  0.60303000  1.0
  C  C27  1  0.18670000  0.29235000  0.89691000  1.0
  C  C28  1  0.46884000  0.71237000  0.47693000  1.0
  C  C29  1  0.65875000  0.78769000  0.02309000  1.0
  C  C30  1  0.53117000  0.28763000  0.52306000  1.0
  C  C31  1  0.34124000  0.21231000  0.97692000  1.0
  C  C32  1  0.46608000  0.68077000  0.59366000  1.0
  C  C33  1  0.74119000  0.81924000  0.90635000  1.0
  C  C34  1  0.53392000  0.31923000  0.40634000  1.0
  C  C35  1  0.25881000  0.18076000  0.09365000  1.0
  C  C36  1  0.58537000  0.73577000  0.65681000  1.0
  C  C37  1  0.97852000  0.76422000  0.84327000  1.0
  C  C38  1  0.41463000  0.26423000  0.34319000  1.0
  C  C39  1  0.02147000  0.23578000  0.15673000  1.0
  C  C40  1  0.22116000  0.55259000  0.61168000  1.0
  C  C41  1  0.38635000  0.94731000  0.88823000  1.0
  C  C42  1  0.77884000  0.44741000  0.38832000  1.0
  C  C43  1  0.61365000  0.05269000  0.11177000  1.0
  C  C44  1  0.21623000  0.58817000  0.49713000  1.0
  C  C45  1  0.30248000  0.91187000  0.00279000  1.0
  C  C46  1  0.78376000  0.41183000  0.50287000  1.0
  C  C47  1  0.69752000  0.08813000  0.99721000  1.0
  N  N48  1  0.34359000  0.66407000  0.42960000  1.0
  N  N49  1  0.43799000  0.83599000  0.07038000  1.0
  N  N50  1  0.65641000  0.33593000  0.57040000  1.0
  N  N51  1  0.56201000  0.16401000  0.92962000  1.0
  N  N52  1  0.35055000  0.59788000  0.65848000  1.0
  N  N53  1  0.60769000  0.90202000  0.84145000  1.0
  N  N54  1  0.64947000  0.40211000  0.34152000  1.0
  N  N55  1  0.39231000  0.09798000  0.15855000  1.0
  O  O56  1  0.52426000  0.89292000  0.34861000  1.0
  O  O57  1  0.76592000  0.60726000  0.15155000  1.0
  O  O58  1  0.47575000  0.10707000  0.65139000  1.0
  O  O59  1  0.23409000  0.39274000  0.84845000  1.0
  O  O60  1  0.84031000  0.74922000  0.38154000  1.0
  O  O61  1  0.97169000  0.75091000  0.11846000  1.0
  O  O62  1  0.15970000  0.25078000  0.61845000  1.0
  O  O63  1  0.02831000  0.24909000  0.88155000  1.0
  O  O64  1  0.64252000  0.83417000  0.60910000  1.0
  O  O65  1  0.08594000  0.66574000  0.89096000  1.0
  O  O66  1  0.35748000  0.16583000  0.39090000  1.0
  O  O67  1  0.91406000  0.33427000  0.10904000  1.0
  O  O68  1  0.61535000  0.68090000  0.75366000  1.0
  O  O69  1  0.05053000  0.81910000  0.74642000  1.0
  O  O70  1  0.38465000  0.31910000  0.24634000  1.0
  O  O71  1  0.94945000  0.18090000  0.25358000  1.0
  O  O72  1  0.10428000  0.90018000  0.26409000  1.0
  O  O73  1  0.26872000  0.59985000  0.23587000  1.0
  O  O74  1  0.89571000  0.09982000  0.73592000  1.0
  O  O75  1  0.73127000  0.40015000  0.76414000  1.0
  O  O76  1  0.81925000  0.03461000  0.45768000  1.0
  O  O77  1  0.31156000  0.46534000  0.04235000  1.0
  O  O78  1  0.18075000  0.96539000  0.54232000  1.0
  O  O79  1  0.68843000  0.53466000  0.95766000  1.0
