# generated using pymatgen
data_LaH9C11NO8
_symmetry_space_group_name_H-M   'P 1'
_cell_length_a   6.91614000
_cell_length_b   13.62360000
_cell_length_c   14.26450000
_cell_angle_alpha   67.28800000
_cell_angle_beta   89.99990000
_cell_angle_gamma   89.99980000
_symmetry_Int_Tables_number   1
_chemical_formula_structural   LaH9C11NO8
_chemical_formula_sum   'La4 H36 C44 N4 O32'
_cell_volume   1239.81949069
_cell_formula_units_Z   4
loop_
 _symmetry_equiv_pos_site_id
 _symmetry_equiv_pos_as_xyz
  1  'x, y, z'
loop_
 _atom_site_type_symbol
 _atom_site_label
 _atom_site_symmetry_multiplicity
 _atom_site_fract_x
 _atom_site_fract_y
 _atom_site_fract_z
 _atom_site_occupancy
  La  La0  1  0.57927000  0.53496000  0.63296000  1.0
  La  La1  1  0.07925000  0.96504000  0.36704000  1.0
  La  La2  1  0.42072000  0.46504000  0.36704000  1.0
  La  La3  1  0.92073000  0.03496000  0.63296000  1.0
  H  H4  1  0.88401000  0.19661000  0.88000000  1.0
  H  H5  1  0.38400000  0.30340000  0.12000000  1.0
  H  H6  1  0.11600000  0.80340000  0.12000000  1.0
  H  H7  1  0.61599000  0.69660000  0.88000000  1.0
  H  H8  1  0.16187000  0.22906000  0.97877000  1.0
  H  H9  1  0.66187000  0.27095000  0.02123000  1.0
  H  H10  1  0.83812000  0.77095000  0.02123000  1.0
  H  H11  1  0.33812000  0.72905000  0.97877000  1.0
  H  H12  1  0.42831000  0.35186000  0.88204000  1.0
  H  H13  1  0.92830000  0.14815000  0.11795000  1.0
  H  H14  1  0.57169000  0.64815000  0.11796000  1.0
  H  H15  1  0.07169000  0.85185000  0.88205000  1.0
  H  H16  1  0.20156000  0.53690000  0.84542000  1.0
  H  H17  1  0.70156000  0.96310000  0.15458000  1.0
  H  H18  1  0.79844000  0.46310000  0.15458000  1.0
  H  H19  1  0.29844000  0.03690000  0.84542000  1.0
  H  H20  1  0.64800000  0.46873000  0.99429000  1.0
  H  H21  1  0.14800000  0.03127000  0.00571000  1.0
  H  H22  1  0.35201000  0.53128000  0.00571000  1.0
  H  H23  1  0.85201000  0.96872000  0.99429000  1.0
  H  H24  1  0.13504000  0.57497000  0.69141000  1.0
  H  H25  1  0.63503000  0.92503000  0.30859000  1.0
  H  H26  1  0.86497000  0.42503000  0.30859000  1.0
  H  H27  1  0.36498000  0.07497000  0.69141000  1.0
  H  H28  1  0.20628000  0.68397000  0.61276000  1.0
  H  H29  1  0.70627000  0.81603000  0.38725000  1.0
  H  H30  1  0.79373000  0.31603000  0.38724000  1.0
  H  H31  1  0.29373000  0.18397000  0.61276000  1.0
  H  H32  1  0.47051000  0.77131000  0.49130000  1.0
  H  H33  1  0.97052000  0.72869000  0.50870000  1.0
  H  H34  1  0.52949000  0.22869000  0.50870000  1.0
  H  H35  1  0.02947000  0.27131000  0.49129000  1.0
  H  H36  1  0.43388000  0.70158000  0.42392000  1.0
  H  H37  1  0.93388000  0.79841000  0.57609000  1.0
  H  H38  1  0.56613000  0.29842000  0.57608000  1.0
  H  H39  1  0.06611000  0.20158000  0.42392000  1.0
  C  C40  1  0.16524000  0.36031000  0.68803000  1.0
  C  C41  1  0.66523000  0.13969000  0.31197000  1.0
  C  C42  1  0.83477000  0.63969000  0.31197000  1.0
  C  C43  1  0.33476000  0.86030000  0.68804000  1.0
  C  C44  1  0.00690000  0.29630000  0.73530000  1.0
  C  C45  1  0.50689000  0.20370000  0.26471000  1.0
  C  C46  1  0.99311000  0.70370000  0.26470000  1.0
  C  C47  1  0.49310000  0.79630000  0.73530000  1.0
  C  C48  1  0.00477000  0.24780000  0.84145000  1.0
  C  C49  1  0.50476000  0.25221000  0.15856000  1.0
  C  C50  1  0.99524000  0.75220000  0.15855000  1.0
  C  C51  1  0.49523000  0.74779000  0.84145000  1.0
  C  C52  1  0.15762000  0.26572000  0.89603000  1.0
  C  C53  1  0.65760000  0.23429000  0.10397000  1.0
  C  C54  1  0.84239000  0.73429000  0.10397000  1.0
  C  C55  1  0.34238000  0.76571000  0.89604000  1.0
  C  C56  1  0.30738000  0.33285000  0.84303000  1.0
  C  C57  1  0.80736000  0.16715000  0.15697000  1.0
  C  C58  1  0.69263000  0.66715000  0.15697000  1.0
  C  C59  1  0.19262000  0.83284000  0.84303000  1.0
  C  C60  1  0.18810000  0.40910000  0.57440000  1.0
  C  C61  1  0.68809000  0.09090000  0.42560000  1.0
  C  C62  1  0.81191000  0.59090000  0.42560000  1.0
  C  C63  1  0.31191000  0.90909000  0.57440000  1.0
  C  C64  1  0.83644000  0.28102000  0.67719000  1.0
  C  C65  1  0.33644000  0.21898000  0.32281000  1.0
  C  C66  1  0.16357000  0.71898000  0.32280000  1.0
  C  C67  1  0.66357000  0.78102000  0.67720000  1.0
  C  C68  1  0.11311000  0.52010000  0.91293000  1.0
  C  C69  1  0.61311000  0.97990000  0.08707000  1.0
  C  C70  1  0.88689000  0.47990000  0.08707000  1.0
  C  C71  1  0.38690000  0.02010000  0.91293000  1.0
  C  C72  1  0.91414000  0.50185000  0.91025000  1.0
  C  C73  1  0.41414000  0.99815000  0.08975000  1.0
  C  C74  1  0.08586000  0.49815000  0.08975000  1.0
  C  C75  1  0.58587000  0.00185000  0.91025000  1.0
  C  C76  1  0.80243000  0.48249000  0.99772000  1.0
  C  C77  1  0.30244000  0.01751000  0.00228000  1.0
  C  C78  1  0.19757000  0.51751000  0.00229000  1.0
  C  C79  1  0.69757000  0.98249000  0.99771000  1.0
  C  C80  1  0.81814000  0.49998000  0.81702000  1.0
  C  C81  1  0.31814000  0.00002000  0.18298000  1.0
  C  C82  1  0.18185000  0.50002000  0.18298000  1.0
  C  C83  1  0.68186000  0.99998000  0.81702000  1.0
  N  N84  1  0.31095000  0.37957000  0.74147000  1.0
  N  N85  1  0.81094000  0.12043000  0.25853000  1.0
  N  N86  1  0.68905000  0.62042000  0.25853000  1.0
  N  N87  1  0.18904000  0.87957000  0.74147000  1.0
  O  O88  1  0.32788000  0.47558000  0.54029000  1.0
  O  O89  1  0.82787000  0.02442000  0.45971000  1.0
  O  O90  1  0.67213000  0.52441000  0.45971000  1.0
  O  O91  1  0.17212000  0.97558000  0.54029000  1.0
  O  O92  1  0.82953000  0.19852000  0.65762000  1.0
  O  O93  1  0.32953000  0.30148000  0.34238000  1.0
  O  O94  1  0.17048000  0.80148000  0.34237000  1.0
  O  O95  1  0.67049000  0.69853000  0.65762000  1.0
  O  O96  1  0.70099000  0.34944000  0.65611000  1.0
  O  O97  1  0.20099000  0.15056000  0.34389000  1.0
  O  O98  1  0.29901000  0.65056000  0.34388000  1.0
  O  O99  1  0.79901000  0.84944000  0.65612000  1.0
  O  O100  1  0.63685000  0.47942000  0.82157000  1.0
  O  O101  1  0.13685000  0.02058000  0.17843000  1.0
  O  O102  1  0.36315000  0.52058000  0.17844000  1.0
  O  O103  1  0.86316000  0.97942000  0.82157000  1.0
  O  O104  1  0.25555000  0.61578000  0.66233000  1.0
  O  O105  1  0.75554000  0.88422000  0.33767000  1.0
  O  O106  1  0.74446000  0.38422000  0.33766000  1.0
  O  O107  1  0.24447000  0.11577000  0.66233000  1.0
  O  O108  1  0.52273000  0.71255000  0.47388000  1.0
  O  O109  1  0.02273000  0.78745000  0.52612000  1.0
  O  O110  1  0.47726000  0.28745000  0.52612000  1.0
  O  O111  1  0.97726000  0.21255000  0.47388000  1.0
  O  O112  1  0.91400000  0.51845000  0.73544000  1.0
  O  O113  1  0.41399000  0.98156000  0.26456000  1.0
  O  O114  1  0.08600000  0.48155000  0.26456000  1.0
  O  O115  1  0.58600000  0.01845000  0.73544000  1.0
  O  O116  1  0.91676000  0.61842000  0.48325000  1.0
  O  O117  1  0.41677000  0.88157000  0.51676000  1.0
  O  O118  1  0.08324000  0.38157000  0.51675000  1.0
  O  O119  1  0.58323000  0.11843000  0.48325000  1.0
