# generated using pymatgen
data_Dy2H17C18N3O13
_symmetry_space_group_name_H-M   'P 1'
_cell_length_a   16.52940000
_cell_length_b   16.53069912
_cell_length_c   17.68067173
_cell_angle_alpha   117.87701839
_cell_angle_beta   89.98987229
_cell_angle_gamma   120.00300016
_symmetry_Int_Tables_number   1
_chemical_formula_structural   Dy2H17C18N3O13
_chemical_formula_sum   'Dy8 H68 C72 N12 O52'
_cell_volume   3521.77970851
_cell_formula_units_Z   4
loop_
 _symmetry_equiv_pos_site_id
 _symmetry_equiv_pos_as_xyz
  1  'x, y, z'
loop_
 _atom_site_type_symbol
 _atom_site_label
 _atom_site_symmetry_multiplicity
 _atom_site_fract_x
 _atom_site_fract_y
 _atom_site_fract_z
 _atom_site_occupancy
  Dy  Dy0  1  0.19060000  0.38122000  0.57191000  1.0
  Dy  Dy1  1  0.80940000  0.61878000  0.42809000  1.0
  Dy  Dy2  1  0.16923000  0.39017000  0.78956000  1.0
  Dy  Dy3  1  0.39931000  0.56868000  0.78959000  1.0
  Dy  Dy4  1  0.22079000  0.62020000  0.78955000  1.0
  Dy  Dy5  1  0.83077000  0.60983000  0.21044000  1.0
  Dy  Dy6  1  0.60069000  0.43132000  0.21041000  1.0
  Dy  Dy7  1  0.77922000  0.37980000  0.21045000  1.0
  H  H8  1  0.61406000  0.40687000  0.98916000  1.0
  H  H9  1  0.58231000  0.19639000  0.98903000  1.0
  H  H10  1  0.79263000  0.37499000  0.98923000  1.0
  H  H11  1  0.38594000  0.59313000  0.01084000  1.0
  H  H12  1  0.41769000  0.80361000  0.01097000  1.0
  H  H13  1  0.20737000  0.62501000  0.01077000  1.0
  H  H14  1  0.77411000  0.86148000  0.31084000  1.0
  H  H15  1  0.44942000  0.22346000  0.31084000  1.0
  H  H16  1  0.08723000  0.53661000  0.31080000  1.0
  H  H17  1  0.22589000  0.13852000  0.68916000  1.0
  H  H18  1  0.55058000  0.77654000  0.68916000  1.0
  H  H19  1  0.91277000  0.46339000  0.68920000  1.0
  H  H20  1  0.89091000  0.01990000  0.63434000  1.0
  H  H21  1  0.61456000  0.50546000  0.63434000  1.0
  H  H22  1  0.12932000  0.74362000  0.63440000  1.0
  H  H23  1  0.10909000  0.98010000  0.36566000  1.0
  H  H24  1  0.38544000  0.49454000  0.36566000  1.0
  H  H25  1  0.87068000  0.25638000  0.36560000  1.0
  H  H26  1  0.73419000  0.83014000  0.52864000  1.0
  H  H27  1  0.69860000  0.43280000  0.52860000  1.0
  H  H28  1  0.09613000  0.79453000  0.52870000  1.0
  H  H29  1  0.26581000  0.16986000  0.47136000  1.0
  H  H30  1  0.30140000  0.56720000  0.47140000  1.0
  H  H31  1  0.90387000  0.20547000  0.47130000  1.0
  H  H32  1  0.54644000  0.45170000  0.89581000  1.0
  H  H33  1  0.44417000  0.99057000  0.89576000  1.0
  H  H34  1  0.90524000  0.34946000  0.89597000  1.0
  H  H35  1  0.45356000  0.54830000  0.10419000  1.0
  H  H36  1  0.55583000  0.00943000  0.10424000  1.0
  H  H37  1  0.09476000  0.65054000  0.10403000  1.0
  H  H38  1  0.25815000  0.23607000  0.89717000  1.0
  H  H39  1  0.66121000  0.91940000  0.89732000  1.0
  H  H40  1  0.97767000  0.63899000  0.89728000  1.0
  H  H41  1  0.74186000  0.76394000  0.10284000  1.0
  H  H42  1  0.33879000  0.08060000  0.10268000  1.0
  H  H43  1  0.02233000  0.36101000  0.10272000  1.0
  H  H44  1  0.33638000  0.20156000  0.99174000  1.0
  H  H45  1  0.79025000  0.12675000  0.99186000  1.0
  H  H46  1  0.86483000  0.65521000  0.99184000  1.0
  H  H47  1  0.66362000  0.79844000  0.00826000  1.0
  H  H48  1  0.20974000  0.87324000  0.00814000  1.0
  H  H49  1  0.13519000  0.34481000  0.00817000  1.0
  H  H50  1  0.93589000  0.05267000  0.40802000  1.0
  H  H51  1  0.35548000  0.29127000  0.40806000  1.0
  H  H52  1  0.11685000  0.47217000  0.40801000  1.0
  H  H53  1  0.06411000  0.94733000  0.59198000  1.0
  H  H54  1  0.64452000  0.70873000  0.59194000  1.0
  H  H55  1  0.88315000  0.52783000  0.59199000  1.0
  H  H56  1  0.12246000  0.24408000  0.36568000  1.0
  H  H57  1  0.87754000  0.75592000  0.63432000  1.0
  H  H58  1  0.04014000  0.18433000  0.76392000  1.0
  H  H59  1  0.57953000  0.61973000  0.76392000  1.0
  H  H60  1  0.14429000  0.72378000  0.76398000  1.0
  H  H61  1  0.95986000  0.81567000  0.23609000  1.0
  H  H62  1  0.42048000  0.38027000  0.23608000  1.0
  H  H63  1  0.85571000  0.27622000  0.23602000  1.0
  H  H64  1  0.13825000  0.24085000  0.83328000  1.0
  H  H65  1  0.59236000  0.73070000  0.83326000  1.0
  H  H66  1  0.10262000  0.69499000  0.83332000  1.0
  H  H67  1  0.86175000  0.75915000  0.16672000  1.0
  H  H68  1  0.40763000  0.26929000  0.16674000  1.0
  H  H69  1  0.89737000  0.30500000  0.16668000  1.0
  H  H70  1  0.04940000  0.38596000  0.67425000  1.0
  H  H71  1  0.28821000  0.33778000  0.67430000  1.0
  H  H72  1  0.33641000  0.62470000  0.67429000  1.0
  H  H73  1  0.95059000  0.61403000  0.32574000  1.0
  H  H74  1  0.71179000  0.66222000  0.32570000  1.0
  H  H75  1  0.66359000  0.37530000  0.32571000  1.0
  C  C76  1  0.39694000  0.34730000  0.88940000  1.0
  C  C77  1  0.54215000  0.93909000  0.88944000  1.0
  C  C78  1  0.95024000  0.49252000  0.88956000  1.0
  C  C79  1  0.60306000  0.65270000  0.11060000  1.0
  C  C80  1  0.45785000  0.06091000  0.11056000  1.0
  C  C81  1  0.04976000  0.50748000  0.11044000  1.0
  C  C82  1  0.35495000  0.38208000  0.84514000  1.0
  C  C83  1  0.46307000  0.81806000  0.84518000  1.0
  C  C84  1  0.02701000  0.49028000  0.84527000  1.0
  C  C85  1  0.64505000  0.61792000  0.15486000  1.0
  C  C86  1  0.53693000  0.18194000  0.15482000  1.0
  C  C87  1  0.97299000  0.50973000  0.15473000  1.0
  C  C88  1  0.53613000  0.37049000  0.96437000  1.0
  C  C89  1  0.59392000  0.13007000  0.96429000  1.0
  C  C90  1  0.83416000  0.42815000  0.96443000  1.0
  C  C91  1  0.46387000  0.62951000  0.03563000  1.0
  C  C92  1  0.40607000  0.86992000  0.03570000  1.0
  C  C93  1  0.16585000  0.57186000  0.03557000  1.0
  C  C94  1  0.80441000  0.90362000  0.38290000  1.0
  C  C95  1  0.47939000  0.28374000  0.38291000  1.0
  C  C96  1  0.09924000  0.57849000  0.38289000  1.0
  C  C97  1  0.19558000  0.09637000  0.61709000  1.0
  C  C98  1  0.52061000  0.71626000  0.61709000  1.0
  C  C99  1  0.90076000  0.42151000  0.61711000  1.0
  C  C100  1  0.92450000  0.05147000  0.52886000  1.0
  C  C101  1  0.47745000  0.40194000  0.52889000  1.0
  C  C102  1  0.12720000  0.60446000  0.52888000  1.0
  C  C103  1  0.07550000  0.94853000  0.47114000  1.0
  C  C104  1  0.52255000  0.59806000  0.47111000  1.0
  C  C105  1  0.87280000  0.39554000  0.47112000  1.0
  C  C106  1  0.86742000  0.98864000  0.56341000  1.0
  C  C107  1  0.57487000  0.44230000  0.56342000  1.0
  C  C108  1  0.12153000  0.69615000  0.56347000  1.0
  C  C109  1  0.13258000  0.01136000  0.43659000  1.0
  C  C110  1  0.42513000  0.55770000  0.43658000  1.0
  C  C111  1  0.87848000  0.30385000  0.43653000  1.0
  C  C112  1  0.01882000  0.16305000  0.58573000  1.0
  C  C113  1  0.42264000  0.44145000  0.58575000  1.0
  C  C114  1  0.14433000  0.56687000  0.58570000  1.0
  C  C115  1  0.98117000  0.83694000  0.41426000  1.0
  C  C116  1  0.57737000  0.55856000  0.41426000  1.0
  C  C117  1  0.85567000  0.43313000  0.41430000  1.0
  C  C118  1  0.78118000  0.88558000  0.50786000  1.0
  C  C119  1  0.62236000  0.40356000  0.50784000  1.0
  C  C120  1  0.10462000  0.72679000  0.50790000  1.0
  C  C121  1  0.21882000  0.11442000  0.49214000  1.0
  C  C122  1  0.37764000  0.59644000  0.49216000  1.0
  C  C123  1  0.89538000  0.27321000  0.49210000  1.0
  C  C124  1  0.49767000  0.39392000  0.91411000  1.0
  C  C125  1  0.52024000  0.01790000  0.91407000  1.0
  C  C126  1  0.89615000  0.41646000  0.91424000  1.0
  C  C127  1  0.50233000  0.60608000  0.08589000  1.0
  C  C128  1  0.47976000  0.98210000  0.08593000  1.0
  C  C129  1  0.10386000  0.58355000  0.08576000  1.0
  C  C130  1  0.33684000  0.27411000  0.91487000  1.0
  C  C131  1  0.64083000  0.97772000  0.91498000  1.0
  C  C132  1  0.93704000  0.57800000  0.91499000  1.0
  C  C133  1  0.66316000  0.72589000  0.08513000  1.0
  C  C134  1  0.35917000  0.02228000  0.08502000  1.0
  C  C135  1  0.06296000  0.42200000  0.08501000  1.0
  C  C136  1  0.37707000  0.25296000  0.96577000  1.0
  C  C137  1  0.71285000  0.09001000  0.96584000  1.0
  C  C138  1  0.87558000  0.58856000  0.96583000  1.0
  C  C139  1  0.62292000  0.74703000  0.03423000  1.0
  C  C140  1  0.28715000  0.90999000  0.03416000  1.0
  C  C141  1  0.12442000  0.41144000  0.03417000  1.0
  C  C142  1  0.89132000  0.00612000  0.43669000  1.0
  C  C143  1  0.43066000  0.32193000  0.43671000  1.0
  C  C144  1  0.11494000  0.54543000  0.43670000  1.0
  C  C145  1  0.10868000  0.99388000  0.56331000  1.0
  C  C146  1  0.56933000  0.67807000  0.56329000  1.0
  C  C147  1  0.88506000  0.45457000  0.56330000  1.0
  N  N148  1  0.47590000  0.30232000  0.99139000  1.0
  N  N149  1  0.68911000  0.16508000  0.99138000  1.0
  N  N150  1  0.82615000  0.51534000  0.99145000  1.0
  N  N151  1  0.52410000  0.69768000  0.00861000  1.0
  N  N152  1  0.31089000  0.83492000  0.00862000  1.0
  N  N153  1  0.17385000  0.48466000  0.00855000  1.0
  N  N154  1  0.74920000  0.84370000  0.41828000  1.0
  N  N155  1  0.57469000  0.32384000  0.41826000  1.0
  N  N156  1  0.09462000  0.66914000  0.41830000  1.0
  N  N157  1  0.25080000  0.15630000  0.58172000  1.0
  N  N158  1  0.42531000  0.67616000  0.58174000  1.0
  N  N159  1  0.90538000  0.33086000  0.58170000  1.0
  O  O160  1  0.51261000  0.28535000  0.04355000  1.0
  O  O161  1  0.75821000  0.27095000  0.04355000  1.0
  O  O162  1  0.77250000  0.53079000  0.04365000  1.0
  O  O163  1  0.48739000  0.71465000  0.95645000  1.0
  O  O164  1  0.24179000  0.72905000  0.95645000  1.0
  O  O165  1  0.22750000  0.46921000  0.95635000  1.0
  O  O166  1  0.28087000  0.56188000  0.84284000  1.0
  O  O167  1  0.71913000  0.43812000  0.15716000  1.0
  O  O168  1  0.12181000  0.42669000  0.69111000  1.0
  O  O169  1  0.26433000  0.38629000  0.69115000  1.0
  O  O170  1  0.30473000  0.56913000  0.69111000  1.0
  O  O171  1  0.87819000  0.57331000  0.30889000  1.0
  O  O172  1  0.73567000  0.61371000  0.30885000  1.0
  O  O173  1  0.69527000  0.43087000  0.30889000  1.0
  O  O174  1  0.41446000  0.46666000  0.84245000  1.0
  O  O175  1  0.37581000  0.79028000  0.84248000  1.0
  O  O176  1  0.05216000  0.42816000  0.84256000  1.0
  O  O177  1  0.58556000  0.53335000  0.15756000  1.0
  O  O178  1  0.62419000  0.20972000  0.15752000  1.0
  O  O179  1  0.94784000  0.57184000  0.15744000  1.0
  O  O180  1  0.66803000  0.74641000  0.36640000  1.0
  O  O181  1  0.62007000  0.28804000  0.36637000  1.0
  O  O182  1  0.07846000  0.69839000  0.36642000  1.0
  O  O183  1  0.33196000  0.25358000  0.63360000  1.0
  O  O184  1  0.37993000  0.71196000  0.63363000  1.0
  O  O185  1  0.92154000  0.30161000  0.63358000  1.0
  O  O186  1  0.26154000  0.32677000  0.81750000  1.0
  O  O187  1  0.49072000  0.75228000  0.81750000  1.0
  O  O188  1  0.06502000  0.55599000  0.81755000  1.0
  O  O189  1  0.73846000  0.67323000  0.18250000  1.0
  O  O190  1  0.50927000  0.24771000  0.18250000  1.0
  O  O191  1  0.93498000  0.44401000  0.18245000  1.0
  O  O192  1  0.06528000  0.20880000  0.54540000  1.0
  O  O193  1  0.33651000  0.40164000  0.54539000  1.0
  O  O194  1  0.14372000  0.48016000  0.54533000  1.0
  O  O195  1  0.93472000  0.79120000  0.45460000  1.0
  O  O196  1  0.66350000  0.59837000  0.45462000  1.0
  O  O197  1  0.85628000  0.51984000  0.45467000  1.0
  O  O198  1  0.07506000  0.23268000  0.82889000  1.0
  O  O199  1  0.59624000  0.67136000  0.82890000  1.0
  O  O200  1  0.15781000  0.75370000  0.82894000  1.0
  O  O201  1  0.92494000  0.76732000  0.17111000  1.0
  O  O202  1  0.40376000  0.32864000  0.17110000  1.0
  O  O203  1  0.84220000  0.24630000  0.17106000  1.0
  O  O204  1  0.04620000  0.20407000  0.67014000  1.0
  O  O205  1  0.46601000  0.51229000  0.67014000  1.0
  O  O206  1  0.15771000  0.62369000  0.67007000  1.0
  O  O207  1  0.95379000  0.79592000  0.32986000  1.0
  O  O208  1  0.53399000  0.48771000  0.32986000  1.0
  O  O209  1  0.84229000  0.37631000  0.32993000  1.0
  O  O210  1  0.14324000  0.28675000  0.43037000  1.0
  O  O211  1  0.85676000  0.71324000  0.56963000  1.0
