# generated using pymatgen
data_CdH13C14(NO2)2
_symmetry_space_group_name_H-M   'P 1'
_cell_length_a   7.74140000
_cell_length_b   11.96410000
_cell_length_c   15.34480000
_cell_angle_alpha   96.03880000
_cell_angle_beta   89.99990000
_cell_angle_gamma   90.00000000
_symmetry_Int_Tables_number   1
_chemical_formula_structural   CdH13C14(NO2)2
_chemical_formula_sum   'Cd4 H52 C56 N8 O16'
_cell_volume   1413.33173937
_cell_formula_units_Z   4
loop_
 _symmetry_equiv_pos_site_id
 _symmetry_equiv_pos_as_xyz
  1  'x, y, z'
loop_
 _atom_site_type_symbol
 _atom_site_label
 _atom_site_symmetry_multiplicity
 _atom_site_fract_x
 _atom_site_fract_y
 _atom_site_fract_z
 _atom_site_occupancy
  Cd  Cd0  1  0.74531000  0.50151000  0.97458000  1.0
  Cd  Cd1  1  0.24531000  0.99849000  0.52542000  1.0
  Cd  Cd2  1  0.25469000  0.49849000  0.02542000  1.0
  Cd  Cd3  1  0.75469000  0.00151000  0.47458000  1.0
  H  H4  1  0.89072000  0.62077000  0.51816000  1.0
  H  H5  1  0.39072000  0.87923000  0.98184000  1.0
  H  H6  1  0.10928000  0.37923000  0.48184000  1.0
  H  H7  1  0.60928000  0.12077000  0.01816000  1.0
  H  H8  1  0.97173000  0.46535000  0.60676000  1.0
  H  H9  1  0.47173000  0.03465000  0.89324000  1.0
  H  H10  1  0.02827000  0.53465000  0.39324000  1.0
  H  H11  1  0.52827000  0.96535000  0.10676000  1.0
  H  H12  1  0.19894000  0.70716000  0.80093000  1.0
  H  H13  1  0.69894000  0.79284000  0.69907000  1.0
  H  H14  1  0.80106000  0.29284000  0.19907000  1.0
  H  H15  1  0.30106000  0.20716000  0.30093000  1.0
  H  H16  1  0.11870000  0.86143000  0.71137000  1.0
  H  H17  1  0.61870000  0.63857000  0.78863000  1.0
  H  H18  1  0.88130000  0.13857000  0.28863000  1.0
  H  H19  1  0.38130000  0.36143000  0.21137000  1.0
  H  H20  1  0.25445000  0.49108000  0.79597000  1.0
  H  H21  1  0.75445000  0.00892000  0.70403000  1.0
  H  H22  1  0.74555000  0.50892000  0.20403000  1.0
  H  H23  1  0.24555000  0.99108000  0.29597000  1.0
  H  H24  1  0.11065000  0.40063000  0.72955000  1.0
  H  H25  1  0.61065000  0.09937000  0.77045000  1.0
  H  H26  1  0.88935000  0.59937000  0.27045000  1.0
  H  H27  1  0.38935000  0.90063000  0.22955000  1.0
  H  H28  1  0.01240000  0.72170000  0.98453000  1.0
  H  H29  1  0.51240000  0.77830000  0.51548000  1.0
  H  H30  1  0.98759000  0.27830000  0.01548000  1.0
  H  H31  1  0.48760000  0.22170000  0.48453000  1.0
  H  H32  1  0.57486000  0.69131000  0.14396000  1.0
  H  H33  1  0.07486000  0.80869000  0.35604000  1.0
  H  H34  1  0.42514000  0.30869000  0.85604000  1.0
  H  H35  1  0.92514000  0.19131000  0.64396000  1.0
  H  H36  1  0.75757000  0.88185000  0.20923000  1.0
  H  H37  1  0.25757000  0.61815000  0.29077000  1.0
  H  H38  1  0.24243000  0.11815000  0.79077000  1.0
  H  H39  1  0.74243000  0.38185000  0.70923000  1.0
  H  H40  1  0.17308000  0.87739000  0.07874000  1.0
  H  H41  1  0.67309000  0.62261000  0.42126000  1.0
  H  H42  1  0.82691000  0.12261000  0.92126000  1.0
  H  H43  1  0.32692000  0.37739000  0.57874000  1.0
  H  H44  1  0.06754000  0.94795000  0.17129000  1.0
  H  H45  1  0.56755000  0.55205000  0.32870000  1.0
  H  H46  1  0.93245000  0.05205000  0.82870000  1.0
  H  H47  1  0.43245000  0.44795000  0.67130000  1.0
  H  H48  1  0.88563000  0.05515000  0.07491000  1.0
  H  H49  1  0.38563000  0.44485000  0.42509000  1.0
  H  H50  1  0.11437000  0.94485000  0.92509000  1.0
  H  H51  1  0.61437000  0.55515000  0.57491000  1.0
  H  H52  1  0.10895000  0.07944000  0.06396000  1.0
  H  H53  1  0.60895000  0.42056000  0.43604000  1.0
  H  H54  1  0.89105000  0.92056000  0.93604000  1.0
  H  H55  1  0.39105000  0.57944000  0.56396000  1.0
  C  C56  1  0.93157000  0.84247000  0.56055000  1.0
  C  C57  1  0.43157000  0.65753000  0.93945000  1.0
  C  C58  1  0.06843000  0.15753000  0.43945000  1.0
  C  C59  1  0.56843000  0.34247000  0.06055000  1.0
  C  C60  1  0.99647000  0.75040000  0.61004000  1.0
  C  C61  1  0.49647000  0.74960000  0.88996000  1.0
  C  C62  1  0.00353000  0.24960000  0.38996000  1.0
  C  C63  1  0.50353000  0.25040000  0.11004000  1.0
  C  C64  1  0.95865000  0.63842000  0.58018000  1.0
  C  C65  1  0.45865000  0.86158000  0.91982000  1.0
  C  C66  1  0.04135000  0.36158000  0.41982000  1.0
  C  C67  1  0.54135000  0.13842000  0.08018000  1.0
  C  C68  1  0.00466000  0.55211000  0.62964000  1.0
  C  C69  1  0.50466000  0.94789000  0.87037000  1.0
  C  C70  1  0.99534000  0.44789000  0.37037000  1.0
  C  C71  1  0.49534000  0.05211000  0.12963000  1.0
  C  C72  1  0.08898000  0.57588000  0.71031000  1.0
  C  C73  1  0.58897000  0.92412000  0.78969000  1.0
  C  C74  1  0.91103000  0.42412000  0.28969000  1.0
  C  C75  1  0.41102000  0.07588000  0.21030000  1.0
  C  C76  1  0.13186000  0.68786000  0.73874000  1.0
  C  C77  1  0.63186000  0.81213000  0.76126000  1.0
  C  C78  1  0.86814000  0.31214000  0.26126000  1.0
  C  C79  1  0.36814000  0.18786000  0.23874000  1.0
  C  C80  1  0.08685000  0.77432000  0.68910000  1.0
  C  C81  1  0.58684000  0.72568000  0.81090000  1.0
  C  C82  1  0.91316000  0.22568000  0.31090000  1.0
  C  C83  1  0.41315000  0.27432000  0.18910000  1.0
  C  C84  1  0.12443000  0.48315000  0.76741000  1.0
  C  C85  1  0.62443000  0.01685000  0.73260000  1.0
  C  C86  1  0.87557000  0.51685000  0.23259000  1.0
  C  C87  1  0.37557000  0.98315000  0.26741000  1.0
  C  C88  1  0.99521000  0.49223000  0.84287000  1.0
  C  C89  1  0.49521000  0.00777000  0.65713000  1.0
  C  C90  1  0.00479000  0.50777000  0.15713000  1.0
  C  C91  1  0.50480000  0.99223000  0.34287000  1.0
  C  C92  1  0.91422000  0.74010000  0.03433000  1.0
  C  C93  1  0.41422000  0.75990000  0.46567000  1.0
  C  C94  1  0.08578000  0.25990000  0.96567000  1.0
  C  C95  1  0.58578000  0.24010000  0.53433000  1.0
  C  C96  1  0.69220000  0.72684000  0.11995000  1.0
  C  C97  1  0.19221000  0.77316000  0.38005000  1.0
  C  C98  1  0.30779000  0.27316000  0.88005000  1.0
  C  C99  1  0.80780000  0.22684000  0.61995000  1.0
  C  C100  1  0.78063000  0.82218000  0.15187000  1.0
  C  C101  1  0.28063000  0.67782000  0.34812000  1.0
  C  C102  1  0.21937000  0.17782000  0.84813000  1.0
  C  C103  1  0.71937000  0.32218000  0.65188000  1.0
  C  C104  1  0.05155000  0.91774000  0.10180000  1.0
  C  C105  1  0.55155000  0.58227000  0.39820000  1.0
  C  C106  1  0.94845000  0.08226000  0.89820000  1.0
  C  C107  1  0.44845000  0.41773000  0.60180000  1.0
  C  C108  1  0.00697000  0.01607000  0.04950000  1.0
  C  C109  1  0.50697000  0.48393000  0.45050000  1.0
  C  C110  1  0.99303000  0.98393000  0.95050000  1.0
  C  C111  1  0.49303000  0.51607000  0.54950000  1.0
  N  N112  1  0.77693000  0.67644000  0.04678000  1.0
  N  N113  1  0.27693000  0.82356000  0.45322000  1.0
  N  N114  1  0.22307000  0.32356000  0.95322000  1.0
  N  N115  1  0.72307000  0.17644000  0.54678000  1.0
  N  N116  1  0.92052000  0.82930000  0.09652000  1.0
  N  N117  1  0.42053000  0.67070000  0.40348000  1.0
  N  N118  1  0.07947000  0.17070000  0.90348000  1.0
  N  N119  1  0.57947000  0.32930000  0.59652000  1.0
  O  O120  1  0.83126000  0.81789000  0.49552000  1.0
  O  O121  1  0.33125000  0.68211000  0.00448000  1.0
  O  O122  1  0.16875000  0.18211000  0.50448000  1.0
  O  O123  1  0.66875000  0.31789000  0.99552000  1.0
  O  O124  1  0.97360000  0.94482000  0.58649000  1.0
  O  O125  1  0.47360000  0.55518000  0.91351000  1.0
  O  O126  1  0.02640000  0.05518000  0.41351000  1.0
  O  O127  1  0.52640000  0.44482000  0.08649000  1.0
  O  O128  1  0.84623000  0.44816000  0.83103000  1.0
  O  O129  1  0.34623000  0.05183000  0.66897000  1.0
  O  O130  1  0.15377000  0.55184000  0.16897000  1.0
  O  O131  1  0.65377000  0.94817000  0.33103000  1.0
  O  O132  1  0.03823000  0.54757000  0.91513000  1.0
  O  O133  1  0.53823000  0.95243000  0.58487000  1.0
  O  O134  1  0.96177000  0.45243000  0.08487000  1.0
  O  O135  1  0.46178000  0.04756000  0.41513000  1.0
