# generated using pymatgen
data_HgH10C11N2Cl2O
_symmetry_space_group_name_H-M   'P 1'
_cell_length_a   7.68649000
_cell_length_b   9.55348000
_cell_length_c   16.72900000
_cell_angle_alpha   90.00000000
_cell_angle_beta   101.47800000
_cell_angle_gamma   90.00000000
_symmetry_Int_Tables_number   1
_chemical_formula_structural   HgH10C11N2Cl2O
_chemical_formula_sum   'Hg4 H40 C44 N8 Cl8 O4'
_cell_volume   1203.88844724
_cell_formula_units_Z   4
loop_
 _symmetry_equiv_pos_site_id
 _symmetry_equiv_pos_as_xyz
  1  'x, y, z'
loop_
 _atom_site_type_symbol
 _atom_site_label
 _atom_site_symmetry_multiplicity
 _atom_site_fract_x
 _atom_site_fract_y
 _atom_site_fract_z
 _atom_site_occupancy
  Hg  Hg0  1  0.75371000  0.04069000  0.00485000  1.0
  Hg  Hg1  1  0.74629000  0.54069000  0.49515000  1.0
  Hg  Hg2  1  0.24629000  0.95931000  0.99515000  1.0
  Hg  Hg3  1  0.25371000  0.45931000  0.50485000  1.0
  H  H4  1  0.80673000  0.74029000  0.87866000  1.0
  H  H5  1  0.69328000  0.24029000  0.62134000  1.0
  H  H6  1  0.19327000  0.25971000  0.12134000  1.0
  H  H7  1  0.30672000  0.75971000  0.37866000  1.0
  H  H8  1  0.85861000  0.61778000  0.75243000  1.0
  H  H9  1  0.64140000  0.11778000  0.74757000  1.0
  H  H10  1  0.14140000  0.38222000  0.24757000  1.0
  H  H11  1  0.35860000  0.88222000  0.25243000  1.0
  H  H12  1  0.86389000  0.35901000  0.74822000  1.0
  H  H13  1  0.63612000  0.85900000  0.75178000  1.0
  H  H14  1  0.13611000  0.64099000  0.25178000  1.0
  H  H15  1  0.36388000  0.14099000  0.24822000  1.0
  H  H16  1  0.82079000  0.21886000  0.86823000  1.0
  H  H17  1  0.67921000  0.71885000  0.63177000  1.0
  H  H18  1  0.17921000  0.78114000  0.13177000  1.0
  H  H19  1  0.32079000  0.28114000  0.36823000  1.0
  H  H20  1  0.80397000  0.24965000  0.17149000  1.0
  H  H21  1  0.69603000  0.74965000  0.32851000  1.0
  H  H22  1  0.19603000  0.75035000  0.82852000  1.0
  H  H23  1  0.30397000  0.25035000  0.67148000  1.0
  H  H24  1  0.57375000  0.25600000  0.13285000  1.0
  H  H25  1  0.92625000  0.75600000  0.36715000  1.0
  H  H26  1  0.42625000  0.74400000  0.86715000  1.0
  H  H27  1  0.07375000  0.24400000  0.63285000  1.0
  H  H28  1  0.55088000  0.44119000  0.22538000  1.0
  H  H29  1  0.94912000  0.94119000  0.27462000  1.0
  H  H30  1  0.44911000  0.55881000  0.77462000  1.0
  H  H31  1  0.05089000  0.05881000  0.72538000  1.0
  H  H32  1  0.78267000  0.44189000  0.25894000  1.0
  H  H33  1  0.71733000  0.94189000  0.24106000  1.0
  H  H34  1  0.21733000  0.55811000  0.74106000  1.0
  H  H35  1  0.28267000  0.05811000  0.75894000  1.0
  H  H36  1  0.56798000  0.64284000  0.14453000  1.0
  H  H37  1  0.93201000  0.14284000  0.35547000  1.0
  H  H38  1  0.43201000  0.35716000  0.85547000  1.0
  H  H39  1  0.06799000  0.85716000  0.64453000  1.0
  H  H40  1  0.79956000  0.64845000  0.18275000  1.0
  H  H41  1  0.70044000  0.14845000  0.31726000  1.0
  H  H42  1  0.20044000  0.35155000  0.81726000  1.0
  H  H43  1  0.29956000  0.85155000  0.68275000  1.0
  C  C44  1  0.72666000  0.38642000  0.07019000  1.0
  C  C45  1  0.77334000  0.88642000  0.42981000  1.0
  C  C46  1  0.27334000  0.61358000  0.92982000  1.0
  C  C47  1  0.22666000  0.11358000  0.57018000  1.0
  C  C48  1  0.74702000  0.62045000  0.01472000  1.0
  C  C49  1  0.75298000  0.12045000  0.48528000  1.0
  C  C50  1  0.25298000  0.37955000  0.98528000  1.0
  C  C51  1  0.24702000  0.87955000  0.51472000  1.0
  C  C52  1  0.77796000  0.54835000  0.94179000  1.0
  C  C53  1  0.72204000  0.04834000  0.55821000  1.0
  C  C54  1  0.22204000  0.45166000  0.05821000  1.0
  C  C55  1  0.27796000  0.95165000  0.44179000  1.0
  C  C56  1  0.80625000  0.62644000  0.87429000  1.0
  C  C57  1  0.69376000  0.12644000  0.62571000  1.0
  C  C58  1  0.19375000  0.37356000  0.12571000  1.0
  C  C59  1  0.30624000  0.87356000  0.37429000  1.0
  C  C60  1  0.83625000  0.55850000  0.80510000  1.0
  C  C61  1  0.66376000  0.05850000  0.69490000  1.0
  C  C62  1  0.16376000  0.44150000  0.19491000  1.0
  C  C63  1  0.33624000  0.94150000  0.30509000  1.0
  C  C64  1  0.83966000  0.41128000  0.80291000  1.0
  C  C65  1  0.66035000  0.91128000  0.69709000  1.0
  C  C66  1  0.16035000  0.58872000  0.19709000  1.0
  C  C67  1  0.33965000  0.08872000  0.30291000  1.0
  C  C68  1  0.81387000  0.33265000  0.86925000  1.0
  C  C69  1  0.68613000  0.83266000  0.63075000  1.0
  C  C70  1  0.18613000  0.66734000  0.13075000  1.0
  C  C71  1  0.31387000  0.16734000  0.36925000  1.0
  C  C72  1  0.78145000  0.39965000  0.93994000  1.0
  C  C73  1  0.71855000  0.89965000  0.56006000  1.0
  C  C74  1  0.21855000  0.60035000  0.06006000  1.0
  C  C75  1  0.28145000  0.10035000  0.43994000  1.0
  C  C76  1  0.69403000  0.32111000  0.14713000  1.0
  C  C77  1  0.80597000  0.82111000  0.35287000  1.0
  C  C78  1  0.30597000  0.67889000  0.85287000  1.0
  C  C79  1  0.19403000  0.17889000  0.64713000  1.0
  C  C80  1  0.67684000  0.44470000  0.20443000  1.0
  C  C81  1  0.82316000  0.94470000  0.29557000  1.0
  C  C82  1  0.32316000  0.55530000  0.79558000  1.0
  C  C83  1  0.17684000  0.05530000  0.70442000  1.0
  C  C84  1  0.68959000  0.57958000  0.15522000  1.0
  C  C85  1  0.81040000  0.07958000  0.34477000  1.0
  C  C86  1  0.31040000  0.42042000  0.84478000  1.0
  C  C87  1  0.18960000  0.92042000  0.65523000  1.0
  N  N88  1  0.75421000  0.31979000  0.00569000  1.0
  N  N89  1  0.74579000  0.81979000  0.49431000  1.0
  N  N90  1  0.24579000  0.68021000  0.99431000  1.0
  N  N91  1  0.25421000  0.18021000  0.50569000  1.0
  N  N92  1  0.72209000  0.52927000  0.07659000  1.0
  N  N93  1  0.77791000  0.02927000  0.42341000  1.0
  N  N94  1  0.27791000  0.47073000  0.92342000  1.0
  N  N95  1  0.22209000  0.97073000  0.57658000  1.0
  Cl  Cl96  1  0.99810000  0.02680000  0.11663000  1.0
  Cl  Cl97  1  0.50190000  0.52681000  0.38337000  1.0
  Cl  Cl98  1  0.00190000  0.97319000  0.88337000  1.0
  Cl  Cl99  1  0.49810000  0.47320000  0.61663000  1.0
  Cl  Cl100  1  0.51901000  0.01761000  0.88895000  1.0
  Cl  Cl101  1  0.98099000  0.51762000  0.61105000  1.0
  Cl  Cl102  1  0.48099000  0.98239000  0.11105000  1.0
  Cl  Cl103  1  0.01900000  0.48239000  0.38895000  1.0
  O  O104  1  0.74122000  0.74847000  0.02473000  1.0
  O  O105  1  0.75878000  0.24847000  0.47528000  1.0
  O  O106  1  0.25878000  0.25153000  0.97528000  1.0
  O  O107  1  0.24122000  0.75153000  0.52473000  1.0
