# generated using pymatgen
data_Sm2H20C28N2O17
_symmetry_space_group_name_H-M   'P 1'
_cell_length_a   10.16160000
_cell_length_b   12.31300000
_cell_length_c   13.18010000
_cell_angle_alpha   73.26600000
_cell_angle_beta   74.37860000
_cell_angle_gamma   70.35430000
_symmetry_Int_Tables_number   1
_chemical_formula_structural   Sm2H20C28N2O17
_chemical_formula_sum   'Sm4 H40 C56 N4 O34'
_cell_volume   1459.87611605
_cell_formula_units_Z   2
loop_
 _symmetry_equiv_pos_site_id
 _symmetry_equiv_pos_as_xyz
  1  'x, y, z'
loop_
 _atom_site_type_symbol
 _atom_site_label
 _atom_site_symmetry_multiplicity
 _atom_site_fract_x
 _atom_site_fract_y
 _atom_site_fract_z
 _atom_site_occupancy
  Sm  Sm0  1  0.80533000  0.28247000  0.40253000  1.0
  Sm  Sm1  1  0.19466000  0.71753000  0.59747000  1.0
  Sm  Sm2  1  0.18724000  0.21857000  0.54597000  1.0
  Sm  Sm3  1  0.81276000  0.78143000  0.45403000  1.0
  H  H4  1  0.28603000  0.01669000  0.42568000  1.0
  H  H5  1  0.71397000  0.98331000  0.57432000  1.0
  H  H6  1  0.12317000  0.07132000  0.42247000  1.0
  H  H7  1  0.87683000  0.92868000  0.57753000  1.0
  H  H8  1  0.31106000  0.03179000  0.72655000  1.0
  H  H9  1  0.68894000  0.96821000  0.27345000  1.0
  H  H10  1  0.30223000  0.96088000  0.64344000  1.0
  H  H11  1  0.69777000  0.03912000  0.35656000  1.0
  H  H12  1  0.87298000  0.46485000  0.47556000  1.0
  H  H13  1  0.12702000  0.53515000  0.52444000  1.0
  H  H14  1  0.71537000  0.52011000  0.46759000  1.0
  H  H15  1  0.28463000  0.47988000  0.53241000  1.0
  H  H16  1  0.00681000  0.86757000  0.92844000  1.0
  H  H17  1  0.99319000  0.13243000  0.07156000  1.0
  H  H18  1  0.83278000  0.99020000  0.05623000  1.0
  H  H19  1  0.16722000  0.00980000  0.94377000  1.0
  H  H20  1  0.66036000  0.17691000  0.98157000  1.0
  H  H21  1  0.33964000  0.82309000  0.01843000  1.0
  H  H22  1  0.57370000  0.55499000  0.68442000  1.0
  H  H23  1  0.42630000  0.44501000  0.31558000  1.0
  H  H24  1  0.76674000  0.37420000  0.72342000  1.0
  H  H25  1  0.23326000  0.62580000  0.27658000  1.0
  H  H26  1  0.48730000  0.16317000  0.82531000  1.0
  H  H27  1  0.51269000  0.83683000  0.17469000  1.0
  H  H28  1  0.28114000  0.33671000  0.79196000  1.0
  H  H29  1  0.71886000  0.66329000  0.20804000  1.0
  H  H30  1  0.96557000  0.74855000  0.08695000  1.0
  H  H31  1  0.03443000  0.25145000  0.91305000  1.0
  H  H32  1  0.10943000  0.66904000  0.92168000  1.0
  H  H33  1  0.89057000  0.33096000  0.07832000  1.0
  H  H34  1  0.27045000  0.46317000  0.94731000  1.0
  H  H35  1  0.72955000  0.53683000  0.05269000  1.0
  H  H36  1  0.34364000  0.03575000  0.12438000  1.0
  H  H37  1  0.65636000  0.96426000  0.87562000  1.0
  H  H38  1  0.17474000  0.23801000  0.09981000  1.0
  H  H39  1  0.82526000  0.76199000  0.90019000  1.0
  H  H40  1  0.45266000  0.37899000  0.16682000  1.0
  H  H41  1  0.54734000  0.62101000  0.83318000  1.0
  H  H42  1  0.63183000  0.18377000  0.19884000  1.0
  H  H43  1  0.36817000  0.81623000  0.80116000  1.0
  C  C44  1  0.85240000  0.14685000  0.62562000  1.0
  C  C45  1  0.14760000  0.85315000  0.37438000  1.0
  C  C46  1  0.02764000  0.89853000  0.71938000  1.0
  C  C47  1  0.97236000  0.10147000  0.28061000  1.0
  C  C48  1  0.84675000  0.09557000  0.74447000  1.0
  C  C49  1  0.15325000  0.90443000  0.25553000  1.0
  C  C50  1  0.93782000  0.98651000  0.78719000  1.0
  C  C51  1  0.06218000  0.01349000  0.21281000  1.0
  C  C52  1  0.93333000  0.95141000  0.89869000  1.0
  C  C53  1  0.06667000  0.04860000  0.10131000  1.0
  C  C54  1  0.83712000  0.01948000  0.96945000  1.0
  C  C55  1  0.16288000  0.98052000  0.03055000  1.0
  C  C56  1  0.74064000  0.12370000  0.92819000  1.0
  C  C57  1  0.25936000  0.87630000  0.07181000  1.0
  C  C58  1  0.74495000  0.16015000  0.81715000  1.0
  C  C59  1  0.25505000  0.83985000  0.18285000  1.0
  C  C60  1  0.54740000  0.47166000  0.71903000  1.0
  C  C61  1  0.45260000  0.52834000  0.28097000  1.0
  C  C62  1  0.65694000  0.37197000  0.73960000  1.0
  C  C63  1  0.34306000  0.62803000  0.26040000  1.0
  C  C64  1  0.49873000  0.25268000  0.79876000  1.0
  C  C65  1  0.50127000  0.74732000  0.20124000  1.0
  C  C66  1  0.38562000  0.34970000  0.77956000  1.0
  C  C67  1  0.61438000  0.65030000  0.22044000  1.0
  C  C68  1  0.40374000  0.46609000  0.73989000  1.0
  C  C69  1  0.59626000  0.53391000  0.26011000  1.0
  C  C70  1  0.47479000  0.29833000  0.50601000  1.0
  C  C71  1  0.52521000  0.70167000  0.49399000  1.0
  C  C72  1  0.52142000  0.19336000  0.44983000  1.0
  C  C73  1  0.47858000  0.80664000  0.55017000  1.0
  C  C74  1  0.12348000  0.38446000  0.32071000  1.0
  C  C75  1  0.87651000  0.61554000  0.67929000  1.0
  C  C76  1  0.95780000  0.64638000  0.29162000  1.0
  C  C77  1  0.04220000  0.35362000  0.70838000  1.0
  C  C78  1  0.12331000  0.47035000  0.21257000  1.0
  C  C79  1  0.87669000  0.52965000  0.78743000  1.0
  C  C80  1  0.03737000  0.58803000  0.19849000  1.0
  C  C81  1  0.96263000  0.41197000  0.80151000  1.0
  C  C82  1  0.03315000  0.65781000  0.09378000  1.0
  C  C83  1  0.96685000  0.34219000  0.90622000  1.0
  C  C84  1  0.11319000  0.61407000  0.00282000  1.0
  C  C85  1  0.88681000  0.38593000  0.99718000  1.0
  C  C86  1  0.20338000  0.49906000  0.01659000  1.0
  C  C87  1  0.79662000  0.50094000  0.98341000  1.0
  C  C88  1  0.20829000  0.42969000  0.12045000  1.0
  C  C89  1  0.79171000  0.57032000  0.87955000  1.0
  C  C90  1  0.37136000  0.10873000  0.13581000  1.0
  C  C91  1  0.62864000  0.89127000  0.86419000  1.0
  C  C92  1  0.27785000  0.21893000  0.12093000  1.0
  C  C93  1  0.72215000  0.78107000  0.87907000  1.0
  C  C94  1  0.43558000  0.29883000  0.16034000  1.0
  C  C95  1  0.56442000  0.70117000  0.83966000  1.0
  C  C96  1  0.53260000  0.19068000  0.17732000  1.0
  C  C97  1  0.46740000  0.80932000  0.82268000  1.0
  C  C98  1  0.50349000  0.08670000  0.16941000  1.0
  C  C99  1  0.49651000  0.91330000  0.83059000  1.0
  N  N100  1  0.63364000  0.26343000  0.78095000  1.0
  N  N101  1  0.36636000  0.73657000  0.21905000  1.0
  N  N102  1  0.30819000  0.31359000  0.13404000  1.0
  N  N103  1  0.69181000  0.68641000  0.86596000  1.0
  O  O104  1  0.75401000  0.14871000  0.58331000  1.0
  O  O105  1  0.24599000  0.85129000  0.41669000  1.0
  O  O106  1  0.94984000  0.19716000  0.57333000  1.0
  O  O107  1  0.05016000  0.80284000  0.42667000  1.0
  O  O108  1  0.02441000  0.92199000  0.61862000  1.0
  O  O109  1  0.97559000  0.07801000  0.38138000  1.0
  O  O110  1  0.10053000  0.79870000  0.76488000  1.0
  O  O111  1  0.89947000  0.20130000  0.23512000  1.0
  O  O112  1  0.29758000  0.55831000  0.72515000  1.0
  O  O113  1  0.70242000  0.44169000  0.27485000  1.0
  O  O114  1  0.56261000  0.35452000  0.49408000  1.0
  O  O115  1  0.43740000  0.64548000  0.50592000  1.0
  O  O116  1  0.34714000  0.32201000  0.55839000  1.0
  O  O117  1  0.65286000  0.67799000  0.44161000  1.0
  O  O118  1  0.64837000  0.17043000  0.39576000  1.0
  O  O119  1  0.35163000  0.82957000  0.60424000  1.0
  O  O120  1  0.43152000  0.13985000  0.45972000  1.0
  O  O121  1  0.56848000  0.86015000  0.54028000  1.0
  O  O122  1  0.22088000  0.36452000  0.37189000  1.0
  O  O123  1  0.77912000  0.63548000  0.62811000  1.0
  O  O124  1  0.02743000  0.33094000  0.35135000  1.0
  O  O125  1  0.97257000  0.66906000  0.64865000  1.0
  O  O126  1  0.96999000  0.59186000  0.38879000  1.0
  O  O127  1  0.03001000  0.40814000  0.61121000  1.0
  O  O128  1  0.88378000  0.75372000  0.26940000  1.0
  O  O129  1  0.11622000  0.24629000  0.73060000  1.0
  O  O130  1  0.58808000  0.98330000  0.18934000  1.0
  O  O131  1  0.41192000  0.01670000  0.81066000  1.0
  O  O132  1  0.20708000  0.08701000  0.43433000  1.0
  O  O133  1  0.79292000  0.91299000  0.56567000  1.0
  O  O134  1  0.26020000  0.03668000  0.66830000  1.0
  O  O135  1  0.73980000  0.96332000  0.33170000  1.0
  O  O136  1  0.78581000  0.44234000  0.48505000  1.0
  O  O137  1  0.21419000  0.55766000  0.51495000  1.0
