# generated using pymatgen
data_Al4H22C47O26
_symmetry_space_group_name_H-M   'P 1'
_cell_length_a   6.69633000
_cell_length_b   20.52520000
_cell_length_c   22.79890000
_cell_angle_alpha   93.02110000
_cell_angle_beta   90.56430000
_cell_angle_gamma   90.69410000
_symmetry_Int_Tables_number   1
_chemical_formula_structural   Al4H22C47O26
_chemical_formula_sum   'Al4 H22 C47 O26'
_cell_volume   3128.80366727
_cell_formula_units_Z   1
loop_
 _symmetry_equiv_pos_site_id
 _symmetry_equiv_pos_as_xyz
  1  'x, y, z'
loop_
 _atom_site_type_symbol
 _atom_site_label
 _atom_site_symmetry_multiplicity
 _atom_site_fract_x
 _atom_site_fract_y
 _atom_site_fract_z
 _atom_site_occupancy
  Al  Al0  1  0.85731000  0.51180000  0.50893000  1.0
  Al  Al1  1  0.35746000  0.51176000  0.51016000  1.0
  Al  Al2  1  0.35969000  0.98039000  0.98568000  1.0
  Al  Al3  1  0.85861000  0.97973000  0.98435000  1.0
  H  H4  1  0.90864000  0.25410000  0.67974000  1.0
  H  H5  1  0.31284000  0.17882000  0.22400000  1.0
  H  H6  1  0.93004000  0.22720000  0.18793000  1.0
  H  H7  1  0.38306000  0.85607000  0.19591000  1.0
  H  H8  1  0.07419000  0.30291000  0.26940000  1.0
  H  H9  1  0.50717000  0.78878000  0.31058000  1.0
  H  H10  1  0.83603000  0.59970000  0.26082000  1.0
  H  H11  1  0.72114000  0.65555000  0.31086000  1.0
  H  H12  1  0.64937000  0.65251000  0.23557000  1.0
  H  H13  1  0.61473000  0.73837000  0.18229000  1.0
  H  H14  1  0.77563000  0.76925000  0.12879000  1.0
  H  H15  1  0.75957000  0.68402000  0.13794000  1.0
  H  H16  1  0.31580000  0.35957000  0.70982000  1.0
  H  H17  1  0.20433000  0.27200000  0.81257000  1.0
  H  H18  1  0.00810000  0.15084000  0.79653000  1.0
  H  H19  1  0.88930000  0.10310000  0.73944000  1.0
  H  H20  1  0.06568000  0.16456000  0.72209000  1.0
  H  H21  1  0.30274000  0.30430000  0.33848000  1.0
  H  H22  1  0.60894000  0.59352000  0.49376000  1.0
  H  H23  1  0.10384000  0.42564000  0.50774000  1.0
  H  H24  1  0.60288000  0.89948000  0.95797000  1.0
  H  H25  1  0.11138000  0.05969000  0.96447000  1.0
  C  C26  1  0.60547000  0.43385000  0.58524000  1.0
  C  C27  1  0.60278000  0.43104000  0.42795000  1.0
  C  C28  1  0.11125000  0.58805000  0.43238000  1.0
  C  C29  1  0.10937000  0.59096000  0.59169000  1.0
  C  C30  1  0.11163000  0.63759000  0.64125000  1.0
  C  C31  1  0.11118000  0.67849000  0.68245000  1.0
  C  C32  1  0.11029000  0.72345000  0.72730000  1.0
  C  C33  1  0.10884000  0.76506000  0.76837000  1.0
  C  C34  1  0.10699000  0.81014000  0.81313000  1.0
  C  C35  1  0.10490000  0.85124000  0.85417000  1.0
  C  C36  1  0.25862000  0.75031000  0.28573000  1.0
  C  C37  1  0.10194000  0.70546000  0.29440000  1.0
  C  C38  1  0.93620000  0.69929000  0.25450000  1.0
  C  C39  1  0.92854000  0.73817000  0.20598000  1.0
  C  C40  1  0.08660000  0.78378000  0.19789000  1.0
  C  C41  1  0.24947000  0.78949000  0.23751000  1.0
  C  C42  1  0.11073000  0.66580000  0.34302000  1.0
  C  C43  1  0.09001000  0.82532000  0.15052000  1.0
  C  C44  1  0.10456000  0.86285000  0.11089000  1.0
  C  C45  1  0.11136000  0.63043000  0.38434000  1.0
  C  C46  1  0.45486000  0.24160000  0.78446000  1.0
  C  C47  1  0.61383000  0.19741000  0.78793000  1.0
  C  C48  1  0.77992000  0.20128000  0.74937000  1.0
  C  C49  1  0.78272000  0.24969000  0.70922000  1.0
  C  C50  1  0.62288000  0.29372000  0.70481000  1.0
  C  C51  1  0.45809000  0.28880000  0.74221000  1.0
  C  C52  1  0.60737000  0.14941000  0.82990000  1.0
  C  C53  1  0.62087000  0.34268000  0.66374000  1.0
  C  C54  1  0.60974000  0.38583000  0.62901000  1.0
  C  C55  1  0.60737000  0.10743000  0.86578000  1.0
  C  C56  1  0.44565000  0.20889000  0.23307000  1.0
  C  C57  1  0.62276000  0.19754000  0.20135000  1.0
  C  C58  1  0.79554000  0.23599000  0.21350000  1.0
  C  C59  1  0.79156000  0.28651000  0.25686000  1.0
  C  C60  1  0.61517000  0.29828000  0.28941000  1.0
  C  C61  1  0.44472000  0.25862000  0.27659000  1.0
  C  C62  1  0.62437000  0.14788000  0.15583000  1.0
  C  C63  1  0.60908000  0.34600000  0.33589000  1.0
  C  C64  1  0.59898000  0.38547000  0.37772000  1.0
  C  C65  1  0.62217000  0.10592000  0.11603000  1.0
  C  C66  1  0.61762000  0.05850000  0.06714000  1.0
  C  C67  1  0.60772000  0.05982000  0.90973000  1.0
  C  C68  1  0.10392000  0.89841000  0.90319000  1.0
  C  C69  1  0.10959000  0.90526000  0.06258000  1.0
  C  C70  1  0.77659000  0.64945000  0.26573000  1.0
  C  C71  1  0.76093000  0.73222000  0.16147000  1.0
  C  C72  1  0.94488000  0.15259000  0.75201000  1.0
  O  O73  1  0.43488000  0.44569000  0.45077000  1.0
  O  O74  1  0.77364000  0.44956000  0.56420000  1.0
  O  O75  1  0.93791000  0.57114000  0.57349000  1.0
  O  O76  1  0.77547000  0.45126000  0.44500000  1.0
  O  O77  1  0.94120000  0.57289000  0.45301000  1.0
  O  O78  1  0.43477000  0.45511000  0.57098000  1.0
  O  O79  1  0.60874000  0.55067000  0.50977000  1.0
  O  O80  1  0.28115000  0.56948000  0.45056000  1.0
  O  O81  1  0.27850000  0.57514000  0.57079000  1.0
  O  O82  1  0.10597000  0.47283000  0.50855000  1.0
  O  O83  1  0.77860000  0.04164000  0.92764000  1.0
  O  O84  1  0.44578000  0.04152000  0.04699000  1.0
  O  O85  1  0.28087000  0.92396000  0.04598000  1.0
  O  O86  1  0.43728000  0.04082000  0.92729000  1.0
  O  O87  1  0.27443000  0.91541000  0.92463000  1.0
  O  O88  1  0.78543000  0.03877000  0.04800000  1.0
  O  O89  1  0.60719000  0.94030000  0.98148000  1.0
  O  O90  1  0.93326000  0.91774000  0.92056000  1.0
  O  O91  1  0.94105000  0.91929000  0.04060000  1.0
  O  O92  1  0.11027000  0.01882000  0.98403000  1.0
  O  O93  1  0.40452000  0.83263000  0.23182000  1.0
  O  O94  1  0.94783000  0.32725000  0.26973000  1.0
  O  O95  1  0.41536000  0.75552000  0.32422000  1.0
  O  O96  1  0.29630000  0.32862000  0.74065000  1.0
  O  O97  1  0.29985000  0.23838000  0.82223000  1.0
  O  O98  1  0.27404000  0.26926000  0.30823000  1.0
