# generated using pymatgen
data_Ag2H9C11(NO2)2
_symmetry_space_group_name_H-M   'P 1'
_cell_length_a   6.37542000
_cell_length_b   9.16946000
_cell_length_c   10.61683464
_cell_angle_alpha   115.43674633
_cell_angle_beta   92.47511131
_cell_angle_gamma   97.18730000
_symmetry_Int_Tables_number   1
_chemical_formula_structural   Ag2H9C11(NO2)2
_chemical_formula_sum   'Ag4 H18 C22 N4 O8'
_cell_volume   552.81793742
_cell_formula_units_Z   2
loop_
 _symmetry_equiv_pos_site_id
 _symmetry_equiv_pos_as_xyz
  1  'x, y, z'
loop_
 _atom_site_type_symbol
 _atom_site_label
 _atom_site_symmetry_multiplicity
 _atom_site_fract_x
 _atom_site_fract_y
 _atom_site_fract_z
 _atom_site_occupancy
  Ag  Ag0  1  0.28058000  0.85469000  0.86943000  1.0
  Ag  Ag1  1  0.71942000  0.14531000  0.13057000  1.0
  Ag  Ag2  1  0.84948000  0.90076000  0.75913000  1.0
  Ag  Ag3  1  0.15052000  0.09924000  0.24087000  1.0
  H  H4  1  0.81980000  0.92711000  0.52348000  1.0
  H  H5  1  0.18021000  0.07289000  0.47652000  1.0
  H  H6  1  0.65757000  0.82631000  0.36003000  1.0
  H  H7  1  0.34244000  0.17370000  0.63997000  1.0
  H  H8  1  0.93557000  0.83160000  0.36187000  1.0
  H  H9  1  0.06444000  0.16840000  0.63813000  1.0
  H  H10  1  0.74003000  0.51062000  0.21005000  1.0
  H  H11  1  0.25997000  0.48939000  0.78995000  1.0
  H  H12  1  0.54063000  0.14041000  0.39922000  1.0
  H  H13  1  0.45938000  0.85958000  0.60078000  1.0
  H  H14  1  0.70211000  0.22567000  0.56375000  1.0
  H  H15  1  0.29789000  0.77435000  0.43626000  1.0
  H  H16  1  0.81599000  0.14162000  0.40107000  1.0
  H  H17  1  0.18401000  0.85839000  0.59893000  1.0
  H  H18  1  0.16829000  0.53808000  0.11310000  1.0
  H  H19  1  0.83171000  0.46191000  0.88690000  1.0
  H  H20  1  0.76613000  0.53111000  0.67518000  1.0
  H  H21  1  0.23387000  0.46889000  0.32482000  1.0
  C  C22  1  0.79976000  0.82189000  0.41981000  1.0
  C  C23  1  0.20024000  0.17812000  0.58019000  1.0
  C  C24  1  0.62189000  0.17777000  0.84599000  1.0
  C  C25  1  0.37811000  0.82223000  0.15401000  1.0
  C  C26  1  0.74436000  0.51526000  0.31459000  1.0
  C  C27  1  0.25564000  0.48474000  0.68541000  1.0
  C  C28  1  0.69437000  0.21336000  0.45629000  1.0
  C  C29  1  0.30564000  0.78664000  0.54371000  1.0
  C  C30  1  0.19366000  0.22360000  0.98058000  1.0
  C  C31  1  0.80634000  0.77640000  0.01942000  1.0
  C  C32  1  0.31541000  0.52158000  0.06367000  1.0
  C  C33  1  0.68458000  0.47842000  0.93633000  1.0
  C  C34  1  0.35881000  0.36227000  0.98993000  1.0
  C  C35  1  0.64118000  0.63773000  0.01007000  1.0
  C  C36  1  0.54861000  0.34012000  0.92539000  1.0
  C  C37  1  0.45138000  0.65988000  0.07461000  1.0
  C  C38  1  0.75771000  0.52389000  0.56971000  1.0
  C  C39  1  0.24229000  0.47610000  0.43028000  1.0
  C  C40  1  0.72375000  0.37362000  0.45046000  1.0
  C  C41  1  0.27624000  0.62638000  0.54954000  1.0
  C  C42  1  0.77607000  0.66614000  0.43380000  1.0
  C  C43  1  0.22393000  0.33387000  0.56620000  1.0
  N  N44  1  0.71986000  0.37241000  0.32229000  1.0
  N  N45  1  0.28014000  0.62759000  0.67771000  1.0
  N  N46  1  0.78481000  0.66792000  0.56203000  1.0
  N  N47  1  0.21519000  0.33208000  0.43797000  1.0
  O  O48  1  0.16302000  0.09476000  0.86350000  1.0
  O  O49  1  0.83698000  0.90524000  0.13650000  1.0
  O  O50  1  0.09716000  0.24960000  0.08814000  1.0
  O  O51  1  0.90285000  0.75040000  0.91186000  1.0
  O  O52  1  0.69499000  0.15119000  0.73153000  1.0
  O  O53  1  0.30502000  0.84881000  0.26847000  1.0
  O  O54  1  0.61805000  0.07618000  0.90112000  1.0
  O  O55  1  0.38196000  0.92382000  0.09888000  1.0
