# generated using pymatgen
data_CdH12C12S(N2O)4
_symmetry_space_group_name_H-M   'P 1'
_cell_length_a   6.90424000
_cell_length_b   14.87010000
_cell_length_c   17.30990000
_cell_angle_alpha   89.99900000
_cell_angle_beta   89.99950000
_cell_angle_gamma   92.36600000
_symmetry_Int_Tables_number   1
_chemical_formula_structural   CdH12C12S(N2O)4
_chemical_formula_sum   'Cd4 H48 C48 S4 N32 O16'
_cell_volume   1775.63597429
_cell_formula_units_Z   4
loop_
 _symmetry_equiv_pos_site_id
 _symmetry_equiv_pos_as_xyz
  1  'x, y, z'
loop_
 _atom_site_type_symbol
 _atom_site_label
 _atom_site_symmetry_multiplicity
 _atom_site_fract_x
 _atom_site_fract_y
 _atom_site_fract_z
 _atom_site_occupancy
  Cd  Cd0  1  0.22787000  0.26295000  0.98577000  1.0
  Cd  Cd1  1  0.77212000  0.23705000  0.48576000  1.0
  Cd  Cd2  1  0.77213000  0.73705000  0.01424000  1.0
  Cd  Cd3  1  0.22788000  0.76295000  0.51424000  1.0
  H  H4  1  0.19508000  0.91487000  0.93242000  1.0
  H  H5  1  0.80492000  0.58513000  0.43242000  1.0
  H  H6  1  0.80493000  0.08513000  0.06759000  1.0
  H  H7  1  0.19507000  0.41487000  0.56758000  1.0
  H  H8  1  0.31738000  0.92964000  0.07776000  1.0
  H  H9  1  0.68262000  0.57035000  0.57777000  1.0
  H  H10  1  0.68262000  0.07035000  0.92224000  1.0
  H  H11  1  0.31737000  0.42965000  0.42224000  1.0
  H  H12  1  0.35043000  0.60800000  0.93835000  1.0
  H  H13  1  0.64957000  0.89200000  0.43835000  1.0
  H  H14  1  0.64957000  0.39200000  0.06165000  1.0
  H  H15  1  0.35042000  0.10799000  0.56165000  1.0
  H  H16  1  0.16961000  0.59884000  0.07177000  1.0
  H  H17  1  0.83039000  0.90117000  0.57177000  1.0
  H  H18  1  0.83039000  0.40116000  0.92823000  1.0
  H  H19  1  0.16960000  0.09883000  0.42823000  1.0
  H  H20  1  0.09050000  0.53294000  0.20345000  1.0
  H  H21  1  0.90950000  0.96706000  0.70345000  1.0
  H  H22  1  0.90950000  0.46706000  0.79655000  1.0
  H  H23  1  0.09049000  0.03293000  0.29654000  1.0
  H  H24  1  0.10152000  0.34612000  0.18619000  1.0
  H  H25  1  0.89847000  0.15388000  0.68618000  1.0
  H  H26  1  0.89847000  0.65388000  0.81382000  1.0
  H  H27  1  0.10153000  0.84612000  0.31382000  1.0
  H  H28  1  0.35566000  0.18546000  0.18923000  1.0
  H  H29  1  0.64434000  0.31453000  0.68923000  1.0
  H  H30  1  0.64434000  0.81453000  0.81077000  1.0
  H  H31  1  0.35567000  0.68547000  0.31076000  1.0
  H  H32  1  0.12224000  0.96078000  0.79511000  1.0
  H  H33  1  0.87777000  0.53923000  0.29512000  1.0
  H  H34  1  0.87778000  0.03923000  0.20489000  1.0
  H  H35  1  0.12223000  0.46077000  0.70488000  1.0
  H  H36  1  0.37453000  0.37684000  0.79325000  1.0
  H  H37  1  0.62547000  0.12317000  0.29325000  1.0
  H  H38  1  0.62548000  0.62316000  0.20675000  1.0
  H  H39  1  0.37452000  0.87683000  0.70675000  1.0
  H  H40  1  0.11673000  0.14866000  0.79536000  1.0
  H  H41  1  0.88328000  0.35135000  0.29536000  1.0
  H  H42  1  0.88329000  0.85135000  0.20464000  1.0
  H  H43  1  0.11672000  0.64865000  0.70464000  1.0
  H  H44  1  0.38899000  0.00028000  0.20864000  1.0
  H  H45  1  0.61100000  0.49970000  0.70864000  1.0
  H  H46  1  0.61101000  0.99971000  0.79136000  1.0
  H  H47  1  0.38901000  0.50029000  0.29136000  1.0
  H  H48  1  0.42347000  0.56421000  0.79843000  1.0
  H  H49  1  0.57654000  0.93580000  0.29843000  1.0
  H  H50  1  0.57654000  0.43580000  0.20157000  1.0
  H  H51  1  0.42345000  0.06420000  0.70157000  1.0
  C  C52  1  0.14625000  0.10231000  0.84183000  1.0
  C  C53  1  0.85376000  0.39769000  0.34183000  1.0
  C  C54  1  0.85376000  0.89769000  0.15817000  1.0
  C  C55  1  0.14624000  0.60231000  0.65817000  1.0
  C  C56  1  0.14757000  0.00947000  0.84079000  1.0
  C  C57  1  0.85244000  0.49054000  0.34079000  1.0
  C  C58  1  0.85244000  0.99054000  0.15921000  1.0
  C  C59  1  0.14756000  0.50947000  0.65921000  1.0
  C  C60  1  0.21635000  0.05820000  0.95794000  1.0
  C  C61  1  0.78364000  0.44180000  0.45795000  1.0
  C  C62  1  0.78364000  0.94180000  0.04206000  1.0
  C  C63  1  0.21636000  0.55820000  0.54205000  1.0
  C  C64  1  0.26817000  0.06570000  0.03838000  1.0
  C  C65  1  0.73182000  0.43429000  0.53838000  1.0
  C  C66  1  0.73183000  0.93429000  0.96162000  1.0
  C  C67  1  0.26818000  0.56571000  0.46161000  1.0
  C  C68  1  0.33369000  0.13093000  0.14813000  1.0
  C  C69  1  0.66631000  0.36906000  0.64813000  1.0
  C  C70  1  0.66633000  0.86906000  0.85188000  1.0
  C  C71  1  0.33369000  0.63094000  0.35187000  1.0
  C  C72  1  0.35170000  0.03955000  0.15861000  1.0
  C  C73  1  0.64829000  0.46044000  0.65861000  1.0
  C  C74  1  0.64830000  0.96044000  0.84139000  1.0
  C  C75  1  0.35170000  0.53956000  0.34139000  1.0
  C  C76  1  0.35156000  0.42310000  0.84051000  1.0
  C  C77  1  0.64844000  0.07690000  0.34051000  1.0
  C  C78  1  0.64843000  0.57690000  0.15949000  1.0
  C  C79  1  0.35156000  0.92310000  0.65949000  1.0
  C  C80  1  0.37728000  0.51576000  0.84208000  1.0
  C  C81  1  0.62272000  0.98424000  0.34208000  1.0
  C  C82  1  0.62272000  0.48424000  0.15792000  1.0
  C  C83  1  0.37727000  0.01576000  0.65792000  1.0
  C  C84  1  0.27746000  0.46737000  0.95598000  1.0
  C  C85  1  0.72254000  0.03264000  0.45598000  1.0
  C  C86  1  0.72254000  0.53264000  0.04402000  1.0
  C  C87  1  0.27745000  0.96736000  0.54402000  1.0
  C  C88  1  0.21690000  0.46170000  0.03562000  1.0
  C  C89  1  0.78308000  0.03830000  0.53562000  1.0
  C  C90  1  0.78309000  0.53830000  0.96438000  1.0
  C  C91  1  0.21691000  0.96170000  0.46438000  1.0
  C  C92  1  0.12683000  0.49175000  0.15447000  1.0
  C  C93  1  0.87316000  0.00824000  0.65446000  1.0
  C  C94  1  0.87316000  0.50825000  0.84553000  1.0
  C  C95  1  0.12684000  0.99175000  0.34554000  1.0
  C  C96  1  0.13348000  0.39971000  0.14509000  1.0
  C  C97  1  0.86651000  0.10029000  0.64509000  1.0
  C  C98  1  0.86652000  0.60029000  0.85491000  1.0
  C  C99  1  0.13349000  0.89971000  0.35491000  1.0
  S  S100  1  0.73600000  0.23896000  0.98584000  1.0
  S  S101  1  0.26399000  0.26104000  0.48583000  1.0
  S  S102  1  0.26400000  0.76104000  0.01416000  1.0
  S  S103  1  0.73601000  0.73896000  0.51417000  1.0
  N  N104  1  0.18913000  0.13193000  0.91513000  1.0
  N  N105  1  0.81087000  0.36808000  0.41512000  1.0
  N  N106  1  0.81088000  0.86808000  0.08488000  1.0
  N  N107  1  0.18914000  0.63193000  0.58488000  1.0
  N  N108  1  0.28122000  0.14632000  0.07307000  1.0
  N  N109  1  0.71877000  0.35367000  0.57307000  1.0
  N  N110  1  0.71878000  0.85367000  0.92693000  1.0
  N  N111  1  0.28123000  0.64633000  0.42693000  1.0
  N  N112  1  0.19141000  0.98281000  0.91443000  1.0
  N  N113  1  0.80859000  0.51719000  0.41443000  1.0
  N  N114  1  0.80859000  0.01719000  0.08557000  1.0
  N  N115  1  0.19141000  0.48281000  0.58557000  1.0
  N  N116  1  0.31028000  0.99939000  0.08876000  1.0
  N  N117  1  0.68971000  0.50060000  0.58877000  1.0
  N  N118  1  0.68972000  0.00061000  0.91123000  1.0
  N  N119  1  0.31028000  0.49940000  0.41123000  1.0
  N  N120  1  0.28932000  0.39360000  0.91177000  1.0
  N  N121  1  0.71067000  0.10640000  0.41176000  1.0
  N  N122  1  0.71068000  0.60640000  0.08824000  1.0
  N  N123  1  0.28932000  0.89360000  0.58824000  1.0
  N  N124  1  0.18985000  0.38184000  0.07092000  1.0
  N  N125  1  0.81014000  0.11816000  0.57092000  1.0
  N  N126  1  0.81015000  0.61816000  0.92908000  1.0
  N  N127  1  0.18986000  0.88184000  0.42908000  1.0
  N  N128  1  0.33020000  0.54247000  0.91531000  1.0
  N  N129  1  0.66980000  0.95753000  0.41531000  1.0
  N  N130  1  0.66979000  0.45753000  0.08469000  1.0
  N  N131  1  0.33020000  0.04247000  0.58469000  1.0
  N  N132  1  0.17944000  0.52984000  0.08493000  1.0
  N  N133  1  0.82055000  0.97016000  0.58492000  1.0
  N  N134  1  0.82056000  0.47016000  0.91507000  1.0
  N  N135  1  0.17943000  0.02983000  0.41508000  1.0
  O  O136  1  0.58523000  0.29951000  0.01680000  1.0
  O  O137  1  0.41476000  0.20049000  0.51680000  1.0
  O  O138  1  0.41477000  0.70049000  0.98320000  1.0
  O  O139  1  0.58524000  0.79951000  0.48320000  1.0
  O  O140  1  0.83016000  0.19095000  0.05013000  1.0
  O  O141  1  0.16984000  0.30905000  0.55012000  1.0
  O  O142  1  0.16985000  0.80905000  0.94987000  1.0
  O  O143  1  0.83016000  0.69095000  0.44988000  1.0
  O  O144  1  0.64193000  0.17549000  0.93006000  1.0
  O  O145  1  0.35806000  0.32450000  0.43004000  1.0
  O  O146  1  0.35808000  0.82451000  0.06995000  1.0
  O  O147  1  0.64193000  0.67550000  0.56995000  1.0
  O  O148  1  0.88907000  0.29740000  0.94592000  1.0
  O  O149  1  0.11092000  0.20259000  0.44592000  1.0
  O  O150  1  0.11093000  0.70260000  0.05408000  1.0
  O  O151  1  0.88908000  0.79741000  0.55408000  1.0
