# generated using pymatgen
data_NiH27C18N5O4
_symmetry_space_group_name_H-M   'P 1'
_cell_length_a   14.70647016
_cell_length_b   14.77030000
_cell_length_c   14.77280000
_cell_angle_alpha   67.25100000
_cell_angle_beta   63.68097888
_cell_angle_gamma   100.09785796
_symmetry_Int_Tables_number   1
_chemical_formula_structural   NiH27C18N5O4
_chemical_formula_sum   'Ni4 H108 C72 N20 O16'
_cell_volume   2407.83408475
_cell_formula_units_Z   4
loop_
 _symmetry_equiv_pos_site_id
 _symmetry_equiv_pos_as_xyz
  1  'x, y, z'
loop_
 _atom_site_type_symbol
 _atom_site_label
 _atom_site_symmetry_multiplicity
 _atom_site_fract_x
 _atom_site_fract_y
 _atom_site_fract_z
 _atom_site_occupancy
  Ni  Ni0  1  0.22634000  0.68184000  0.07036000  1.0
  Ni  Ni1  1  0.27343000  0.20319000  0.54430000  1.0
  Ni  Ni2  1  0.77365000  0.31816000  0.92964000  1.0
  Ni  Ni3  1  0.72657000  0.79683000  0.45570000  1.0
  H  H4  1  0.92925000  0.48663000  0.35608000  1.0
  H  H5  1  0.57007000  0.21458000  0.44200000  1.0
  H  H6  1  0.07071000  0.51334000  0.64386000  1.0
  H  H7  1  0.42993000  0.78543000  0.55802000  1.0
  H  H8  1  0.99815000  0.62986000  0.28265000  1.0
  H  H9  1  0.50138000  0.21945000  0.36764000  1.0
  H  H10  1  0.00181000  0.37012000  0.71732000  1.0
  H  H11  1  0.49863000  0.78056000  0.63237000  1.0
  H  H12  1  0.11576000  0.57189000  0.88270000  1.0
  H  H13  1  0.38425000  0.50113000  0.54411000  1.0
  H  H14  1  0.88429000  0.42812000  0.11723000  1.0
  H  H15  1  0.61575000  0.49888000  0.45589000  1.0
  H  H16  1  0.09244000  0.49099000  0.02078000  1.0
  H  H17  1  0.40757000  0.38642000  0.60156000  1.0
  H  H18  1  0.90761000  0.50903000  0.97915000  1.0
  H  H19  1  0.59243000  0.61360000  0.39845000  1.0
  H  H20  1  0.05920000  0.53091000  0.41276000  1.0
  H  H21  1  0.43994000  0.02796000  0.52756000  1.0
  H  H22  1  0.94072000  0.46903000  0.58724000  1.0
  H  H23  1  0.56005000  0.97205000  0.47246000  1.0
  H  H24  1  0.10998000  0.47439000  0.32407000  1.0
  H  H25  1  0.38925000  0.06551000  0.63524000  1.0
  H  H26  1  0.88997000  0.52558000  0.67590000  1.0
  H  H27  1  0.61074000  0.93451000  0.36477000  1.0
  H  H28  1  0.30353000  0.56193000  0.23815000  1.0
  H  H29  1  0.19551000  0.95783000  0.74173000  1.0
  H  H30  1  0.69640000  0.43801000  0.76190000  1.0
  H  H31  1  0.80449000  0.04219000  0.25826000  1.0
  H  H32  1  0.27201000  0.61500000  0.33251000  1.0
  H  H33  1  0.22693000  0.89510000  0.65700000  1.0
  H  H34  1  0.72790000  0.38492000  0.66755000  1.0
  H  H35  1  0.77307000  0.10492000  0.34299000  1.0
  H  H36  1  0.38889000  0.80419000  0.15047000  1.0
  H  H37  1  0.11031000  0.96026000  0.58493000  1.0
  H  H38  1  0.61105000  0.19574000  0.84961000  1.0
  H  H39  1  0.88969000  0.03976000  0.41507000  1.0
  H  H40  1  0.46312000  0.72518000  0.17133000  1.0
  H  H41  1  0.03580000  0.86496000  0.73850000  1.0
  H  H42  1  0.53681000  0.27475000  0.82876000  1.0
  H  H43  1  0.96420000  0.13505000  0.26148000  1.0
  H  H44  1  0.45886000  0.68278000  0.02101000  1.0
  H  H45  1  0.04053000  0.01964000  0.77643000  1.0
  H  H46  1  0.54112000  0.31719000  0.97903000  1.0
  H  H47  1  0.95945000  0.98036000  0.22358000  1.0
  H  H48  1  0.54214000  0.81811000  0.96515000  1.0
  H  H49  1  0.95745000  0.99242000  0.72435000  1.0
  H  H50  1  0.45784000  0.18185000  0.03493000  1.0
  H  H51  1  0.04255000  0.00759000  0.27564000  1.0
  H  H52  1  0.45469000  0.74427000  0.84856000  1.0
  H  H53  1  0.04534000  0.19644000  0.71059000  1.0
  H  H54  1  0.54534000  0.25574000  0.15146000  1.0
  H  H55  1  0.95465000  0.80357000  0.28941000  1.0
  H  H56  1  0.51982000  0.88564000  0.78390000  1.0
  H  H57  1  0.98048000  0.19624000  0.63421000  1.0
  H  H58  1  0.48020000  0.11437000  0.21614000  1.0
  H  H59  1  0.01951000  0.80376000  0.36580000  1.0
  H  H60  1  0.33202000  0.89186000  0.82682000  1.0
  H  H61  1  0.16846000  0.34136000  0.43994000  1.0
  H  H62  1  0.66801000  0.10816000  0.17318000  1.0
  H  H63  1  0.83154000  0.65864000  0.56007000  1.0
  H  H64  1  0.38716000  0.84535000  0.72825000  1.0
  H  H65  1  0.11334000  0.38456000  0.54184000  1.0
  H  H66  1  0.61290000  0.15468000  0.27174000  1.0
  H  H67  1  0.88666000  0.61545000  0.45816000  1.0
  H  H68  1  0.13774000  0.79422000  0.91764000  1.0
  H  H69  1  0.36296000  0.44509000  0.34303000  1.0
  H  H70  1  0.86231000  0.20581000  0.08228000  1.0
  H  H71  1  0.63704000  0.55492000  0.65699000  1.0
  H  H72  1  0.17007000  0.74724000  0.81685000  1.0
  H  H73  1  0.33057000  0.51333000  0.42253000  1.0
  H  H74  1  0.83002000  0.25277000  0.18308000  1.0
  H  H75  1  0.66943000  0.48668000  0.57748000  1.0
  H  H76  1  0.91232000  0.54383000  0.16779000  1.0
  H  H77  1  0.58761000  0.41991000  0.36833000  1.0
  H  H78  1  0.08770000  0.45620000  0.83212000  1.0
  H  H79  1  0.41239000  0.58010000  0.63169000  1.0
  H  H80  1  0.99254000  0.67998000  0.11337000  1.0
  H  H81  1  0.50791000  0.39453000  0.31197000  1.0
  H  H82  1  0.00749000  0.32005000  0.88655000  1.0
  H  H83  1  0.49209000  0.60547000  0.68805000  1.0
  H  H84  1  0.26928000  0.10692000  0.21748000  1.0
  H  H85  1  0.23049000  0.01286000  0.16242000  1.0
  H  H86  1  0.73072000  0.89308000  0.78253000  1.0
  H  H87  1  0.76952000  0.98714000  0.83758000  1.0
  H  H88  1  0.25804000  0.36775000  0.95917000  1.0
  H  H89  1  0.24095000  0.28205000  0.89067000  1.0
  H  H90  1  0.74198000  0.63225000  0.04082000  1.0
  H  H91  1  0.75908000  0.71795000  0.10932000  1.0
  H  H92  1  0.30701000  0.40368000  0.21007000  1.0
  H  H93  1  0.19255000  0.98205000  0.90381000  1.0
  H  H94  1  0.69299000  0.59632000  0.78994000  1.0
  H  H95  1  0.80745000  0.01795000  0.09620000  1.0
  H  H96  1  0.06590000  0.50439000  0.17281000  1.0
  H  H97  1  0.43359000  0.26094000  0.56135000  1.0
  H  H98  1  0.93410000  0.49562000  0.82713000  1.0
  H  H99  1  0.56641000  0.73907000  0.43866000  1.0
  H  H100  1  0.19065000  0.70974000  0.23455000  1.0
  H  H101  1  0.30872000  0.07476000  0.48064000  1.0
  H  H102  1  0.80930000  0.29021000  0.76548000  1.0
  H  H103  1  0.69129000  0.92526000  0.51935000  1.0
  H  H104  1  0.38546000  0.85843000  0.97335000  1.0
  H  H105  1  0.11440000  0.14108000  0.52703000  1.0
  H  H106  1  0.61454000  0.14156000  0.02670000  1.0
  H  H107  1  0.88560000  0.85893000  0.47297000  1.0
  H  H108  1  0.26884000  0.66178000  0.89895000  1.0
  H  H109  1  0.23127000  0.33200000  0.60699000  1.0
  H  H110  1  0.73121000  0.33824000  0.10103000  1.0
  H  H111  1  0.76873000  0.66802000  0.39302000  1.0
  C  C112  1  0.01111000  0.55725000  0.28829000  1.0
  C  C113  1  0.48836000  0.20063000  0.45330000  1.0
  C  C114  1  0.98885000  0.44273000  0.71168000  1.0
  C  C115  1  0.51164000  0.79938000  0.54671000  1.0
  C  C116  1  0.05721000  0.53806000  0.97829000  1.0
  C  C117  1  0.44284000  0.46435000  0.51918000  1.0
  C  C118  1  0.94284000  0.46196000  0.02164000  1.0
  C  C119  1  0.55716000  0.53566000  0.48083000  1.0
  C  C120  1  0.09423000  0.54508000  0.32250000  1.0
  C  C121  1  0.40498000  0.08303000  0.54873000  1.0
  C  C122  1  0.90572000  0.45488000  0.67749000  1.0
  C  C123  1  0.59501000  0.91697000  0.45129000  1.0
  C  C124  1  0.29276000  0.63171000  0.24418000  1.0
  C  C125  1  0.20629000  0.96267000  0.66112000  1.0
  C  C126  1  0.70717000  0.36822000  0.75587000  1.0
  C  C127  1  0.79371000  0.03735000  0.33887000  1.0
  C  C128  1  0.40217000  0.73362000  0.14825000  1.0
  C  C129  1  0.09703000  0.94916000  0.66881000  1.0
  C  C130  1  0.59778000  0.26632000  0.85181000  1.0
  C  C131  1  0.90297000  0.05086000  0.33118000  1.0
  C  C132  1  0.45537000  0.75623000  0.02193000  1.0
  C  C133  1  0.04412000  0.02232000  0.69942000  1.0
  C  C134  1  0.54460000  0.24372000  0.97814000  1.0
  C  C135  1  0.95587000  0.97769000  0.30059000  1.0
  C  C136  1  0.43912000  0.81411000  0.84980000  1.0
  C  C137  1  0.06099000  0.21091000  0.62509000  1.0
  C  C138  1  0.56090000  0.18590000  0.15022000  1.0
  C  C139  1  0.93900000  0.78909000  0.37492000  1.0
  C  C140  1  0.35303000  0.82564000  0.82025000  1.0
  C  C141  1  0.14739000  0.32679000  0.52726000  1.0
  C  C142  1  0.64700000  0.17437000  0.17976000  1.0
  C  C143  1  0.85260000  0.67321000  0.47275000  1.0
  C  C144  1  0.15285000  0.72865000  0.90446000  1.0
  C  C145  1  0.34770000  0.44295000  0.42386000  1.0
  C  C146  1  0.84721000  0.27137000  0.09548000  1.0
  C  C147  1  0.65230000  0.55706000  0.57615000  1.0
  C  C148  1  0.99834000  0.60678000  0.11351000  1.0
  C  C149  1  0.50175000  0.38833000  0.39120000  1.0
  C  C150  1  0.00168000  0.39324000  0.88642000  1.0
  C  C151  1  0.49825000  0.61167000  0.60882000  1.0
  C  C152  1  0.30454000  0.20387000  0.32293000  1.0
  C  C153  1  0.19522000  0.87185000  0.10105000  1.0
  C  C154  1  0.69545000  0.79613000  0.67708000  1.0
  C  C155  1  0.80477000  0.12813000  0.89895000  1.0
  C  C156  1  0.29009000  0.25055000  0.22202000  1.0
  C  C157  1  0.20953000  0.98723000  0.03987000  1.0
  C  C158  1  0.70991000  0.74945000  0.77798000  1.0
  C  C159  1  0.79049000  0.01277000  0.96012000  1.0
  C  C160  1  0.27177000  0.18728000  0.17646000  1.0
  C  C161  1  0.22785000  0.05125000  0.08467000  1.0
  C  C162  1  0.72823000  0.81272000  0.82355000  1.0
  C  C163  1  0.77217000  0.94875000  0.91532000  1.0
  C  C164  1  0.25901000  0.22602000  0.08171000  1.0
  C  C165  1  0.24039000  0.15876000  0.03318000  1.0
  C  C166  1  0.74099000  0.77397000  0.91830000  1.0
  C  C167  1  0.75963000  0.84124000  0.96681000  1.0
  C  C168  1  0.26599000  0.33170000  0.03344000  1.0
  C  C169  1  0.23321000  0.19988000  0.93466000  1.0
  C  C170  1  0.73402000  0.66829000  0.96656000  1.0
  C  C171  1  0.76681000  0.80013000  0.06534000  1.0
  C  C172  1  0.28263000  0.39547000  0.07892000  1.0
  C  C173  1  0.21670000  0.13767000  0.88756000  1.0
  C  C174  1  0.71738000  0.60453000  0.92107000  1.0
  C  C175  1  0.78332000  0.86233000  0.11244000  1.0
  C  C176  1  0.29401000  0.35456000  0.17410000  1.0
  C  C177  1  0.20548000  0.03109000  0.93988000  1.0
  C  C178  1  0.70599000  0.64544000  0.82590000  1.0
  C  C179  1  0.79452000  0.96890000  0.06013000  1.0
  C  C180  1  0.28610000  0.50713000  0.02443000  1.0
  C  C181  1  0.21334000  0.18879000  0.77930000  1.0
  C  C182  1  0.71391000  0.49287000  0.97557000  1.0
  C  C183  1  0.78666000  0.81121000  0.22071000  1.0
  N  N184  1  0.05935000  0.57344000  0.16919000  1.0
  N  N185  1  0.44030000  0.27135000  0.48562000  1.0
  N  N186  1  0.94065000  0.42657000  0.83076000  1.0
  N  N187  1  0.55970000  0.72866000  0.51440000  1.0
  N  N188  1  0.20018000  0.64142000  0.23340000  1.0
  N  N189  1  0.29918000  0.06628000  0.55853000  1.0
  N  N190  1  0.79977000  0.35853000  0.76661000  1.0
  N  N191  1  0.70083000  0.93374000  0.44146000  1.0
  N  N192  1  0.39168000  0.79089000  0.97202000  1.0
  N  N193  1  0.10818000  0.13615000  0.60080000  1.0
  N  N194  1  0.60831000  0.20910000  0.02802000  1.0
  N  N195  1  0.89180000  0.86385000  0.39922000  1.0
  N  N196  1  0.25100000  0.72456000  0.90765000  1.0
  N  N197  1  0.24922000  0.34134000  0.52624000  1.0
  N  N198  1  0.74904000  0.27545000  0.09234000  1.0
  N  N199  1  0.75078000  0.65868000  0.47377000  1.0
  N  N200  1  0.05282000  0.62958000  0.99364000  1.0
  N  N201  1  0.44745000  0.45368000  0.42301000  1.0
  N  N202  1  0.94723000  0.37044000  0.00628000  1.0
  N  N203  1  0.55255000  0.54633000  0.57700000  1.0
  O  O204  1  0.30407000  0.11057000  0.35836000  1.0
  O  O205  1  0.19559000  0.83687000  0.19390000  1.0
  O  O206  1  0.69594000  0.88944000  0.64164000  1.0
  O  O207  1  0.80442000  0.16312000  0.80609000  1.0
  O  O208  1  0.31488000  0.26225000  0.36658000  1.0
  O  O209  1  0.18511000  0.81788000  0.05293000  1.0
  O  O210  1  0.68512000  0.73776000  0.63341000  1.0
  O  O211  1  0.81488000  0.18211000  0.94707000  1.0
  O  O212  1  0.26445000  0.54708000  0.09113000  1.0
  O  O213  1  0.23511000  0.14388000  0.71754000  1.0
  O  O214  1  0.73555000  0.45292000  0.90886000  1.0
  O  O215  1  0.76489000  0.85613000  0.28246000  1.0
  O  O216  1  0.30688000  0.55145000  0.92100000  1.0
  O  O217  1  0.19263000  0.27142000  0.75579000  1.0
  O  O218  1  0.69316000  0.44856000  0.07899000  1.0
  O  O219  1  0.80738000  0.72859000  0.24423000  1.0
