# generated using pymatgen
data_Ni4H12C24O13
_symmetry_space_group_name_H-M   'P 1'
_cell_length_a   18.25520000
_cell_length_b   18.25505166
_cell_length_c   18.25491889
_cell_angle_alpha   60.00052181
_cell_angle_beta   60.00087182
_cell_angle_gamma   60.00099363
_symmetry_Int_Tables_number   1
_chemical_formula_structural   Ni4H12C24O13
_chemical_formula_sum   'Ni8 H24 C48 O26'
_cell_volume   4301.72265555
_cell_formula_units_Z   2
loop_
 _symmetry_equiv_pos_site_id
 _symmetry_equiv_pos_as_xyz
  1  'x, y, z'
loop_
 _atom_site_type_symbol
 _atom_site_label
 _atom_site_symmetry_multiplicity
 _atom_site_fract_x
 _atom_site_fract_y
 _atom_site_fract_z
 _atom_site_occupancy
  Ni  Ni0  1  0.37701000  0.20768000  0.20765000  1.0
  Ni  Ni1  1  0.20768000  0.20769000  0.37697000  1.0
  Ni  Ni2  1  0.20767000  0.20768000  0.20765000  1.0
  Ni  Ni3  1  0.20768000  0.37700000  0.20766000  1.0
  Ni  Ni4  1  0.79231000  0.79234000  0.62301000  1.0
  Ni  Ni5  1  0.62297000  0.79234000  0.79234000  1.0
  Ni  Ni6  1  0.79230000  0.79234000  0.79234000  1.0
  Ni  Ni7  1  0.79231000  0.62301000  0.79234000  1.0
  H  H8  1  0.56916000  0.04854000  0.33376000  1.0
  H  H9  1  0.33376000  0.04854000  0.56916000  1.0
  H  H10  1  0.04855000  0.33376000  0.04854000  1.0
  H  H11  1  0.04855000  0.56915000  0.04854000  1.0
  H  H12  1  0.56916000  0.33376000  0.04854000  1.0
  H  H13  1  0.33377000  0.56915000  0.04854000  1.0
  H  H14  1  0.04855000  0.04854000  0.56915000  1.0
  H  H15  1  0.04855000  0.04854000  0.33376000  1.0
  H  H16  1  0.56916000  0.04854000  0.04854000  1.0
  H  H17  1  0.33376000  0.04854000  0.04854000  1.0
  H  H18  1  0.04855000  0.56915000  0.33376000  1.0
  H  H19  1  0.04855000  0.33376000  0.56915000  1.0
  H  H20  1  0.66625000  0.95145000  0.43085000  1.0
  H  H21  1  0.43085000  0.95145000  0.66625000  1.0
  H  H22  1  0.95146000  0.66624000  0.95146000  1.0
  H  H23  1  0.95146000  0.43084000  0.95146000  1.0
  H  H24  1  0.95147000  0.66624000  0.43084000  1.0
  H  H25  1  0.95147000  0.43084000  0.66624000  1.0
  H  H26  1  0.43085000  0.95145000  0.95145000  1.0
  H  H27  1  0.66625000  0.95145000  0.95145000  1.0
  H  H28  1  0.95146000  0.95145000  0.43085000  1.0
  H  H29  1  0.95147000  0.95145000  0.66624000  1.0
  H  H30  1  0.66625000  0.43085000  0.95145000  1.0
  H  H31  1  0.43085000  0.66624000  0.95146000  1.0
  C  C32  1  0.53959000  0.02691000  0.40659000  1.0
  C  C33  1  0.40659000  0.02691000  0.53959000  1.0
  C  C34  1  0.02692000  0.40658000  0.02692000  1.0
  C  C35  1  0.02692000  0.53958000  0.02692000  1.0
  C  C36  1  0.53958000  0.40658000  0.02692000  1.0
  C  C37  1  0.40658000  0.53958000  0.02692000  1.0
  C  C38  1  0.02691000  0.02692000  0.53959000  1.0
  C  C39  1  0.02692000  0.02692000  0.40658000  1.0
  C  C40  1  0.53959000  0.02691000  0.02691000  1.0
  C  C41  1  0.40660000  0.02691000  0.02691000  1.0
  C  C42  1  0.02692000  0.53958000  0.40658000  1.0
  C  C43  1  0.02692000  0.40658000  0.53958000  1.0
  C  C44  1  0.59343000  0.97307000  0.46043000  1.0
  C  C45  1  0.46043000  0.97307000  0.59343000  1.0
  C  C46  1  0.97308000  0.59342000  0.97308000  1.0
  C  C47  1  0.97308000  0.46042000  0.97308000  1.0
  C  C48  1  0.97308000  0.59342000  0.46042000  1.0
  C  C49  1  0.97308000  0.46042000  0.59342000  1.0
  C  C50  1  0.46043000  0.97307000  0.97307000  1.0
  C  C51  1  0.59343000  0.97307000  0.97307000  1.0
  C  C52  1  0.97308000  0.97308000  0.46042000  1.0
  C  C53  1  0.97308000  0.97308000  0.59342000  1.0
  C  C54  1  0.59342000  0.46043000  0.97308000  1.0
  C  C55  1  0.46043000  0.59342000  0.97308000  1.0
  C  C56  1  0.38807000  0.11193000  0.38808000  1.0
  C  C57  1  0.44585000  0.05415000  0.44584000  1.0
  C  C58  1  0.11193000  0.38808000  0.11193000  1.0
  C  C59  1  0.05416000  0.44584000  0.05417000  1.0
  C  C60  1  0.38806000  0.38808000  0.11193000  1.0
  C  C61  1  0.44583000  0.44584000  0.05417000  1.0
  C  C62  1  0.11193000  0.11192000  0.38808000  1.0
  C  C63  1  0.05414000  0.05416000  0.44585000  1.0
  C  C64  1  0.38807000  0.11193000  0.11193000  1.0
  C  C65  1  0.44584000  0.05416000  0.05416000  1.0
  C  C66  1  0.11194000  0.38808000  0.38806000  1.0
  C  C67  1  0.05416000  0.44585000  0.44583000  1.0
  C  C68  1  0.61193000  0.88806000  0.61195000  1.0
  C  C69  1  0.55417000  0.94583000  0.55418000  1.0
  C  C70  1  0.88807000  0.61193000  0.88807000  1.0
  C  C71  1  0.94584000  0.55416000  0.94584000  1.0
  C  C72  1  0.88807000  0.61193000  0.61193000  1.0
  C  C73  1  0.94584000  0.55416000  0.55416000  1.0
  C  C74  1  0.61193000  0.88806000  0.88806000  1.0
  C  C75  1  0.55417000  0.94582000  0.94583000  1.0
  C  C76  1  0.88807000  0.88806000  0.61194000  1.0
  C  C77  1  0.94583000  0.94583000  0.55417000  1.0
  C  C78  1  0.61192000  0.61194000  0.88807000  1.0
  C  C79  1  0.55417000  0.55417000  0.94583000  1.0
  O  O80  1  0.25008000  0.25001000  0.24993000  1.0
  O  O81  1  0.74990000  0.75003000  0.75001000  1.0
  O  O82  1  0.42791000  0.13449000  0.30311000  1.0
  O  O83  1  0.30312000  0.13449000  0.42790000  1.0
  O  O84  1  0.13449000  0.30313000  0.13449000  1.0
  O  O85  1  0.13451000  0.42790000  0.13450000  1.0
  O  O86  1  0.42790000  0.30312000  0.13449000  1.0
  O  O87  1  0.30311000  0.42789000  0.13450000  1.0
  O  O88  1  0.13448000  0.13449000  0.42791000  1.0
  O  O89  1  0.13449000  0.13449000  0.30312000  1.0
  O  O90  1  0.42789000  0.13450000  0.13450000  1.0
  O  O91  1  0.30312000  0.13449000  0.13450000  1.0
  O  O92  1  0.13449000  0.42791000  0.30310000  1.0
  O  O93  1  0.13448000  0.30314000  0.42790000  1.0
  O  O94  1  0.69687000  0.86551000  0.57211000  1.0
  O  O95  1  0.57211000  0.86549000  0.69691000  1.0
  O  O96  1  0.86551000  0.69688000  0.86551000  1.0
  O  O97  1  0.86551000  0.57210000  0.86551000  1.0
  O  O98  1  0.86551000  0.69689000  0.57210000  1.0
  O  O99  1  0.86550000  0.57211000  0.69688000  1.0
  O  O100  1  0.57210000  0.86549000  0.86549000  1.0
  O  O101  1  0.69687000  0.86550000  0.86551000  1.0
  O  O102  1  0.86550000  0.86550000  0.57210000  1.0
  O  O103  1  0.86550000  0.86550000  0.69688000  1.0
  O  O104  1  0.69687000  0.57211000  0.86551000  1.0
  O  O105  1  0.57209000  0.69691000  0.86550000  1.0
