# generated using pymatgen
data_Cu2H20C12N2Cl2O
_symmetry_space_group_name_H-M   'P 1'
_cell_length_a   7.22233000
_cell_length_b   10.04730000
_cell_length_c   10.51440000
_cell_angle_alpha   89.99990000
_cell_angle_beta   89.99980000
_cell_angle_gamma   98.99990000
_symmetry_Int_Tables_number   1
_chemical_formula_structural   Cu2H20C12N2Cl2O
_chemical_formula_sum   'Cu4 H40 C24 N4 Cl4 O2'
_cell_volume   753.58325582
_cell_formula_units_Z   2
loop_
 _symmetry_equiv_pos_site_id
 _symmetry_equiv_pos_as_xyz
  1  'x, y, z'
loop_
 _atom_site_type_symbol
 _atom_site_label
 _atom_site_symmetry_multiplicity
 _atom_site_fract_x
 _atom_site_fract_y
 _atom_site_fract_z
 _atom_site_occupancy
  Cu  Cu0  1  0.33029000  0.93410000  0.91979000  1.0
  Cu  Cu1  1  0.66971000  0.06590000  0.41979000  1.0
  Cu  Cu2  1  0.41673000  0.97526000  0.17917000  1.0
  Cu  Cu3  1  0.58328000  0.02473000  0.67917000  1.0
  H  H4  1  0.53319000  0.56741000  0.90732000  1.0
  H  H5  1  0.46679000  0.43260000  0.40731000  1.0
  H  H6  1  0.58097000  0.43878000  0.80033000  1.0
  H  H7  1  0.41903000  0.56124000  0.30033000  1.0
  H  H8  1  0.65036000  0.43477000  0.96142000  1.0
  H  H9  1  0.34964000  0.56524000  0.46142000  1.0
  H  H10  1  0.35557000  0.35013000  0.14092000  1.0
  H  H11  1  0.64442000  0.64985000  0.64092000  1.0
  H  H12  1  0.30327000  0.50770000  0.08870000  1.0
  H  H13  1  0.69672000  0.49229000  0.58869000  1.0
  H  H14  1  0.97874000  0.41951000  0.07753000  1.0
  H  H15  1  0.02125000  0.58048000  0.57753000  1.0
  H  H16  1  0.02536000  0.26429000  0.13776000  1.0
  H  H17  1  0.97462000  0.73570000  0.63777000  1.0
  H  H18  1  0.89765000  0.25852000  0.89374000  1.0
  H  H19  1  0.10235000  0.74148000  0.39374000  1.0
  H  H20  1  0.11499000  0.56983000  0.94716000  1.0
  H  H21  1  0.88499000  0.43017000  0.44715000  1.0
  H  H22  1  0.97244000  0.51968000  0.81269000  1.0
  H  H23  1  0.02754000  0.48031000  0.31268000  1.0
  H  H24  1  0.20896000  0.59713000  0.79282000  1.0
  H  H25  1  0.79101000  0.40286000  0.29281000  1.0
  H  H26  1  0.05760000  0.34167000  0.66227000  1.0
  H  H27  1  0.94240000  0.65834000  0.16227000  1.0
  H  H28  1  0.23545000  0.24476000  0.70089000  1.0
  H  H29  1  0.76456000  0.75525000  0.20090000  1.0
  H  H30  1  0.29806000  0.41694000  0.66039000  1.0
  H  H31  1  0.70194000  0.58308000  0.16039000  1.0
  H  H32  1  0.01929000  0.80248000  0.82740000  1.0
  H  H33  1  0.98072000  0.19752000  0.32740000  1.0
  H  H34  1  0.77632000  0.78441000  0.86799000  1.0
  H  H35  1  0.22369000  0.21558000  0.36799000  1.0
  H  H36  1  0.94815000  0.76900000  0.98842000  1.0
  H  H37  1  0.05186000  0.23099000  0.48842000  1.0
  H  H38  1  0.76759000  0.10408000  0.99898000  1.0
  H  H39  1  0.23242000  0.89592000  0.49898000  1.0
  H  H40  1  0.88078000  0.00977000  0.11235000  1.0
  H  H41  1  0.11923000  0.99023000  0.61235000  1.0
  H  H42  1  0.68505000  0.93094000  0.02105000  1.0
  H  H43  1  0.31496000  0.06905000  0.52104000  1.0
  C  C44  1  0.15218000  0.16431000  0.92633000  1.0
  C  C45  1  0.84782000  0.83569000  0.42633000  1.0
  C  C46  1  0.34967000  0.22398000  0.92643000  1.0
  C  C47  1  0.65034000  0.77602000  0.42644000  1.0
  C  C48  1  0.35351000  0.37546000  0.93179000  1.0
  C  C49  1  0.64648000  0.62454000  0.43179000  1.0
  C  C50  1  0.53949000  0.45933000  0.89798000  1.0
  C  C51  1  0.46050000  0.54068000  0.39797000  1.0
  C  C52  1  0.27912000  0.39901000  0.06892000  1.0
  C  C53  1  0.72087000  0.60098000  0.56892000  1.0
  C  C54  1  0.06671000  0.34083000  0.06469000  1.0
  C  C55  1  0.93329000  0.65916000  0.56469000  1.0
  C  C56  1  0.04186000  0.28007000  0.92915000  1.0
  C  C57  1  0.95814000  0.71992000  0.42915000  1.0
  C  C58  1  0.17528000  0.38698000  0.84910000  1.0
  C  C59  1  0.82472000  0.61302000  0.34910000  1.0
  C  C60  1  0.11479000  0.52603000  0.85182000  1.0
  C  C61  1  0.88519000  0.47397000  0.35181000  1.0
  C  C62  1  0.19321000  0.34470000  0.71060000  1.0
  C  C63  1  0.80680000  0.65531000  0.21061000  1.0
  C  C64  1  0.91906000  0.82170000  0.90072000  1.0
  C  C65  1  0.08095000  0.17830000  0.40073000  1.0
  C  C66  1  0.81142000  0.00702000  0.01859000  1.0
  C  C67  1  0.18859000  0.99298000  0.51859000  1.0
  N  N68  1  0.11287000  0.03253000  0.91509000  1.0
  N  N69  1  0.88714000  0.96746000  0.41509000  1.0
  N  N70  1  0.93581000  0.96654000  0.92087000  1.0
  N  N71  1  0.06420000  0.03346000  0.42088000  1.0
  Cl  Cl72  1  0.32722000  0.78617000  0.09279000  1.0
  Cl  Cl73  1  0.67280000  0.21382000  0.59279000  1.0
  Cl  Cl74  1  0.46992000  0.83533000  0.75808000  1.0
  Cl  Cl75  1  0.53009000  0.16467000  0.25808000  1.0
  O  O76  1  0.48411000  0.15949000  0.92563000  1.0
  O  O77  1  0.51589000  0.84053000  0.42564000  1.0
