# generated using pymatgen
data_Al2H11C22Br2O10F
_symmetry_space_group_name_H-M   'P 1'
_cell_length_a   6.63893000
_cell_length_b   11.10778321
_cell_length_c   11.17702319
_cell_angle_alpha   81.52379063
_cell_angle_beta   72.75270829
_cell_angle_gamma   73.11280043
_symmetry_Int_Tables_number   1
_chemical_formula_structural   Al2H11C22Br2O10F
_chemical_formula_sum   'Al2 H11 C22 Br2 O10 F1'
_cell_volume   751.53453452
_cell_formula_units_Z   1
loop_
 _symmetry_equiv_pos_site_id
 _symmetry_equiv_pos_as_xyz
  1  'x, y, z'
loop_
 _atom_site_type_symbol
 _atom_site_label
 _atom_site_symmetry_multiplicity
 _atom_site_fract_x
 _atom_site_fract_y
 _atom_site_fract_z
 _atom_site_occupancy
  Al  Al0  1  0.50003000  0.51253000  0.49410000  1.0
  Al  Al1  1  0.99898000  0.51490000  0.49353000  1.0
  H  H2  1  0.24297000  0.64622000  0.38279000  1.0
  H  H3  1  0.79605000  0.36026000  0.56032000  1.0
  H  H4  1  0.28670000  0.61963000  0.86574000  1.0
  H  H5  1  0.82405000  0.28940000  0.89956000  1.0
  H  H6  1  0.61131000  0.42912000  0.88938000  1.0
  H  H7  1  0.50352000  0.43346000  0.12676000  1.0
  H  H8  1  0.71543000  0.29302000  0.13383000  1.0
  H  H9  1  0.73580000  0.77212000  0.69300000  1.0
  H  H10  1  0.78638000  0.88430000  0.85168000  1.0
  H  H11  1  0.50390000  0.24192000  0.68078000  1.0
  H  H12  1  0.66805000  0.11999000  0.84587000  1.0
  C  C13  1  0.62654000  0.73875000  0.50314000  1.0
  C  C14  1  0.86762000  0.51955000  0.26770000  1.0
  C  C15  1  0.36857000  0.28698000  0.48524000  1.0
  C  C16  1  0.12821000  0.51281000  0.71952000  1.0
  C  C17  1  0.05922000  0.51605000  0.85842000  1.0
  C  C18  1  0.93160000  0.52067000  0.12848000  1.0
  C  C19  1  0.89578000  0.46184000  0.93410000  1.0
  C  C20  1  0.09429000  0.57662000  0.04985000  1.0
  C  C21  1  0.83597000  0.46376000  0.06457000  1.0
  C  C22  1  0.15931000  0.57435000  0.91978000  1.0
  C  C23  1  0.74199000  0.38338000  0.93528000  1.0
  C  C24  1  0.67436000  0.38561000  0.08335000  1.0
  C  C25  1  0.55778000  0.88022000  0.49919000  1.0
  C  C26  1  0.59118000  0.94259000  0.59192000  1.0
  C  C27  1  0.46619000  0.94863000  0.40536000  1.0
  C  C28  1  0.68444000  0.87480000  0.68944000  1.0
  C  C29  1  0.71307000  0.93774000  0.77815000  1.0
  C  C30  1  0.43370000  0.14562000  0.48900000  1.0
  C  C31  1  0.40372000  0.08255000  0.40015000  1.0
  C  C32  1  0.52700000  0.07774000  0.58711000  1.0
  C  C33  1  0.55558000  0.13944000  0.68150000  1.0
  C  C34  1  0.64721000  0.07091000  0.77445000  1.0
  Br  Br35  1  0.28851000  0.17615000  0.26789000  1.0
  Br  Br36  1  0.43711000  0.86378000  0.27791000  1.0
  O  O37  1  0.47766000  0.68227000  0.52442000  1.0
  O  O38  1  0.01903000  0.50546000  0.32049000  1.0
  O  O39  1  0.16627000  0.34132000  0.50433000  1.0
  O  O40  1  0.33196000  0.49323000  0.66575000  1.0
  O  O41  1  0.52087000  0.34039000  0.46844000  1.0
  O  O42  1  0.97666000  0.52757000  0.66651000  1.0
  O  O43  1  0.82961000  0.68702000  0.48485000  1.0
  O  O44  1  0.66542000  0.53183000  0.32185000  1.0
  O  O45  1  0.24852000  0.57220000  0.44111000  1.0
  O  O46  1  0.75343000  0.45144000  0.54655000  1.0
  F  F47  1  0.19292000  0.63958000  0.10171000  1.0
