# generated using pymatgen
data_Zn4H22C60I3N19O6
_symmetry_space_group_name_H-M   'P 1'
_cell_length_a   18.21290000
_cell_length_b   19.27150000
_cell_length_c   19.51634742
_cell_angle_alpha   113.57464690
_cell_angle_beta   112.51858527
_cell_angle_gamma   99.42410000
_symmetry_Int_Tables_number   1
_chemical_formula_structural   Zn4H22C60I3N19O6
_chemical_formula_sum   'Zn4 H22 C60 I3 N19 O6'
_cell_volume   5378.03305554
_cell_formula_units_Z   1
loop_
 _symmetry_equiv_pos_site_id
 _symmetry_equiv_pos_as_xyz
  1  'x, y, z'
loop_
 _atom_site_type_symbol
 _atom_site_label
 _atom_site_symmetry_multiplicity
 _atom_site_fract_x
 _atom_site_fract_y
 _atom_site_fract_z
 _atom_site_occupancy
  Zn  Zn0  1  0.38677000  0.51258000  0.39367000  1.0
  Zn  Zn1  1  0.60075000  0.50190000  0.60284000  1.0
  Zn  Zn2  1  0.50212000  0.37055000  0.38899000  1.0
  Zn  Zn3  1  0.47816000  0.60813000  0.60939000  1.0
  H  H4  1  0.22891000  0.40695000  0.39314000  1.0
  H  H5  1  0.49925000  0.35239000  0.60500000  1.0
  H  H6  1  0.33381000  0.68681000  0.63713000  1.0
  H  H7  1  0.69049000  0.38578000  0.67289000  1.0
  H  H8  1  0.20620000  0.54351000  0.35863000  1.0
  H  H9  1  0.51656000  0.64106000  0.37981000  1.0
  H  H10  1  0.76226000  0.62403000  0.62333000  1.0
  H  H11  1  0.44843000  0.29609000  0.16902000  1.0
  H  H12  1  0.60702000  0.76723000  0.81218000  1.0
  H  H13  1  0.77564000  0.63503000  0.79108000  1.0
  H  H14  1  0.63699000  0.75100000  0.65719000  1.0
  H  H15  1  0.62927000  0.46252000  0.34631000  1.0
  H  H16  1  0.39234000  0.24480000  0.77463000  1.0
  H  H17  1  0.38462000  0.24709000  0.89982000  1.0
  H  H18  1  0.26454000  0.42393000  0.91547000  1.0
  H  H19  1  0.27229000  0.42187000  0.79021000  1.0
  H  H20  1  0.66393000  0.89699000  0.41474000  1.0
  H  H21  1  0.74516000  0.14524000  0.68743000  1.0
  H  H22  1  0.73173000  0.01325000  0.68283000  1.0
  H  H23  1  0.93830000  0.12594000  0.18566000  1.0
  H  H24  1  0.82539000  0.99144000  0.06446000  1.0
  H  H25  1  0.13192000  0.02383000  0.18287000  1.0
  C  C26  1  0.27048000  0.37375000  0.38483000  1.0
  C  C27  1  0.46695000  0.39526000  0.60892000  1.0
  C  C28  1  0.61484000  0.28402000  0.46390000  1.0
  C  C29  1  0.31566000  0.64982000  0.57005000  1.0
  C  C30  1  0.66119000  0.35885000  0.60354000  1.0
  C  C31  1  0.24991000  0.57536000  0.42753000  1.0
  C  C32  1  0.38785000  0.46969000  0.62695000  1.0
  C  C33  1  0.33131000  0.28459000  0.35470000  1.0
  C  C34  1  0.25187000  0.28906000  0.34774000  1.0
  C  C35  1  0.40421000  0.40253000  0.63382000  1.0
  C  C36  1  0.66125000  0.28743000  0.54334000  1.0
  C  C37  1  0.23646000  0.62164000  0.49579000  1.0
  C  C38  1  0.53688000  0.65577000  0.44563000  1.0
  C  C39  1  0.71731000  0.57857000  0.55624000  1.0
  C  C40  1  0.42322000  0.34175000  0.19353000  1.0
  C  C41  1  0.63631000  0.72356000  0.79323000  1.0
  C  C42  1  0.72269000  0.65602000  0.78238000  1.0
  C  C43  1  0.35937000  0.42945000  0.21455000  1.0
  C  C44  1  0.59826000  0.71238000  0.58771000  1.0
  C  C45  1  0.64902000  0.49619000  0.41425000  1.0
  C  C46  1  0.60022000  0.72732000  0.52321000  1.0
  C  C47  1  0.72825000  0.55873000  0.48375000  1.0
  C  C48  1  0.37244000  0.37443000  0.14981000  1.0
  C  C49  1  0.72163000  0.73026000  0.83705000  1.0
  C  C50  1  0.16024000  0.63013000  0.49151000  1.0
  C  C51  1  0.09170000  0.63105000  0.48863000  1.0
  C  C52  1  0.01648000  0.62710000  0.48611000  1.0
  C  C53  1  0.94692000  0.61900000  0.48449000  1.0
  C  C54  1  0.87178000  0.60499000  0.48329000  1.0
  C  C55  1  0.80341000  0.58700000  0.48273000  1.0
  C  C56  1  0.35953000  0.28463000  0.87492000  1.0
  C  C57  1  0.32573000  0.33690000  0.91719000  1.0
  C  C58  1  0.29161000  0.38434000  0.88376000  1.0
  C  C59  1  0.29597000  0.38317000  0.81404000  1.0
  C  C60  1  0.33479000  0.33478000  0.77515000  1.0
  C  C61  1  0.36386000  0.28345000  0.80516000  1.0
  C  C62  1  0.33281000  0.34601000  0.99499000  1.0
  C  C63  1  0.35047000  0.34441000  0.71341000  1.0
  C  C64  1  0.37310000  0.36445000  0.67040000  1.0
  C  C65  1  0.34705000  0.35838000  0.06623000  1.0
  C  C66  1  0.69378000  0.02554000  0.47986000  1.0
  C  C67  1  0.71373000  0.09765000  0.55498000  1.0
  C  C68  1  0.72918000  0.09081000  0.62845000  1.0
  C  C69  1  0.72087000  0.01684000  0.62562000  1.0
  C  C70  1  0.69465000  0.94436000  0.54808000  1.0
  C  C71  1  0.68307000  0.95069000  0.47555000  1.0
  C  C72  1  0.70833000  0.16997000  0.55577000  1.0
  C  C73  1  0.67364000  0.86717000  0.54145000  1.0
  C  C74  1  0.64432000  0.80093000  0.53351000  1.0
  C  C75  1  0.69129000  0.22841000  0.55472000  1.0
  C  C76  1  0.89274000  0.99912000  0.09099000  1.0
  C  C77  1  0.91330000  0.93093000  0.05324000  1.0
  C  C78  1  0.00105000  0.94115000  0.08908000  1.0
  C  C79  1  0.06459000  0.01603000  0.15680000  1.0
  C  C80  1  0.04290000  0.08415000  0.19172000  1.0
  C  C81  1  0.95565000  0.07410000  0.15856000  1.0
  C  C82  1  0.84758000  0.85766000  0.98063000  1.0
  C  C83  1  0.11032000  0.16051000  0.25490000  1.0
  C  C84  1  0.17434000  0.22323000  0.30347000  1.0
  C  C85  1  0.78907000  0.79722000  0.91479000  1.0
  I  I86  1  0.03712000  0.84281000  0.03817000  1.0
  I  I87  1  0.59834000  0.20229000  0.34632000  1.0
  I  I88  1  0.30236000  0.51746000  0.65447000  1.0
  N  N89  1  0.35264000  0.41364000  0.40945000  1.0
  N  N90  1  0.48639000  0.45383000  0.59065000  1.0
  N  N91  1  0.58752000  0.34634000  0.47621000  1.0
  N  N92  1  0.37018000  0.62148000  0.54738000  1.0
  N  N93  1  0.61787000  0.39354000  0.56336000  1.0
  N  N94  1  0.32950000  0.57534000  0.45900000  1.0
  N  N95  1  0.43757000  0.49972000  0.60156000  1.0
  N  N96  1  0.39018000  0.35938000  0.39215000  1.0
  N  N97  1  0.49992000  0.60433000  0.46365000  1.0
  N  N98  1  0.63885000  0.53047000  0.53103000  1.0
  N  N99  1  0.43833000  0.37575000  0.27542000  1.0
  N  N100  1  0.59111000  0.65179000  0.71922000  1.0
  N  N101  1  0.64462000  0.60975000  0.71235000  1.0
  N  N102  1  0.39954000  0.42961000  0.28865000  1.0
  N  N103  1  0.53755000  0.63891000  0.55084000  1.0
  N  N104  1  0.59681000  0.48007000  0.44388000  1.0
  N  N105  1  0.31101000  0.47938000  0.21185000  1.0
  N  N106  1  0.68087000  0.02713000  0.40131000  1.0
  N  N107  1  0.35049000  0.21538000  0.31705000  1.0
  O  O108  1  0.27371000  0.48192000  0.14566000  1.0
  O  O109  1  0.30772000  0.52059000  0.28038000  1.0
  O  O110  1  0.63015000  0.96399000  0.33089000  1.0
  O  O111  1  0.72228000  0.09110000  0.41048000  1.0
  O  O112  1  0.29986000  0.14638000  0.28744000  1.0
  O  O113  1  0.41911000  0.22848000  0.31329000  1.0
