# generated using pymatgen
data_ZnH10C14N2O5
_symmetry_space_group_name_H-M   'P 1'
_cell_length_a   6.03584000
_cell_length_b   7.53123000
_cell_length_c   14.50820000
_cell_angle_alpha   87.59250000
_cell_angle_beta   88.41060000
_cell_angle_gamma   87.65000000
_symmetry_Int_Tables_number   1
_chemical_formula_structural   ZnH10C14N2O5
_chemical_formula_sum   'Zn2 H20 C28 N4 O10'
_cell_volume   658.14373418
_cell_formula_units_Z   2
loop_
 _symmetry_equiv_pos_site_id
 _symmetry_equiv_pos_as_xyz
  1  'x, y, z'
loop_
 _atom_site_type_symbol
 _atom_site_label
 _atom_site_symmetry_multiplicity
 _atom_site_fract_x
 _atom_site_fract_y
 _atom_site_fract_z
 _atom_site_occupancy
  Zn  Zn0  1  0.19196000  0.24771000  0.49718000  1.0
  Zn  Zn1  1  0.80808000  0.75235000  0.50283000  1.0
  H  H2  1  0.50184000  0.60145000  0.32813000  1.0
  H  H3  1  0.52690000  0.90737000  0.67799000  1.0
  H  H4  1  0.49814000  0.39859000  0.67189000  1.0
  H  H5  1  0.47309000  0.09269000  0.32198000  1.0
  H  H6  1  0.36383000  0.67782000  0.17028000  1.0
  H  H7  1  0.38993000  0.82601000  0.83753000  1.0
  H  H8  1  0.63611000  0.32215000  0.82974000  1.0
  H  H9  1  0.61010000  0.17399000  0.16244000  1.0
  H  H10  1  0.60832000  0.61829000  0.03230000  1.0
  H  H11  1  0.62412000  0.88031000  0.97237000  1.0
  H  H12  1  0.39157000  0.38161000  0.96772000  1.0
  H  H13  1  0.37595000  0.11957000  0.02760000  1.0
  H  H14  1  0.11935000  0.39935000  0.20927000  1.0
  H  H15  1  0.12095000  0.10405000  0.78916000  1.0
  H  H16  1  0.88059000  0.60064000  0.79074000  1.0
  H  H17  1  0.87909000  0.89594000  0.21083000  1.0
  H  H18  1  0.60314000  0.34692000  0.46971000  1.0
  H  H19  1  0.61885000  0.14690000  0.51040000  1.0
  H  H20  1  0.39687000  0.65315000  0.53030000  1.0
  H  H21  1  0.38117000  0.85316000  0.48958000  1.0
  C  C22  1  0.89812000  0.44428000  0.37304000  1.0
  C  C23  1  0.90813000  0.06436000  0.62806000  1.0
  C  C24  1  0.10189000  0.55576000  0.62697000  1.0
  C  C25  1  0.09188000  0.93567000  0.37194000  1.0
  C  C26  1  0.81795000  0.49402000  0.27887000  1.0
  C  C27  1  0.83071000  0.01250000  0.72348000  1.0
  C  C28  1  0.18205000  0.50598000  0.72116000  1.0
  C  C29  1  0.16931000  0.98751000  0.27652000  1.0
  C  C30  1  0.60583000  0.57390000  0.26740000  1.0
  C  C31  1  0.62528000  0.93319000  0.73751000  1.0
  C  C32  1  0.39413000  0.42609000  0.73262000  1.0
  C  C33  1  0.37473000  0.06685000  0.26247000  1.0
  C  C34  1  0.52948000  0.61721000  0.17887000  1.0
  C  C35  1  0.55008000  0.88662000  0.82689000  1.0
  C  C36  1  0.47045000  0.38274000  0.82116000  1.0
  C  C37  1  0.44995000  0.11336000  0.17308000  1.0
  C  C38  1  0.66468000  0.58501000  0.10173000  1.0
  C  C39  1  0.67934000  0.91593000  0.90224000  1.0
  C  C40  1  0.33523000  0.41492000  0.89829000  1.0
  C  C41  1  0.32071000  0.08402000  0.09773000  1.0
  C  C42  1  0.87978000  0.50887000  0.11288000  1.0
  C  C43  1  0.88718000  0.99269000  0.88846000  1.0
  C  C44  1  0.12011000  0.49107000  0.88713000  1.0
  C  C45  1  0.11285000  0.00723000  0.11152000  1.0
  C  C46  1  0.95415000  0.46084000  0.20137000  1.0
  C  C47  1  0.96107000  0.04282000  0.79908000  1.0
  C  C48  1  0.04580000  0.53913000  0.79864000  1.0
  C  C49  1  0.03894000  0.95717000  0.20091000  1.0
  N  N50  1  0.03515000  0.47861000  0.03983000  1.0
  N  N51  1  0.03512000  0.02228000  0.95976000  1.0
  N  N52  1  0.96477000  0.52131000  0.96018000  1.0
  N  N53  1  0.96492000  0.97766000  0.04021000  1.0
  O  O54  1  0.07597000  0.34773000  0.37874000  1.0
  O  O55  1  0.08108000  0.15662000  0.61911000  1.0
  O  O56  1  0.92410000  0.65237000  0.62126000  1.0
  O  O57  1  0.91895000  0.84343000  0.38088000  1.0
  O  O58  1  0.78420000  0.49490000  0.44391000  1.0
  O  O59  1  0.79806000  0.01835000  0.55952000  1.0
  O  O60  1  0.21587000  0.50516000  0.55612000  1.0
  O  O61  1  0.20200000  0.98172000  0.44045000  1.0
  O  O62  1  0.51912000  0.23546000  0.47657000  1.0
  O  O63  1  0.48091000  0.76461000  0.52342000  1.0
