# generated using pymatgen
data_Mo2H10C10N2O7
_symmetry_space_group_name_H-M   'P 1'
_cell_length_a   3.74336000
_cell_length_b   17.16468886
_cell_length_c   19.93190000
_cell_angle_alpha   89.99988711
_cell_angle_beta   89.99960000
_cell_angle_gamma   96.09670762
_symmetry_Int_Tables_number   1
_chemical_formula_structural   Mo2H10C10N2O7
_chemical_formula_sum   'Mo8 H40 C40 N8 O28'
_cell_volume   1273.45296599
_cell_formula_units_Z   4
loop_
 _symmetry_equiv_pos_site_id
 _symmetry_equiv_pos_as_xyz
  1  'x, y, z'
loop_
 _atom_site_type_symbol
 _atom_site_label
 _atom_site_symmetry_multiplicity
 _atom_site_fract_x
 _atom_site_fract_y
 _atom_site_fract_z
 _atom_site_occupancy
  Mo  Mo0  1  0.23482000  0.54134000  0.29694000  1.0
  Mo  Mo1  1  0.76514000  0.95865000  0.79694000  1.0
  Mo  Mo2  1  0.76522000  0.45866000  0.70306000  1.0
  Mo  Mo3  1  0.23479000  0.04134000  0.20306000  1.0
  Mo  Mo4  1  0.78740000  0.58141000  0.02402000  1.0
  Mo  Mo5  1  0.21259000  0.91859000  0.52402000  1.0
  Mo  Mo6  1  0.21261000  0.41859000  0.97598000  1.0
  Mo  Mo7  1  0.78739000  0.08141000  0.47598000  1.0
  H  H8  1  0.18167000  0.51643000  0.45601000  1.0
  H  H9  1  0.81827000  0.98356000  0.95602000  1.0
  H  H10  1  0.81841000  0.48357000  0.54398000  1.0
  H  H11  1  0.18161000  0.01643000  0.04399000  1.0
  H  H12  1  0.38807000  0.58425000  0.56397000  1.0
  H  H13  1  0.61187000  0.91575000  0.06397000  1.0
  H  H14  1  0.61199000  0.41576000  0.43603000  1.0
  H  H15  1  0.38801000  0.08424000  0.93603000  1.0
  H  H16  1  0.70337000  0.72232000  0.55512000  1.0
  H  H17  1  0.29658000  0.77768000  0.05512000  1.0
  H  H18  1  0.29664000  0.27769000  0.44488000  1.0
  H  H19  1  0.70336000  0.22232000  0.94489000  1.0
  H  H20  1  0.75036000  0.78690000  0.44480000  1.0
  H  H21  1  0.24961000  0.71309000  0.94480000  1.0
  H  H22  1  0.24964000  0.21310000  0.55520000  1.0
  H  H23  1  0.75035000  0.28690000  0.05521000  1.0
  H  H24  1  0.69618000  0.84094000  0.35649000  1.0
  H  H25  1  0.30382000  0.65905000  0.85649000  1.0
  H  H26  1  0.30388000  0.15907000  0.64351000  1.0
  H  H27  1  0.69614000  0.34094000  0.14351000  1.0
  H  H28  1  0.67658000  0.89411000  0.24053000  1.0
  H  H29  1  0.32347000  0.60588000  0.74053000  1.0
  H  H30  1  0.32352000  0.10589000  0.75946000  1.0
  H  H31  1  0.67654000  0.39411000  0.25947000  1.0
  H  H32  1  0.43198000  0.80642000  0.14813000  1.0
  H  H33  1  0.56807000  0.69358000  0.64813000  1.0
  H  H34  1  0.56812000  0.19358000  0.85186000  1.0
  H  H35  1  0.43193000  0.30641000  0.35187000  1.0
  H  H36  1  0.23405000  0.66524000  0.17363000  1.0
  H  H37  1  0.76592000  0.83475000  0.67363000  1.0
  H  H38  1  0.76599000  0.33476000  0.82637000  1.0
  H  H39  1  0.23403000  0.16524000  0.32637000  1.0
  H  H40  1  0.96159000  0.50483000  0.14750000  1.0
  H  H41  1  0.03840000  0.99517000  0.64751000  1.0
  H  H42  1  0.03845000  0.49517000  0.85249000  1.0
  H  H43  1  0.96157000  0.00483000  0.35250000  1.0
  H  H44  1  0.54427000  0.50472000  0.14810000  1.0
  H  H45  1  0.45572000  0.99528000  0.64810000  1.0
  H  H46  1  0.45576000  0.49528000  0.85190000  1.0
  H  H47  1  0.54426000  0.00472000  0.35190000  1.0
  C  C48  1  0.30006000  0.57717000  0.45688000  1.0
  C  C49  1  0.69989000  0.92283000  0.95688000  1.0
  C  C50  1  0.70001000  0.42284000  0.54312000  1.0
  C  C51  1  0.30001000  0.07717000  0.04312000  1.0
  C  C52  1  0.41914000  0.61465000  0.51596000  1.0
  C  C53  1  0.58081000  0.88534000  0.01596000  1.0
  C  C54  1  0.58091000  0.38535000  0.48404000  1.0
  C  C55  1  0.41911000  0.11465000  0.98404000  1.0
  C  C56  1  0.58909000  0.69085000  0.51145000  1.0
  C  C57  1  0.41087000  0.80915000  0.01145000  1.0
  C  C58  1  0.41094000  0.30916000  0.48855000  1.0
  C  C59  1  0.58907000  0.19085000  0.98855000  1.0
  C  C60  1  0.61706000  0.72782000  0.44942000  1.0
  C  C61  1  0.38290000  0.77218000  0.94942000  1.0
  C  C62  1  0.38297000  0.27219000  0.55058000  1.0
  C  C63  1  0.61703000  0.22782000  0.05059000  1.0
  C  C64  1  0.47873000  0.68763000  0.39265000  1.0
  C  C65  1  0.52124000  0.81237000  0.89265000  1.0
  C  C66  1  0.52131000  0.31238000  0.60735000  1.0
  C  C67  1  0.47870000  0.18763000  0.10736000  1.0
  C  C68  1  0.48310000  0.72391000  0.32576000  1.0
  C  C69  1  0.51688000  0.77609000  0.82577000  1.0
  C  C70  1  0.51695000  0.27610000  0.67423000  1.0
  C  C71  1  0.48306000  0.22390000  0.17424000  1.0
  C  C72  1  0.60043000  0.80299000  0.31509000  1.0
  C  C73  1  0.39957000  0.69700000  0.81510000  1.0
  C  C74  1  0.39963000  0.19701000  0.68490000  1.0
  C  C75  1  0.60039000  0.30299000  0.18491000  1.0
  C  C76  1  0.58635000  0.83293000  0.25043000  1.0
  C  C77  1  0.41366000  0.66706000  0.75043000  1.0
  C  C78  1  0.41372000  0.16707000  0.74956000  1.0
  C  C79  1  0.58631000  0.33293000  0.24957000  1.0
  C  C80  1  0.45158000  0.78390000  0.19870000  1.0
  C  C81  1  0.54844000  0.71609000  0.69871000  1.0
  C  C82  1  0.54851000  0.21610000  0.80129000  1.0
  C  C83  1  0.45154000  0.28390000  0.30130000  1.0
  C  C84  1  0.34019000  0.70562000  0.21272000  1.0
  C  C85  1  0.65980000  0.79438000  0.71272000  1.0
  C  C86  1  0.65986000  0.29438000  0.78728000  1.0
  C  C87  1  0.34015000  0.20562000  0.28728000  1.0
  N  N88  1  0.33173000  0.61233000  0.39671000  1.0
  N  N89  1  0.66824000  0.88767000  0.89671000  1.0
  N  N90  1  0.66834000  0.38768000  0.60329000  1.0
  N  N91  1  0.33167000  0.11232000  0.10330000  1.0
  N  N92  1  0.35790000  0.67632000  0.27489000  1.0
  N  N93  1  0.64206000  0.82367000  0.77489000  1.0
  N  N94  1  0.64214000  0.32368000  0.72511000  1.0
  N  N95  1  0.35787000  0.17632000  0.22512000  1.0
  O  O96  1  0.77436000  0.56388000  0.30242000  1.0
  O  O97  1  0.22560000  0.93612000  0.80242000  1.0
  O  O98  1  0.22570000  0.43613000  0.69758000  1.0
  O  O99  1  0.77433000  0.06387000  0.19758000  1.0
  O  O100  1  0.22204000  0.45695000  0.34435000  1.0
  O  O101  1  0.77792000  0.04305000  0.84435000  1.0
  O  O102  1  0.77801000  0.54306000  0.65565000  1.0
  O  O103  1  0.22202000  0.95694000  0.15566000  1.0
  O  O104  1  0.25632000  0.51340000  0.21167000  1.0
  O  O105  1  0.74365000  0.98660000  0.71167000  1.0
  O  O106  1  0.74372000  0.48660000  0.78833000  1.0
  O  O107  1  0.25630000  0.01340000  0.28834000  1.0
  O  O108  1  0.27161000  0.54594000  0.02625000  1.0
  O  O109  1  0.72838000  0.95406000  0.52625000  1.0
  O  O110  1  0.72839000  0.45405000  0.97375000  1.0
  O  O111  1  0.27162000  0.04595000  0.47375000  1.0
  O  O112  1  0.80875000  0.62182000  0.94535000  1.0
  O  O113  1  0.19125000  0.87818000  0.44535000  1.0
  O  O114  1  0.19126000  0.37818000  0.05464000  1.0
  O  O115  1  0.80874000  0.12182000  0.55465000  1.0
  O  O116  1  0.83130000  0.66202000  0.07504000  1.0
  O  O117  1  0.16869000  0.83798000  0.57505000  1.0
  O  O118  1  0.16871000  0.33798000  0.92495000  1.0
  O  O119  1  0.83131000  0.16203000  0.42496000  1.0
  O  O120  1  0.75022000  0.50127000  0.11688000  1.0
  O  O121  1  0.24976000  0.99873000  0.61688000  1.0
  O  O122  1  0.24981000  0.49873000  0.88311000  1.0
  O  O123  1  0.75021000  0.00127000  0.38312000  1.0
