# generated using pymatgen
data_CdH32C28(NO)4
_symmetry_space_group_name_H-M   'P 1'
_cell_length_a   11.32820000
_cell_length_b   11.84840000
_cell_length_c   12.81100000
_cell_angle_alpha   86.28180000
_cell_angle_beta   66.55030000
_cell_angle_gamma   69.94200000
_symmetry_Int_Tables_number   1
_chemical_formula_structural   CdH32C28(NO)4
_chemical_formula_sum   'Cd2 H64 C56 N8 O8'
_cell_volume   1476.68182885
_cell_formula_units_Z   2
loop_
 _symmetry_equiv_pos_site_id
 _symmetry_equiv_pos_as_xyz
  1  'x, y, z'
loop_
 _atom_site_type_symbol
 _atom_site_label
 _atom_site_symmetry_multiplicity
 _atom_site_fract_x
 _atom_site_fract_y
 _atom_site_fract_z
 _atom_site_occupancy
  Cd  Cd0  1  0.34297000  0.78519000  0.28758000  1.0
  Cd  Cd1  1  0.65703000  0.21481000  0.71242000  1.0
  H  H2  1  0.40815000  0.02445000  0.21685000  1.0
  H  H3  1  0.59185000  0.97554000  0.78315000  1.0
  H  H4  1  0.60078000  0.09191000  0.08175000  1.0
  H  H5  1  0.39921000  0.90809000  0.91825000  1.0
  H  H6  1  0.79673000  0.73283000  0.91299000  1.0
  H  H7  1  0.20326000  0.26718000  0.08701000  1.0
  H  H8  1  0.59897000  0.68025000  0.05623000  1.0
  H  H9  1  0.40102000  0.31976000  0.94376000  1.0
  H  H10  1  0.90966000  0.87612000  0.84414000  1.0
  H  H11  1  0.09034000  0.12388000  0.15586000  1.0
  H  H12  1  0.79606000  0.02629000  0.85635000  1.0
  H  H13  1  0.20394000  0.97371000  0.14365000  1.0
  H  H14  1  0.94919000  0.11740000  0.85031000  1.0
  H  H15  1  0.05081000  0.88259000  0.14968000  1.0
  H  H16  1  0.08110000  0.97401000  0.83131000  1.0
  H  H17  1  0.91891000  0.02599000  0.16868000  1.0
  H  H18  1  0.03146000  0.82809000  0.97516000  1.0
  H  H19  1  0.96855000  0.17191000  0.02484000  1.0
  H  H20  1  0.86866000  0.87065000  0.09250000  1.0
  H  H21  1  0.13135000  0.12935000  0.90749000  1.0
  H  H22  1  0.11173000  0.00926000  0.63866000  1.0
  H  H23  1  0.88827000  0.99075000  0.36134000  1.0
  H  H24  1  0.02111000  0.11569000  0.56861000  1.0
  H  H25  1  0.97889000  0.88431000  0.43139000  1.0
  H  H26  1  0.20631000  0.19618000  0.48060000  1.0
  H  H27  1  0.79370000  0.80381000  0.51939000  1.0
  H  H28  1  0.16374000  0.19626000  0.62926000  1.0
  H  H29  1  0.83628000  0.80374000  0.37073000  1.0
  H  H30  1  0.43182000  0.11068000  0.35083000  1.0
  H  H31  1  0.56819000  0.88932000  0.64917000  1.0
  H  H32  1  0.32327000  0.00619000  0.69463000  1.0
  H  H33  1  0.67674000  0.99380000  0.30535000  1.0
  H  H34  1  0.33743000  0.52300000  0.01426000  1.0
  H  H35  1  0.66257000  0.47701000  0.98574000  1.0
  H  H36  1  0.25923000  0.47062000  0.14680000  1.0
  H  H37  1  0.74077000  0.52937000  0.85320000  1.0
  H  H38  1  0.12401000  0.70463000  0.05766000  1.0
  H  H39  1  0.87599000  0.29537000  0.94235000  1.0
  H  H40  1  0.04458000  0.65616000  0.19131000  1.0
  H  H41  1  0.95542000  0.34384000  0.80871000  1.0
  H  H42  1  0.13439000  0.62416000  0.88412000  1.0
  H  H43  1  0.86559000  0.37584000  0.11590000  1.0
  H  H44  1  0.96547000  0.47782000  0.20267000  1.0
  H  H45  1  0.03453000  0.52218000  0.79735000  1.0
  H  H46  1  0.44111000  0.79671000  0.48685000  1.0
  H  H47  1  0.55887000  0.20329000  0.51316000  1.0
  H  H48  1  0.60352000  0.67294000  0.57220000  1.0
  H  H49  1  0.39647000  0.32707000  0.42780000  1.0
  H  H50  1  0.73699000  0.38476000  0.31797000  1.0
  H  H51  1  0.26300000  0.61524000  0.68203000  1.0
  H  H52  1  0.57230000  0.52214000  0.23926000  1.0
  H  H53  1  0.42770000  0.47786000  0.76073000  1.0
  H  H54  1  0.71701000  0.41922000  0.58826000  1.0
  H  H55  1  0.28299000  0.58078000  0.41174000  1.0
  H  H56  1  0.83886000  0.35085000  0.45106000  1.0
  H  H57  1  0.16113000  0.64916000  0.54894000  1.0
  H  H58  1  0.89550000  0.58564000  0.36711000  1.0
  H  H59  1  0.10450000  0.41436000  0.63289000  1.0
  H  H60  1  0.02356000  0.43982000  0.34988000  1.0
  H  H61  1  0.97644000  0.56017000  0.65012000  1.0
  H  H62  1  0.01521000  0.33088000  0.52216000  1.0
  H  H63  1  0.98480000  0.66911000  0.47784000  1.0
  H  H64  1  0.88275000  0.39820000  0.65601000  1.0
  H  H65  1  0.11725000  0.60179000  0.34400000  1.0
  C  C66  1  0.49739000  0.96396000  0.14804000  1.0
  C  C67  1  0.50261000  0.03604000  0.85196000  1.0
  C  C68  1  0.60303000  0.00024000  0.07286000  1.0
  C  C69  1  0.39697000  0.99976000  0.92714000  1.0
  C  C70  1  0.71367000  0.91758000  0.98580000  1.0
  C  C71  1  0.28632000  0.08243000  0.01420000  1.0
  C  C72  1  0.71205000  0.80099000  0.97822000  1.0
  C  C73  1  0.28794000  0.19902000  0.02178000  1.0
  C  C74  1  0.60351000  0.77064000  0.05755000  1.0
  C  C75  1  0.39649000  0.22937000  0.94245000  1.0
  C  C76  1  0.83191000  0.95364000  0.90646000  1.0
  C  C77  1  0.16809000  0.04636000  0.09353000  1.0
  C  C78  1  0.99501000  0.04580000  0.89611000  1.0
  C  C79  1  0.00499000  0.95420000  0.10388000  1.0
  C  C80  1  0.94816000  0.90526000  0.03484000  1.0
  C  C81  1  0.05185000  0.09474000  0.96515000  1.0
  C  C82  1  0.18792000  0.96687000  0.45905000  1.0
  C  C83  1  0.81208000  0.03313000  0.54095000  1.0
  C  C84  1  0.12411000  0.05803000  0.56146000  1.0
  C  C85  1  0.87589000  0.94197000  0.43854000  1.0
  C  C86  1  0.21106000  0.13737000  0.54976000  1.0
  C  C87  1  0.78895000  0.86263000  0.45023000  1.0
  C  C88  1  0.35947000  0.06716000  0.52540000  1.0
  C  C89  1  0.64054000  0.93283000  0.47460000  1.0
  C  C90  1  0.46187000  0.06180000  0.41655000  1.0
  C  C91  1  0.53813000  0.93820000  0.58344000  1.0
  C  C92  1  0.40021000  0.00396000  0.60876000  1.0
  C  C93  1  0.59980000  0.99604000  0.39123000  1.0
  C  C94  1  0.30815000  0.62599000  0.15862000  1.0
  C  C95  1  0.69186000  0.37400000  0.84138000  1.0
  C  C96  1  0.25879000  0.55315000  0.10159000  1.0
  C  C97  1  0.74121000  0.44685000  0.89841000  1.0
  C  C98  1  0.11673000  0.62377000  0.10263000  1.0
  C  C99  1  0.88327000  0.37623000  0.89737000  1.0
  C  C100  1  0.05887000  0.55803000  0.04971000  1.0
  C  C101  1  0.94112000  0.44197000  0.95031000  1.0
  C  C102  1  0.07587000  0.56903000  0.93547000  1.0
  C  C103  1  0.92412000  0.43097000  0.06455000  1.0
  C  C104  1  0.98158000  0.48781000  0.11331000  1.0
  C  C105  1  0.01841000  0.51220000  0.88671000  1.0
  C  C106  1  0.51005000  0.70561000  0.45078000  1.0
  C  C107  1  0.48994000  0.29439000  0.54922000  1.0
  C  C108  1  0.59917000  0.63603000  0.49865000  1.0
  C  C109  1  0.40083000  0.36398000  0.50136000  1.0
  C  C110  1  0.68331000  0.51809000  0.45192000  1.0
  C  C111  1  0.31668000  0.48192000  0.54808000  1.0
  C  C112  1  0.67397000  0.47623000  0.35705000  1.0
  C  C113  1  0.32602000  0.52378000  0.64296000  1.0
  C  C114  1  0.58340000  0.55130000  0.31282000  1.0
  C  C115  1  0.41659000  0.44870000  0.68718000  1.0
  C  C116  1  0.77906000  0.43891000  0.50273000  1.0
  C  C117  1  0.22094000  0.56110000  0.49727000  1.0
  C  C118  1  0.95806000  0.52357000  0.40822000  1.0
  C  C119  1  0.04194000  0.47642000  0.59179000  1.0
  C  C120  1  0.95034000  0.41827000  0.57386000  1.0
  C  C121  1  0.04966000  0.58172000  0.42615000  1.0
  N  N122  1  0.49835000  0.85052000  0.14135000  1.0
  N  N123  1  0.50164000  0.14948000  0.85864000  1.0
  N  N124  1  0.88994000  0.99866000  0.97114000  1.0
  N  N125  1  0.11007000  0.00134000  0.02885000  1.0
  N  N126  1  0.50208000  0.66410000  0.35910000  1.0
  N  N127  1  0.49792000  0.33590000  0.64091000  1.0
  N  N128  1  0.86716000  0.49683000  0.51721000  1.0
  N  N129  1  0.13284000  0.50317000  0.48279000  1.0
  O  O130  1  0.20413000  0.85584000  0.47741000  1.0
  O  O131  1  0.79587000  0.14415000  0.52260000  1.0
  O  O132  1  0.22754000  0.00162000  0.35881000  1.0
  O  O133  1  0.77246000  0.99837000  0.64119000  1.0
  O  O134  1  0.22161000  0.72917000  0.21123000  1.0
  O  O135  1  0.77840000  0.27081000  0.78878000  1.0
  O  O136  1  0.42838000  0.58315000  0.15508000  1.0
  O  O137  1  0.57164000  0.41683000  0.84491000  1.0
