# generated using pymatgen
data_CdH15C13N2O7
_symmetry_space_group_name_H-M   'P 1'
_cell_length_a   9.07234000
_cell_length_b   10.19820000
_cell_length_c   10.27670000
_cell_angle_alpha   63.33810000
_cell_angle_beta   80.10920000
_cell_angle_gamma   64.40490000
_symmetry_Int_Tables_number   1
_chemical_formula_structural   CdH15C13N2O7
_chemical_formula_sum   'Cd2 H30 C26 N4 O14'
_cell_volume   766.04505446
_cell_formula_units_Z   2
loop_
 _symmetry_equiv_pos_site_id
 _symmetry_equiv_pos_as_xyz
  1  'x, y, z'
loop_
 _atom_site_type_symbol
 _atom_site_label
 _atom_site_symmetry_multiplicity
 _atom_site_fract_x
 _atom_site_fract_y
 _atom_site_fract_z
 _atom_site_occupancy
  Cd  Cd0  1  0.57324000  0.74915000  0.40120000  1.0
  Cd  Cd1  1  0.42676000  0.25085000  0.59880000  1.0
  H  H2  1  0.40283000  0.10139000  0.30115000  1.0
  H  H3  1  0.59716000  0.89862000  0.69885000  1.0
  H  H4  1  0.39048000  0.04340000  0.18479000  1.0
  H  H5  1  0.60951000  0.95660000  0.81522000  1.0
  H  H6  1  0.69524000  0.40951000  0.56369000  1.0
  H  H7  1  0.30476000  0.59049000  0.43631000  1.0
  H  H8  1  0.67190000  0.44487000  0.40583000  1.0
  H  H9  1  0.32810000  0.55513000  0.59417000  1.0
  H  H10  1  0.18923000  0.66036000  0.21067000  1.0
  H  H11  1  0.81077000  0.33965000  0.78932000  1.0
  H  H12  1  0.21025000  0.63856000  0.79832000  1.0
  H  H13  1  0.78974000  0.36144000  0.20168000  1.0
  H  H14  1  0.57139000  0.73707000  0.91766000  1.0
  H  H15  1  0.42861000  0.26292000  0.08233000  1.0
  H  H16  1  0.11155000  0.43970000  0.24935000  1.0
  H  H17  1  0.88846000  0.56030000  0.75065000  1.0
  H  H18  1  0.90958000  0.50600000  0.18086000  1.0
  H  H19  1  0.09043000  0.49400000  0.81915000  1.0
  H  H20  1  0.95672000  0.63318000  0.22610000  1.0
  H  H21  1  0.04329000  0.36682000  0.77390000  1.0
  H  H22  1  0.80599000  0.91963000  0.12436000  1.0
  H  H23  1  0.19401000  0.08037000  0.87565000  1.0
  H  H24  1  0.03765000  0.00190000  0.18003000  1.0
  H  H25  1  0.96235000  0.99810000  0.81998000  1.0
  H  H26  1  0.81966000  0.79683000  0.57333000  1.0
  H  H27  1  0.18033000  0.20317000  0.42668000  1.0
  H  H28  1  0.15439000  0.95293000  0.41073000  1.0
  H  H29  1  0.84561000  0.04707000  0.58927000  1.0
  H  H30  1  0.10736000  0.81897000  0.57684000  1.0
  H  H31  1  0.89263000  0.18103000  0.42317000  1.0
  C  C32  1  0.44939000  0.73369000  0.17649000  1.0
  C  C33  1  0.55061000  0.26631000  0.82350000  1.0
  C  C34  1  0.38364000  0.70601000  0.07143000  1.0
  C  C35  1  0.61636000  0.29398000  0.92856000  1.0
  C  C36  1  0.24616000  0.66874000  0.10681000  1.0
  C  C37  1  0.75385000  0.33126000  0.89319000  1.0
  C  C38  1  0.18408000  0.64403000  0.00817000  1.0
  C  C39  1  0.81592000  0.35597000  0.99182000  1.0
  C  C40  1  0.25854000  0.65885000  0.87415000  1.0
  C  C41  1  0.74146000  0.34115000  0.12584000  1.0
  C  C42  1  0.39593000  0.69527000  0.83924000  1.0
  C  C43  1  0.60407000  0.30473000  0.16075000  1.0
  C  C44  1  0.45986000  0.71669000  0.93924000  1.0
  C  C45  1  0.54014000  0.28331000  0.06075000  1.0
  C  C46  1  0.47235000  0.71277000  0.69499000  1.0
  C  C47  1  0.52765000  0.28723000  0.30501000  1.0
  C  C48  1  0.00558000  0.54278000  0.18207000  1.0
  C  C49  1  0.99443000  0.45722000  0.81793000  1.0
  C  C50  1  0.84426000  0.90512000  0.22591000  1.0
  C  C51  1  0.15574000  0.09488000  0.77409000  1.0
  C  C52  1  0.95762000  0.94754000  0.25118000  1.0
  C  C53  1  0.04239000  0.05247000  0.74883000  1.0
  C  C54  1  0.84640000  0.83968000  0.45869000  1.0
  C  C55  1  0.15360000  0.16033000  0.54132000  1.0
  C  C56  1  0.05340000  0.93021000  0.47916000  1.0
  C  C57  1  0.94660000  0.06979000  0.52085000  1.0
  N  N58  1  0.77602000  0.83749000  0.35665000  1.0
  N  N59  1  0.22397000  0.16251000  0.64335000  1.0
  N  N60  1  0.95713000  0.90542000  0.39917000  1.0
  N  N61  1  0.04286000  0.09459000  0.60084000  1.0
  O  O62  1  0.57120000  0.77175000  0.14333000  1.0
  O  O63  1  0.42880000  0.22826000  0.85667000  1.0
  O  O64  1  0.37762000  0.71885000  0.29874000  1.0
  O  O65  1  0.62239000  0.28114000  0.70126000  1.0
  O  O66  1  0.57838000  0.77332000  0.65205000  1.0
  O  O67  1  0.42162000  0.22668000  0.34794000  1.0
  O  O68  1  0.42770000  0.66886000  0.61515000  1.0
  O  O69  1  0.57231000  0.33114000  0.38484000  1.0
  O  O70  1  0.05186000  0.60630000  0.03319000  1.0
  O  O71  1  0.94814000  0.39370000  0.96681000  1.0
  O  O72  1  0.37553000  0.02209000  0.28755000  1.0
  O  O73  1  0.62446000  0.97791000  0.71245000  1.0
  O  O74  1  0.72202000  0.47246000  0.46273000  1.0
  O  O75  1  0.27798000  0.52754000  0.53727000  1.0
