# generated using pymatgen
data_Zn8H72C90SO29
_symmetry_space_group_name_H-M   'P 1'
_cell_length_a   18.14555470
_cell_length_b   18.20990000
_cell_length_c   18.32987587
_cell_angle_alpha   90.25132851
_cell_angle_beta   119.38258843
_cell_angle_gamma   119.68788539
_symmetry_Int_Tables_number   1
_chemical_formula_structural   Zn8H72C90SO29
_chemical_formula_sum   'Zn8 H72 C90 S1 O29'
_cell_volume   4333.09364049
_cell_formula_units_Z   1
loop_
 _symmetry_equiv_pos_site_id
 _symmetry_equiv_pos_as_xyz
  1  'x, y, z'
loop_
 _atom_site_type_symbol
 _atom_site_label
 _atom_site_symmetry_multiplicity
 _atom_site_fract_x
 _atom_site_fract_y
 _atom_site_fract_z
 _atom_site_occupancy
  Zn  Zn0  1  0.58946000  0.54114000  0.13111000  1.0
  Zn  Zn1  1  0.41346000  0.54370000  0.95909000  1.0
  Zn  Zn2  1  0.41678000  0.37214000  0.95846000  1.0
  Zn  Zn3  1  0.59593000  0.54730000  0.95992000  1.0
  Zn  Zn4  1  0.40848000  0.95836000  0.37006000  1.0
  Zn  Zn5  1  0.58353000  0.13487000  0.53937000  1.0
  Zn  Zn6  1  0.58968000  0.96173000  0.54324000  1.0
  Zn  Zn7  1  0.41077000  0.95554000  0.54300000  1.0
  H  H8  1  0.92237000  0.63903000  0.11904000  1.0
  H  H9  1  0.51443000  0.29519000  0.38435000  1.0
  H  H10  1  0.34083000  0.18435000  0.09529000  1.0
  H  H11  1  0.92031000  0.58969000  0.20144000  1.0
  H  H12  1  0.43808000  0.18632000  0.09442000  1.0
  H  H13  1  0.34293000  0.09238000  0.18398000  1.0
  H  H14  1  0.38782000  0.30527000  0.21309000  1.0
  H  H15  1  0.38446000  0.21191000  0.29940000  1.0
  H  H16  1  0.51070000  0.38492000  0.72128000  1.0
  H  H17  1  0.38530000  0.29122000  0.68116000  1.0
  H  H18  1  0.40139000  0.21625000  0.59231000  1.0
  H  H19  1  0.08049000  0.84718000  0.40158000  1.0
  H  H20  1  0.53284000  0.30250000  0.64478000  1.0
  H  H21  1  0.66640000  0.39700000  0.85277000  1.0
  H  H22  1  0.09884000  0.68531000  0.29682000  1.0
  H  H23  1  0.66633000  0.30045000  0.76861000  1.0
  H  H24  1  0.46887000  0.19383000  0.85985000  1.0
  H  H25  1  0.36033000  0.18743000  0.77409000  1.0
  H  H26  1  0.34863000  0.10497000  0.66566000  1.0
  H  H27  1  0.43720000  0.09153000  0.75365000  1.0
  H  H28  1  0.64784000  0.32415000  0.91476000  1.0
  H  H29  1  0.29482000  0.76007000  0.97372000  1.0
  H  H30  1  0.90431000  0.81806000  0.19166000  1.0
  H  H31  1  0.18180000  0.68262000  0.81069000  1.0
  H  H32  1  0.25744000  0.67715000  0.73037000  1.0
  H  H33  1  0.10267000  0.73256000  0.21362000  1.0
  H  H34  1  0.55846000  0.82323000  0.97563000  1.0
  H  H35  1  0.48324000  0.83028000  0.05572000  1.0
  H  H36  1  0.41613000  0.82863000  0.72702000  1.0
  H  H37  1  0.58805000  0.67447000  0.77553000  1.0
  H  H38  1  0.44428000  0.67957000  0.52682000  1.0
  H  H39  1  0.51762000  0.67021000  0.44575000  1.0
  H  H40  1  0.70567000  0.73907000  0.52670000  1.0
  H  H41  1  0.08321000  0.91365000  0.27910000  1.0
  H  H42  1  0.82018000  0.81770000  0.68964000  1.0
  H  H43  1  0.74613000  0.82518000  0.77089000  1.0
  H  H44  1  0.20402000  0.01671000  0.78047000  1.0
  H  H45  1  0.90885000  0.77030000  0.11116000  1.0
  H  H46  1  0.13898000  0.06346000  0.64806000  1.0
  H  H47  1  0.07005000  0.15379000  0.64192000  1.0
  H  H48  1  0.12955000  0.15043000  0.89929000  1.0
  H  H49  1  0.19801000  0.05987000  0.90572000  1.0
  H  H50  1  0.89761000  0.09165000  0.67652000  1.0
  H  H51  1  0.10277000  0.41510000  0.82967000  1.0
  H  H52  1  0.65827000  0.39032000  0.29551000  1.0
  H  H53  1  0.87847000  0.36606000  0.61389000  1.0
  H  H54  1  0.81014000  0.45565000  0.61239000  1.0
  H  H55  1  0.79703000  0.48797000  0.73628000  1.0
  H  H56  1  0.85285000  0.42916000  0.86170000  1.0
  H  H57  1  0.08940000  0.86323000  0.20149000  1.0
  H  H58  1  0.91891000  0.33887000  0.86180000  1.0
  H  H59  1  0.86981000  0.67389000  0.48561000  1.0
  H  H60  1  0.68515000  0.55218000  0.41795000  1.0
  H  H61  1  0.54951000  0.57758000  0.32741000  1.0
  H  H62  1  0.78152000  0.84770000  0.37501000  1.0
  H  H63  1  0.62703000  0.30638000  0.21531000  1.0
  H  H64  1  0.91759000  0.82203000  0.46454000  1.0
  H  H65  1  0.62861000  0.81777000  0.41353000  1.0
  H  H66  1  0.37125000  0.68263000  0.09031000  1.0
  H  H67  1  0.21938000  0.65224000  0.13965000  1.0
  H  H68  1  0.08026000  0.67439000  0.05074000  1.0
  H  H69  1  0.90088000  0.74779000  0.31108000  1.0
  H  H70  1  0.12225000  0.81804000  0.01970000  1.0
  H  H71  1  0.30398000  0.93841000  0.07681000  1.0
  H  H72  1  0.44296000  0.91653000  0.16644000  1.0
  H  H73  1  0.91084000  0.65681000  0.31664000  1.0
  H  H74  1  0.63046000  0.21992000  0.30835000  1.0
  H  H75  1  0.09010000  0.75587000  0.40987000  1.0
  H  H76  1  0.44343000  0.09783000  0.18634000  1.0
  H  H77  1  0.60653000  0.09379000  0.76311000  1.0
  H  H78  1  0.65741000  0.30141000  0.38770000  1.0
  H  H79  1  0.51897000  0.38784000  0.29576000  1.0
  C  C80  1  0.50841000  0.64504000  0.86831000  1.0
  C  C81  1  0.41821000  0.19893000  0.13862000  1.0
  C  C82  1  0.49454000  0.29812000  0.19573000  1.0
  C  C83  1  0.49649000  0.35900000  0.13907000  1.0
  C  C84  1  0.49488000  0.19723000  0.29640000  1.0
  C  C85  1  0.46208000  0.25563000  0.31368000  1.0
  C  C86  1  0.41994000  0.13923000  0.19832000  1.0
  C  C87  1  0.46580000  0.31362000  0.71339000  1.0
  C  C88  1  0.47485000  0.25892000  0.65741000  1.0
  C  C89  1  0.61616000  0.32759000  0.84710000  1.0
  C  C90  1  0.43602000  0.20346000  0.79508000  1.0
  C  C91  1  0.93771000  0.71942000  0.30117000  1.0
  C  C92  1  0.50577000  0.30193000  0.80564000  1.0
  C  C93  1  0.50373000  0.19778000  0.70499000  1.0
  C  C94  1  0.61450000  0.26335000  0.78934000  1.0
  C  C95  1  0.50195000  0.63835000  0.14077000  1.0
  C  C96  1  0.42603000  0.14182000  0.72779000  1.0
  C  C97  1  0.26458000  0.71415000  0.84698000  1.0
  C  C98  1  0.30698000  0.71115000  0.80175000  1.0
  C  C99  1  0.41284000  0.74951000  0.84756000  1.0
  C  C100  1  0.47582000  0.79252000  0.93943000  1.0
  C  C101  1  0.43356000  0.79649000  0.98434000  1.0
  C  C102  1  0.90071000  0.69797000  0.20349000  1.0
  C  C103  1  0.32773000  0.75700000  0.93844000  1.0
  C  C104  1  0.45278000  0.79347000  0.73736000  1.0
  C  C105  1  0.49649000  0.79881000  0.69062000  1.0
  C  C106  1  0.54658000  0.75564000  0.70380000  1.0
  C  C107  1  0.50778000  0.36377000  0.86408000  1.0
  C  C108  1  0.55141000  0.70966000  0.76505000  1.0
  C  C109  1  0.50736000  0.70399000  0.81150000  1.0
  C  C110  1  0.45746000  0.74737000  0.79853000  1.0
  C  C111  1  0.52673000  0.70957000  0.56249000  1.0
  C  C112  1  0.56800000  0.70434000  0.51710000  1.0
  C  C113  1  0.10129000  0.80558000  0.30643000  1.0
  C  C114  1  0.67363000  0.74308000  0.56248000  1.0
  C  C115  1  0.73755000  0.78660000  0.65383000  1.0
  C  C116  1  0.69614000  0.79079000  0.69959000  1.0
  C  C117  1  0.59048000  0.75296000  0.65432000  1.0
  C  C118  1  0.13704000  0.08234000  0.70338000  1.0
  C  C119  1  0.22349000  0.36196000  0.86325000  1.0
  C  C120  1  0.09817000  0.13302000  0.69974000  1.0
  C  C121  1  0.09584000  0.15855000  0.77037000  1.0
  C  C122  1  0.13121000  0.13088000  0.84407000  1.0
  C  C123  1  0.16981000  0.08017000  0.84760000  1.0
  C  C124  1  0.05723000  0.84904000  0.24119000  1.0
  C  C125  1  0.17321000  0.05590000  0.77738000  1.0
  C  C126  1  0.94380000  0.16322000  0.71026000  1.0
  C  C127  1  0.89227000  0.20407000  0.69835000  1.0
  C  C128  1  0.94930000  0.29647000  0.74213000  1.0
  C  C129  1  0.05656000  0.34361000  0.79544000  1.0
  C  C130  1  0.10817000  0.30297000  0.80670000  1.0
  C  C131  1  0.78374000  0.63516000  0.14191000  1.0
  C  C132  1  0.05100000  0.21020000  0.76396000  1.0
  C  C133  1  0.87320000  0.38058000  0.66830000  1.0
  C  C134  1  0.83461000  0.43063000  0.66751000  1.0
  C  C135  1  0.05646000  0.78447000  0.36205000  1.0
  C  C136  1  0.82686000  0.44846000  0.73686000  1.0
  C  C137  1  0.85793000  0.41577000  0.80686000  1.0
  C  C138  1  0.89612000  0.36519000  0.80748000  1.0
  C  C139  1  0.90380000  0.34697000  0.73812000  1.0
  C  C140  1  0.70661000  0.61700000  0.40834000  1.0
  C  C141  1  0.63030000  0.63123000  0.35758000  1.0
  C  C142  1  0.65648000  0.71417000  0.34449000  1.0
  C  C143  1  0.94880000  0.65399000  0.18888000  1.0
  C  C144  1  0.76061000  0.78286000  0.38445000  1.0
  C  C145  1  0.83692000  0.76826000  0.43463000  1.0
  C  C146  1  0.60363000  0.31887000  0.25650000  1.0
  C  C147  1  0.81020000  0.68529000  0.44665000  1.0
  C  C148  1  0.57279000  0.78804000  0.34201000  1.0
  C  C149  1  0.49811000  0.80644000  0.30266000  1.0
  C  C150  1  0.42281000  0.76786000  0.21021000  1.0
  C  C151  1  0.42692000  0.71216000  0.16185000  1.0
  C  C152  1  0.50178000  0.69393000  0.20114000  1.0
  C  C153  1  0.57608000  0.73143000  0.29380000  1.0
  C  C154  1  0.23786000  0.71506000  0.12591000  1.0
  C  C155  1  0.06799000  0.71712000  0.25135000  1.0
  C  C156  1  0.15975000  0.72773000  0.07612000  1.0
  C  C157  1  0.60431000  0.26016000  0.31750000  1.0
  C  C158  1  0.18323000  0.80816000  0.05861000  1.0
  C  C159  1  0.28523000  0.87573000  0.09086000  1.0
  C  C160  1  0.36339000  0.86344000  0.14117000  1.0
  C  C161  1  0.34058000  0.78321000  0.15986000  1.0
  C  C162  1  0.50343000  0.14024000  0.64381000  1.0
  C  C163  1  0.49916000  0.86353000  0.36267000  1.0
  C  C164  1  0.49727000  0.14050000  0.35717000  1.0
  C  C165  1  0.49435000  0.85666000  0.63288000  1.0
  C  C166  1  0.77703000  0.14539000  0.63948000  1.0
  C  C167  1  0.93804000  0.78605000  0.18160000  1.0
  C  C168  1  0.46391000  0.31681000  0.25516000  1.0
  C  C169  1  0.21834000  0.86793000  0.36389000  1.0
  S  S170  1  0.67450000  0.21349000  0.86027000  1.0
  O  O171  1  0.50484000  0.50294000  0.00120000  1.0
  O  O172  1  0.56320000  0.88875000  0.61711000  1.0
  O  O173  1  0.73003000  0.18324000  0.61106000  1.0
  O  O174  1  0.57702000  0.62919000  0.89459000  1.0
  O  O175  1  0.26416000  0.89236000  0.44794000  1.0
  O  O176  1  0.73509000  0.06129000  0.62165000  1.0
  O  O177  1  0.26208000  0.89107000  0.32299000  1.0
  O  O178  1  0.44147000  0.05593000  0.32078000  1.0
  O  O179  1  0.42485000  0.87159000  0.60617000  1.0
  O  O180  1  0.54944000  0.18029000  0.60766000  1.0
  O  O181  1  0.57425000  0.89837000  0.44439000  1.0
  O  O182  1  0.57462000  0.62750000  0.17561000  1.0
  O  O183  1  0.55535000  0.44308000  0.18018000  1.0
  O  O184  1  0.42987000  0.60759000  0.05843000  1.0
  O  O185  1  0.44784000  0.32620000  0.88903000  1.0
  O  O186  1  0.26585000  0.44616000  0.88613000  1.0
  O  O187  1  0.74309000  0.61765000  0.05866000  1.0
  O  O188  1  0.27059000  0.32396000  0.88424000  1.0
  O  O189  1  0.73532000  0.60460000  0.17834000  1.0
  O  O190  1  0.78133000  0.28412000  0.92309000  1.0
  O  O191  1  0.61271000  0.15573000  0.88963000  1.0
  O  O192  1  0.67359000  0.15216000  0.79513000  1.0
  O  O193  1  0.56862000  0.44792000  0.88272000  1.0
  O  O194  1  0.43883000  0.61337000  0.88323000  1.0
  O  O195  1  0.43969000  0.32188000  0.05542000  1.0
  O  O196  1  0.49930000  0.00367000  0.50008000  1.0
  O  O197  1  0.45730000  0.05666000  0.63404000  1.0
  O  O198  1  0.42454000  0.87178000  0.32823000  1.0
  O  O199  1  0.55549000  0.18238000  0.44024000  1.0
