# generated using pymatgen
data_MgH6C11NO4
_symmetry_space_group_name_H-M   'P 1'
_cell_length_a   6.93947000
_cell_length_b   34.83610000
_cell_length_c   34.83660000
_cell_angle_alpha   119.56500000
_cell_angle_beta   93.81050000
_cell_angle_gamma   93.80610000
_symmetry_Int_Tables_number   1
_chemical_formula_structural   MgH6C11NO4
_chemical_formula_sum   'Mg6 H36 C66 N6 O24'
_cell_volume   7260.96036878
_cell_formula_units_Z   6
loop_
 _symmetry_equiv_pos_site_id
 _symmetry_equiv_pos_as_xyz
  1  'x, y, z'
loop_
 _atom_site_type_symbol
 _atom_site_label
 _atom_site_symmetry_multiplicity
 _atom_site_fract_x
 _atom_site_fract_y
 _atom_site_fract_z
 _atom_site_occupancy
  Mg  Mg0  1  0.76272000  0.69290000  0.32690000  1.0
  Mg  Mg1  1  0.27246000  0.30606000  0.67139000  1.0
  Mg  Mg2  1  0.06981000  0.63398000  0.30710000  1.0
  Mg  Mg3  1  0.96631000  0.36534000  0.69395000  1.0
  Mg  Mg4  1  0.43582000  0.67309000  0.36601000  1.0
  Mg  Mg5  1  0.60102000  0.32862000  0.63468000  1.0
  H  H6  1  0.99065000  0.55132000  0.11910000  1.0
  H  H7  1  0.99904000  0.60755000  0.19622000  1.0
  H  H8  1  0.29623000  0.56155000  0.18370000  1.0
  H  H9  1  0.46400000  0.53106000  0.11522000  1.0
  H  H10  1  0.17828000  0.54879000  0.07416000  1.0
  H  H11  1  0.36461000  0.51247000  0.01133000  1.0
  H  H12  1  0.83326000  0.44463000  0.92342000  1.0
  H  H13  1  0.64639000  0.48066000  0.98644000  1.0
  H  H14  1  0.02914000  0.44558000  0.87865000  1.0
  H  H15  1  0.02876000  0.38851000  0.80156000  1.0
  H  H16  1  0.73249000  0.43585000  0.81814000  1.0
  H  H17  1  0.55672000  0.46564000  0.88546000  1.0
  H  H18  1  0.43943000  0.56777000  0.44865000  1.0
  H  H19  1  0.39138000  0.58867000  0.39245000  1.0
  H  H20  1  0.73469000  0.62216000  0.43847000  1.0
  H  H21  1  0.93299000  0.58416000  0.46894000  1.0
  H  H22  1  0.62961000  0.52537000  0.45121000  1.0
  H  H23  1  0.85238000  0.49886000  0.48752000  1.0
  H  H24  1  0.38873000  0.47879000  0.55533000  1.0
  H  H25  1  0.16584000  0.50577000  0.51932000  1.0
  H  H26  1  0.58356000  0.43307000  0.55443000  1.0
  H  H27  1  0.64028000  0.41305000  0.61148000  1.0
  H  H28  1  0.29665000  0.38228000  0.56415000  1.0
  H  H29  1  0.09111000  0.41980000  0.53436000  1.0
  H  H30  1  0.87173000  0.88087000  0.43221000  1.0
  H  H31  1  0.80280000  0.80375000  0.41131000  1.0
  H  H32  1  0.11263000  0.81630000  0.37785000  1.0
  H  H33  1  0.34891000  0.88475000  0.41582000  1.0
  H  H34  1  0.10427000  0.92583000  0.47462000  1.0
  H  H35  1  0.35355000  0.98866000  0.50113000  1.0
  H  H36  1  0.90995000  0.07654000  0.52119000  1.0
  H  H37  1  0.66015000  0.01355000  0.49423000  1.0
  H  H38  1  0.15053000  0.12135000  0.56692000  1.0
  H  H39  1  0.22729000  0.19845000  0.58695000  1.0
  H  H40  1  0.91445000  0.18185000  0.61773000  1.0
  H  H41  1  0.67126000  0.11454000  0.58019000  1.0
  C  C42  1  0.76577000  0.53705000  0.07078000  1.0
  C  C43  1  0.74261000  0.56783000  0.15121000  1.0
  C  C44  1  0.84409000  0.59714000  0.19290000  1.0
  C  C45  1  0.75103000  0.61532000  0.23192000  1.0
  C  C46  1  0.54663000  0.60240000  0.22786000  1.0
  C  C47  1  0.44997000  0.57184000  0.18546000  1.0
  C  C48  1  0.54220000  0.55454000  0.14744000  1.0
  C  C49  1  0.43174000  0.61836000  0.26568000  1.0
  C  C50  1  0.89623000  0.51692000  0.03496000  1.0
  C  C51  1  0.09956000  0.52558000  0.04156000  1.0
  C  C52  1  0.20711000  0.50545000  0.00576000  1.0
  C  C53  1  0.11477000  0.47655000  0.96274000  1.0
  C  C54  1  0.91143000  0.46792000  0.95606000  1.0
  C  C55  1  0.80382000  0.48796000  0.99192000  1.0
  C  C56  1  0.24652000  0.45623000  0.92721000  1.0
  C  C57  1  0.28081000  0.42847000  0.84788000  1.0
  C  C58  1  0.18391000  0.39915000  0.80579000  1.0
  C  C59  1  0.28148000  0.38132000  0.76746000  1.0
  C  C60  1  0.48607000  0.39463000  0.77263000  1.0
  C  C61  1  0.57845000  0.42518000  0.81552000  1.0
  C  C62  1  0.48160000  0.44211000  0.85289000  1.0
  C  C63  1  0.60434000  0.37931000  0.73539000  1.0
  C  C64  1  0.22888000  0.53374000  0.46295000  1.0
  C  C65  1  0.17487000  0.58340000  0.43220000  1.0
  C  C66  1  0.24690000  0.59578000  0.40289000  1.0
  C  C67  1  0.13570000  0.61663000  0.38472000  1.0
  C  C68  1  0.94425000  0.62549000  0.39764000  1.0
  C  C69  1  0.87819000  0.61365000  0.42820000  1.0
  C  C70  1  0.98774000  0.59290000  0.44547000  1.0
  C  C71  1  0.81341000  0.64732000  0.38164000  1.0
  C  C72  1  0.37947000  0.51804000  0.48307000  1.0
  C  C73  1  0.57419000  0.51601000  0.47444000  1.0
  C  C74  1  0.70193000  0.50033000  0.49456000  1.0
  C  C75  1  0.63840000  0.48621000  0.52346000  1.0
  C  C76  1  0.44364000  0.48816000  0.53206000  1.0
  C  C77  1  0.31598000  0.50397000  0.51202000  1.0
  C  C78  1  0.79035000  0.47097000  0.54377000  1.0
  C  C79  1  0.85238000  0.41942000  0.57153000  1.0
  C  C80  1  0.78480000  0.40665000  0.60085000  1.0
  C  C81  1  0.90023000  0.38616000  0.61868000  1.0
  C  C82  1  0.09156000  0.37802000  0.60540000  1.0
  C  C83  1  0.15331000  0.39034000  0.57483000  1.0
  C  C84  1  0.03950000  0.41077000  0.55789000  1.0
  C  C85  1  0.22507000  0.35607000  0.62071000  1.0
  C  C86  1  0.69521000  0.92919000  0.46625000  1.0
  C  C87  1  0.59155000  0.84878000  0.41660000  1.0
  C  C88  1  0.65120000  0.80708000  0.40420000  1.0
  C  C89  1  0.51906000  0.76806000  0.38336000  1.0
  C  C90  1  0.31874000  0.77212000  0.37451000  1.0
  C  C91  1  0.26462000  0.81453000  0.38636000  1.0
  C  C92  1  0.39494000  0.85255000  0.40709000  1.0
  C  C93  1  0.16602000  0.73431000  0.35268000  1.0
  C  C94  1  0.86148000  0.96503000  0.48196000  1.0
  C  C95  1  0.05821000  0.95844000  0.48403000  1.0
  C  C96  1  0.20164000  0.99424000  0.49970000  1.0
  C  C97  1  0.15226000  0.03725000  0.51379000  1.0
  C  C98  1  0.95556000  0.04392000  0.51184000  1.0
  C  C99  1  0.81211000  0.00806000  0.49604000  1.0
  C  C100  1  0.31946000  0.07280000  0.52902000  1.0
  C  C101  1  0.43300000  0.15213000  0.58060000  1.0
  C  C102  1  0.37822000  0.19422000  0.59336000  1.0
  C  C103  1  0.51422000  0.23254000  0.61385000  1.0
  C  C104  1  0.71367000  0.22738000  0.62200000  1.0
  C  C105  1  0.76304000  0.18448000  0.60969000  1.0
  C  C106  1  0.62877000  0.14712000  0.58924000  1.0
  C  C107  1  0.86917000  0.26463000  0.64393000  1.0
  N  N108  1  0.84489000  0.55105000  0.11369000  1.0
  N  N109  1  0.17364000  0.44485000  0.88463000  1.0
  N  N110  1  0.29395000  0.56264000  0.44895000  1.0
  N  N111  1  0.72880000  0.43977000  0.55514000  1.0
  N  N112  1  0.73138000  0.88628000  0.43735000  1.0
  N  N113  1  0.28908000  0.11537000  0.56021000  1.0
  O  O114  1  0.25233000  0.60420000  0.26066000  1.0
  O  O115  1  0.51751000  0.64767000  0.30455000  1.0
  O  O116  1  0.85791000  0.64395000  0.27062000  1.0
  O  O117  1  0.78410000  0.39359000  0.74118000  1.0
  O  O118  1  0.52095000  0.35052000  0.69607000  1.0
  O  O119  1  0.17713000  0.35272000  0.72842000  1.0
  O  O120  1  0.59405000  0.54017000  0.06206000  1.0
  O  O121  1  0.41461000  0.45091000  0.93596000  1.0
  O  O122  1  0.64815000  0.65645000  0.39579000  1.0
  O  O123  1  0.86984000  0.65685000  0.35231000  1.0
  O  O124  1  0.21391000  0.62667000  0.35607000  1.0
  O  O125  1  0.39053000  0.34758000  0.60642000  1.0
  O  O126  1  0.17047000  0.34553000  0.64949000  1.0
  O  O127  1  0.82441000  0.37570000  0.64727000  1.0
  O  O128  1  0.05405000  0.52192000  0.45986000  1.0
  O  O129  1  0.96379000  0.48503000  0.54909000  1.0
  O  O130  1  0.99164000  0.73935000  0.34356000  1.0
  O  O131  1  0.21291000  0.69544000  0.34313000  1.0
  O  O132  1  0.58728000  0.72937000  0.37332000  1.0
  O  O133  1  0.04313000  0.25884000  0.65243000  1.0
  O  O134  1  0.82506000  0.30394000  0.65445000  1.0
  O  O135  1  0.44885000  0.27157000  0.62429000  1.0
  O  O136  1  0.53219000  0.93793000  0.47806000  1.0
  O  O137  1  0.47887000  0.06406000  0.51497000  1.0
