# generated using pymatgen
data_Zn2H12C26N8F7
_symmetry_space_group_name_H-M   'P 1'
_cell_length_a   14.76620000
_cell_length_b   14.88610000
_cell_length_c   14.98910000
_cell_angle_alpha   115.63000000
_cell_angle_beta   99.83430000
_cell_angle_gamma   112.47200000
_symmetry_Int_Tables_number   1
_chemical_formula_structural   Zn2H12C26N8F7
_chemical_formula_sum   'Zn4 H24 C52 N16 F14'
_cell_volume   2511.68967906
_cell_formula_units_Z   2
loop_
 _symmetry_equiv_pos_site_id
 _symmetry_equiv_pos_as_xyz
  1  'x, y, z'
loop_
 _atom_site_type_symbol
 _atom_site_label
 _atom_site_symmetry_multiplicity
 _atom_site_fract_x
 _atom_site_fract_y
 _atom_site_fract_z
 _atom_site_occupancy
  Zn  Zn0  1  0.14254000  0.13223000  0.98739000  1.0
  Zn  Zn1  1  0.00321000  0.84979000  0.83978000  1.0
  Zn  Zn2  1  0.85982000  0.85445000  0.98980000  1.0
  Zn  Zn3  1  0.00085000  0.14300000  0.13986000  1.0
  H  H4  1  0.01395000  0.18709000  0.84095000  1.0
  H  H5  1  0.17715000  0.80114000  0.74285000  1.0
  H  H6  1  0.10834000  0.72874000  0.18379000  1.0
  H  H7  1  0.10572000  0.58123000  0.18331000  1.0
  H  H8  1  0.49957000  0.16222000  0.85885000  1.0
  H  H9  1  0.73178000  0.83438000  0.49566000  1.0
  H  H10  1  0.29662000  0.69787000  0.68448000  1.0
  H  H11  1  0.11751000  0.21777000  0.70029000  1.0
  H  H12  1  0.49369000  0.77918000  0.87166000  1.0
  H  H13  1  0.01247000  0.28696000  0.56779000  1.0
  H  H14  1  0.32517000  0.29444000  0.48969000  1.0
  H  H15  1  0.48486000  0.44035000  0.65159000  1.0
  H  H16  1  0.71917000  0.43725000  0.41265000  1.0
  H  H17  1  0.56011000  0.17775000  0.27894000  1.0
  H  H18  1  0.66529000  0.81200000  0.80700000  1.0
  H  H19  1  0.95793000  0.18588000  0.36279000  1.0
  H  H20  1  0.04564000  0.41156000  0.22749000  1.0
  H  H21  1  0.99513000  0.83549000  0.16753000  1.0
  H  H22  1  0.83494000  0.81104000  0.63870000  1.0
  H  H23  1  0.35900000  0.17690000  0.93448000  1.0
  H  H24  1  0.24085000  0.72051000  0.04578000  1.0
  H  H25  1  0.26825000  0.58767000  0.07865000  1.0
  H  H26  1  0.31111000  0.75524000  0.82234000  1.0
  H  H27  1  0.04377000  0.28915000  0.73910000  1.0
  C  C28  1  0.97754000  0.09441000  0.80592000  1.0
  C  C29  1  0.20673000  0.89338000  0.79235000  1.0
  C  C30  1  0.70876000  0.99898000  0.88808000  1.0
  C  C31  1  0.85857000  0.99819000  0.30586000  1.0
  C  C32  1  0.69226000  0.53882000  0.67208000  1.0
  C  C33  1  0.30204000  0.19183000  0.28137000  1.0
  C  C34  1  0.15169000  0.45372000  0.14300000  1.0
  C  C35  1  0.10652000  0.80291000  0.08939000  1.0
  C  C36  1  0.20386000  0.69955000  0.09658000  1.0
  C  C37  1  0.21563000  0.61407000  0.11123000  1.0
  C  C38  1  0.14305000  0.74549000  0.12985000  1.0
  C  C39  1  0.15890000  0.55611000  0.15044000  1.0
  C  C40  1  0.50968000  0.89293000  0.80932000  1.0
  C  C41  1  0.93212000  0.09866000  0.50728000  1.0
  C  C42  1  0.60804000  0.99243000  0.84800000  1.0
  C  C43  1  0.85529000  0.00289000  0.40422000  1.0
  C  C44  1  0.59444000  0.08438000  0.85681000  1.0
  C  C45  1  0.78271000  0.91264000  0.40998000  1.0
  C  C46  1  0.49815000  0.08315000  0.84409000  1.0
  C  C47  1  0.79142000  0.91205000  0.50384000  1.0
  C  C48  1  0.40281000  0.98534000  0.81724000  1.0
  C  C49  1  0.87571000  0.00626000  0.60500000  1.0
  C  C50  1  0.72167000  0.90362000  0.86745000  1.0
  C  C51  1  0.91511000  0.09432000  0.29942000  1.0
  C  C52  1  0.41178000  0.88794000  0.79269000  1.0
  C  C53  1  0.94231000  0.10095000  0.60230000  1.0
  C  C54  1  0.35143000  0.76612000  0.76938000  1.0
  C  C55  1  0.04468000  0.21923000  0.67179000  1.0
  C  C56  1  0.46369000  0.77672000  0.79768000  1.0
  C  C57  1  0.02866000  0.22006000  0.56613000  1.0
  C  C58  1  0.50486000  0.28998000  0.37996000  1.0
  C  C59  1  0.59770000  0.37416000  0.47514000  1.0
  C  C60  1  0.40134000  0.26039000  0.37741000  1.0
  C  C61  1  0.59782000  0.43696000  0.57681000  1.0
  C  C62  1  0.40129000  0.31516000  0.48185000  1.0
  C  C63  1  0.49409000  0.39920000  0.57630000  1.0
  C  C64  1  0.67143000  0.36372000  0.41791000  1.0
  C  C65  1  0.56857000  0.26382000  0.31257000  1.0
  C  C66  1  0.79554000  0.60675000  0.68205000  1.0
  C  C67  1  0.28304000  0.14621000  0.17133000  1.0
  C  C68  1  0.09066000  0.38997000  0.17997000  1.0
  C  C69  1  0.03016000  0.83515000  0.10932000  1.0
  C  C70  1  0.70311000  0.60763000  0.77837000  1.0
  C  C71  1  0.19957000  0.17401000  0.27579000  1.0
  C  C72  1  0.18730000  0.38104000  0.08536000  1.0
  C  C73  1  0.11762000  0.81906000  0.00513000  1.0
  C  C74  1  0.80768000  0.09306000  0.97325000  1.0
  C  C75  1  0.82424000  0.90508000  0.20025000  1.0
  C  C76  1  0.88508000  0.90238000  0.70304000  1.0
  C  C77  1  0.29903000  0.08510000  0.88862000  1.0
  C  C78  1  0.90411000  0.00090000  0.69986000  1.0
  C  C79  1  0.30769000  0.98830000  0.82711000  1.0
  N  N80  1  0.00090000  0.05385000  0.86592000  1.0
  N  N81  1  0.14368000  0.93069000  0.83030000  1.0
  N  N82  1  0.81841000  0.94005000  0.93555000  1.0
  N  N83  1  0.91337000  0.06044000  0.20016000  1.0
  N  N84  1  0.85900000  0.70219000  0.78016000  1.0
  N  N85  1  0.18393000  0.10994000  0.10965000  1.0
  N  N86  1  0.09084000  0.29053000  0.14674000  1.0
  N  N87  1  0.99934000  0.86448000  0.04134000  1.0
  N  N88  1  0.79947000  0.70293000  0.84261000  1.0
  N  N89  1  0.13052000  0.12692000  0.17686000  1.0
  N  N90  1  0.15214000  0.28481000  0.08641000  1.0
  N  N91  1  0.05419000  0.85434000  0.97600000  1.0
  N  N92  1  0.87232000  0.05840000  0.00155000  1.0
  N  N93  1  0.85575000  0.94048000  0.13714000  1.0
  N  N94  1  0.94432000  0.93574000  0.80239000  1.0
  N  N95  1  0.20134000  0.05027000  0.89048000  1.0
  F  F96  1  0.68184000  0.18410000  0.88404000  1.0
  F  F97  1  0.69787000  0.81699000  0.31666000  1.0
  F  F98  1  0.47122000  0.68923000  0.71492000  1.0
  F  F99  1  0.11470000  0.23075000  0.53406000  1.0
  F  F100  1  0.74087000  0.33049000  0.45240000  1.0
  F  F101  1  0.56086000  0.28604000  0.23022000  1.0
  F  F102  1  0.83490000  0.58815000  0.60537000  1.0
  F  F103  1  0.35187000  0.13695000  0.12546000  1.0
  F  F104  1  0.62907000  0.58800000  0.81970000  1.0
  F  F105  1  0.16687000  0.20042000  0.35701000  1.0
  F  F106  1  0.24698000  0.39546000  0.02847000  1.0
  F  F107  1  0.17992000  0.79953000  0.95214000  1.0
  F  F108  1  0.84030000  0.20641000  0.02944000  1.0
  F  F109  1  0.77019000  0.79036000  0.15798000  1.0
