# generated using pymatgen
data_Zn4H8C24S4O19
_symmetry_space_group_name_H-M   'P 1'
_cell_length_a   19.66410000
_cell_length_b   19.71600000
_cell_length_c   33.35910000
_cell_angle_alpha   79.10000000
_cell_angle_beta   79.25060000
_cell_angle_gamma   63.99140000
_symmetry_Int_Tables_number   1
_chemical_formula_structural   Zn4H8C24S4O19
_chemical_formula_sum   'Zn16 H32 C96 S16 O76'
_cell_volume   11334.85253058
_cell_formula_units_Z   4
loop_
 _symmetry_equiv_pos_site_id
 _symmetry_equiv_pos_as_xyz
  1  'x, y, z'
loop_
 _atom_site_type_symbol
 _atom_site_label
 _atom_site_symmetry_multiplicity
 _atom_site_fract_x
 _atom_site_fract_y
 _atom_site_fract_z
 _atom_site_occupancy
  Zn  Zn0  1  0.05661000  0.40003000  0.47862000  1.0
  Zn  Zn1  1  0.98418000  0.48277000  0.56061000  1.0
  Zn  Zn2  1  0.05857000  0.56074000  0.48259000  1.0
  Zn  Zn3  1  0.90113000  0.55466000  0.47967000  1.0
  Zn  Zn4  1  0.69301000  0.34975000  0.27161000  1.0
  Zn  Zn5  1  0.69048000  0.18807000  0.26726000  1.0
  Zn  Zn6  1  0.76827000  0.26659000  0.19030000  1.0
  Zn  Zn7  1  0.84747000  0.19489000  0.27181000  1.0
  Zn  Zn8  1  0.26657000  0.76644000  0.68940000  1.0
  Zn  Zn9  1  0.35035000  0.69545000  0.77082000  1.0
  Zn  Zn10  1  0.19329000  0.84848000  0.77099000  1.0
  Zn  Zn11  1  0.19174000  0.68890000  0.76740000  1.0
  Zn  Zn12  1  0.55903000  0.06224000  0.98280000  1.0
  Zn  Zn13  1  0.40091000  0.05504000  0.97768000  1.0
  Zn  Zn14  1  0.55696000  0.90164000  0.97887000  1.0
  Zn  Zn15  1  0.48092000  0.98420000  0.05968000  1.0
  H  H16  1  0.74807000  0.45354000  0.35053000  1.0
  H  H17  1  0.00152000  0.29733000  0.39956000  1.0
  H  H18  1  0.20088000  0.70046000  0.59875000  1.0
  H  H19  1  0.04905000  0.54960000  0.65117000  1.0
  H  H20  1  0.65104000  0.15196000  0.04931000  1.0
  H  H21  1  0.59904000  0.09788000  0.20070000  1.0
  H  H22  1  0.29829000  0.00072000  0.89973000  1.0
  H  H23  1  0.45227000  0.74840000  0.85010000  1.0
  H  H24  1  0.80910000  0.52745000  0.41841000  1.0
  H  H25  1  0.94059000  0.22312000  0.33184000  1.0
  H  H26  1  0.13678000  0.63735000  0.52686000  1.0
  H  H27  1  0.11311000  0.61276000  0.72306000  1.0
  H  H28  1  0.72320000  0.22269000  0.11327000  1.0
  H  H29  1  0.52674000  0.02730000  0.13674000  1.0
  H  H30  1  0.22209000  0.94150000  0.83197000  1.0
  H  H31  1  0.52831000  0.80752000  0.91804000  1.0
  H  H32  1  0.32732000  0.54069000  0.39829000  1.0
  H  H33  1  0.42209000  0.20965000  0.35213000  1.0
  H  H34  1  0.75518000  0.54119000  0.68409000  1.0
  H  H35  1  0.49530000  0.70860000  0.56562000  1.0
  H  H36  1  0.04148000  0.25491000  0.68388000  1.0
  H  H37  1  0.20873000  0.99452000  0.56650000  1.0
  H  H38  1  0.74410000  0.81622000  0.38723000  1.0
  H  H39  1  0.00566000  0.93283000  0.36314000  1.0
  H  H40  1  0.70819000  0.49554000  0.06581000  1.0
  H  H41  1  0.54157000  0.75495000  0.18393000  1.0
  H  H42  1  0.14825000  0.07710000  0.21989000  1.0
  H  H43  1  0.10101000  0.17332000  0.03053000  1.0
  H  H44  1  0.50613000  0.43359000  0.86267000  1.0
  H  H45  1  0.24431000  0.31736000  0.88694000  1.0
  H  H46  1  0.92292000  0.70925000  0.85157000  1.0
  H  H47  1  0.82765000  0.04045000  0.89798000  1.0
  C  C48  1  0.06182000  0.31596000  0.56195000  1.0
  C  C49  1  0.06981000  0.57046000  0.56932000  1.0
  C  C50  1  0.18379000  0.44052000  0.43873000  1.0
  C  C51  1  0.93609000  0.68392000  0.43903000  1.0
  C  C52  1  0.93051000  0.42992000  0.43063000  1.0
  C  C53  1  0.81685000  0.56040000  0.56224000  1.0
  C  C54  1  0.56577000  0.30971000  0.31136000  1.0
  C  C55  1  0.68152000  0.17935000  0.18025000  1.0
  C  C56  1  0.68926000  0.43340000  0.18782000  1.0
  C  C57  1  0.93476000  0.18802000  0.18956000  1.0
  C  C58  1  0.81879000  0.32071000  0.31970000  1.0
  C  C59  1  0.81322000  0.06540000  0.31167000  1.0
  C  C60  1  0.43365000  0.68948000  0.68757000  1.0
  C  C61  1  0.31916000  0.82068000  0.81928000  1.0
  C  C62  1  0.18841000  0.93346000  0.68830000  1.0
  C  C63  1  0.06611000  0.80961000  0.81128000  1.0
  C  C64  1  0.18028000  0.67945000  0.68063000  1.0
  C  C65  1  0.31405000  0.56606000  0.81096000  1.0
  C  C66  1  0.43673000  0.18460000  0.93837000  1.0
  C  C67  1  0.43167000  0.92883000  0.93025000  1.0
  C  C68  1  0.68407000  0.94040000  0.93864000  1.0
  C  C69  1  0.56058000  0.81713000  0.06201000  1.0
  C  C70  1  0.56851000  0.07055000  0.06976000  1.0
  C  C71  1  0.31468000  0.06220000  0.06060000  1.0
  C  C72  1  0.90110000  0.40298000  0.40203000  1.0
  C  C73  1  0.84851000  0.34795000  0.34799000  1.0
  C  C74  1  0.82834000  0.44811000  0.38803000  1.0
  C  C75  1  0.92135000  0.30286000  0.36195000  1.0
  C  C76  1  0.80364000  0.41949000  0.36126000  1.0
  C  C77  1  0.94605000  0.33149000  0.38872000  1.0
  C  C78  1  0.09856000  0.59905000  0.59736000  1.0
  C  C79  1  0.15135000  0.65105000  0.65257000  1.0
  C  C80  1  0.14204000  0.64227000  0.58203000  1.0
  C  C81  1  0.10783000  0.60786000  0.66789000  1.0
  C  C82  1  0.16758000  0.66742000  0.61009000  1.0
  C  C83  1  0.08231000  0.58269000  0.63984000  1.0
  C  C84  1  0.30469000  0.45492000  0.40087000  1.0
  C  C85  1  0.44482000  0.29539000  0.34937000  1.0
  C  C86  1  0.25818000  0.41614000  0.41405000  1.0
  C  C87  1  0.49136000  0.33412000  0.33613000  1.0
  C  C88  1  0.37672000  0.33968000  0.37302000  1.0
  C  C89  1  0.37280000  0.41066000  0.37722000  1.0
  C  C90  1  0.72606000  0.57581000  0.62981000  1.0
  C  C91  1  0.52442000  0.67394000  0.61991000  1.0
  C  C92  1  0.74283000  0.58495000  0.58713000  1.0
  C  C93  1  0.50766000  0.66479000  0.66260000  1.0
  C  C94  1  0.60429000  0.64134000  0.60804000  1.0
  C  C95  1  0.64619000  0.60836000  0.64166000  1.0
  C  C96  1  0.07629000  0.22544000  0.62975000  1.0
  C  C97  1  0.17396000  0.02401000  0.62061000  1.0
  C  C98  1  0.08591000  0.24201000  0.58704000  1.0
  C  C99  1  0.16438000  0.00743000  0.66331000  1.0
  C  C100  1  0.14172000  0.10371000  0.60847000  1.0
  C  C101  1  0.10854000  0.14573000  0.64190000  1.0
  C  C102  1  0.84270000  0.80085000  0.39728000  1.0
  C  C103  1  0.90700000  0.94813000  0.35317000  1.0
  C  C104  1  0.91120000  0.75796000  0.41412000  1.0
  C  C105  1  0.83840000  0.99107000  0.33639000  1.0
  C  C106  1  0.90844000  0.87858000  0.37534000  1.0
  C  C107  1  0.84143000  0.87023000  0.37499000  1.0
  C  C108  1  0.65305000  0.15190000  0.15143000  1.0
  C  C109  1  0.59715000  0.09784000  0.09858000  1.0
  C  C110  1  0.66808000  0.16767000  0.10802000  1.0
  C  C111  1  0.58210000  0.08208000  0.14198000  1.0
  C  C112  1  0.63978000  0.14018000  0.08250000  1.0
  C  C113  1  0.61041000  0.10957000  0.16751000  1.0
  C  C114  1  0.67396000  0.52459000  0.12006000  1.0
  C  C115  1  0.57576000  0.72593000  0.12968000  1.0
  C  C116  1  0.66465000  0.50752000  0.16275000  1.0
  C  C117  1  0.58506000  0.74301000  0.08700000  1.0
  C  C118  1  0.60828000  0.64612000  0.14164000  1.0
  C  C119  1  0.64146000  0.60441000  0.10809000  1.0
  C  C120  1  0.08161000  0.12408000  0.17804000  1.0
  C  C121  1  0.16782000  0.12609000  0.07226000  1.0
  C  C122  1  0.00920000  0.16296000  0.16504000  1.0
  C  C123  1  0.24026000  0.08725000  0.08521000  1.0
  C  C124  1  0.11004000  0.13940000  0.10626000  1.0
  C  C125  1  0.13945000  0.11064000  0.14405000  1.0
  C  C126  1  0.34692000  0.84927000  0.84788000  1.0
  C  C127  1  0.40373000  0.89991000  0.90190000  1.0
  C  C128  1  0.30237000  0.92162000  0.86206000  1.0
  C  C129  1  0.44816000  0.82745000  0.88783000  1.0
  C  C130  1  0.33186000  0.94546000  0.88880000  1.0
  C  C131  1  0.41874000  0.80365000  0.86103000  1.0
  C  C132  1  0.40750000  0.44901000  0.85266000  1.0
  C  C133  1  0.34302000  0.30193000  0.89690000  1.0
  C  C134  1  0.33902000  0.49193000  0.83582000  1.0
  C  C135  1  0.41160000  0.25896000  0.91368000  1.0
  C  C136  1  0.34171000  0.37136000  0.87464000  1.0
  C  C137  1  0.40876000  0.37964000  0.87495000  1.0
  C  C138  1  0.94523000  0.79521000  0.84912000  1.0
  C  C139  1  0.80501000  0.95467000  0.90066000  1.0
  C  C140  1  0.99176000  0.83399000  0.83601000  1.0
  C  C141  1  0.75843000  0.91599000  0.91384000  1.0
  C  C142  1  0.87314000  0.91039000  0.87704000  1.0
  C  C143  1  0.87705000  0.83944000  0.87276000  1.0
  S  S144  1  0.29771000  0.32607000  0.39773000  1.0
  S  S145  1  0.45180000  0.42423000  0.35245000  1.0
  S  S146  1  0.66147000  0.63306000  0.56169000  1.0
  S  S147  1  0.58903000  0.61664000  0.68801000  1.0
  S  S148  1  0.13406000  0.16061000  0.56198000  1.0
  S  S149  1  0.11626000  0.08881000  0.68840000  1.0
  S  S150  1  0.97363000  0.80219000  0.40271000  1.0
  S  S151  1  0.77616000  0.94662000  0.34769000  1.0
  S  S152  1  0.61626000  0.58874000  0.18801000  1.0
  S  S153  1  0.63345000  0.66181000  0.06171000  1.0
  S  S154  1  0.01192000  0.18291000  0.11162000  1.0
  S  S155  1  0.23759000  0.06717000  0.13863000  1.0
  S  S156  1  0.27654000  0.44775000  0.84726000  1.0
  S  S157  1  0.47397000  0.30323000  0.90229000  1.0
  S  S158  1  0.95221000  0.92399000  0.85243000  1.0
  S  S159  1  0.79796000  0.82592000  0.89744000  1.0
  O  O160  1  0.00059000  0.49886000  0.50014000  1.0
  O  O161  1  0.07860000  0.31476000  0.52288000  1.0
  O  O162  1  0.03204000  0.53162000  0.58494000  1.0
  O  O163  1  0.15515000  0.50689000  0.44994000  1.0
  O  O164  1  0.02664000  0.37461000  0.58089000  1.0
  O  O165  1  0.15401000  0.39231000  0.44681000  1.0
  O  O166  1  0.08526000  0.58713000  0.53019000  1.0
  O  O167  1  0.00275000  0.65786000  0.45054000  1.0
  O  O168  1  0.88660000  0.49604000  0.44246000  1.0
  O  O169  1  0.89033000  0.65178000  0.44717000  1.0
  O  O170  1  0.99598000  0.38759000  0.44192000  1.0
  O  O171  1  0.87587000  0.52610000  0.58113000  1.0
  O  O172  1  0.81528000  0.57604000  0.52311000  1.0
  O  O173  1  0.74879000  0.25057000  0.25033000  1.0
  O  O174  1  0.59530000  0.35816000  0.30315000  1.0
  O  O175  1  0.66655000  0.16321000  0.21863000  1.0
  O  O176  1  0.72540000  0.37463000  0.16896000  1.0
  O  O177  1  0.59455000  0.24328000  0.30026000  1.0
  O  O178  1  0.67205000  0.43452000  0.22686000  1.0
  O  O179  1  0.72045000  0.21859000  0.16416000  1.0
  O  O180  1  0.87678000  0.22229000  0.16929000  1.0
  O  O181  1  0.86225000  0.25407000  0.30843000  1.0
  O  O182  1  0.93354000  0.17403000  0.22856000  1.0
  O  O183  1  0.75350000  0.36310000  0.30816000  1.0
  O  O184  1  0.74678000  0.09147000  0.29992000  1.0
  O  O185  1  0.85884000  0.09768000  0.30397000  1.0
  O  O186  1  0.25046000  0.75007000  0.74989000  1.0
  O  O187  1  0.37466000  0.72418000  0.66864000  1.0
  O  O188  1  0.36207000  0.75614000  0.80737000  1.0
  O  O189  1  0.17187000  0.93460000  0.72740000  1.0
  O  O190  1  0.43524000  0.67361000  0.72666000  1.0
  O  O191  1  0.22325000  0.87481000  0.66937000  1.0
  O  O192  1  0.25208000  0.86400000  0.80812000  1.0
  O  O193  1  0.09606000  0.85771000  0.80341000  1.0
  O  O194  1  0.16475000  0.66285000  0.71975000  1.0
  O  O195  1  0.09467000  0.74351000  0.79975000  1.0
  O  O196  1  0.21829000  0.71805000  0.66502000  1.0
  O  O197  1  0.35988000  0.59806000  0.80266000  1.0
  O  O198  1  0.24716000  0.59217000  0.79969000  1.0
  O  O199  1  0.49998000  0.00046000  0.99964000  1.0
  O  O200  1  0.50341000  0.15842000  0.94987000  1.0
  O  O201  1  0.38918000  0.99398000  0.94150000  1.0
  O  O202  1  0.65439000  0.89203000  0.94671000  1.0
  O  O203  1  0.39099000  0.15249000  0.94624000  1.0
  O  O204  1  0.65534000  0.00662000  0.94998000  1.0
  O  O205  1  0.49838000  0.88533000  0.94184000  1.0
  O  O206  1  0.57777000  0.81600000  0.02294000  1.0
  O  O207  1  0.52928000  0.03162000  0.08585000  1.0
  O  O208  1  0.52465000  0.87595000  0.08082000  1.0
  O  O209  1  0.58361000  0.08657000  0.03138000  1.0
  O  O210  1  0.31583000  0.07644000  0.02164000  1.0
  O  O211  1  0.37265000  0.02765000  0.08089000  1.0
  O  O212  1  0.78158000  0.51777000  0.39946000  1.0
  O  O213  1  0.96817000  0.23319000  0.35057000  1.0
  O  O214  1  0.16000000  0.66018000  0.54139000  1.0
  O  O215  1  0.08988000  0.58994000  0.70853000  1.0
  O  O216  1  0.70867000  0.20832000  0.09016000  1.0
  O  O217  1  0.54142000  0.04152000  0.15985000  1.0
  O  O218  1  0.23243000  0.96877000  0.85073000  1.0
  O  O219  1  0.51803000  0.78027000  0.89926000  1.0
  O  O220  1  0.28599000  0.52559000  0.40988000  1.0
  O  O221  1  0.46341000  0.22470000  0.34042000  1.0
  O  O222  1  0.77994000  0.54024000  0.65589000  1.0
  O  O223  1  0.47053000  0.70960000  0.59382000  1.0
  O  O224  1  0.04059000  0.27938000  0.65560000  1.0
  O  O225  1  0.20964000  0.97005000  0.59478000  1.0
  O  O226  1  0.78565000  0.77806000  0.40207000  1.0
  O  O227  1  0.96394000  0.97105000  0.34843000  1.0
  O  O228  1  0.70962000  0.47088000  0.09405000  1.0
  O  O229  1  0.54011000  0.77962000  0.15568000  1.0
  O  O230  1  0.09362000  0.10251000  0.21805000  1.0
  O  O231  1  0.15567000  0.14775000  0.03227000  1.0
  O  O232  1  0.46454000  0.47185000  0.84788000  1.0
  O  O233  1  0.28597000  0.27912000  0.90168000  1.0
  O  O234  1  0.96411000  0.72456000  0.84004000  1.0
  O  O235  1  0.78638000  0.02532000  0.90967000  1.0
