# generated using pymatgen
data_CuMo2H7C11(N3O4)2
_symmetry_space_group_name_H-M   'P 1'
_cell_length_a   7.25928000
_cell_length_b   11.42330000
_cell_length_c   11.64863970
_cell_angle_alpha   119.36234707
_cell_angle_beta   97.27277508
_cell_angle_gamma   90.00000000
_symmetry_Int_Tables_number   1
_chemical_formula_structural   CuMo2H7C11(N3O4)2
_chemical_formula_sum   'Cu2 Mo4 H14 C22 N12 O16'
_cell_volume   832.94302807
_cell_formula_units_Z   2
loop_
 _symmetry_equiv_pos_site_id
 _symmetry_equiv_pos_as_xyz
  1  'x, y, z'
loop_
 _atom_site_type_symbol
 _atom_site_label
 _atom_site_symmetry_multiplicity
 _atom_site_fract_x
 _atom_site_fract_y
 _atom_site_fract_z
 _atom_site_occupancy
  Cu  Cu0  1  0.50000000  0.50000000  0.50000000  1.0
  Cu  Cu1  1  0.00000000  0.00000000  0.50000000  1.0
  Mo  Mo2  1  0.40614000  0.59601000  0.15008000  1.0
  Mo  Mo3  1  0.09386000  0.44593000  0.84992000  1.0
  Mo  Mo4  1  0.59386000  0.40399000  0.84992000  1.0
  Mo  Mo5  1  0.90614000  0.55407000  0.15008000  1.0
  H  H6  1  0.25000000  0.80660000  0.00000000  1.0
  H  H7  1  0.75000000  0.19340000  1.00000000  1.0
  H  H8  1  0.23541000  0.02772000  0.78641000  1.0
  H  H9  1  0.26459000  0.24132000  0.21359000  1.0
  H  H10  1  0.76459000  0.97228000  0.21359000  1.0
  H  H11  1  0.73541000  0.75869000  0.78642000  1.0
  H  H12  1  0.43626000  0.66728000  0.79592000  1.0
  H  H13  1  0.06374000  0.87136000  0.20408000  1.0
  H  H14  1  0.56374000  0.33272000  0.20408000  1.0
  H  H15  1  0.93626000  0.12864000  0.79592000  1.0
  H  H16  1  0.13890000  0.63440000  0.44326000  1.0
  H  H17  1  0.36110000  0.19113000  0.55674000  1.0
  H  H18  1  0.86110000  0.36560000  0.55674000  1.0
  H  H19  1  0.63890000  0.80887000  0.44326000  1.0
  C  C20  1  0.25000000  0.90199000  1.00000000  1.0
  C  C21  1  0.75000000  0.09801000  0.00000000  1.0
  C  C22  1  0.23763000  0.90660000  0.88161000  1.0
  C  C23  1  0.26237000  0.02499000  0.11839000  1.0
  C  C24  1  0.76237000  0.09340000  0.11839000  1.0
  C  C25  1  0.73763000  0.97501000  0.88161000  1.0
  C  C26  1  0.23841000  0.02796000  0.88012000  1.0
  C  C27  1  0.26159000  0.14784000  0.11988000  1.0
  C  C28  1  0.76159000  0.97204000  0.11988000  1.0
  C  C29  1  0.73840000  0.85216000  0.88012000  1.0
  C  C30  1  0.25000000  0.27943000  0.00000000  1.0
  C  C31  1  0.75000000  0.72057000  0.00000000  1.0
  C  C32  1  0.25000000  0.14869000  1.00000000  1.0
  C  C33  1  0.75000000  0.85131000  0.00000000  1.0
  C  C34  1  0.34254000  0.68378000  0.72522000  1.0
  C  C35  1  0.15747000  0.95857000  0.27478000  1.0
  C  C36  1  0.65746000  0.31622000  0.27478000  1.0
  C  C37  1  0.84253000  0.04143000  0.72522000  1.0
  C  C38  1  0.19070000  0.67020000  0.54730000  1.0
  C  C39  1  0.30930000  0.12291000  0.45270000  1.0
  C  C40  1  0.80930000  0.32979000  0.45269000  1.0
  C  C41  1  0.69070000  0.87709000  0.54730000  1.0
  N  N42  1  0.32050000  0.60850000  0.59230000  1.0
  N  N43  1  0.17950000  0.01620000  0.40770000  1.0
  N  N44  1  0.67950000  0.39150000  0.40770000  1.0
  N  N45  1  0.82050000  0.98380000  0.59229000  1.0
  N  N46  1  0.23327000  0.78732000  0.75707000  1.0
  N  N47  1  0.26674000  0.03024000  0.24293000  1.0
  N  N48  1  0.76673000  0.21268000  0.24293000  1.0
  N  N49  1  0.73326000  0.96975000  0.75707000  1.0
  N  N50  1  0.13501000  0.77975000  0.64477000  1.0
  N  N51  1  0.36499000  0.13498000  0.35523000  1.0
  N  N52  1  0.86499000  0.22025000  0.35523000  1.0
  N  N53  1  0.63501000  0.86502000  0.64477000  1.0
  O  O54  1  0.42897000  0.63168000  0.31222000  1.0
  O  O55  1  0.07103000  0.31946000  0.68778000  1.0
  O  O56  1  0.57103000  0.36832000  0.68778000  1.0
  O  O57  1  0.92897000  0.68054000  0.31222000  1.0
  O  O58  1  0.63912000  0.51849000  0.09050000  1.0
  O  O59  1  0.86088000  0.42800000  0.90951000  1.0
  O  O60  1  0.36088000  0.48150000  0.90950000  1.0
  O  O61  1  0.13912000  0.57201000  0.09050000  1.0
  O  O62  1  0.44605000  0.74987000  0.16147000  1.0
  O  O63  1  0.05395000  0.58840000  0.83853000  1.0
  O  O64  1  0.55395000  0.25013000  0.83853000  1.0
  O  O65  1  0.94605000  0.41160000  0.16147000  1.0
  O  O66  1  0.35141000  0.37732000  0.09633000  1.0
  O  O67  1  0.14859000  0.28099000  0.90367000  1.0
  O  O68  1  0.64859000  0.62268000  0.90367000  1.0
  O  O69  1  0.85141000  0.71901000  0.09633000  1.0
