# generated using pymatgen
data_ZnH20C24(NO)6
_symmetry_space_group_name_H-M   'P 1'
_cell_length_a   9.05141000
_cell_length_b   10.34328478
_cell_length_c   10.68757730
_cell_angle_alpha   93.31000485
_cell_angle_beta   114.88242375
_cell_angle_gamma   115.05918839
_symmetry_Int_Tables_number   1
_chemical_formula_structural   ZnH20C24(NO)6
_chemical_formula_sum   'Zn1 H20 C24 N6 O6'
_cell_volume   787.64003255
_cell_formula_units_Z   1
loop_
 _symmetry_equiv_pos_site_id
 _symmetry_equiv_pos_as_xyz
  1  'x, y, z'
loop_
 _atom_site_type_symbol
 _atom_site_label
 _atom_site_symmetry_multiplicity
 _atom_site_fract_x
 _atom_site_fract_y
 _atom_site_fract_z
 _atom_site_occupancy
  Zn  Zn0  1  0.50002000  0.00001000  0.50001000  1.0
  H  H1  1  0.20400000  0.93112000  0.19149000  1.0
  H  H2  1  0.79602000  0.06888000  0.80852000  1.0
  H  H3  1  0.87793000  0.74034000  0.01394000  1.0
  H  H4  1  0.12207000  0.25965000  0.98605000  1.0
  H  H5  1  0.83915000  0.55393000  0.35779000  1.0
  H  H6  1  0.16085000  0.44607000  0.64221000  1.0
  H  H7  1  0.17078000  0.75335000  0.52219000  1.0
  H  H8  1  0.82922000  0.24665000  0.47782000  1.0
  H  H9  1  0.63128000  0.39807000  0.07927000  1.0
  H  H10  1  0.36870000  0.60192000  0.92072000  1.0
  H  H11  1  0.37839000  0.66942000  0.45085000  1.0
  H  H12  1  0.62161000  0.33059000  0.54916000  1.0
  H  H13  1  0.35000000  0.46811000  0.28700000  1.0
  H  H14  1  0.65000000  0.53189000  0.71301000  1.0
  H  H15  1  0.66310000  0.80829000  0.14247000  1.0
  H  H16  1  0.33691000  0.19172000  0.85754000  1.0
  H  H17  1  0.68529000  0.99542000  0.31559000  1.0
  H  H18  1  0.31472000  0.00458000  0.68443000  1.0
  H  H19  1  0.39665000  0.39207000  0.10859000  1.0
  H  H20  1  0.60334000  0.60792000  0.89141000  1.0
  C  C21  1  0.11833000  0.84578000  0.22433000  1.0
  C  C22  1  0.88167000  0.15421000  0.77567000  1.0
  C  C23  1  0.93527000  0.73712000  0.12527000  1.0
  C  C24  1  0.06474000  0.26290000  0.87473000  1.0
  C  C25  1  0.82934000  0.62786000  0.17010000  1.0
  C  C26  1  0.17065000  0.37215000  0.82989000  1.0
  C  C27  1  0.91506000  0.63611000  0.31679000  1.0
  C  C28  1  0.08492000  0.36390000  0.68321000  1.0
  C  C29  1  0.09824000  0.74771000  0.40907000  1.0
  C  C30  1  0.90174000  0.25228000  0.59092000  1.0
  C  C31  1  0.63322000  0.50424000  0.07057000  1.0
  C  C32  1  0.36677000  0.49576000  0.92943000  1.0
  C  C33  1  0.44056000  0.69581000  0.38132000  1.0
  C  C34  1  0.55945000  0.30419000  0.61870000  1.0
  C  C35  1  0.42412000  0.58395000  0.28923000  1.0
  C  C36  1  0.57588000  0.41605000  0.71078000  1.0
  C  C37  1  0.50032000  0.61986000  0.19778000  1.0
  C  C38  1  0.49967000  0.38014000  0.80222000  1.0
  C  C39  1  0.59866000  0.77143000  0.20928000  1.0
  C  C40  1  0.40132000  0.22856000  0.79071000  1.0
  C  C41  1  0.61230000  0.87725000  0.30614000  1.0
  C  C42  1  0.38770000  0.12275000  0.69387000  1.0
  C  C43  1  0.46696000  0.49833000  0.08958000  1.0
  C  C44  1  0.53302000  0.50166000  0.91041000  1.0
  N  N45  1  0.20042000  0.85148000  0.36446000  1.0
  N  N46  1  0.79958000  0.14851000  0.63554000  1.0
  N  N47  1  0.52429000  0.79023000  0.72668000  1.0
  N  N48  1  0.47571000  0.20975000  0.27329000  1.0
  N  N49  1  0.53208000  0.84098000  0.38955000  1.0
  N  N50  1  0.46794000  0.15903000  0.61047000  1.0
  O  O51  1  0.49124000  0.89191000  0.67754000  1.0
  O  O52  1  0.50878000  0.10810000  0.32247000  1.0
  O  O53  1  0.40456000  0.65496000  0.66026000  1.0
  O  O54  1  0.59541000  0.34504000  0.33973000  1.0
  O  O55  1  0.67425000  0.82909000  0.84091000  1.0
  O  O56  1  0.32582000  0.17088000  0.15901000  1.0
