# generated using pymatgen
data_Zn4H36C58O13
_symmetry_space_group_name_H-M   'P 1'
_cell_length_a   21.63710000
_cell_length_b   21.63710000
_cell_length_c   34.59260000
_cell_angle_alpha   89.99990000
_cell_angle_beta   89.99980000
_cell_angle_gamma   89.99990000
_symmetry_Int_Tables_number   1
_chemical_formula_structural   Zn4H36C58O13
_chemical_formula_sum   'Zn8 H72 C116 O26'
_cell_volume   16195.01332132
_cell_formula_units_Z   2
loop_
 _symmetry_equiv_pos_site_id
 _symmetry_equiv_pos_as_xyz
  1  'x, y, z'
loop_
 _atom_site_type_symbol
 _atom_site_label
 _atom_site_symmetry_multiplicity
 _atom_site_fract_x
 _atom_site_fract_y
 _atom_site_fract_z
 _atom_site_occupancy
  Zn  Zn0  1  0.44783000  0.55223000  0.03297000  1.0
  Zn  Zn1  1  0.44783000  0.44777000  0.96703000  1.0
  Zn  Zn2  1  0.55217000  0.44777000  0.03297000  1.0
  Zn  Zn3  1  0.55217000  0.55223000  0.96703000  1.0
  Zn  Zn4  1  0.55223000  0.44783000  0.46703000  1.0
  Zn  Zn5  1  0.44777000  0.44783000  0.53297000  1.0
  Zn  Zn6  1  0.44777000  0.55217000  0.46703000  1.0
  Zn  Zn7  1  0.55223000  0.55217000  0.53297000  1.0
  H  H8  1  0.56940000  0.25692000  0.04434000  1.0
  H  H9  1  0.56979000  0.14172000  0.04442000  1.0
  H  H10  1  0.43060000  0.25692000  0.95566000  1.0
  H  H11  1  0.43021000  0.14172000  0.95558000  1.0
  H  H12  1  0.49993000  0.05715000  0.93775000  1.0
  H  H13  1  0.50007000  0.05715000  0.06225000  1.0
  H  H14  1  0.43060000  0.74308000  0.04435000  1.0
  H  H15  1  0.43021000  0.85828000  0.04442000  1.0
  H  H16  1  0.56940000  0.74308000  0.95566000  1.0
  H  H17  1  0.56979000  0.85828000  0.95558000  1.0
  H  H18  1  0.49993000  0.94285000  0.06225000  1.0
  H  H19  1  0.50007000  0.94285000  0.93775000  1.0
  H  H20  1  0.55901000  0.42020000  0.15204000  1.0
  H  H21  1  0.44100000  0.57980000  0.15204000  1.0
  H  H22  1  0.42020000  0.55901000  0.34796000  1.0
  H  H23  1  0.57980000  0.44099000  0.34796000  1.0
  H  H24  1  0.53408000  0.36842000  0.23966000  1.0
  H  H25  1  0.60289000  0.38373000  0.21370000  1.0
  H  H26  1  0.46593000  0.63158000  0.23965000  1.0
  H  H27  1  0.39711000  0.61627000  0.21370000  1.0
  H  H28  1  0.36842000  0.53408000  0.26035000  1.0
  H  H29  1  0.38373000  0.60289000  0.28630000  1.0
  H  H30  1  0.63158000  0.46592000  0.26035000  1.0
  H  H31  1  0.61627000  0.39711000  0.28630000  1.0
  H  H32  1  0.55901000  0.57980000  0.84796000  1.0
  H  H33  1  0.44100000  0.42020000  0.84796000  1.0
  H  H34  1  0.42020000  0.44099000  0.65204000  1.0
  H  H35  1  0.57980000  0.55901000  0.65204000  1.0
  H  H36  1  0.53408000  0.63158000  0.76035000  1.0
  H  H37  1  0.60289000  0.61627000  0.78630000  1.0
  H  H38  1  0.46592000  0.36842000  0.76035000  1.0
  H  H39  1  0.39711000  0.38373000  0.78630000  1.0
  H  H40  1  0.36842000  0.46592000  0.73966000  1.0
  H  H41  1  0.38373000  0.39711000  0.71370000  1.0
  H  H42  1  0.63158000  0.53407000  0.73966000  1.0
  H  H43  1  0.61627000  0.60289000  0.71370000  1.0
  H  H44  1  0.74308000  0.42897000  0.04334000  1.0
  H  H45  1  0.85827000  0.42874000  0.04349000  1.0
  H  H46  1  0.74309000  0.57103000  0.95666000  1.0
  H  H47  1  0.85827000  0.57126000  0.95651000  1.0
  H  H48  1  0.94283000  0.59954000  0.99996000  1.0
  H  H49  1  0.94283000  0.40046000  0.00004000  1.0
  H  H50  1  0.25692000  0.42897000  0.95666000  1.0
  H  H51  1  0.14173000  0.42874000  0.95651000  1.0
  H  H52  1  0.25692000  0.57103000  0.04334000  1.0
  H  H53  1  0.14173000  0.57126000  0.04349000  1.0
  H  H54  1  0.05717000  0.40046000  0.99996000  1.0
  H  H55  1  0.05717000  0.59954000  0.00004000  1.0
  H  H56  1  0.25692000  0.56940000  0.45565000  1.0
  H  H57  1  0.14172000  0.56979000  0.45558000  1.0
  H  H58  1  0.25692000  0.43060000  0.54434000  1.0
  H  H59  1  0.14173000  0.43021000  0.54442000  1.0
  H  H60  1  0.05715000  0.49993000  0.56225000  1.0
  H  H61  1  0.05715000  0.50007000  0.43775000  1.0
  H  H62  1  0.74308000  0.43060000  0.45566000  1.0
  H  H63  1  0.85828000  0.43021000  0.45558000  1.0
  H  H64  1  0.74308000  0.56940000  0.54435000  1.0
  H  H65  1  0.85828000  0.56979000  0.54442000  1.0
  H  H66  1  0.94285000  0.49993000  0.43775000  1.0
  H  H67  1  0.94285000  0.50007000  0.56225000  1.0
  H  H68  1  0.42897000  0.74309000  0.45666000  1.0
  H  H69  1  0.42874000  0.85827000  0.45651000  1.0
  H  H70  1  0.57103000  0.74308000  0.54334000  1.0
  H  H71  1  0.57126000  0.85827000  0.54349000  1.0
  H  H72  1  0.59954000  0.94283000  0.50004000  1.0
  H  H73  1  0.40046000  0.94283000  0.49996000  1.0
  H  H74  1  0.42897000  0.25691000  0.54334000  1.0
  H  H75  1  0.42874000  0.14173000  0.54349000  1.0
  H  H76  1  0.57103000  0.25691000  0.45666000  1.0
  H  H77  1  0.57126000  0.14173000  0.45651000  1.0
  H  H78  1  0.40046000  0.05717000  0.50004000  1.0
  H  H79  1  0.59954000  0.05717000  0.49996000  1.0
  C  C80  1  0.33282000  0.50000000  0.00000000  1.0
  C  C81  1  0.50000000  0.33277000  0.00000000  1.0
  C  C82  1  0.50000000  0.50000000  0.10494000  1.0
  C  C83  1  0.66718000  0.50000000  0.00000000  1.0
  C  C84  1  0.50000000  0.66722000  0.00000000  1.0
  C  C85  1  0.50000000  0.50000000  0.89506000  1.0
  C  C86  1  0.50000000  0.33282000  0.50000000  1.0
  C  C87  1  0.33278000  0.50000000  0.50000000  1.0
  C  C88  1  0.50000000  0.50000000  0.39506000  1.0
  C  C89  1  0.50000000  0.66718000  0.50000000  1.0
  C  C90  1  0.66723000  0.50000000  0.50000000  1.0
  C  C91  1  0.50000000  0.50000000  0.60494000  1.0
  C  C92  1  0.50000000  0.26384000  0.00000000  1.0
  C  C93  1  0.53888000  0.23114000  0.02517000  1.0
  C  C94  1  0.53865000  0.16688000  0.02525000  1.0
  C  C95  1  0.46111000  0.23114000  0.97484000  1.0
  C  C96  1  0.46135000  0.16688000  0.97475000  1.0
  C  C97  1  0.50000000  0.13367000  0.00000000  1.0
  C  C98  1  0.50000000  0.06548000  0.00000000  1.0
  C  C99  1  0.49964000  0.03215000  0.96514000  1.0
  C  C100  1  0.50036000  0.03215000  0.03486000  1.0
  C  C101  1  0.50000000  0.73616000  0.00000000  1.0
  C  C102  1  0.46111000  0.76886000  0.02516000  1.0
  C  C103  1  0.46134000  0.83312000  0.02525000  1.0
  C  C104  1  0.53889000  0.76886000  0.97483000  1.0
  C  C105  1  0.53866000  0.83312000  0.97475000  1.0
  C  C106  1  0.50000000  0.86633000  0.00000000  1.0
  C  C107  1  0.50000000  0.93452000  0.00000000  1.0
  C  C108  1  0.49964000  0.96785000  0.03486000  1.0
  C  C109  1  0.50036000  0.96785000  0.96514000  1.0
  C  C110  1  0.56691000  0.40536000  0.23157000  1.0
  C  C111  1  0.43310000  0.59464000  0.23157000  1.0
  C  C112  1  0.40536000  0.56690000  0.26843000  1.0
  C  C113  1  0.59464000  0.43309000  0.26843000  1.0
  C  C114  1  0.53331000  0.45485000  0.16834000  1.0
  C  C115  1  0.53326000  0.45411000  0.20856000  1.0
  C  C116  1  0.46669000  0.54515000  0.16834000  1.0
  C  C117  1  0.46674000  0.54589000  0.20856000  1.0
  C  C118  1  0.45485000  0.53331000  0.33166000  1.0
  C  C119  1  0.45411000  0.53326000  0.29144000  1.0
  C  C120  1  0.54515000  0.46669000  0.33166000  1.0
  C  C121  1  0.54589000  0.46674000  0.29144000  1.0
  C  C122  1  0.50000000  0.50000000  0.14803000  1.0
  C  C123  1  0.50000000  0.50000000  0.22884000  1.0
  C  C124  1  0.50000000  0.50000000  0.35197000  1.0
  C  C125  1  0.50000000  0.50000000  0.27116000  1.0
  C  C126  1  0.56691000  0.59464000  0.76843000  1.0
  C  C127  1  0.43309000  0.40536000  0.76843000  1.0
  C  C128  1  0.40536000  0.43309000  0.73157000  1.0
  C  C129  1  0.59464000  0.56691000  0.73157000  1.0
  C  C130  1  0.53331000  0.54515000  0.83166000  1.0
  C  C131  1  0.53326000  0.54589000  0.79144000  1.0
  C  C132  1  0.46669000  0.45485000  0.83166000  1.0
  C  C133  1  0.46674000  0.45411000  0.79144000  1.0
  C  C134  1  0.45485000  0.46669000  0.66834000  1.0
  C  C135  1  0.45411000  0.46674000  0.70856000  1.0
  C  C136  1  0.54515000  0.53331000  0.66834000  1.0
  C  C137  1  0.54589000  0.53326000  0.70856000  1.0
  C  C138  1  0.50000000  0.50000000  0.85197000  1.0
  C  C139  1  0.50000000  0.50000000  0.77116000  1.0
  C  C140  1  0.50000000  0.50000000  0.64803000  1.0
  C  C141  1  0.50000000  0.50000000  0.72884000  1.0
  C  C142  1  0.73612000  0.50000000  0.00000000  1.0
  C  C143  1  0.76883000  0.45969000  0.02428000  1.0
  C  C144  1  0.83309000  0.45952000  0.02410000  1.0
  C  C145  1  0.76883000  0.54031000  0.97572000  1.0
  C  C146  1  0.83309000  0.54048000  0.97590000  1.0
  C  C147  1  0.86633000  0.50000000  0.00000000  1.0
  C  C148  1  0.93452000  0.50000000  0.00000000  1.0
  C  C149  1  0.96786000  0.55575000  0.99978000  1.0
  C  C150  1  0.96786000  0.44425000  0.00022000  1.0
  C  C151  1  0.26388000  0.50000000  0.00000000  1.0
  C  C152  1  0.23117000  0.45969000  0.97572000  1.0
  C  C153  1  0.16691000  0.45952000  0.97590000  1.0
  C  C154  1  0.23117000  0.54031000  0.02428000  1.0
  C  C155  1  0.16691000  0.54048000  0.02410000  1.0
  C  C156  1  0.13367000  0.50000000  1.00000000  1.0
  C  C157  1  0.06548000  0.50000000  0.00000000  1.0
  C  C158  1  0.03214000  0.44425000  0.99978000  1.0
  C  C159  1  0.03214000  0.55575000  0.00022000  1.0
  C  C160  1  0.26384000  0.50000000  0.50000000  1.0
  C  C161  1  0.23114000  0.53889000  0.47483000  1.0
  C  C162  1  0.16688000  0.53865000  0.47475000  1.0
  C  C163  1  0.23114000  0.46112000  0.52516000  1.0
  C  C164  1  0.16689000  0.46135000  0.52525000  1.0
  C  C165  1  0.13367000  0.50000000  0.50000000  1.0
  C  C166  1  0.06548000  0.50000000  0.50000000  1.0
  C  C167  1  0.03215000  0.49964000  0.53486000  1.0
  C  C168  1  0.03215000  0.50036000  0.46514000  1.0
  C  C169  1  0.73616000  0.50000000  0.50000000  1.0
  C  C170  1  0.76886000  0.46111000  0.47484000  1.0
  C  C171  1  0.83311000  0.46135000  0.47475000  1.0
  C  C172  1  0.76886000  0.53889000  0.52517000  1.0
  C  C173  1  0.83312000  0.53865000  0.52525000  1.0
  C  C174  1  0.86633000  0.50000000  0.50000000  1.0
  C  C175  1  0.93452000  0.50000000  0.50000000  1.0
  C  C176  1  0.96785000  0.49964000  0.46514000  1.0
  C  C177  1  0.96785000  0.50036000  0.53486000  1.0
  C  C178  1  0.50000000  0.73612000  0.50000000  1.0
  C  C179  1  0.45969000  0.76883000  0.47572000  1.0
  C  C180  1  0.45952000  0.83309000  0.47590000  1.0
  C  C181  1  0.54031000  0.76883000  0.52428000  1.0
  C  C182  1  0.54048000  0.83309000  0.52410000  1.0
  C  C183  1  0.50000000  0.86633000  0.50000000  1.0
  C  C184  1  0.50000000  0.93452000  0.50000000  1.0
  C  C185  1  0.55575000  0.96786000  0.50022000  1.0
  C  C186  1  0.44425000  0.96786000  0.49978000  1.0
  C  C187  1  0.50000000  0.26388000  0.50000000  1.0
  C  C188  1  0.45969000  0.23117000  0.52428000  1.0
  C  C189  1  0.45952000  0.16691000  0.52410000  1.0
  C  C190  1  0.54031000  0.23117000  0.47572000  1.0
  C  C191  1  0.54048000  0.16691000  0.47590000  1.0
  C  C192  1  0.50000000  0.13367000  0.50000000  1.0
  C  C193  1  0.50000000  0.06548000  0.50000000  1.0
  C  C194  1  0.44425000  0.03214000  0.50022000  1.0
  C  C195  1  0.55575000  0.03214000  0.49978000  1.0
  O  O196  1  0.50000000  0.50000000  0.00000000  1.0
  O  O197  1  0.35959000  0.53705000  0.02341000  1.0
  O  O198  1  0.46344000  0.35952000  0.97629000  1.0
  O  O199  1  0.53683000  0.46237000  0.08816000  1.0
  O  O200  1  0.35959000  0.46294000  0.97659000  1.0
  O  O201  1  0.46317000  0.53763000  0.08816000  1.0
  O  O202  1  0.53655000  0.35952000  0.02371000  1.0
  O  O203  1  0.64041000  0.46294000  0.02341000  1.0
  O  O204  1  0.53656000  0.64047000  0.97629000  1.0
  O  O205  1  0.64042000  0.53705000  0.97659000  1.0
  O  O206  1  0.46344000  0.64048000  0.02371000  1.0
  O  O207  1  0.46317000  0.46237000  0.91185000  1.0
  O  O208  1  0.53683000  0.53763000  0.91185000  1.0
  O  O209  1  0.50000000  0.50000000  0.50000000  1.0
  O  O210  1  0.53706000  0.35959000  0.47659000  1.0
  O  O211  1  0.35952000  0.46345000  0.52371000  1.0
  O  O212  1  0.46237000  0.53683000  0.41185000  1.0
  O  O213  1  0.46295000  0.35958000  0.52341000  1.0
  O  O214  1  0.53763000  0.46317000  0.41185000  1.0
  O  O215  1  0.35952000  0.53656000  0.47629000  1.0
  O  O216  1  0.46294000  0.64042000  0.47659000  1.0
  O  O217  1  0.64048000  0.53656000  0.52371000  1.0
  O  O218  1  0.53705000  0.64041000  0.52341000  1.0
  O  O219  1  0.64047000  0.46344000  0.47629000  1.0
  O  O220  1  0.46237000  0.46317000  0.58816000  1.0
  O  O221  1  0.53763000  0.53683000  0.58815000  1.0
