# generated using pymatgen
data_AlH12(C2O)12
_symmetry_space_group_name_H-M   'P 1'
_cell_length_a   4.00096000
_cell_length_b   29.01828139
_cell_length_c   29.01570000
_cell_angle_alpha   120.00317099
_cell_angle_beta   90.00150000
_cell_angle_gamma   89.99850013
_symmetry_Int_Tables_number   1
_chemical_formula_structural   AlH12(C2O)12
_chemical_formula_sum   'Al2 H24 C48 O24'
_cell_volume   2917.33097469
_cell_formula_units_Z   2
loop_
 _symmetry_equiv_pos_site_id
 _symmetry_equiv_pos_as_xyz
  1  'x, y, z'
loop_
 _atom_site_type_symbol
 _atom_site_label
 _atom_site_symmetry_multiplicity
 _atom_site_fract_x
 _atom_site_fract_y
 _atom_site_fract_z
 _atom_site_occupancy
  Al  Al0  1  0.00019000  0.50000000  0.99999000  1.0
  Al  Al1  1  0.99917000  0.83335000  0.66669000  1.0
  H  H2  1  0.19918000  0.64792000  0.42031000  1.0
  H  H3  1  0.80065000  0.77238000  0.42034000  1.0
  H  H4  1  0.80068000  0.56094000  0.24635000  1.0
  H  H5  1  0.19927000  0.68540000  0.24635000  1.0
  H  H6  1  0.19915000  0.77238000  0.85210000  1.0
  H  H7  1  0.80065000  0.64797000  0.72762000  1.0
  H  H8  1  0.80063000  0.68540000  0.93905000  1.0
  H  H9  1  0.19924000  0.56094000  0.81458000  1.0
  H  H10  1  0.19925000  0.07970000  0.72761000  1.0
  H  H11  1  0.80075000  0.07969000  0.85206000  1.0
  H  H12  1  0.80071000  0.25364000  0.81457000  1.0
  H  H13  1  0.19930000  0.25366000  0.93904000  1.0
  H  H14  1  0.14743000  0.71911000  0.55991000  1.0
  H  H15  1  0.85151000  0.84082000  0.55997000  1.0
  H  H16  1  0.85213000  0.49252000  0.10674000  1.0
  H  H17  1  0.14807000  0.61421000  0.10673000  1.0
  H  H18  1  0.14737000  0.84081000  0.78094000  1.0
  H  H19  1  0.85148000  0.71916000  0.65921000  1.0
  H  H20  1  0.85210000  0.61421000  0.00746000  1.0
  H  H21  1  0.14804000  0.49251000  0.88576000  1.0
  H  H22  1  0.14745000  0.94010000  0.65921000  1.0
  H  H23  1  0.85154000  0.94008000  0.78089000  1.0
  H  H24  1  0.85217000  0.39324000  0.88576000  1.0
  H  H25  1  0.14810000  0.39326000  0.00746000  1.0
  C  C26  1  0.50017000  0.41678000  0.95838000  1.0
  C  C27  1  0.50016000  0.54161000  0.08321000  1.0
  C  C28  1  0.50015000  0.54159000  0.95837000  1.0
  C  C29  1  0.49921000  0.79175000  0.58347000  1.0
  C  C30  1  0.49922000  0.79173000  0.70829000  1.0
  C  C31  1  0.49921000  0.91656000  0.70832000  1.0
  C  C32  1  0.49970000  0.76305000  0.52613000  1.0
  C  C33  1  0.32226000  0.71378000  0.49690000  1.0
  C  C34  1  0.33218000  0.68555000  0.44162000  1.0
  C  C35  1  0.49998000  0.70701000  0.41405000  1.0
  C  C36  1  0.66768000  0.75605000  0.44164000  1.0
  C  C37  1  0.67727000  0.78311000  0.49694000  1.0
  C  C38  1  0.49997000  0.67880000  0.35761000  1.0
  C  C39  1  0.49995000  0.65452000  0.30906000  1.0
  C  C40  1  0.49995000  0.62631000  0.25263000  1.0
  C  C41  1  0.66771000  0.57727000  0.22505000  1.0
  C  C42  1  0.67752000  0.55022000  0.16976000  1.0
  C  C43  1  0.50007000  0.57028000  0.14056000  1.0
  C  C44  1  0.32254000  0.61953000  0.16975000  1.0
  C  C45  1  0.33224000  0.64777000  0.22505000  1.0
  C  C46  1  0.49967000  0.76308000  0.73699000  1.0
  C  C47  1  0.32224000  0.78313000  0.78626000  1.0
  C  C48  1  0.33215000  0.75607000  0.81448000  1.0
  C  C49  1  0.49993000  0.70704000  0.79300000  1.0
  C  C50  1  0.66768000  0.68559000  0.74395000  1.0
  C  C51  1  0.67726000  0.71383000  0.71691000  1.0
  C  C52  1  0.49989000  0.67881000  0.82120000  1.0
  C  C53  1  0.49987000  0.65452000  0.84547000  1.0
  C  C54  1  0.49991000  0.62630000  0.87368000  1.0
  C  C55  1  0.66768000  0.64777000  0.92272000  1.0
  C  C56  1  0.67748000  0.61953000  0.94976000  1.0
  C  C57  1  0.50006000  0.57027000  0.92970000  1.0
  C  C58  1  0.32253000  0.55021000  0.88044000  1.0
  C  C59  1  0.33221000  0.57726000  0.85221000  1.0
  C  C60  1  0.49970000  0.97391000  0.73695000  1.0
  C  C61  1  0.32229000  0.00311000  0.71689000  1.0
  C  C62  1  0.33221000  0.05839000  0.74393000  1.0
  C  C63  1  0.50006000  0.08596000  0.79296000  1.0
  C  C64  1  0.66775000  0.05838000  0.81442000  1.0
  C  C65  1  0.67730000  0.00310000  0.78620000  1.0
  C  C66  1  0.50005000  0.14239000  0.82118000  1.0
  C  C67  1  0.50003000  0.19095000  0.84546000  1.0
  C  C68  1  0.50000000  0.24738000  0.87367000  1.0
  C  C69  1  0.66774000  0.27495000  0.85220000  1.0
  C  C70  1  0.67756000  0.33023000  0.88044000  1.0
  C  C71  1  0.50009000  0.35943000  0.92970000  1.0
  C  C72  1  0.32254000  0.33024000  0.94976000  1.0
  C  C73  1  0.33225000  0.27496000  0.92271000  1.0
  O  O74  1  0.73129000  0.55149000  0.99373000  1.0
  O  O75  1  0.73128000  0.44224000  0.94849000  1.0
  O  O76  1  0.73128000  0.50626000  0.05775000  1.0
  O  O77  1  0.26907000  0.50623000  0.94847000  1.0
  O  O78  1  0.26910000  0.55150000  0.05774000  1.0
  O  O79  1  0.26911000  0.44225000  0.99375000  1.0
  O  O80  1  0.73013000  0.89108000  0.71822000  1.0
  O  O81  1  0.73013000  0.82713000  0.60895000  1.0
  O  O82  1  0.73015000  0.78184000  0.67291000  1.0
  O  O83  1  0.26796000  0.89112000  0.67298000  1.0
  O  O84  1  0.26794000  0.82706000  0.71819000  1.0
  O  O85  1  0.26798000  0.78186000  0.60891000  1.0
  O  O86  1  0.14952000  0.69226000  0.52151000  1.0
  O  O87  1  0.84995000  0.82924000  0.52156000  1.0
  O  O88  1  0.85023000  0.50409000  0.14515000  1.0
  O  O89  1  0.14984000  0.64105000  0.14514000  1.0
  O  O90  1  0.14950000  0.82925000  0.80778000  1.0
  O  O91  1  0.84997000  0.69233000  0.67078000  1.0
  O  O92  1  0.85021000  0.64105000  0.99590000  1.0
  O  O93  1  0.14986000  0.50408000  0.85892000  1.0
  O  O94  1  0.14956000  0.97850000  0.67076000  1.0
  O  O95  1  0.85001000  0.97849000  0.80772000  1.0
  O  O96  1  0.85026000  0.35484000  0.85892000  1.0
  O  O97  1  0.14986000  0.35486000  0.99590000  1.0
