# generated using pymatgen
data_NiH29C19N5O4
_symmetry_space_group_name_H-M   'P 1'
_cell_length_a   14.93090000
_cell_length_b   14.93160000
_cell_length_c   15.91704047
_cell_angle_alpha   96.10104824
_cell_angle_beta   116.01202762
_cell_angle_gamma   114.75600000
_symmetry_Int_Tables_number   1
_chemical_formula_structural   NiH29C19N5O4
_chemical_formula_sum   'Ni4 H116 C76 N20 O16'
_cell_volume   2707.11916546
_cell_formula_units_Z   4
loop_
 _symmetry_equiv_pos_site_id
 _symmetry_equiv_pos_as_xyz
  1  'x, y, z'
loop_
 _atom_site_type_symbol
 _atom_site_label
 _atom_site_symmetry_multiplicity
 _atom_site_fract_x
 _atom_site_fract_y
 _atom_site_fract_z
 _atom_site_occupancy
  Ni  Ni0  1  0.10769000  0.35665000  0.28479000  1.0
  Ni  Ni1  1  0.57194000  0.82296000  0.21510000  1.0
  Ni  Ni2  1  0.89231000  0.64335000  0.71521000  1.0
  Ni  Ni3  1  0.42806000  0.17704000  0.78490000  1.0
  H  H4  1  0.08385000  0.50914000  0.31302000  1.0
  H  H5  1  0.69629000  0.77095000  0.18693000  1.0
  H  H6  1  0.91615000  0.49086000  0.68698000  1.0
  H  H7  1  0.30370000  0.22904000  0.81306000  1.0
  H  H8  1  0.12853000  0.20040000  0.26316000  1.0
  H  H9  1  0.43719000  0.86534000  0.23662000  1.0
  H  H10  1  0.87147000  0.79960000  0.73684000  1.0
  H  H11  1  0.56281000  0.13465000  0.76338000  1.0
  H  H12  1  0.12191000  0.38284000  0.44786000  1.0
  H  H13  1  0.43523000  0.67407000  0.05218000  1.0
  H  H14  1  0.87809000  0.61716000  0.55214000  1.0
  H  H15  1  0.56477000  0.32593000  0.94782000  1.0
  H  H16  1  0.08748000  0.33537000  0.11774000  1.0
  H  H17  1  0.71757000  0.96979000  0.38201000  1.0
  H  H18  1  0.91252000  0.66463000  0.88226000  1.0
  H  H19  1  0.28243000  0.03021000  0.61799000  1.0
  H  H20  1  0.07366000  0.11592000  0.36788000  1.0
  H  H21  1  0.24813000  0.70571000  0.13209000  1.0
  H  H22  1  0.92634000  0.88408000  0.63212000  1.0
  H  H23  1  0.75187000  0.29428000  0.86791000  1.0
  H  H24  1  0.99721000  0.18285000  0.36165000  1.0
  H  H25  1  0.32141000  0.63558000  0.13846000  1.0
  H  H26  1  0.00279000  0.81715000  0.63835000  1.0
  H  H27  1  0.67859000  0.36442000  0.86154000  1.0
  H  H28  1  0.19817000  0.27918000  0.51988000  1.0
  H  H29  1  0.25948000  0.67811000  0.98006000  1.0
  H  H30  1  0.80183000  0.72082000  0.48012000  1.0
  H  H31  1  0.74052000  0.32189000  0.01994000  1.0
  H  H32  1  0.25998000  0.29026000  0.44480000  1.0
  H  H33  1  0.34541000  0.81499000  0.05496000  1.0
  H  H34  1  0.74002000  0.70974000  0.55520000  1.0
  H  H35  1  0.65459000  0.18501000  0.94504000  1.0
  H  H36  1  0.27770000  0.67255000  0.39767000  1.0
  H  H37  1  0.77497000  0.88015000  0.10213000  1.0
  H  H38  1  0.72230000  0.32745000  0.60233000  1.0
  H  H39  1  0.22503000  0.11986000  0.89787000  1.0
  H  H40  1  0.33215000  0.59154000  0.37901000  1.0
  H  H41  1  0.71251000  0.95316000  0.12075000  1.0
  H  H42  1  0.66785000  0.40846000  0.62099000  1.0
  H  H43  1  0.28749000  0.04685000  0.87925000  1.0
  H  H44  1  0.92796000  0.04284000  0.16766000  1.0
  H  H45  1  0.37535000  0.76055000  0.33243000  1.0
  H  H46  1  0.07204000  0.95716000  0.83234000  1.0
  H  H47  1  0.62465000  0.23945000  0.66757000  1.0
  H  H48  1  0.87931000  0.12886000  0.18781000  1.0
  H  H49  1  0.44120000  0.69169000  0.31234000  1.0
  H  H50  1  0.12070000  0.87115000  0.81220000  1.0
  H  H51  1  0.55880000  0.30831000  0.68766000  1.0
  H  H52  1  0.21421000  0.57158000  0.49892000  1.0
  H  H53  1  0.57291000  0.71539000  0.00095000  1.0
  H  H54  1  0.78579000  0.42842000  0.50108000  1.0
  H  H55  1  0.42709000  0.28461000  0.99905000  1.0
  H  H56  1  0.36541000  0.64629000  0.55060000  1.0
  H  H57  1  0.59582000  0.81493000  0.94923000  1.0
  H  H58  1  0.63459000  0.35371000  0.44940000  1.0
  H  H59  1  0.40418000  0.18507000  0.05077000  1.0
  H  H60  1  0.77321000  0.44232000  0.28783000  1.0
  H  H61  1  0.65458000  0.48541000  0.21220000  1.0
  H  H62  1  0.22679000  0.55768000  0.71217000  1.0
  H  H63  1  0.34542000  0.51459000  0.78780000  1.0
  H  H64  1  0.47302000  0.14971000  0.22284000  1.0
  H  H65  1  0.42698000  0.25035000  0.27736000  1.0
  H  H66  1  0.52697000  0.85029000  0.77716000  1.0
  H  H67  1  0.57301000  0.74965000  0.72264000  1.0
  H  H68  1  0.77547000  0.15510000  0.25493000  1.0
  H  H69  1  0.40008000  0.52055000  0.24483000  1.0
  H  H70  1  0.22453000  0.84490000  0.74507000  1.0
  H  H71  1  0.59992000  0.47945000  0.75517000  1.0
  H  H72  1  0.20387000  0.53403000  0.20290000  1.0
  H  H73  1  0.83112000  0.00104000  0.29685000  1.0
  H  H74  1  0.79613000  0.46598000  0.79710000  1.0
  H  H75  1  0.16887000  0.99895000  0.70314000  1.0
  H  H76  1  0.12415000  0.59571000  0.20274000  1.0
  H  H77  1  0.89306000  0.92155000  0.29710000  1.0
  H  H78  1  0.87584000  0.40429000  0.79726000  1.0
  H  H79  1  0.10694000  0.07845000  0.70290000  1.0
  H  H80  1  0.94386000  0.41697000  0.13096000  1.0
  H  H81  1  0.78620000  0.81311000  0.36905000  1.0
  H  H82  1  0.05614000  0.58303000  0.86904000  1.0
  H  H83  1  0.21380000  0.18689000  0.63095000  1.0
  H  H84  1  0.99806000  0.43396000  0.05020000  1.0
  H  H85  1  0.88379000  0.94805000  0.44969000  1.0
  H  H86  1  0.00195000  0.56604000  0.94980000  1.0
  H  H87  1  0.11621000  0.05195000  0.55031000  1.0
  H  H88  1  0.87729000  0.21868000  0.99043000  1.0
  H  H89  1  0.72829000  0.88695000  0.50947000  1.0
  H  H90  1  0.12272000  0.78133000  0.00958000  1.0
  H  H91  1  0.27170000  0.11305000  0.49053000  1.0
  H  H92  1  0.85604000  0.23095000  0.09264000  1.0
  H  H93  1  0.63835000  0.76354000  0.40729000  1.0
  H  H94  1  0.14396000  0.76905000  0.90736000  1.0
  H  H95  1  0.36165000  0.23646000  0.59271000  1.0
  H  H96  1  0.33154000  0.48652000  0.57989000  1.0
  H  H97  1  0.40677000  0.75162000  0.92000000  1.0
  H  H98  1  0.66846000  0.51348000  0.42011000  1.0
  H  H99  1  0.59323000  0.24838000  0.08000000  1.0
  H  H100  1  0.35660000  0.47830000  0.48066000  1.0
  H  H101  1  0.49767000  0.87587000  0.01918000  1.0
  H  H102  1  0.64340000  0.52170000  0.51934000  1.0
  H  H103  1  0.50233000  0.12413000  0.98082000  1.0
  H  H104  1  0.09174000  0.17465000  0.10192000  1.0
  H  H105  1  0.57281000  0.99002000  0.39795000  1.0
  H  H106  1  0.90826000  0.82536000  0.89808000  1.0
  H  H107  1  0.42719000  0.00998000  0.60205000  1.0
  H  H108  1  0.97562000  0.14252000  0.98004000  1.0
  H  H109  1  0.66254000  0.99575000  0.51984000  1.0
  H  H110  1  0.02437000  0.85748000  0.01996000  1.0
  H  H111  1  0.33746000  0.00425000  0.48016000  1.0
  H  H112  1  0.98813000  0.98654000  0.08921000  1.0
  H  H113  1  0.39745000  0.89907000  0.41069000  1.0
  H  H114  1  0.01187000  0.01346000  0.91079000  1.0
  H  H115  1  0.60254000  0.10093000  0.58931000  1.0
  H  H116  1  0.87174000  0.95579000  0.96852000  1.0
  H  H117  1  0.48728000  0.90311000  0.53131000  1.0
  H  H118  1  0.12826000  0.04421000  0.03148000  1.0
  H  H119  1  0.51271000  0.09689000  0.46869000  1.0
  C  C120  1  0.07260000  0.18838000  0.36056000  1.0
  C  C121  1  0.32794000  0.71201000  0.13942000  1.0
  C  C122  1  0.92740000  0.81162000  0.63944000  1.0
  C  C123  1  0.67206000  0.28799000  0.86058000  1.0
  C  C124  1  0.18565000  0.28507000  0.44743000  1.0
  C  C125  1  0.33774000  0.73809000  0.05248000  1.0
  C  C126  1  0.81437000  0.71494000  0.55258000  1.0
  C  C127  1  0.66226000  0.26190000  0.94752000  1.0
  C  C128  1  0.78577000  0.30532000  0.27319000  1.0
  C  C129  1  0.53217000  0.51263000  0.22677000  1.0
  C  C130  1  0.21422000  0.69467000  0.72680000  1.0
  C  C131  1  0.46783000  0.48737000  0.77323000  1.0
  C  C132  1  0.26563000  0.59317000  0.39113000  1.0
  C  C133  1  0.70212000  0.87456000  0.10870000  1.0
  C  C134  1  0.73437000  0.40683000  0.60887000  1.0
  C  C135  1  0.29788000  0.12544000  0.89130000  1.0
  C  C136  1  0.90537000  0.36659000  0.28884000  1.0
  C  C137  1  0.57784000  0.61658000  0.21112000  1.0
  C  C138  1  0.09463000  0.63341000  0.71116000  1.0
  C  C139  1  0.42215000  0.38341000  0.78887000  1.0
  C  C140  1  0.55932000  0.02579000  0.22319000  1.0
  C  C141  1  0.30243000  0.33606000  0.27661000  1.0
  C  C142  1  0.44068000  0.97421000  0.77681000  1.0
  C  C143  1  0.69756000  0.66393000  0.72338000  1.0
  C  C144  1  0.94450000  0.12348000  0.17626000  1.0
  C  C145  1  0.44734000  0.76841000  0.32377000  1.0
  C  C146  1  0.05550000  0.87652000  0.82374000  1.0
  C  C147  1  0.55266000  0.23159000  0.67623000  1.0
  C  C148  1  0.28434000  0.57587000  0.48892000  1.0
  C  C149  1  0.58708000  0.79547000  0.01094000  1.0
  C  C150  1  0.71566000  0.42413000  0.51108000  1.0
  C  C151  1  0.41292000  0.20454000  0.98906000  1.0
  C  C152  1  0.72727000  0.35786000  0.27302000  1.0
  C  C153  1  0.58496000  0.45433000  0.22706000  1.0
  C  C154  1  0.27273000  0.64214000  0.72698000  1.0
  C  C155  1  0.41504000  0.54567000  0.77294000  1.0
  C  C156  1  0.56113000  0.19568000  0.23811000  1.0
  C  C157  1  0.45766000  0.32315000  0.26202000  1.0
  C  C158  1  0.43887000  0.80431000  0.76189000  1.0
  C  C159  1  0.54234000  0.67684000  0.73798000  1.0
  C  C160  1  0.73112000  0.19702000  0.25578000  1.0
  C  C161  1  0.44121000  0.47537000  0.24409000  1.0
  C  C162  1  0.26888000  0.80297000  0.74422000  1.0
  C  C163  1  0.55879000  0.52463000  0.75591000  1.0
  C  C164  1  0.61923000  0.14217000  0.23945000  1.0
  C  C165  1  0.40266000  0.37982000  0.26048000  1.0
  C  C166  1  0.38077000  0.85782000  0.76055000  1.0
  C  C167  1  0.59734000  0.62018000  0.73952000  1.0
  C  C168  1  0.61333000  0.30380000  0.25328000  1.0
  C  C169  1  0.55063000  0.36015000  0.24689000  1.0
  C  C170  1  0.38667000  0.69620000  0.74672000  1.0
  C  C171  1  0.44937000  0.63985000  0.75311000  1.0
  C  C172  1  0.12975000  0.52476000  0.20851000  1.0
  C  C173  1  0.81631000  0.92135000  0.29132000  1.0
  C  C174  1  0.87025000  0.47524000  0.79149000  1.0
  C  C175  1  0.18369000  0.07865000  0.70868000  1.0
  C  C176  1  0.01682000  0.42623000  0.12353000  1.0
  C  C177  1  0.80280000  0.89346000  0.37637000  1.0
  C  C178  1  0.98318000  0.57377000  0.87647000  1.0
  C  C179  1  0.19720000  0.10654000  0.62363000  1.0
  C  C180  1  0.91563000  0.22912000  0.07067000  1.0
  C  C181  1  0.65852000  0.84509000  0.42924000  1.0
  C  C182  1  0.08437000  0.77088000  0.92933000  1.0
  C  C183  1  0.34148000  0.15491000  0.57076000  1.0
  C  C184  1  0.29578000  0.48034000  0.50108000  1.0
  C  C185  1  0.47936000  0.79467000  0.99880000  1.0
  C  C186  1  0.70422000  0.51966000  0.49892000  1.0
  C  C187  1  0.52064000  0.20533000  0.00120000  1.0
  C  C188  1  0.99624000  0.12245000  0.04827000  1.0
  C  C189  1  0.57427000  0.94815000  0.45163000  1.0
  C  C190  1  0.00376000  0.87755000  0.95173000  1.0
  C  C191  1  0.42573000  0.05185000  0.54837000  1.0
  C  C192  1  0.96653000  0.00831000  0.02194000  1.0
  C  C193  1  0.48642000  0.94464000  0.47799000  1.0
  C  C194  1  0.03348000  0.99170000  0.97807000  1.0
  C  C195  1  0.51358000  0.05536000  0.52201000  1.0
  N  N196  1  0.15045000  0.51216000  0.30424000  1.0
  N  N197  1  0.70803000  0.84631000  0.19565000  1.0
  N  N198  1  0.84955000  0.48784000  0.69576000  1.0
  N  N199  1  0.29197000  0.15369000  0.80435000  1.0
  N  N200  1  0.06030000  0.20077000  0.26649000  1.0
  N  N201  1  0.43432000  0.79383000  0.23341000  1.0
  N  N202  1  0.93970000  0.79923000  0.73351000  1.0
  N  N203  1  0.56568000  0.20616000  0.76659000  1.0
  N  N204  1  0.18301000  0.38060000  0.43567000  1.0
  N  N205  1  0.44508000  0.74732000  0.06427000  1.0
  N  N206  1  0.81699000  0.61940000  0.56433000  1.0
  N  N207  1  0.55492000  0.25268000  0.93573000  1.0
  N  N208  1  0.02673000  0.33326000  0.13281000  1.0
  N  N209  1  0.70050000  0.89402000  0.36704000  1.0
  N  N210  1  0.97327000  0.66674000  0.86719000  1.0
  N  N211  1  0.29950000  0.10598000  0.63296000  1.0
  N  N212  1  0.92824000  0.14067000  0.08440000  1.0
  N  N213  1  0.55638000  0.84405000  0.41554000  1.0
  N  N214  1  0.07176000  0.85933000  0.91560000  1.0
  N  N215  1  0.44362000  0.15595000  0.58446000  1.0
  O  O216  1  0.61413000  0.97955000  0.21937000  1.0
  O  O217  1  0.25997000  0.39465000  0.28044000  1.0
  O  O218  1  0.38587000  0.02045000  0.78063000  1.0
  O  O219  1  0.74003000  0.60535000  0.71956000  1.0
  O  O220  1  0.95038000  0.31158000  0.28091000  1.0
  O  O221  1  0.53077000  0.66952000  0.21906000  1.0
  O  O222  1  0.04962000  0.68842000  0.71909000  1.0
  O  O223  1  0.46923000  0.33047000  0.78094000  1.0
  O  O224  1  0.46174000  0.98328000  0.21593000  1.0
  O  O225  1  0.26718000  0.24572000  0.28382000  1.0
  O  O226  1  0.53826000  0.01672000  0.78408000  1.0
  O  O227  1  0.73282000  0.75428000  0.71618000  1.0
  O  O228  1  0.95102000  0.46460000  0.30619000  1.0
  O  O229  1  0.65854000  0.64491000  0.19379000  1.0
  O  O230  1  0.04897000  0.53540000  0.69380000  1.0
  O  O231  1  0.34146000  0.35509000  0.80621000  1.0
