# generated using pymatgen
data_InH3C2O5
_symmetry_space_group_name_H-M   'P 1'
_cell_length_a   6.13500000
_cell_length_b   9.38290000
_cell_length_c   9.38296000
_cell_angle_alpha   83.87090000
_cell_angle_beta   70.92780000
_cell_angle_gamma   70.92730000
_symmetry_Int_Tables_number   1
_chemical_formula_structural   InH3C2O5
_chemical_formula_sum   'In4 H12 C8 O20'
_cell_volume   482.45042200
_cell_formula_units_Z   4
loop_
 _symmetry_equiv_pos_site_id
 _symmetry_equiv_pos_as_xyz
  1  'x, y, z'
loop_
 _atom_site_type_symbol
 _atom_site_label
 _atom_site_symmetry_multiplicity
 _atom_site_fract_x
 _atom_site_fract_y
 _atom_site_fract_z
 _atom_site_occupancy
  In  In0  1  0.23042000  0.89436000  0.39439000  1.0
  In  In1  1  0.51957000  0.10562000  0.60565000  1.0
  In  In2  1  0.87500000  0.60571000  0.89429000  1.0
  In  In3  1  0.37500000  0.39432000  0.10568000  1.0
  H  H4  1  0.77982000  0.93532000  0.18317000  1.0
  H  H5  1  0.89927000  0.06479000  0.81705000  1.0
  H  H6  1  0.28420000  0.81686000  0.93529000  1.0
  H  H7  1  0.03634000  0.18318000  0.06477000  1.0
  H  H8  1  0.97017000  0.31684000  0.56468000  1.0
  H  H9  1  0.85074000  0.68293000  0.43520000  1.0
  H  H10  1  0.46580000  0.56472000  0.68314000  1.0
  H  H11  1  0.71366000  0.43524000  0.31681000  1.0
  H  H12  1  0.37499000  0.13087000  0.36913000  1.0
  H  H13  1  0.87500000  0.86904000  0.63097000  1.0
  H  H14  1  0.49417000  0.63099000  0.13081000  1.0
  H  H15  1  0.25582000  0.36919000  0.86900000  1.0
  C  C16  1  0.74782000  0.84545000  0.13333000  1.0
  C  C17  1  0.72752000  0.15459000  0.86675000  1.0
  C  C18  1  0.40602000  0.86676000  0.84542000  1.0
  C  C19  1  0.11832000  0.13333000  0.15457000  1.0
  C  C20  1  0.00217000  0.36667000  0.65455000  1.0
  C  C21  1  0.02249000  0.63325000  0.34541000  1.0
  C  C22  1  0.34398000  0.65458000  0.63325000  1.0
  C  C23  1  0.63167000  0.34542000  0.36667000  1.0
  O  O24  1  0.37500000  0.05235000  0.44765000  1.0
  O  O25  1  0.87501000  0.94755000  0.55245000  1.0
  O  O26  1  0.57243000  0.55246000  0.05235000  1.0
  O  O27  1  0.17757000  0.44765000  0.94754000  1.0
  O  O28  1  0.55148000  0.81342000  0.19046000  1.0
  O  O29  1  0.55648000  0.18641000  0.80947000  1.0
  O  O30  1  0.63438000  0.80952000  0.81341000  1.0
  O  O31  1  0.25774000  0.19036000  0.18651000  1.0
  O  O32  1  0.19851000  0.30954000  0.68658000  1.0
  O  O33  1  0.19354000  0.69051000  0.31360000  1.0
  O  O34  1  0.11564000  0.68659000  0.69048000  1.0
  O  O35  1  0.49225000  0.31348000  0.30963000  1.0
  O  O36  1  0.91717000  0.77783000  0.01901000  1.0
  O  O37  1  0.71442000  0.22234000  0.98115000  1.0
  O  O38  1  0.30468000  0.98115000  0.77774000  1.0
  O  O39  1  0.06332000  0.01905000  0.22236000  1.0
  O  O40  1  0.83284000  0.48099000  0.72217000  1.0
  O  O41  1  0.03557000  0.51885000  0.27766000  1.0
  O  O42  1  0.44532000  0.72226000  0.51886000  1.0
  O  O43  1  0.68669000  0.27765000  0.48094000  1.0
