# generated using pymatgen
data_MgH6C11NO4
_symmetry_space_group_name_H-M   'P 1'
_cell_length_a   6.83389000
_cell_length_b   34.27500000
_cell_length_c   34.28140000
_cell_angle_alpha   119.57500000
_cell_angle_beta   93.80180000
_cell_angle_gamma   93.80270000
_symmetry_Int_Tables_number   1
_chemical_formula_structural   MgH6C11NO4
_chemical_formula_sum   'Mg6 H36 C66 N6 O24'
_cell_volume   6922.68410703
_cell_formula_units_Z   6
loop_
 _symmetry_equiv_pos_site_id
 _symmetry_equiv_pos_as_xyz
  1  'x, y, z'
loop_
 _atom_site_type_symbol
 _atom_site_label
 _atom_site_symmetry_multiplicity
 _atom_site_fract_x
 _atom_site_fract_y
 _atom_site_fract_z
 _atom_site_occupancy
  Mg  Mg0  1  0.19860000  0.67181000  0.30520000  1.0
  Mg  Mg1  1  0.57498000  0.33130000  0.69635000  1.0
  Mg  Mg2  1  0.52677000  0.63336000  0.32820000  1.0
  Mg  Mg3  1  0.24358000  0.36511000  0.66872000  1.0
  Mg  Mg4  1  0.89324000  0.69485000  0.36665000  1.0
  Mg  Mg5  1  0.87869000  0.30363000  0.63488000  1.0
  H  H6  1  0.33516000  0.98213000  0.54696000  1.0
  H  H7  1  0.07597000  0.91715000  0.52514000  1.0
  H  H8  1  0.64326000  0.98952000  0.49837000  1.0
  H  H9  1  0.89108000  0.05191000  0.51916000  1.0
  H  H10  1  0.50762000  0.92473000  0.46025000  1.0
  H  H11  1  0.14823000  0.88316000  0.43628000  1.0
  H  H12  1  0.96135000  0.80791000  0.38525000  1.0
  H  H13  1  0.67352000  0.81890000  0.43198000  1.0
  H  H14  1  0.08923000  0.10273000  0.56538000  1.0
  H  H15  1  0.63566000  0.11954000  0.58748000  1.0
  H  H16  1  0.81990000  0.19689000  0.62687000  1.0
  H  H17  1  0.09873000  0.17737000  0.58422000  1.0
  H  H18  1  0.35349000  0.56484000  0.01798000  1.0
  H  H19  1  0.15900000  0.60803000  0.08292000  1.0
  H  H20  1  0.65390000  0.50892000  0.01049000  1.0
  H  H21  1  0.83964000  0.46730000  0.94817000  1.0
  H  H22  1  0.58301000  0.53557000  0.07528000  1.0
  H  H23  1  0.26537000  0.55329000  0.11695000  1.0
  H  H24  1  0.15386000  0.57749000  0.19220000  1.0
  H  H25  1  0.85511000  0.61301000  0.18109000  1.0
  H  H26  1  0.98628000  0.46271000  0.89741000  1.0
  H  H27  1  0.51552000  0.46788000  0.88044000  1.0
  H  H28  1  0.62229000  0.42996000  0.80307000  1.0
  H  H29  1  0.92065000  0.40689000  0.82265000  1.0
  H  H30  1  0.78831000  0.45301000  0.43515000  1.0
  H  H31  1  0.55105000  0.47489000  0.39203000  1.0
  H  H32  1  0.14458000  0.50145000  0.49105000  1.0
  H  H33  1  0.37169000  0.48068000  0.53262000  1.0
  H  H34  1  0.04711000  0.53970000  0.46441000  1.0
  H  H35  1  0.71178000  0.56368000  0.44678000  1.0
  H  H36  1  0.57581000  0.61467000  0.42254000  1.0
  H  H37  1  0.24152000  0.56803000  0.38691000  1.0
  H  H38  1  0.52339000  0.43456000  0.53727000  1.0
  H  H39  1  0.04783000  0.41253000  0.53208000  1.0
  H  H40  1  0.19253000  0.37315000  0.57005000  1.0
  H  H41  1  0.51402000  0.41579000  0.59312000  1.0
  C  C42  1  0.29594000  0.05874000  0.54828000  1.0
  C  C43  1  0.13311000  0.02144000  0.53460000  1.0
  C  C44  1  0.18303000  0.98296000  0.53587000  1.0
  C  C45  1  0.04018000  0.94698000  0.52375000  1.0
  C  C46  1  0.84484000  0.94783000  0.50880000  1.0
  C  C47  1  0.79439000  0.98625000  0.50770000  1.0
  C  C48  1  0.93683000  0.02282000  0.52086000  1.0
  C  C49  1  0.70706000  0.90571000  0.49380000  1.0
  C  C50  1  0.42603000  0.85661000  0.43797000  1.0
  C  C51  1  0.22378000  0.85285000  0.42428000  1.0
  C  C52  1  0.11830000  0.81072000  0.39565000  1.0
  C  C53  1  0.20776000  0.77031000  0.37937000  1.0
  C  C54  1  0.41410000  0.77470000  0.39328000  1.0
  C  C55  1  0.51767000  0.81741000  0.42208000  1.0
  C  C56  1  0.53116000  0.73627000  0.37911000  1.0
  C  C57  1  0.35329000  0.14295000  0.58373000  1.0
  C  C58  1  0.55948000  0.14897000  0.59532000  1.0
  C  C59  1  0.66107000  0.19204000  0.61724000  1.0
  C  C60  1  0.56612000  0.23111000  0.62918000  1.0
  C  C61  1  0.35809000  0.22465000  0.61608000  1.0
  C  C62  1  0.25740000  0.18082000  0.59358000  1.0
  C  C63  1  0.24040000  0.26221000  0.62523000  1.0
  C  C64  1  0.23729000  0.48951000  0.94127000  1.0
  C  C65  1  0.11211000  0.51317000  0.97864000  1.0
  C  C66  1  0.20051000  0.55292000  0.01713000  1.0
  C  C67  1  0.09351000  0.57680000  0.05309000  1.0
  C  C68  1  0.89720000  0.56104000  0.05220000  1.0
  C  C69  1  0.80834000  0.52152000  0.01380000  1.0
  C  C70  1  0.91438000  0.49809000  0.97726000  1.0
  C  C71  1  0.80145000  0.58815000  0.09432000  1.0
  C  C72  1  0.56983000  0.58137000  0.14344000  1.0
  C  C73  1  0.37132000  0.57152000  0.14723000  1.0
  C  C74  1  0.30808000  0.58501000  0.18937000  1.0
  C  C75  1  0.43801000  0.60907000  0.22974000  1.0
  C  C76  1  0.63998000  0.61853000  0.22533000  1.0
  C  C77  1  0.70079000  0.60460000  0.18260000  1.0
  C  C78  1  0.79530000  0.64284000  0.26377000  1.0
  C  C79  1  0.20968000  0.44079000  0.85704000  1.0
  C  C80  1  0.40984000  0.44636000  0.85101000  1.0
  C  C81  1  0.46827000  0.42523000  0.80794000  1.0
  C  C82  1  0.33429000  0.39813000  0.76888000  1.0
  C  C83  1  0.13268000  0.39150000  0.77534000  1.0
  C  C84  1  0.07582000  0.41282000  0.81918000  1.0
  C  C85  1  0.97767000  0.36305000  0.73778000  1.0
  C  C86  1  0.74739000  0.45163000  0.51041000  1.0
  C  C87  1  0.59842000  0.46528000  0.48675000  1.0
  C  C88  1  0.64717000  0.46405000  0.44704000  1.0
  C  C89  1  0.51650000  0.47620000  0.42320000  1.0
  C  C90  1  0.33593000  0.49112000  0.43898000  1.0
  C  C91  1  0.28645000  0.49215000  0.47846000  1.0
  C  C92  1  0.41579000  0.47899000  0.50185000  1.0
  C  C93  1  0.21346000  0.50621000  0.41192000  1.0
  C  C94  1  0.98805000  0.56204000  0.41861000  1.0
  C  C95  1  0.79934000  0.57567000  0.42848000  1.0
  C  C96  1  0.72247000  0.60430000  0.41498000  1.0
  C  C97  1  0.82831000  0.62062000  0.39091000  1.0
  C  C98  1  0.02078000  0.60672000  0.38139000  1.0
  C  C99  1  0.09558000  0.57794000  0.39532000  1.0
  C  C100  1  0.15202000  0.62091000  0.35715000  1.0
  C  C101  1  0.76906000  0.41624000  0.55919000  1.0
  C  C102  1  0.96369000  0.40467000  0.55363000  1.0
  C  C103  1  0.04327000  0.38275000  0.57479000  1.0
  C  C104  1  0.93645000  0.37081000  0.60191000  1.0
  C  C105  1  0.74150000  0.38392000  0.60855000  1.0
  C  C106  1  0.66331000  0.40640000  0.58721000  1.0
  C  C107  1  0.61475000  0.37479000  0.63696000  1.0
  N  N108  1  0.53882000  0.89921000  0.46576000  1.0
  N  N109  1  0.23668000  0.10100000  0.56449000  1.0
  N  N110  1  0.63983000  0.56659000  0.10082000  1.0
  N  N111  1  0.13544000  0.46350000  0.89905000  1.0
  N  N112  1  0.07311000  0.53424000  0.43342000  1.0
  N  N113  1  0.67176000  0.43546000  0.53646000  1.0
  O  O114  1  0.71088000  0.74221000  0.39501000  1.0
  O  O115  1  0.44784000  0.69634000  0.34958000  1.0
  O  O116  1  0.09864000  0.73045000  0.35226000  1.0
  O  O117  1  0.05966000  0.25476000  0.60930000  1.0
  O  O118  1  0.32502000  0.30306000  0.65054000  1.0
  O  O119  1  0.67299000  0.27187000  0.65223000  1.0
  O  O120  1  0.47152000  0.05157000  0.54590000  1.0
  O  O121  1  0.75160000  0.87759000  0.50443000  1.0
  O  O122  1  0.96908000  0.65280000  0.25783000  1.0
  O  O123  1  0.75170000  0.65324000  0.30367000  1.0
  O  O124  1  0.36867000  0.62185000  0.26960000  1.0
  O  O125  1  0.80438000  0.35454000  0.74521000  1.0
  O  O126  1  0.02172000  0.34749000  0.69695000  1.0
  O  O127  1  0.40062000  0.38044000  0.72813000  1.0
  O  O128  1  0.42007000  0.49424000  0.94836000  1.0
  O  O129  1  0.87409000  0.62691000  0.12246000  1.0
  O  O130  1  0.31591000  0.60502000  0.34720000  1.0
  O  O131  1  0.09819000  0.65046000  0.34678000  1.0
  O  O132  1  0.74634000  0.64775000  0.37818000  1.0
  O  O133  1  0.44988000  0.39070000  0.64544000  1.0
  O  O134  1  0.67433000  0.34951000  0.65252000  1.0
  O  O135  1  0.02046000  0.34775000  0.61959000  1.0
  O  O136  1  0.92545000  0.45405000  0.50570000  1.0
  O  O137  1  0.24776000  0.49564000  0.37320000  1.0
