# generated using pymatgen
data_Zn2H17C15N7O9
_symmetry_space_group_name_H-M   'P 1'
_cell_length_a   6.70475000
_cell_length_b   8.99887000
_cell_length_c   16.09120000
_cell_angle_alpha   90.00000000
_cell_angle_beta   89.99990000
_cell_angle_gamma   108.56500000
_symmetry_Int_Tables_number   1
_chemical_formula_structural   Zn2H17C15N7O9
_chemical_formula_sum   'Zn4 H34 C30 N14 O18'
_cell_volume   920.34449810
_cell_formula_units_Z   2
loop_
 _symmetry_equiv_pos_site_id
 _symmetry_equiv_pos_as_xyz
  1  'x, y, z'
loop_
 _atom_site_type_symbol
 _atom_site_label
 _atom_site_symmetry_multiplicity
 _atom_site_fract_x
 _atom_site_fract_y
 _atom_site_fract_z
 _atom_site_occupancy
  Zn  Zn0  1  0.22958000  0.71731000  0.59978000  1.0
  Zn  Zn1  1  0.77042000  0.28270000  0.09978000  1.0
  Zn  Zn2  1  0.90426000  0.86780000  0.82259000  1.0
  Zn  Zn3  1  0.09574000  0.13220000  0.32259000  1.0
  H  H4  1  0.61798000  0.33631000  0.73520000  1.0
  H  H5  1  0.38203000  0.66369000  0.23520000  1.0
  H  H6  1  0.71785000  0.26746000  0.82448000  1.0
  H  H7  1  0.28215000  0.73254000  0.32448000  1.0
  H  H8  1  0.83799000  0.53258000  0.88386000  1.0
  H  H9  1  0.16201000  0.46742000  0.38386000  1.0
  H  H10  1  0.94410000  0.53875000  0.78227000  1.0
  H  H11  1  0.05590000  0.46125000  0.28227000  1.0
  H  H12  1  0.20592000  0.43543000  0.85687000  1.0
  H  H13  1  0.79408000  0.56457000  0.35687000  1.0
  H  H14  1  0.30464000  0.43465000  0.75282000  1.0
  H  H15  1  0.69536000  0.56536000  0.25282000  1.0
  H  H16  1  0.34384000  0.22009000  0.82933000  1.0
  H  H17  1  0.65616000  0.77991000  0.32933000  1.0
  H  H18  1  0.46842000  0.33980000  0.90875000  1.0
  H  H19  1  0.53158000  0.66020000  0.40875000  1.0
  H  H20  1  0.43011000  0.70273000  0.80803000  1.0
  H  H21  1  0.56989000  0.29727000  0.30803000  1.0
  H  H22  1  0.52327000  0.63805000  0.90044000  1.0
  H  H23  1  0.47673000  0.36194000  0.40044000  1.0
  H  H24  1  0.88071000  0.20132000  0.58784000  1.0
  H  H25  1  0.11929000  0.79868000  0.08784000  1.0
  H  H26  1  0.16940000  0.22581000  0.65192000  1.0
  H  H27  1  0.83060000  0.77419000  0.15192000  1.0
  H  H28  1  0.85720000  0.78937000  0.52947000  1.0
  H  H29  1  0.14280000  0.21063000  0.02947000  1.0
  H  H30  1  0.83010000  0.94753000  0.47240000  1.0
  H  H31  1  0.16990000  0.05247000  0.97240000  1.0
  H  H32  1  0.10725000  0.70626000  0.93503000  1.0
  H  H33  1  0.89274000  0.29374000  0.43503000  1.0
  H  H34  1  0.27264000  0.85742000  0.89359000  1.0
  H  H35  1  0.72736000  0.14258000  0.39359000  1.0
  H  H36  1  0.69103000  0.64799000  0.73039000  1.0
  H  H37  1  0.30897000  0.35200000  0.23039000  1.0
  C  C38  1  0.65110000  0.35618000  0.80148000  1.0
  C  C39  1  0.34891000  0.64382000  0.30148000  1.0
  C  C40  1  0.79853000  0.52034000  0.81767000  1.0
  C  C41  1  0.20147000  0.47966000  0.31767000  1.0
  C  C42  1  0.34726000  0.45293000  0.81879000  1.0
  C  C43  1  0.65274000  0.54707000  0.31879000  1.0
  C  C44  1  0.49888000  0.61705000  0.83346000  1.0
  C  C45  1  0.50112000  0.38295000  0.33346000  1.0
  C  C46  1  0.64598000  0.94628000  0.67514000  1.0
  C  C47  1  0.35402000  0.05372000  0.17514000  1.0
  C  C48  1  0.72208000  0.20433000  0.59960000  1.0
  C  C49  1  0.27792000  0.79567000  0.09960000  1.0
  C  C50  1  0.57884000  0.07908000  0.64132000  1.0
  C  C51  1  0.42116000  0.92092000  0.14132000  1.0
  C  C52  1  0.37897000  0.08838000  0.66032000  1.0
  C  C53  1  0.62103000  0.91162000  0.16032000  1.0
  C  C54  1  0.46496000  0.34189000  0.59196000  1.0
  C  C55  1  0.53504000  0.65811000  0.09197000  1.0
  C  C56  1  0.23095000  0.97527000  0.71736000  1.0
  C  C57  1  0.76905000  0.02473000  0.21737000  1.0
  C  C58  1  0.84240000  0.47626000  0.54409000  1.0
  C  C59  1  0.15760000  0.52374000  0.04409000  1.0
  C  C60  1  0.32311000  0.21821000  0.63485000  1.0
  C  C61  1  0.67689000  0.78179000  0.13485000  1.0
  C  C62  1  0.66887000  0.33639000  0.57606000  1.0
  C  C63  1  0.33113000  0.66361000  0.07606000  1.0
  C  C64  1  0.12051000  0.91698000  0.46663000  1.0
  C  C65  1  0.87948000  0.08302000  0.96663000  1.0
  C  C66  1  0.40273000  0.48266000  0.56931000  1.0
  C  C67  1  0.59727000  0.51735000  0.06931000  1.0
  N  N68  1  0.70786000  0.64441000  0.79398000  1.0
  N  N69  1  0.29214000  0.35559000  0.29398000  1.0
  N  N70  1  0.44510000  0.33182000  0.84448000  1.0
  N  N71  1  0.55490000  0.66818000  0.34448000  1.0
  N  N72  1  0.44748000  0.92308000  0.46095000  1.0
  N  N73  1  0.55252000  0.07692000  0.96095000  1.0
  N  N74  1  0.26061000  0.85300000  0.49931000  1.0
  N  N75  1  0.73939000  0.14700000  0.99931000  1.0
  N  N76  1  0.91428000  0.87445000  0.48576000  1.0
  N  N77  1  0.08572000  0.12556000  0.98576000  1.0
  N  N78  1  0.22087000  0.02537000  0.40954000  1.0
  N  N79  1  0.77913000  0.97463000  0.90954000  1.0
  N  N80  1  0.42444000  0.02481000  0.40793000  1.0
  N  N81  1  0.57555000  0.97519000  0.90793000  1.0
  O  O82  1  0.80135000  0.98819000  0.72458000  1.0
  O  O83  1  0.19865000  0.01180000  0.22459000  1.0
  O  O84  1  0.54524000  0.80613000  0.65491000  1.0
  O  O85  1  0.45476000  0.19387000  0.15491000  1.0
  O  O86  1  0.14796000  0.83091000  0.70005000  1.0
  O  O87  1  0.85204000  0.16909000  0.20005000  1.0
  O  O88  1  0.93100000  0.46368000  0.47637000  1.0
  O  O89  1  0.06900000  0.53632000  0.97637000  1.0
  O  O90  1  0.89585000  0.59594000  0.59202000  1.0
  O  O91  1  0.10415000  0.40406000  0.09202000  1.0
  O  O92  1  0.18637000  0.03400000  0.78467000  1.0
  O  O93  1  0.81362000  0.96600000  0.28467000  1.0
  O  O94  1  0.48181000  0.56242000  0.50660000  1.0
  O  O95  1  0.51820000  0.43758000  0.00660000  1.0
  O  O96  1  0.26798000  0.51077000  0.61902000  1.0
  O  O97  1  0.73202000  0.48923000  0.11902000  1.0
  O  O98  1  0.12195000  0.81004000  0.90682000  1.0
  O  O99  1  0.87805000  0.18996000  0.40682000  1.0
