# generated using pymatgen
data_Cu4H24C25I4(NO)4
_symmetry_space_group_name_H-M   'P 1'
_cell_length_a   11.77260000
_cell_length_b   12.84410000
_cell_length_c   12.89790793
_cell_angle_alpha   78.41709282
_cell_angle_beta   62.84643131
_cell_angle_gamma   63.89880000
_symmetry_Int_Tables_number   1
_chemical_formula_structural   Cu4H24C25I4(NO)4
_chemical_formula_sum   'Cu8 H48 C50 I8 N8 O8'
_cell_volume   1558.35489547
_cell_formula_units_Z   2
loop_
 _symmetry_equiv_pos_site_id
 _symmetry_equiv_pos_as_xyz
  1  'x, y, z'
loop_
 _atom_site_type_symbol
 _atom_site_label
 _atom_site_symmetry_multiplicity
 _atom_site_fract_x
 _atom_site_fract_y
 _atom_site_fract_z
 _atom_site_occupancy
  Cu  Cu0  1  0.02094000  0.71976000  0.14163000  1.0
  Cu  Cu1  1  0.88506000  0.78015000  0.35511000  1.0
  Cu  Cu2  1  0.23800000  0.14186000  0.78249000  1.0
  Cu  Cu3  1  0.16649000  0.35433000  0.72178000  1.0
  Cu  Cu4  1  0.97906000  0.28025000  0.85837000  1.0
  Cu  Cu5  1  0.11493000  0.21985000  0.64490000  1.0
  Cu  Cu6  1  0.76201000  0.85815000  0.21751000  1.0
  Cu  Cu7  1  0.83351000  0.64567000  0.27822000  1.0
  H  H8  1  0.19853000  0.82591000  0.94508000  1.0
  H  H9  1  0.97072000  0.67441000  0.55153000  1.0
  H  H10  1  0.52040000  0.94935000  0.67271000  1.0
  H  H11  1  0.14450000  0.55328000  0.82779000  1.0
  H  H12  1  0.80147000  0.17409000  0.05492000  1.0
  H  H13  1  0.02929000  0.32559000  0.44846000  1.0
  H  H14  1  0.47962000  0.05065000  0.32728000  1.0
  H  H15  1  0.85550000  0.44672000  0.17221000  1.0
  H  H16  1  0.24220000  0.49041000  0.06321000  1.0
  H  H17  1  0.79675000  0.00905000  0.43785000  1.0
  H  H18  1  0.23442000  0.06058000  0.01110000  1.0
  H  H19  1  0.30728000  0.43564000  0.49135000  1.0
  H  H20  1  0.75779000  0.50959000  0.93679000  1.0
  H  H21  1  0.20326000  0.99095000  0.56215000  1.0
  H  H22  1  0.76558000  0.93942000  0.98890000  1.0
  H  H23  1  0.69273000  0.56435000  0.50864000  1.0
  H  H24  1  0.43823000  0.75224000  0.78350000  1.0
  H  H25  1  0.97370000  0.75039000  0.71428000  1.0
  H  H26  1  0.68622000  0.78969000  0.74525000  1.0
  H  H27  1  0.22078000  0.71795000  0.75208000  1.0
  H  H28  1  0.56177000  0.24776000  0.21650000  1.0
  H  H29  1  0.02630000  0.24961000  0.28572000  1.0
  H  H30  1  0.31379000  0.21030000  0.25475000  1.0
  H  H31  1  0.77922000  0.28205000  0.24792000  1.0
  H  H32  1  0.68288000  0.25760000  0.88525000  1.0
  H  H33  1  0.82242000  0.24844000  0.61781000  1.0
  H  H34  1  0.44096000  0.88433000  0.24506000  1.0
  H  H35  1  0.56881000  0.61915000  0.25383000  1.0
  H  H36  1  0.31711000  0.74240000  0.11476000  1.0
  H  H37  1  0.17758000  0.75156000  0.38219000  1.0
  H  H38  1  0.55904000  0.11567000  0.75494000  1.0
  H  H39  1  0.43119000  0.38085000  0.74617000  1.0
  H  H40  1  0.68136000  0.37522000  0.78684000  1.0
  H  H41  1  0.83832000  0.13102000  0.71642000  1.0
  H  H42  1  0.55546000  0.78742000  0.12602000  1.0
  H  H43  1  0.46752000  0.71719000  0.37200000  1.0
  H  H44  1  0.31864000  0.62478000  0.21316000  1.0
  H  H45  1  0.16167000  0.86898000  0.28359000  1.0
  H  H46  1  0.44454000  0.21258000  0.87398000  1.0
  H  H47  1  0.53248000  0.28281000  0.62800000  1.0
  H  H48  1  0.58597000  0.54089000  0.76442000  1.0
  H  H49  1  0.88985000  0.96290000  0.73612000  1.0
  H  H50  1  0.62508000  0.76735000  0.95800000  1.0
  H  H51  1  0.35019000  0.73830000  0.53902000  1.0
  H  H52  1  0.41403000  0.45911000  0.23559000  1.0
  H  H53  1  0.11015000  0.03710000  0.26388000  1.0
  H  H54  1  0.37492000  0.23265000  0.04200000  1.0
  H  H55  1  0.64981000  0.26170000  0.46098000  1.0
  C  C56  1  0.26507000  0.73351000  0.93354000  1.0
  C  C57  1  0.93293000  0.76719000  0.56433000  1.0
  C  C58  1  0.49559000  0.93669000  0.76555000  1.0
  C  C59  1  0.19954000  0.56553000  0.73474000  1.0
  C  C60  1  0.73493000  0.26649000  0.06646000  1.0
  C  C61  1  0.06707000  0.23281000  0.43567000  1.0
  C  C62  1  0.50442000  0.06331000  0.23445000  1.0
  C  C63  1  0.80046000  0.43446000  0.26526000  1.0
  C  C64  1  0.28837000  0.54672000  0.99986000  1.0
  C  C65  1  0.83566000  0.95345000  0.50042000  1.0
  C  C66  1  0.33545000  0.99914000  0.95379000  1.0
  C  C67  1  0.28990000  0.49934000  0.54744000  1.0
  C  C68  1  0.71162000  0.45328000  0.00014000  1.0
  C  C69  1  0.16434000  0.04655000  0.49958000  1.0
  C  C70  1  0.66456000  0.00086000  0.04620000  1.0
  C  C71  1  0.71010000  0.50066000  0.45256000  1.0
  C  C72  1  0.42452000  0.49865000  0.91345000  1.0
  C  C73  1  0.83603000  0.00296000  0.58768000  1.0
  C  C74  1  0.42334000  0.91340000  0.00144000  1.0
  C  C75  1  0.33873000  0.58743000  0.49811000  1.0
  C  C76  1  0.57548000  0.50136000  0.08655000  1.0
  C  C77  1  0.16397000  0.99704000  0.41232000  1.0
  C  C78  1  0.57666000  0.08660000  0.99856000  1.0
  C  C79  1  0.66127000  0.41257000  0.50188000  1.0
  C  C80  1  0.39857000  0.69164000  0.84478000  1.0
  C  C81  1  0.93478000  0.81039000  0.65385000  1.0
  C  C82  1  0.58719000  0.84884000  0.80688000  1.0
  C  C83  1  0.24321000  0.65610000  0.69163000  1.0
  C  C84  1  0.60143000  0.30836000  0.15522000  1.0
  C  C85  1  0.06522000  0.18960000  0.34616000  1.0
  C  C86  1  0.41282000  0.15115000  0.19312000  1.0
  C  C87  1  0.75680000  0.34390000  0.30836000  1.0
  C  C88  1  0.62405000  0.25069000  0.75101000  1.0
  C  C89  1  0.37595000  0.74932000  0.24899000  1.0
  C  C90  1  0.62653000  0.31831000  0.83488000  1.0
  C  C91  1  0.77672000  0.18594000  0.66783000  1.0
  C  C92  1  0.44531000  0.83408000  0.18285000  1.0
  C  C93  1  0.46173000  0.66788000  0.31562000  1.0
  C  C94  1  0.37346000  0.68169000  0.16512000  1.0
  C  C95  1  0.22328000  0.81406000  0.33217000  1.0
  C  C96  1  0.55469000  0.16592000  0.81715000  1.0
  C  C97  1  0.53827000  0.33212000  0.68438000  1.0
  C  C98  1  0.48137000  0.57301000  0.83378000  1.0
  C  C99  1  0.88719000  0.92962000  0.66644000  1.0
  C  C100  1  0.55285000  0.83609000  0.92615000  1.0
  C  C101  1  0.31522000  0.66785000  0.57210000  1.0
  C  C102  1  0.51864000  0.42699000  0.16622000  1.0
  C  C103  1  0.11281000  0.07038000  0.33356000  1.0
  C  C104  1  0.44715000  0.16391000  0.07385000  1.0
  C  C105  1  0.68478000  0.33215000  0.42790000  1.0
  I  I106  1  0.95464000  0.93990000  0.17970000  1.0
  I  I107  1  0.06956000  0.56191000  0.31736000  1.0
  I  I108  1  0.38918000  0.18077000  0.56181000  1.0
  I  I109  1  0.13410000  0.31683000  0.94186000  1.0
  I  I110  1  0.04536000  0.06010000  0.82030000  1.0
  I  I111  1  0.93044000  0.43809000  0.68264000  1.0
  I  I112  1  0.61082000  0.81924000  0.43818000  1.0
  I  I113  1  0.86590000  0.68317000  0.05814000  1.0
  N  N114  1  0.21114000  0.66117000  0.01055000  1.0
  N  N115  1  0.88437000  0.83865000  0.48806000  1.0
  N  N116  1  0.37090000  0.01138000  0.83888000  1.0
  N  N117  1  0.22383000  0.48765000  0.66266000  1.0
  N  N118  1  0.78886000  0.33883000  0.98945000  1.0
  N  N119  1  0.11563000  0.16135000  0.51194000  1.0
  N  N120  1  0.62910000  0.98862000  0.16112000  1.0
  N  N121  1  0.77618000  0.51235000  0.33733000  1.0
  O  O122  1  0.48783000  0.38119000  0.91878000  1.0
  O  O123  1  0.78656000  0.12072000  0.58347000  1.0
  O  O124  1  0.37038000  0.91732000  0.11958000  1.0
  O  O125  1  0.40707000  0.58278000  0.37990000  1.0
  O  O126  1  0.51217000  0.61881000  0.08122000  1.0
  O  O127  1  0.21344000  0.87928000  0.41653000  1.0
  O  O128  1  0.62962000  0.08268000  0.88042000  1.0
  O  O129  1  0.59293000  0.41722000  0.62010000  1.0
