# generated using pymatgen
data_H4PbC7SN2O3
_symmetry_space_group_name_H-M   'P 1'
_cell_length_a   7.28863000
_cell_length_b   9.30853000
_cell_length_c   13.95950000
_cell_angle_alpha   89.99960000
_cell_angle_beta   90.00000000
_cell_angle_gamma   108.35800000
_symmetry_Int_Tables_number   1
_chemical_formula_structural   H4PbC7SN2O3
_chemical_formula_sum   'H16 Pb4 C28 S4 N8 O12'
_cell_volume   898.90151085
_cell_formula_units_Z   4
loop_
 _symmetry_equiv_pos_site_id
 _symmetry_equiv_pos_as_xyz
  1  'x, y, z'
loop_
 _atom_site_type_symbol
 _atom_site_label
 _atom_site_symmetry_multiplicity
 _atom_site_fract_x
 _atom_site_fract_y
 _atom_site_fract_z
 _atom_site_occupancy
  H  H0  1  0.89309000  0.59091000  0.02884000  1.0
  H  H1  1  0.60692000  0.40909000  0.52885000  1.0
  H  H2  1  0.10692000  0.40909000  0.97116000  1.0
  H  H3  1  0.39308000  0.59091000  0.47116000  1.0
  H  H4  1  0.89513000  0.81145000  0.92358000  1.0
  H  H5  1  0.60486000  0.18856000  0.42358000  1.0
  H  H6  1  0.10486000  0.18855000  0.07642000  1.0
  H  H7  1  0.39514000  0.81144000  0.57642000  1.0
  H  H8  1  0.46921000  0.53833000  0.74765000  1.0
  H  H9  1  0.03078000  0.46167000  0.24765000  1.0
  H  H10  1  0.53078000  0.46167000  0.25235000  1.0
  H  H11  1  0.96921000  0.53833000  0.75235000  1.0
  H  H12  1  0.44583000  0.30660000  0.84730000  1.0
  H  H13  1  0.05415000  0.69340000  0.34730000  1.0
  H  H14  1  0.55416000  0.69340000  0.15270000  1.0
  H  H15  1  0.94583000  0.30660000  0.65270000  1.0
  Pb  Pb16  1  0.57285000  0.04782000  0.15142000  1.0
  Pb  Pb17  1  0.92716000  0.95218000  0.65142000  1.0
  Pb  Pb18  1  0.42717000  0.95219000  0.84858000  1.0
  Pb  Pb19  1  0.07285000  0.04783000  0.34857000  1.0
  C  C20  1  0.65060000  0.29892000  0.01186000  1.0
  C  C21  1  0.84940000  0.70108000  0.51186000  1.0
  C  C22  1  0.34940000  0.70108000  0.98814000  1.0
  C  C23  1  0.15059000  0.29892000  0.48814000  1.0
  C  C24  1  0.66809000  0.43008000  0.94643000  1.0
  C  C25  1  0.83191000  0.56993000  0.44643000  1.0
  C  C26  1  0.33191000  0.56993000  0.05357000  1.0
  C  C27  1  0.16809000  0.43008000  0.55356000  1.0
  C  C28  1  0.79742000  0.57325000  0.96705000  1.0
  C  C29  1  0.70257000  0.42676000  0.46706000  1.0
  C  C30  1  0.20257000  0.42675000  0.03294000  1.0
  C  C31  1  0.29743000  0.57325000  0.53295000  1.0
  C  C32  1  0.80077000  0.69656000  0.91121000  1.0
  C  C33  1  0.69923000  0.30344000  0.41121000  1.0
  C  C34  1  0.19923000  0.30344000  0.08879000  1.0
  C  C35  1  0.30077000  0.69656000  0.58879000  1.0
  C  C36  1  0.55688000  0.54031000  0.81076000  1.0
  C  C37  1  0.94311000  0.45969000  0.31076000  1.0
  C  C38  1  0.44312000  0.45969000  0.18924000  1.0
  C  C39  1  0.05687000  0.54031000  0.68924000  1.0
  C  C40  1  0.54861000  0.41552000  0.86619000  1.0
  C  C41  1  0.95138000  0.58448000  0.36618000  1.0
  C  C42  1  0.45138000  0.58448000  0.13381000  1.0
  C  C43  1  0.04861000  0.41552000  0.63381000  1.0
  C  C44  1  0.95836000  0.90286000  0.12941000  1.0
  C  C45  1  0.54165000  0.09715000  0.62941000  1.0
  C  C46  1  0.04165000  0.09714000  0.87059000  1.0
  C  C47  1  0.45835000  0.90286000  0.37059000  1.0
  S  S48  1  0.09160000  0.80227000  0.16374000  1.0
  S  S49  1  0.40843000  0.19773000  0.66375000  1.0
  S  S50  1  0.90842000  0.19772000  0.83625000  1.0
  S  S51  1  0.59158000  0.80227000  0.33625000  1.0
  N  N52  1  0.67841000  0.67968000  0.83512000  1.0
  N  N53  1  0.82159000  0.32032000  0.33513000  1.0
  N  N54  1  0.32159000  0.32032000  0.16487000  1.0
  N  N55  1  0.17841000  0.67968000  0.66487000  1.0
  N  N56  1  0.86377000  0.97984000  0.10492000  1.0
  N  N57  1  0.63626000  0.02016000  0.60492000  1.0
  N  N58  1  0.13625000  0.02015000  0.89508000  1.0
  N  N59  1  0.36375000  0.97984000  0.39507000  1.0
  O  O60  1  0.74527000  0.32220000  0.08971000  1.0
  O  O61  1  0.75472000  0.67781000  0.58971000  1.0
  O  O62  1  0.25472000  0.67781000  0.91029000  1.0
  O  O63  1  0.24527000  0.32219000  0.41029000  1.0
  O  O64  1  0.53280000  0.16856000  0.98943000  1.0
  O  O65  1  0.96718000  0.83144000  0.48942000  1.0
  O  O66  1  0.46720000  0.83144000  0.01057000  1.0
  O  O67  1  0.03280000  0.16856000  0.51058000  1.0
  O  O68  1  0.67204000  0.80003000  0.78652000  1.0
  O  O69  1  0.82795000  0.19997000  0.28652000  1.0
  O  O70  1  0.32795000  0.19997000  0.21348000  1.0
  O  O71  1  0.17205000  0.80003000  0.71348000  1.0
