# generated using pymatgen
data_CuPH8C3NO4
_symmetry_space_group_name_H-M   'P 1'
_cell_length_a   5.98320000
_cell_length_b   5.98468000
_cell_length_c   9.15595000
_cell_angle_alpha   97.99020000
_cell_angle_beta   91.80330000
_cell_angle_gamma   110.71300000
_symmetry_Int_Tables_number   1
_chemical_formula_structural   CuPH8C3NO4
_chemical_formula_sum   'Cu2 P2 H16 C6 N2 O8'
_cell_volume   302.53102959
_cell_formula_units_Z   2
loop_
 _symmetry_equiv_pos_site_id
 _symmetry_equiv_pos_as_xyz
  1  'x, y, z'
loop_
 _atom_site_type_symbol
 _atom_site_label
 _atom_site_symmetry_multiplicity
 _atom_site_fract_x
 _atom_site_fract_y
 _atom_site_fract_z
 _atom_site_occupancy
  Cu  Cu0  1  0.89544000  0.84047000  0.62315000  1.0
  Cu  Cu1  1  0.10456000  0.15953000  0.37685000  1.0
  P  P2  1  0.99355000  0.38664000  0.70786000  1.0
  P  P3  1  0.00643000  0.61336000  0.29214000  1.0
  H  H4  1  0.40912000  0.70371000  0.66123000  1.0
  H  H5  1  0.59087000  0.29629000  0.33877000  1.0
  H  H6  1  0.42554000  0.71830000  0.49310000  1.0
  H  H7  1  0.57445000  0.28170000  0.50690000  1.0
  H  H8  1  0.64327000  0.10887000  0.79113000  1.0
  H  H9  1  0.35674000  0.89114000  0.20887000  1.0
  H  H10  1  0.84004000  0.29638000  0.94710000  1.0
  H  H11  1  0.15996000  0.70362000  0.05290000  1.0
  H  H12  1  0.28609000  0.21422000  0.83737000  1.0
  H  H13  1  0.71391000  0.78577000  0.16263000  1.0
  H  H14  1  0.23388000  0.91766000  0.87757000  1.0
  H  H15  1  0.76612000  0.08233000  0.12243000  1.0
  H  H16  1  0.82912000  0.65742000  0.91688000  1.0
  H  H17  1  0.17089000  0.34257000  0.08312000  1.0
  H  H18  1  0.58826000  0.75856000  0.89834000  1.0
  H  H19  1  0.41174000  0.24143000  0.10166000  1.0
  C  C20  1  0.83108000  0.19139000  0.83677000  1.0
  C  C21  1  0.16892000  0.80861000  0.16323000  1.0
  C  C22  1  0.17980000  0.07545000  0.89971000  1.0
  C  C23  1  0.82020000  0.92454000  0.10028000  1.0
  C  C24  1  0.77900000  0.81744000  0.93594000  1.0
  C  C25  1  0.22100000  0.18255000  0.06406000  1.0
  N  N26  1  0.92238000  0.99101000  0.84322000  1.0
  N  N27  1  0.07763000  0.00899000  0.15677000  1.0
  O  O28  1  0.02972000  0.19066000  0.58773000  1.0
  O  O29  1  0.97029000  0.80935000  0.41226000  1.0
  O  O30  1  0.22718000  0.56947000  0.78588000  1.0
  O  O31  1  0.77283000  0.43055000  0.21412000  1.0
  O  O32  1  0.82147000  0.49892000  0.64680000  1.0
  O  O33  1  0.17852000  0.50108000  0.35319000  1.0
  O  O34  1  0.51171000  0.79837000  0.59065000  1.0
  O  O35  1  0.48829000  0.20163000  0.40937000  1.0
