# generated using pymatgen
data_Cu3H12C21N7O3
_symmetry_space_group_name_H-M   'P 1'
_cell_length_a   19.63310000
_cell_length_b   26.74680000
_cell_length_c   26.82240000
_cell_angle_alpha   98.44580000
_cell_angle_beta   101.55500000
_cell_angle_gamma   105.66100000
_symmetry_Int_Tables_number   1
_chemical_formula_structural   Cu3H12C21N7O3
_chemical_formula_sum   'Cu12 H48 C84 N28 O12'
_cell_volume   12982.34000801
_cell_formula_units_Z   4
loop_
 _symmetry_equiv_pos_site_id
 _symmetry_equiv_pos_as_xyz
  1  'x, y, z'
loop_
 _atom_site_type_symbol
 _atom_site_label
 _atom_site_symmetry_multiplicity
 _atom_site_fract_x
 _atom_site_fract_y
 _atom_site_fract_z
 _atom_site_occupancy
  Cu  Cu0  1  0.64835000  0.54526000  0.41473000  1.0
  Cu  Cu1  1  0.63527000  0.65171000  0.38668000  1.0
  Cu  Cu2  1  0.58060000  0.54974000  0.29725000  1.0
  Cu  Cu3  1  0.15497000  0.40101000  0.08049000  1.0
  Cu  Cu4  1  0.07613000  0.30502000  0.12733000  1.0
  Cu  Cu5  1  0.06157000  0.41479000  0.16611000  1.0
  Cu  Cu6  1  0.74347000  0.09483000  0.56361000  1.0
  Cu  Cu7  1  0.89250000  0.18961000  0.60047000  1.0
  Cu  Cu8  1  0.85493000  0.09696000  0.66493000  1.0
  Cu  Cu9  1  0.40827000  0.96704000  0.95405000  1.0
  Cu  Cu10  1  0.50850000  0.89186000  0.94296000  1.0
  Cu  Cu11  1  0.48422000  0.96237000  0.86086000  1.0
  H  H12  1  0.65227000  0.56923000  0.53662000  1.0
  H  H13  1  0.65945000  0.72221000  0.49836000  1.0
  H  H14  1  0.59817000  0.44505000  0.23692000  1.0
  H  H15  1  0.70048000  0.44327000  0.39535000  1.0
  H  H16  1  0.60994000  0.73812000  0.32257000  1.0
  H  H17  1  0.48747000  0.59308000  0.20802000  1.0
  H  H18  1  0.20599000  0.33629000  0.99071000  1.0
  H  H19  1  0.10696000  0.21042000  0.06309000  1.0
  H  H20  1  0.10447000  0.53714000  0.19647000  1.0
  H  H21  1  0.23677000  0.52359000  0.08681000  1.0
  H  H22  1  0.99054000  0.23561000  0.19521000  1.0
  H  H23  1  0.95269000  0.38608000  0.24144000  1.0
  H  H24  1  0.66171000  0.13001000  0.46856000  1.0
  H  H25  1  0.87109000  0.25305000  0.50784000  1.0
  H  H26  1  0.78384000  0.98201000  0.68675000  1.0
  H  H27  1  0.63234000  0.97831000  0.54333000  1.0
  H  H28  1  0.05055000  0.25782000  0.66986000  1.0
  H  H29  1  0.99480000  0.13655000  0.75867000  1.0
  H  H30  1  0.32280000  0.91695000  0.03178000  1.0
  H  H31  1  0.46319000  0.81773000  0.02056000  1.0
  H  H32  1  0.43436000  0.04651000  0.80449000  1.0
  H  H33  1  0.33949000  0.06128000  0.93652000  1.0
  H  H34  1  0.62030000  0.83949000  0.90190000  1.0
  H  H35  1  0.56284000  0.91946000  0.77800000  1.0
  H  H36  1  0.16250000  0.14338000  0.00522000  1.0
  H  H37  1  0.20511000  0.10815000  0.91873000  1.0
  H  H38  1  0.62619000  0.61288000  0.63566000  1.0
  H  H39  1  0.62325000  0.69420000  0.70978000  1.0
  H  H40  1  0.23475000  0.83579000  0.07010000  1.0
  H  H41  1  0.21979000  0.76157000  0.13099000  1.0
  H  H42  1  0.60734000  0.19484000  0.40871000  1.0
  H  H43  1  0.61739000  0.24277000  0.32531000  1.0
  H  H44  1  0.36031000  0.11152000  0.76317000  1.0
  H  H45  1  0.28285000  0.18274000  0.76486000  1.0
  H  H46  1  0.64193000  0.35701000  0.20329000  1.0
  H  H47  1  0.70713000  0.27927000  0.21554000  1.0
  H  H48  1  0.56070000  0.87119000  0.54155000  1.0
  H  H49  1  0.54050000  0.77815000  0.57652000  1.0
  H  H50  1  0.17829000  0.64116000  0.22874000  1.0
  H  H51  1  0.27413000  0.73681000  0.22731000  1.0
  H  H52  1  0.18104000  0.30856000  0.75654000  1.0
  H  H53  1  0.28977000  0.30233000  0.83568000  1.0
  H  H54  1  0.59586000  0.78657000  0.22774000  1.0
  H  H55  1  0.48623000  0.81353000  0.16764000  1.0
  H  H56  1  0.91993000  0.19769000  0.26890000  1.0
  H  H57  1  0.81256000  0.19059000  0.32152000  1.0
  H  H58  1  0.73981000  0.82996000  0.85175000  1.0
  H  H59  1  0.76844000  0.78857000  0.76094000  1.0
  C  C60  1  0.65391000  0.60319000  0.51868000  1.0
  C  C61  1  0.65561000  0.65479000  0.54030000  1.0
  C  C62  1  0.65795000  0.68147000  0.49896000  1.0
  C  C63  1  0.61966000  0.45195000  0.27872000  1.0
  C  C64  1  0.65812000  0.42417000  0.30797000  1.0
  C  C65  1  0.67200000  0.45115000  0.35977000  1.0
  C  C66  1  0.58584000  0.69769000  0.29996000  1.0
  C  C67  1  0.53703000  0.67898000  0.25039000  1.0
  C  C68  1  0.52243000  0.62354000  0.24151000  1.0
  C  C69  1  0.17911000  0.31177000  0.01425000  1.0
  C  C70  1  0.16479000  0.25690000  0.01175000  1.0
  C  C71  1  0.12880000  0.24737000  0.05133000  1.0
  C  C72  1  0.13152000  0.52461000  0.16763000  1.0
  C  C73  1  0.18474000  0.55520000  0.14698000  1.0
  C  C74  1  0.19908000  0.51759000  0.11153000  1.0
  C  C75  1  0.98903000  0.27625000  0.20150000  1.0
  C  C76  1  0.95268000  0.30084000  0.23278000  1.0
  C  C77  1  0.96933000  0.35317000  0.22492000  1.0
  C  C78  1  0.71671000  0.15678000  0.48566000  1.0
  C  C79  1  0.75536000  0.20112000  0.46932000  1.0
  C  C80  1  0.82400000  0.21946000  0.50545000  1.0
  C  C81  1  0.75333000  0.99001000  0.65203000  1.0
  C  C82  1  0.69118000  0.95630000  0.61411000  1.0
  C  C83  1  0.67568000  0.98804000  0.57870000  1.0
  C  C84  1  0.02538000  0.22454000  0.68574000  1.0
  C  C85  1  0.05291000  0.20760000  0.73053000  1.0
  C  C86  1  0.99678000  0.16222000  0.73087000  1.0
  C  C87  1  0.36266000  0.89777000  0.02358000  1.0
  C  C88  1  0.37727000  0.85323000  0.03978000  1.0
  C  C89  1  0.43482000  0.84727000  0.01810000  1.0
  C  C90  1  0.41570000  0.04359000  0.83969000  1.0
  C  C91  1  0.37382000  0.07109000  0.86219000  1.0
  C  C92  1  0.36737000  0.05120000  0.90729000  1.0
  C  C93  1  0.60016000  0.86346000  0.87683000  1.0
  C  C94  1  0.60999000  0.86960000  0.82739000  1.0
  C  C95  1  0.57001000  0.90387000  0.81315000  1.0
  C  C96  1  0.18237000  0.21808000  0.97778000  1.0
  C  C97  1  0.17911000  0.16599000  0.97687000  1.0
  C  C98  1  0.20148000  0.14735000  0.93200000  1.0
  C  C99  1  0.21799000  0.18966000  0.90849000  1.0
  C  C100  1  0.65200000  0.67566000  0.59186000  1.0
  C  C101  1  0.63659000  0.65434000  0.63340000  1.0
  C  C102  1  0.63425000  0.69636000  0.67204000  1.0
  C  C103  1  0.64950000  0.74114000  0.65180000  1.0
  C  C104  1  0.33880000  0.82048000  0.06960000  1.0
  C  C105  1  0.27317000  0.81472000  0.08223000  1.0
  C  C106  1  0.26476000  0.77586000  0.11374000  1.0
  C  C107  1  0.32585000  0.75965000  0.11786000  1.0
  C  C108  1  0.72692000  0.22119000  0.42535000  1.0
  C  C109  1  0.65681000  0.21506000  0.39850000  1.0
  C  C110  1  0.66157000  0.24007000  0.35528000  1.0
  C  C111  1  0.73465000  0.26079000  0.35893000  1.0
  C  C112  1  0.34352000  0.10907000  0.84124000  1.0
  C  C113  1  0.33840000  0.12520000  0.79477000  1.0
  C  C114  1  0.29782000  0.16220000  0.79519000  1.0
  C  C115  1  0.28105000  0.16668000  0.84259000  1.0
  C  C116  1  0.67954000  0.37925000  0.28864000  1.0
  C  C117  1  0.67021000  0.35027000  0.23957000  1.0
  C  C118  1  0.70389000  0.30971000  0.24567000  1.0
  C  C119  1  0.73246000  0.31676000  0.29806000  1.0
  C  C120  1  0.65335000  0.90135000  0.61075000  1.0
  C  C121  1  0.59356000  0.86433000  0.57598000  1.0
  C  C122  1  0.58261000  0.81581000  0.59399000  1.0
  C  C123  1  0.63718000  0.82597000  0.63835000  1.0
  C  C124  1  0.21816000  0.61186000  0.16278000  1.0
  C  C125  1  0.21291000  0.64895000  0.20211000  1.0
  C  C126  1  0.26261000  0.69862000  0.20157000  1.0
  C  C127  1  0.29470000  0.68918000  0.16193000  1.0
  C  C128  1  0.12347000  0.22957000  0.76696000  1.0
  C  C129  1  0.18024000  0.27606000  0.77653000  1.0
  C  C130  1  0.23671000  0.27315000  0.81780000  1.0
  C  C131  1  0.21141000  0.22540000  0.83096000  1.0
  C  C132  1  0.50955000  0.71191000  0.21868000  1.0
  C  C133  1  0.53922000  0.76234000  0.21204000  1.0
  C  C134  1  0.48236000  0.77668000  0.18069000  1.0
  C  C135  1  0.42109000  0.73350000  0.17000000  1.0
  C  C136  1  0.90752000  0.27603000  0.26393000  1.0
  C  C137  1  0.89356000  0.22752000  0.27775000  1.0
  C  C138  1  0.83748000  0.22345000  0.30510000  1.0
  C  C139  1  0.82145000  0.27037000  0.30680000  1.0
  C  C140  1  0.65087000  0.84492000  0.79833000  1.0
  C  C141  1  0.70987000  0.82700000  0.81222000  1.0
  C  C142  1  0.72547000  0.80592000  0.76525000  1.0
  C  C143  1  0.67421000  0.81149000  0.72541000  1.0
  N  N144  1  0.65716000  0.64795000  0.45589000  1.0
  N  N145  1  0.65467000  0.59952000  0.46809000  1.0
  N  N146  1  0.64386000  0.49197000  0.36103000  1.0
  N  N147  1  0.61146000  0.49250000  0.31081000  1.0
  N  N148  1  0.56012000  0.61051000  0.28291000  1.0
  N  N149  1  0.59946000  0.65659000  0.31912000  1.0
  N  N150  1  0.12252000  0.29313000  0.07556000  1.0
  N  N151  1  0.15350000  0.33310000  0.05263000  1.0
  N  N152  1  0.15758000  0.46822000  0.11151000  1.0
  N  N153  1  0.11578000  0.47274000  0.14632000  1.0
  N  N154  1  0.01242000  0.35897000  0.19136000  1.0
  N  N155  1  0.02464000  0.31141000  0.17703000  1.0
  N  N156  1  0.82558000  0.18820000  0.54067000  1.0
  N  N157  1  0.75904000  0.14945000  0.52835000  1.0
  N  N158  1  0.72526000  0.03688000  0.59436000  1.0
  N  N159  1  0.77327000  0.03812000  0.63974000  1.0
  N  N160  1  0.94016000  0.15296000  0.68928000  1.0
  N  N161  1  0.95783000  0.19149000  0.66124000  1.0
  N  N162  1  0.45257000  0.88531000  0.99072000  1.0
  N  N163  1  0.40774000  0.91649000  0.99407000  1.0
  N  N164  1  0.40271000  0.01441000  0.91100000  1.0
  N  N165  1  0.43244000  0.00976000  0.86911000  1.0
  N  N166  1  0.53889000  0.91711000  0.85153000  1.0
  N  N167  1  0.55746000  0.89204000  0.89094000  1.0
  N  N168  1  0.24348000  0.19796000  0.86446000  1.0
  N  N169  1  0.65770000  0.79419000  0.67156000  1.0
  N  N170  1  0.34776000  0.72245000  0.14328000  1.0
  N  N171  1  0.77158000  0.28989000  0.32776000  1.0
  O  O172  1  0.20742000  0.23335000  0.93577000  1.0
  O  O173  1  0.66123000  0.72986000  0.60350000  1.0
  O  O174  1  0.37158000  0.78577000  0.09116000  1.0
  O  O175  1  0.77594000  0.25053000  0.40160000  1.0
  O  O176  1  0.30786000  0.13506000  0.87141000  1.0
  O  O177  1  0.71886000  0.35920000  0.32511000  1.0
  O  O178  1  0.68134000  0.87771000  0.64930000  1.0
  O  O179  1  0.26795000  0.63619000  0.13739000  1.0
  O  O180  1  0.14201000  0.19796000  0.80011000  1.0
  O  O181  1  0.43599000  0.69330000  0.19170000  1.0
  O  O182  1  0.86387000  0.30340000  0.28289000  1.0
  O  O183  1  0.62787000  0.83504000  0.74450000  1.0
