# generated using pymatgen
data_NaH21C23S(NO3)2
_symmetry_space_group_name_H-M   'P 1'
_cell_length_a   6.00774000
_cell_length_b   8.61775000
_cell_length_c   21.40000000
_cell_angle_alpha   99.66940000
_cell_angle_beta   90.00000000
_cell_angle_gamma   90.00000000
_symmetry_Int_Tables_number   1
_chemical_formula_structural   NaH21C23S(NO3)2
_chemical_formula_sum   'Na2 H42 C46 S2 N4 O12'
_cell_volume   1092.20626120
_cell_formula_units_Z   2
loop_
 _symmetry_equiv_pos_site_id
 _symmetry_equiv_pos_as_xyz
  1  'x, y, z'
loop_
 _atom_site_type_symbol
 _atom_site_label
 _atom_site_symmetry_multiplicity
 _atom_site_fract_x
 _atom_site_fract_y
 _atom_site_fract_z
 _atom_site_occupancy
  Na  Na0  1  0.93679000  0.51070000  0.95283000  1.0
  Na  Na1  1  0.43678000  0.48930000  0.04717000  1.0
  H  H2  1  0.57539000  0.84981000  0.89194000  1.0
  H  H3  1  0.07537000  0.15019000  0.10806000  1.0
  H  H4  1  0.93498000  0.87798000  0.95667000  1.0
  H  H5  1  0.43496000  0.12203000  0.04333000  1.0
  H  H6  1  0.91101000  0.15565000  0.93382000  1.0
  H  H7  1  0.41099000  0.84435000  0.06619000  1.0
  H  H8  1  0.29130000  0.73004000  0.74067000  1.0
  H  H9  1  0.79130000  0.26996000  0.25932000  1.0
  H  H10  1  0.56072000  0.76807000  0.77505000  1.0
  H  H11  1  0.06072000  0.23193000  0.22495000  1.0
  H  H12  1  0.34618000  0.91188000  0.79090000  1.0
  H  H13  1  0.84618000  0.08812000  0.20910000  1.0
  H  H14  1  0.30858000  0.47452000  0.86686000  1.0
  H  H15  1  0.80858000  0.52548000  0.13314000  1.0
  H  H16  1  0.55030000  0.52126000  0.82673000  1.0
  H  H17  1  0.05030000  0.47874000  0.17327000  1.0
  H  H18  1  0.29556000  0.47614000  0.78429000  1.0
  H  H19  1  0.79556000  0.52386000  0.21571000  1.0
  H  H20  1  0.90834000  0.97578000  0.80371000  1.0
  H  H21  1  0.40835000  0.02422000  0.19629000  1.0
  H  H22  1  0.57423000  0.26252000  0.76239000  1.0
  H  H23  1  0.07424000  0.73746000  0.23761000  1.0
  H  H24  1  0.15419000  0.14529000  0.70483000  1.0
  H  H25  1  0.65420000  0.85471000  0.29518000  1.0
  H  H26  1  0.38237000  0.30260000  0.64239000  1.0
  H  H27  1  0.88240000  0.69741000  0.35761000  1.0
  H  H28  1  0.24109000  0.55811000  0.61927000  1.0
  H  H29  1  0.74113000  0.44189000  0.38073000  1.0
  H  H30  1  0.86533000  0.65476000  0.65879000  1.0
  H  H31  1  0.36538000  0.34524000  0.34122000  1.0
  H  H32  1  0.63464000  0.49350000  0.71935000  1.0
  H  H33  1  0.13466000  0.50649000  0.28066000  1.0
  H  H34  1  0.18634000  0.87536000  0.64230000  1.0
  H  H35  1  0.68634000  0.12463000  0.35770000  1.0
  H  H36  1  0.12527000  0.70449000  0.53708000  1.0
  H  H37  1  0.62527000  0.29550000  0.46292000  1.0
  H  H38  1  0.42002000  0.68273000  0.45394000  1.0
  H  H39  1  0.92002000  0.31728000  0.54605000  1.0
  H  H40  1  0.77192000  0.83510000  0.47539000  1.0
  H  H41  1  0.27193000  0.16491000  0.52460000  1.0
  H  H42  1  0.83076000  0.00679000  0.57989000  1.0
  H  H43  1  0.33077000  0.99321000  0.42011000  1.0
  C  C44  1  0.30931000  0.70989000  0.84020000  1.0
  C  C45  1  0.80931000  0.29011000  0.15980000  1.0
  C  C46  1  0.41324000  0.80205000  0.90273000  1.0
  C  C47  1  0.91323000  0.19795000  0.09727000  1.0
  C  C48  1  0.02469000  0.90252000  0.91485000  1.0
  C  C49  1  0.52467000  0.09748000  0.08515000  1.0
  C  C50  1  0.99752000  0.07101000  0.89806000  1.0
  C  C51  1  0.49751000  0.92899000  0.10194000  1.0
  C  C52  1  0.25671000  0.07674000  0.90124000  1.0
  C  C53  1  0.75669000  0.92327000  0.09876000  1.0
  C  C54  1  0.38091000  0.78506000  0.78337000  1.0
  C  C55  1  0.88090000  0.21495000  0.21662000  1.0
  C  C56  1  0.36838000  0.53517000  0.82907000  1.0
  C  C57  1  0.86838000  0.46484000  0.17093000  1.0
  C  C58  1  0.44183000  0.70078000  0.95511000  1.0
  C  C59  1  0.94183000  0.29921000  0.04489000  1.0
  C  C60  1  0.84232000  0.21405000  0.82014000  1.0
  C  C61  1  0.34232000  0.78594000  0.17986000  1.0
  C  C62  1  0.73967000  0.20891000  0.75397000  1.0
  C  C63  1  0.23968000  0.79109000  0.24603000  1.0
  C  C64  1  0.87825000  0.30836000  0.71566000  1.0
  C  C65  1  0.37827000  0.69164000  0.28434000  1.0
  C  C66  1  0.08928000  0.25559000  0.69384000  1.0
  C  C67  1  0.58929000  0.74441000  0.30616000  1.0
  C  C68  1  0.21816000  0.34471000  0.65885000  1.0
  C  C69  1  0.71818000  0.65530000  0.34116000  1.0
  C  C70  1  0.13818000  0.48806000  0.64588000  1.0
  C  C71  1  0.63820000  0.51194000  0.35412000  1.0
  C  C72  1  0.92795000  0.54162000  0.66760000  1.0
  C  C73  1  0.42799000  0.45838000  0.33241000  1.0
  C  C74  1  0.79788000  0.45135000  0.70208000  1.0
  C  C75  1  0.29790000  0.54864000  0.29793000  1.0
  C  C76  1  0.71329000  0.05053000  0.71162000  1.0
  C  C77  1  0.21330000  0.94946000  0.28838000  1.0
  C  C78  1  0.51273000  0.94688000  0.61642000  1.0
  C  C79  1  0.01273000  0.05311000  0.38358000  1.0
  C  C80  1  0.31361000  0.86419000  0.60549000  1.0
  C  C81  1  0.81360000  0.13580000  0.39451000  1.0
  C  C82  1  0.28120000  0.76900000  0.54651000  1.0
  C  C83  1  0.78120000  0.23099000  0.45348000  1.0
  C  C84  1  0.44603000  0.75681000  0.49991000  1.0
  C  C85  1  0.94603000  0.24319000  0.50009000  1.0
  C  C86  1  0.64440000  0.84138000  0.51200000  1.0
  C  C87  1  0.14440000  0.15861000  0.48799000  1.0
  C  C88  1  0.67900000  0.93765000  0.57048000  1.0
  C  C89  1  0.17899000  0.06235000  0.42952000  1.0
  S  S90  1  0.00279000  0.73153000  0.85197000  1.0
  S  S91  1  0.50278000  0.26848000  0.14803000  1.0
  N  N92  1  0.26482000  0.93383000  0.92346000  1.0
  N  N93  1  0.76481000  0.06618000  0.07654000  1.0
  N  N94  1  0.90796000  0.07717000  0.83644000  1.0
  N  N95  1  0.40796000  0.92283000  0.16357000  1.0
  O  O96  1  0.40197000  0.16100000  0.88569000  1.0
  O  O97  1  0.90197000  0.83900000  0.11431000  1.0
  O  O98  1  0.63774000  0.67641000  0.97275000  1.0
  O  O99  1  0.13772000  0.32359000  0.02724000  1.0
  O  O100  1  0.26569000  0.65090000  0.97793000  1.0
  O  O101  1  0.76566000  0.34910000  0.02206000  1.0
  O  O102  1  0.85734000  0.34342000  0.85535000  1.0
  O  O103  1  0.35732000  0.65658000  0.14465000  1.0
  O  O104  1  0.83721000  0.93704000  0.70802000  1.0
  O  O105  1  0.33722000  0.06295000  0.29198000  1.0
  O  O106  1  0.53272000  0.05541000  0.67303000  1.0
  O  O107  1  0.03272000  0.94458000  0.32697000  1.0
