# generated using pymatgen
data_Zn3H22C34(NO6)2
_symmetry_space_group_name_H-M   'P 1'
_cell_length_a   11.70010000
_cell_length_b   17.15410000
_cell_length_c   21.51030000
_cell_angle_alpha   90.00000000
_cell_angle_beta   90.00020000
_cell_angle_gamma   105.38500000
_symmetry_Int_Tables_number   1
_chemical_formula_structural   Zn3H22C34(NO6)2
_chemical_formula_sum   'Zn12 H88 C136 N8 O48'
_cell_volume   4162.51002846
_cell_formula_units_Z   4
loop_
 _symmetry_equiv_pos_site_id
 _symmetry_equiv_pos_as_xyz
  1  'x, y, z'
loop_
 _atom_site_type_symbol
 _atom_site_label
 _atom_site_symmetry_multiplicity
 _atom_site_fract_x
 _atom_site_fract_y
 _atom_site_fract_z
 _atom_site_occupancy
  Zn  Zn0  1  0.17649000  0.27230000  0.43073000  1.0
  Zn  Zn1  1  0.32351000  0.72770000  0.93073000  1.0
  Zn  Zn2  1  0.82351000  0.72770000  0.56927000  1.0
  Zn  Zn3  1  0.67649000  0.27230000  0.06927000  1.0
  Zn  Zn4  1  0.35555000  0.16884000  0.37926000  1.0
  Zn  Zn5  1  0.14445000  0.83116000  0.87926000  1.0
  Zn  Zn6  1  0.64445000  0.83116000  0.62074000  1.0
  Zn  Zn7  1  0.85555000  0.16884000  0.12074000  1.0
  Zn  Zn8  1  0.93425000  0.63214000  0.46619000  1.0
  Zn  Zn9  1  0.56574000  0.36786000  0.96619000  1.0
  Zn  Zn10  1  0.06575000  0.36786000  0.53381000  1.0
  Zn  Zn11  1  0.43425000  0.63214000  0.03381000  1.0
  H  H12  1  0.59492000  0.20886000  0.32617000  1.0
  H  H13  1  0.90508000  0.79115000  0.82617000  1.0
  H  H14  1  0.40508000  0.79114000  0.67383000  1.0
  H  H15  1  0.09492000  0.20885000  0.17383000  1.0
  H  H16  1  0.73288000  0.13471000  0.27970000  1.0
  H  H17  1  0.76712000  0.86529000  0.77970000  1.0
  H  H18  1  0.26712000  0.86528000  0.72030000  1.0
  H  H19  1  0.23288000  0.13471000  0.22029000  1.0
  H  H20  1  0.68058000  0.98321000  0.28934000  1.0
  H  H21  1  0.81942000  0.01680000  0.78934000  1.0
  H  H22  1  0.31942000  0.01679000  0.71066000  1.0
  H  H23  1  0.18057000  0.98320000  0.21066000  1.0
  H  H24  1  0.49023000  0.91235000  0.34337000  1.0
  H  H25  1  0.00977000  0.08766000  0.84337000  1.0
  H  H26  1  0.50977000  0.08765000  0.65663000  1.0
  H  H27  1  0.99022000  0.91234000  0.15663000  1.0
  H  H28  1  0.35949000  0.99585000  0.38378000  1.0
  H  H29  1  0.14051000  0.00415000  0.88379000  1.0
  H  H30  1  0.64051000  0.00415000  0.61622000  1.0
  H  H31  1  0.85949000  0.99585000  0.11622000  1.0
  H  H32  1  0.88864000  0.63763000  0.33004000  1.0
  H  H33  1  0.61136000  0.36237000  0.83004000  1.0
  H  H34  1  0.11135000  0.36237000  0.66997000  1.0
  H  H35  1  0.38864000  0.63763000  0.16996000  1.0
  H  H36  1  0.95616000  0.58270000  0.23290000  1.0
  H  H37  1  0.54385000  0.41730000  0.73290000  1.0
  H  H38  1  0.04384000  0.41730000  0.76710000  1.0
  H  H39  1  0.45615000  0.58270000  0.26710000  1.0
  H  H40  1  0.10802000  0.50333000  0.24207000  1.0
  H  H41  1  0.39199000  0.49667000  0.74207000  1.0
  H  H42  1  0.89198000  0.49667000  0.75793000  1.0
  H  H43  1  0.60801000  0.50332000  0.25793000  1.0
  H  H44  1  0.18543000  0.48231000  0.34806000  1.0
  H  H45  1  0.31457000  0.51770000  0.84806000  1.0
  H  H46  1  0.81457000  0.51770000  0.65194000  1.0
  H  H47  1  0.68542000  0.48230000  0.15194000  1.0
  H  H48  1  0.10854000  0.54223000  0.44041000  1.0
  H  H49  1  0.39145000  0.45777000  0.94040000  1.0
  H  H50  1  0.89146000  0.45777000  0.55959000  1.0
  H  H51  1  0.60854000  0.54223000  0.05960000  1.0
  H  H52  1  0.88493000  0.08337000  0.41822000  1.0
  H  H53  1  0.61506000  0.91663000  0.91822000  1.0
  H  H54  1  0.11506000  0.91663000  0.58178000  1.0
  H  H55  1  0.38494000  0.08337000  0.08179000  1.0
  H  H56  1  0.71224000  0.96322000  0.43722000  1.0
  H  H57  1  0.78776000  0.03678000  0.93722000  1.0
  H  H58  1  0.28776000  0.03678000  0.56279000  1.0
  H  H59  1  0.21224000  0.96322000  0.06279000  1.0
  H  H60  1  0.74705000  0.82746000  0.45191000  1.0
  H  H61  1  0.75295000  0.17254000  0.95191000  1.0
  H  H62  1  0.25295000  0.17254000  0.54809000  1.0
  H  H63  1  0.24705000  0.82746000  0.04809000  1.0
  H  H64  1  0.11895000  0.92774000  0.41702000  1.0
  H  H65  1  0.38105000  0.07226000  0.91702000  1.0
  H  H66  1  0.88105000  0.07226000  0.58298000  1.0
  H  H67  1  0.61895000  0.92774000  0.08298000  1.0
  H  H68  1  0.42924000  0.47561000  0.37364000  1.0
  H  H69  1  0.07076000  0.52438000  0.87364000  1.0
  H  H70  1  0.57076000  0.52438000  0.62636000  1.0
  H  H71  1  0.92924000  0.47562000  0.12636000  1.0
  H  H72  1  0.61038000  0.59110000  0.35660000  1.0
  H  H73  1  0.88962000  0.40890000  0.85659000  1.0
  H  H74  1  0.38961000  0.40890000  0.64341000  1.0
  H  H75  1  0.11038000  0.59110000  0.14340000  1.0
  H  H76  1  0.66984000  0.69901000  0.43623000  1.0
  H  H77  1  0.83017000  0.30098000  0.93624000  1.0
  H  H78  1  0.33016000  0.30099000  0.56377000  1.0
  H  H79  1  0.16983000  0.69901000  0.06376000  1.0
  H  H80  1  0.36126000  0.58665000  0.54379000  1.0
  H  H81  1  0.13875000  0.41335000  0.04379000  1.0
  H  H82  1  0.63874000  0.41335000  0.45622000  1.0
  H  H83  1  0.86126000  0.58665000  0.95621000  1.0
  H  H84  1  0.80559000  0.43745000  0.42069000  1.0
  H  H85  1  0.69440000  0.56255000  0.92069000  1.0
  H  H86  1  0.19441000  0.56255000  0.57931000  1.0
  H  H87  1  0.30559000  0.43745000  0.07931000  1.0
  H  H88  1  0.66033000  0.45087000  0.34010000  1.0
  H  H89  1  0.83965000  0.54912000  0.84010000  1.0
  H  H90  1  0.33966000  0.54913000  0.65990000  1.0
  H  H91  1  0.16034000  0.45088000  0.15990000  1.0
  H  H92  1  0.65084000  0.37485000  0.23878000  1.0
  H  H93  1  0.84915000  0.62515000  0.73878000  1.0
  H  H94  1  0.34916000  0.62515000  0.76122000  1.0
  H  H95  1  0.15085000  0.37486000  0.26122000  1.0
  H  H96  1  0.92398000  0.27039000  0.30470000  1.0
  H  H97  1  0.57602000  0.72962000  0.80470000  1.0
  H  H98  1  0.07602000  0.72962000  0.69530000  1.0
  H  H99  1  0.42398000  0.27039000  0.19530000  1.0
  C  C100  1  0.57556000  0.14318000  0.32807000  1.0
  C  C101  1  0.92443000  0.85683000  0.82807000  1.0
  C  C102  1  0.42444000  0.85682000  0.67193000  1.0
  C  C103  1  0.07556000  0.14317000  0.17193000  1.0
  C  C104  1  0.65205000  0.10147000  0.30314000  1.0
  C  C105  1  0.84794000  0.89853000  0.80314000  1.0
  C  C106  1  0.34795000  0.89853000  0.69686000  1.0
  C  C107  1  0.15205000  0.10147000  0.19686000  1.0
  C  C108  1  0.62221000  0.01742000  0.30829000  1.0
  C  C109  1  0.87779000  0.98259000  0.80829000  1.0
  C  C110  1  0.37779000  0.98258000  0.69171000  1.0
  C  C111  1  0.12221000  0.01741000  0.19171000  1.0
  C  C112  1  0.51680000  0.97785000  0.33817000  1.0
  C  C113  1  0.98321000  0.02215000  0.83817000  1.0
  C  C114  1  0.48320000  0.02215000  0.66183000  1.0
  C  C115  1  0.01679000  0.97785000  0.16183000  1.0
  C  C116  1  0.44401000  0.02345000  0.36122000  1.0
  C  C117  1  0.05599000  0.97656000  0.86122000  1.0
  C  C118  1  0.55599000  0.97655000  0.63878000  1.0
  C  C119  1  0.94400000  0.02344000  0.13878000  1.0
  C  C120  1  0.95439000  0.60294000  0.33156000  1.0
  C  C121  1  0.54561000  0.39707000  0.83156000  1.0
  C  C122  1  0.04561000  0.39706000  0.66844000  1.0
  C  C123  1  0.45439000  0.60293000  0.16844000  1.0
  C  C124  1  0.99250000  0.57246000  0.27787000  1.0
  C  C125  1  0.50750000  0.42755000  0.77787000  1.0
  C  C126  1  0.00749000  0.42755000  0.72213000  1.0
  C  C127  1  0.49250000  0.57245000  0.22213000  1.0
  C  C128  1  0.07698000  0.52866000  0.28320000  1.0
  C  C129  1  0.42303000  0.47134000  0.78319000  1.0
  C  C130  1  0.92302000  0.47134000  0.71680000  1.0
  C  C131  1  0.57697000  0.52865000  0.21681000  1.0
  C  C132  1  0.12086000  0.51722000  0.34179000  1.0
  C  C133  1  0.37914000  0.48278000  0.84179000  1.0
  C  C134  1  0.87914000  0.48278000  0.65821000  1.0
  C  C135  1  0.62085000  0.51721000  0.15821000  1.0
  C  C136  1  0.07832000  0.54975000  0.39341000  1.0
  C  C137  1  0.42168000  0.45025000  0.89341000  1.0
  C  C138  1  0.92168000  0.45025000  0.60659000  1.0
  C  C139  1  0.57832000  0.54974000  0.10659000  1.0
  C  C140  1  0.11450000  0.08588000  0.40913000  1.0
  C  C141  1  0.38550000  0.91412000  0.90913000  1.0
  C  C142  1  0.88550000  0.91412000  0.59087000  1.0
  C  C143  1  0.61450000  0.08587000  0.09087000  1.0
  C  C144  1  0.01188000  0.01280000  0.41625000  1.0
  C  C145  1  0.48812000  0.98720000  0.91625000  1.0
  C  C146  1  0.98812000  0.98720000  0.58375000  1.0
  C  C147  1  0.51189000  0.01280000  0.08375000  1.0
  C  C148  1  0.89696000  0.02262000  0.42173000  1.0
  C  C149  1  0.60304000  0.97738000  0.92173000  1.0
  C  C150  1  0.10304000  0.97738000  0.57827000  1.0
  C  C151  1  0.39697000  0.02262000  0.07827000  1.0
  C  C152  1  0.80148000  0.95561000  0.43267000  1.0
  C  C153  1  0.69852000  0.04439000  0.93267000  1.0
  C  C154  1  0.19852000  0.04439000  0.56733000  1.0
  C  C155  1  0.30148000  0.95561000  0.06733000  1.0
  C  C156  1  0.82033000  0.87911000  0.43981000  1.0
  C  C157  1  0.67967000  0.12089000  0.93980000  1.0
  C  C158  1  0.17967000  0.12089000  0.56020000  1.0
  C  C159  1  0.32033000  0.87911000  0.06020000  1.0
  C  C160  1  0.93483000  0.86885000  0.43390000  1.0
  C  C161  1  0.56517000  0.13115000  0.93390000  1.0
  C  C162  1  0.06517000  0.13115000  0.56610000  1.0
  C  C163  1  0.43483000  0.86885000  0.06610000  1.0
  C  C164  1  0.03008000  0.93582000  0.42109000  1.0
  C  C165  1  0.46992000  0.06418000  0.92109000  1.0
  C  C166  1  0.96992000  0.06418000  0.57891000  1.0
  C  C167  1  0.53009000  0.93582000  0.07891000  1.0
  C  C168  1  0.95838000  0.78818000  0.44221000  1.0
  C  C169  1  0.54162000  0.21182000  0.94221000  1.0
  C  C170  1  0.04163000  0.21182000  0.55778000  1.0
  C  C171  1  0.45838000  0.78818000  0.05779000  1.0
  C  C172  1  0.28102000  0.45256000  0.47247000  1.0
  C  C173  1  0.21898000  0.54744000  0.97247000  1.0
  C  C174  1  0.71898000  0.54743000  0.52753000  1.0
  C  C175  1  0.78102000  0.45256000  0.02753000  1.0
  C  C176  1  0.38382000  0.52402000  0.45967000  1.0
  C  C177  1  0.11619000  0.47598000  0.95966000  1.0
  C  C178  1  0.61619000  0.47598000  0.54034000  1.0
  C  C179  1  0.88381000  0.52402000  0.04034000  1.0
  C  C180  1  0.45393000  0.52587000  0.40640000  1.0
  C  C181  1  0.04608000  0.47413000  0.90640000  1.0
  C  C182  1  0.54607000  0.47413000  0.59360000  1.0
  C  C183  1  0.95392000  0.52587000  0.09360000  1.0
  C  C184  1  0.55456000  0.58992000  0.39739000  1.0
  C  C185  1  0.94544000  0.41008000  0.89738000  1.0
  C  C186  1  0.44544000  0.41008000  0.60262000  1.0
  C  C187  1  0.05456000  0.58992000  0.10261000  1.0
  C  C188  1  0.58759000  0.65155000  0.44156000  1.0
  C  C189  1  0.91242000  0.34845000  0.94156000  1.0
  C  C190  1  0.41242000  0.34845000  0.55844000  1.0
  C  C191  1  0.08758000  0.65155000  0.05844000  1.0
  C  C192  1  0.51694000  0.65046000  0.49430000  1.0
  C  C193  1  0.98306000  0.34954000  0.99430000  1.0
  C  C194  1  0.48306000  0.34954000  0.50570000  1.0
  C  C195  1  0.01693000  0.65046000  0.00570000  1.0
  C  C196  1  0.41464000  0.58714000  0.50248000  1.0
  C  C197  1  0.08536000  0.41286000  0.00248000  1.0
  C  C198  1  0.58536000  0.41286000  0.49752000  1.0
  C  C199  1  0.91464000  0.58714000  0.99752000  1.0
  C  C200  1  0.54775000  0.71355000  0.54379000  1.0
  C  C201  1  0.95226000  0.28645000  0.04379000  1.0
  C  C202  1  0.45226000  0.28645000  0.45621000  1.0
  C  C203  1  0.04774000  0.71355000  0.95621000  1.0
  C  C204  1  0.95440000  0.34075000  0.41791000  1.0
  C  C205  1  0.54560000  0.65926000  0.91791000  1.0
  C  C206  1  0.04560000  0.65926000  0.58209000  1.0
  C  C207  1  0.45440000  0.34074000  0.08209000  1.0
  C  C208  1  0.87156000  0.35210000  0.36797000  1.0
  C  C209  1  0.62844000  0.64790000  0.86797000  1.0
  C  C210  1  0.12844000  0.64790000  0.63203000  1.0
  C  C211  1  0.37156000  0.35210000  0.13203000  1.0
  C  C212  1  0.79911000  0.40410000  0.37720000  1.0
  C  C213  1  0.70089000  0.59590000  0.87720000  1.0
  C  C214  1  0.20089000  0.59590000  0.62280000  1.0
  C  C215  1  0.29911000  0.40410000  0.12280000  1.0
  C  C216  1  0.71931000  0.41238000  0.33115000  1.0
  C  C217  1  0.78069000  0.58762000  0.83115000  1.0
  C  C218  1  0.28069000  0.58762000  0.66885000  1.0
  C  C219  1  0.21931000  0.41239000  0.16885000  1.0
  C  C220  1  0.71339000  0.37045000  0.27532000  1.0
  C  C221  1  0.78660000  0.62955000  0.77532000  1.0
  C  C222  1  0.28661000  0.62955000  0.72468000  1.0
  C  C223  1  0.21340000  0.37045000  0.22468000  1.0
  C  C224  1  0.78825000  0.31976000  0.26523000  1.0
  C  C225  1  0.71174000  0.68024000  0.76523000  1.0
  C  C226  1  0.21175000  0.68024000  0.73477000  1.0
  C  C227  1  0.28826000  0.31976000  0.23477000  1.0
  C  C228  1  0.86654000  0.31020000  0.31183000  1.0
  C  C229  1  0.63347000  0.68980000  0.81183000  1.0
  C  C230  1  0.13347000  0.68980000  0.68817000  1.0
  C  C231  1  0.36654000  0.31020000  0.18817000  1.0
  C  C232  1  0.78262000  0.27609000  0.20455000  1.0
  C  C233  1  0.71738000  0.72391000  0.70456000  1.0
  C  C234  1  0.21738000  0.72392000  0.79544000  1.0
  C  C235  1  0.28262000  0.27609000  0.29544000  1.0
  N  N236  1  0.47311000  0.10472000  0.35623000  1.0
  N  N237  1  0.02688000  0.89528000  0.85623000  1.0
  N  N238  1  0.52689000  0.89528000  0.64377000  1.0
  N  N239  1  0.97311000  0.10472000  0.14377000  1.0
  N  N240  1  0.99620000  0.59154000  0.38819000  1.0
  N  N241  1  0.50380000  0.40846000  0.88819000  1.0
  N  N242  1  0.00380000  0.40846000  0.61181000  1.0
  N  N243  1  0.49620000  0.59154000  0.11181000  1.0
  O  O244  1  0.21437000  0.07484000  0.39232000  1.0
  O  O245  1  0.28563000  0.92516000  0.89232000  1.0
  O  O246  1  0.78563000  0.92516000  0.60768000  1.0
  O  O247  1  0.71438000  0.07484000  0.10767000  1.0
  O  O248  1  0.09446000  0.15319000  0.42110000  1.0
  O  O249  1  0.40553000  0.84681000  0.92110000  1.0
  O  O250  1  0.90554000  0.84681000  0.57890000  1.0
  O  O251  1  0.59447000  0.15319000  0.07890000  1.0
  O  O252  1  0.05324000  0.77478000  0.42572000  1.0
  O  O253  1  0.44676000  0.22522000  0.92572000  1.0
  O  O254  1  0.94677000  0.22522000  0.57428000  1.0
  O  O255  1  0.55324000  0.77477000  0.07428000  1.0
  O  O256  1  0.87172000  0.73020000  0.46708000  1.0
  O  O257  1  0.62828000  0.26980000  0.96708000  1.0
  O  O258  1  0.12829000  0.26979000  0.53292000  1.0
  O  O259  1  0.37171000  0.73020000  0.03292000  1.0
  O  O260  1  0.26672000  0.39292000  0.43584000  1.0
  O  O261  1  0.23327000  0.60708000  0.93584000  1.0
  O  O262  1  0.73328000  0.60708000  0.56416000  1.0
  O  O263  1  0.76672000  0.39292000  0.06416000  1.0
  O  O264  1  0.21539000  0.45679000  0.51937000  1.0
  O  O265  1  0.28461000  0.54321000  0.01936000  1.0
  O  O266  1  0.78461000  0.54321000  0.48063000  1.0
  O  O267  1  0.71539000  0.45679000  0.98063000  1.0
  O  O268  1  0.65678000  0.76087000  0.54545000  1.0
  O  O269  1  0.84323000  0.23913000  0.04545000  1.0
  O  O270  1  0.34323000  0.23913000  0.45455000  1.0
  O  O271  1  0.15677000  0.76087000  0.95454000  1.0
  O  O272  1  0.47227000  0.72198000  0.58239000  1.0
  O  O273  1  0.02773000  0.27802000  0.08240000  1.0
  O  O274  1  0.52773000  0.27802000  0.41761000  1.0
  O  O275  1  0.97227000  0.72198000  0.91760000  1.0
  O  O276  1  0.96042000  0.38470000  0.46705000  1.0
  O  O277  1  0.53958000  0.61530000  0.96705000  1.0
  O  O278  1  0.03958000  0.61530000  0.53295000  1.0
  O  O279  1  0.46042000  0.38470000  0.03295000  1.0
  O  O280  1  0.01212000  0.28936000  0.40882000  1.0
  O  O281  1  0.48789000  0.71065000  0.90882000  1.0
  O  O282  1  0.98789000  0.71065000  0.59118000  1.0
  O  O283  1  0.51211000  0.28935000  0.09118000  1.0
  O  O284  1  0.84460000  0.22450000  0.20011000  1.0
  O  O285  1  0.65540000  0.77551000  0.70011000  1.0
  O  O286  1  0.15540000  0.77551000  0.79989000  1.0
  O  O287  1  0.34460000  0.22450000  0.29989000  1.0
  O  O288  1  0.71760000  0.29293000  0.16281000  1.0
  O  O289  1  0.78240000  0.70708000  0.66281000  1.0
  O  O290  1  0.28240000  0.70708000  0.83719000  1.0
  O  O291  1  0.21760000  0.29293000  0.33719000  1.0
