# generated using pymatgen
data_ZnH12C16S3(NO)4
_symmetry_space_group_name_H-M   'P 1'
_cell_length_a   8.78421000
_cell_length_b   10.20130000
_cell_length_c   11.35200000
_cell_angle_alpha   64.93900000
_cell_angle_beta   77.74630000
_cell_angle_gamma   74.14370000
_symmetry_Int_Tables_number   1
_chemical_formula_structural   ZnH12C16S3(NO)4
_chemical_formula_sum   'Zn2 H24 C32 S6 N8 O8'
_cell_volume   880.97374409
_cell_formula_units_Z   2
loop_
 _symmetry_equiv_pos_site_id
 _symmetry_equiv_pos_as_xyz
  1  'x, y, z'
loop_
 _atom_site_type_symbol
 _atom_site_label
 _atom_site_symmetry_multiplicity
 _atom_site_fract_x
 _atom_site_fract_y
 _atom_site_fract_z
 _atom_site_occupancy
  Zn  Zn0  1  0.14211000  0.80601000  0.58877000  1.0
  Zn  Zn1  1  0.85788000  0.19399000  0.41123000  1.0
  H  H2  1  0.47512000  0.13012000  0.39454000  1.0
  H  H3  1  0.52488000  0.86988000  0.60546000  1.0
  H  H4  1  0.35031000  0.24152000  0.47421000  1.0
  H  H5  1  0.64969000  0.75848000  0.52579000  1.0
  H  H6  1  0.55490000  0.40800000  0.70398000  1.0
  H  H7  1  0.44510000  0.59200000  0.29601000  1.0
  H  H8  1  0.48457000  0.37531000  0.58669000  1.0
  H  H9  1  0.51543000  0.62469000  0.41331000  1.0
  H  H10  1  0.26430000  0.95036000  0.30941000  1.0
  H  H11  1  0.73570000  0.04963000  0.69059000  1.0
  H  H12  1  0.26559000  0.95036000  0.09736000  1.0
  H  H13  1  0.73441000  0.04963000  0.90264000  1.0
  H  H14  1  0.97005000  0.61978000  0.28148000  1.0
  H  H15  1  0.02995000  0.38022000  0.71852000  1.0
  H  H16  1  0.97966000  0.63913000  0.49076000  1.0
  H  H17  1  0.02034000  0.36087000  0.50924000  1.0
  H  H18  1  0.95153000  0.64053000  0.08896000  1.0
  H  H19  1  0.04848000  0.35947000  0.91104000  1.0
  H  H20  1  0.96935000  0.65504000  0.86116000  1.0
  H  H21  1  0.03065000  0.34495000  0.13885000  1.0
  H  H22  1  0.29775000  0.92378000  0.72295000  1.0
  H  H23  1  0.70225000  0.07622000  0.27705000  1.0
  H  H24  1  0.29938000  0.92007000  0.94028000  1.0
  H  H25  1  0.70063000  0.07992000  0.05972000  1.0
  C  C26  1  0.22505000  0.11670000  0.42851000  1.0
  C  C27  1  0.77495000  0.88331000  0.57149000  1.0
  C  C28  1  0.35728000  0.20227000  0.39628000  1.0
  C  C29  1  0.64272000  0.79773000  0.60372000  1.0
  C  C30  1  0.36806000  0.29464000  0.13420000  1.0
  C  C31  1  0.63194000  0.70536000  0.86580000  1.0
  C  C32  1  0.39087000  0.24174000  0.94326000  1.0
  C  C33  1  0.60914000  0.75827000  0.05673000  1.0
  C  C34  1  0.44791000  0.39454000  0.67837000  1.0
  C  C35  1  0.55209000  0.60547000  0.32163000  1.0
  C  C36  1  0.31950000  0.53574000  0.65443000  1.0
  C  C37  1  0.68051000  0.46427000  0.34557000  1.0
  C  C38  1  0.19836000  0.87960000  0.30043000  1.0
  C  C39  1  0.80164000  0.12040000  0.69957000  1.0
  C  C40  1  0.19855000  0.87766000  0.17910000  1.0
  C  C41  1  0.80146000  0.12234000  0.82091000  1.0
  C  C42  1  0.11779000  0.78414000  0.16663000  1.0
  C  C43  1  0.88221000  0.21586000  0.83337000  1.0
  C  C44  1  0.03652000  0.69581000  0.28171000  1.0
  C  C45  1  0.96348000  0.30419000  0.71829000  1.0
  C  C46  1  0.04071000  0.70586000  0.39951000  1.0
  C  C47  1  0.95929000  0.29414000  0.60049000  1.0
  C  C48  1  0.12219000  0.78202000  0.03621000  1.0
  C  C49  1  0.87781000  0.21798000  0.96379000  1.0
  C  C50  1  0.03039000  0.70508000  0.01120000  1.0
  C  C51  1  0.96961000  0.29492000  0.98880000  1.0
  C  C52  1  0.03944000  0.71214000  0.88463000  1.0
  C  C53  1  0.96056000  0.28786000  0.11537000  1.0
  C  C54  1  0.22340000  0.86186000  0.80683000  1.0
  C  C55  1  0.77660000  0.13814000  0.19317000  1.0
  C  C56  1  0.22134000  0.86037000  0.92967000  1.0
  C  C57  1  0.77866000  0.13963000  0.07033000  1.0
  S  S58  1  0.34461000  0.36965000  0.24958000  1.0
  S  S59  1  0.65539000  0.63035000  0.75042000  1.0
  S  S60  1  0.36568000  0.40586000  0.96771000  1.0
  S  S61  1  0.63433000  0.59414000  0.03229000  1.0
  S  S62  1  0.39123000  0.22618000  0.79693000  1.0
  S  S63  1  0.60877000  0.77382000  0.20307000  1.0
  N  N64  1  0.38611000  0.15263000  0.16138000  1.0
  N  N65  1  0.61389000  0.84737000  0.83862000  1.0
  N  N66  1  0.39990000  0.12343000  0.05273000  1.0
  N  N67  1  0.60010000  0.87658000  0.94726000  1.0
  N  N68  1  0.12038000  0.79589000  0.40974000  1.0
  N  N69  1  0.87962000  0.20411000  0.59027000  1.0
  N  N70  1  0.13347000  0.78990000  0.78327000  1.0
  N  N71  1  0.86653000  0.21009000  0.21673000  1.0
  O  O72  1  0.25354000  0.98570000  0.51522000  1.0
  O  O73  1  0.74645000  0.01430000  0.48478000  1.0
  O  O74  1  0.10198000  0.18013000  0.37032000  1.0
  O  O75  1  0.89802000  0.81987000  0.62968000  1.0
  O  O76  1  0.17511000  0.53141000  0.69534000  1.0
  O  O77  1  0.82489000  0.46860000  0.30466000  1.0
  O  O78  1  0.37020000  0.65603000  0.58926000  1.0
  O  O79  1  0.62980000  0.34398000  0.41074000  1.0
