# generated using pymatgen
data_CdH8C12S2(NO2)2
_symmetry_space_group_name_H-M   'P 1'
_cell_length_a   3.71084000
_cell_length_b   12.39360000
_cell_length_c   13.97560000
_cell_angle_alpha   90.00020000
_cell_angle_beta   90.00040000
_cell_angle_gamma   82.16850000
_symmetry_Int_Tables_number   1
_chemical_formula_structural   CdH8C12S2(NO2)2
_chemical_formula_sum   'Cd2 H16 C24 S4 N4 O8'
_cell_volume   636.75230731
_cell_formula_units_Z   2
loop_
 _symmetry_equiv_pos_site_id
 _symmetry_equiv_pos_as_xyz
  1  'x, y, z'
loop_
 _atom_site_type_symbol
 _atom_site_label
 _atom_site_symmetry_multiplicity
 _atom_site_fract_x
 _atom_site_fract_y
 _atom_site_fract_z
 _atom_site_occupancy
  Cd  Cd0  1  0.50000000  0.00000000  0.50000000  1.0
  Cd  Cd1  1  0.50000000  0.50000000  0.00000000  1.0
  H  H2  1  0.37051000  0.50858000  0.35458000  1.0
  H  H3  1  0.62949000  0.99142000  0.85458000  1.0
  H  H4  1  0.62950000  0.49142000  0.64542000  1.0
  H  H5  1  0.37051000  0.00858000  0.14542000  1.0
  H  H6  1  0.25508000  0.39041000  0.21241000  1.0
  H  H7  1  0.74492000  0.10959000  0.71241000  1.0
  H  H8  1  0.74492000  0.60959000  0.78759000  1.0
  H  H9  1  0.25508000  0.89040000  0.28759000  1.0
  H  H10  1  0.30171000  0.42886000  0.51942000  1.0
  H  H11  1  0.69829000  0.07115000  0.01941000  1.0
  H  H12  1  0.69829000  0.57114000  0.48058000  1.0
  H  H13  1  0.30170000  0.92885000  0.98059000  1.0
  H  H14  1  0.09193000  0.22300000  0.23317000  1.0
  H  H15  1  0.90808000  0.27700000  0.73317000  1.0
  H  H16  1  0.90807000  0.77700000  0.76683000  1.0
  H  H17  1  0.09192000  0.72299000  0.26683000  1.0
  C  C18  1  0.30351000  0.42664000  0.36452000  1.0
  C  C19  1  0.69647000  0.07336000  0.86452000  1.0
  C  C20  1  0.69648000  0.57336000  0.63548000  1.0
  C  C21  1  0.30352000  0.92664000  0.13548000  1.0
  C  C22  1  0.23734000  0.36421000  0.28628000  1.0
  C  C23  1  0.76265000  0.13579000  0.78628000  1.0
  C  C24  1  0.76266000  0.63578000  0.71372000  1.0
  C  C25  1  0.23735000  0.86421000  0.21372000  1.0
  C  C26  1  0.12116000  0.24130000  0.56902000  1.0
  C  C27  1  0.87884000  0.25870000  0.06902000  1.0
  C  C28  1  0.87884000  0.75870000  0.43098000  1.0
  C  C29  1  0.12116000  0.74129000  0.93098000  1.0
  C  C30  1  0.26185000  0.38247000  0.45500000  1.0
  C  C31  1  0.73814000  0.11754000  0.95500000  1.0
  C  C32  1  0.73815000  0.61754000  0.54500000  1.0
  C  C33  1  0.26186000  0.88246000  0.04500000  1.0
  C  C34  1  0.10842000  0.21565000  0.38514000  1.0
  C  C35  1  0.89158000  0.28435000  0.88514000  1.0
  C  C36  1  0.89158000  0.78435000  0.61486000  1.0
  C  C37  1  0.10843000  0.71565000  0.11486000  1.0
  C  C38  1  0.16574000  0.27812000  0.46718000  1.0
  C  C39  1  0.83426000  0.22188000  0.96718000  1.0
  C  C40  1  0.83426000  0.72188000  0.53282000  1.0
  C  C41  1  0.16574000  0.77812000  0.03282000  1.0
  S  S42  1  0.99840000  0.08436000  0.37958000  1.0
  S  S43  1  0.00160000  0.41564000  0.87958000  1.0
  S  S44  1  0.00160000  0.91564000  0.62042000  1.0
  S  S45  1  0.99840000  0.58436000  0.12042000  1.0
  N  N46  1  0.14358000  0.26409000  0.29841000  1.0
  N  N47  1  0.85641000  0.23591000  0.79841000  1.0
  N  N48  1  0.85641000  0.73591000  0.70159000  1.0
  N  N49  1  0.14359000  0.76408000  0.20159000  1.0
  O  O50  1  0.95387000  0.31239000  0.62405000  1.0
  O  O51  1  0.04613000  0.18761000  0.12405000  1.0
  O  O52  1  0.04612000  0.68761000  0.37596000  1.0
  O  O53  1  0.95387000  0.81239000  0.87595000  1.0
  O  O54  1  0.25674000  0.14583000  0.59515000  1.0
  O  O55  1  0.74326000  0.35417000  0.09515000  1.0
  O  O56  1  0.74326000  0.85417000  0.40485000  1.0
  O  O57  1  0.25674000  0.64583000  0.90485000  1.0
