# generated using pymatgen
data_Zr3H8(CO2)8
_symmetry_space_group_name_H-M   'P 1'
_cell_length_a   11.80150000
_cell_length_b   13.44280000
_cell_length_c   19.30320000
_cell_angle_alpha   89.35940000
_cell_angle_beta   89.99650000
_cell_angle_gamma   89.98890000
_symmetry_Int_Tables_number   1
_chemical_formula_structural   Zr3H8(CO2)8
_chemical_formula_sum   'Zr12 H32 C32 O64'
_cell_volume   3062.16863923
_cell_formula_units_Z   4
loop_
 _symmetry_equiv_pos_site_id
 _symmetry_equiv_pos_as_xyz
  1  'x, y, z'
loop_
 _atom_site_type_symbol
 _atom_site_label
 _atom_site_symmetry_multiplicity
 _atom_site_fract_x
 _atom_site_fract_y
 _atom_site_fract_z
 _atom_site_occupancy
  Zr  Zr0  1  0.13955000  0.13553000  0.99144000  1.0
  Zr  Zr1  1  0.84030000  0.12437000  0.99657000  1.0
  Zr  Zr2  1  0.16296000  0.87248000  0.99307000  1.0
  Zr  Zr3  1  0.85948000  0.86249000  0.00284000  1.0
  Zr  Zr4  1  0.00877000  0.99795000  0.12509000  1.0
  Zr  Zr5  1  0.99342000  0.99340000  0.86541000  1.0
  Zr  Zr6  1  0.63938000  0.35425000  0.49855000  1.0
  Zr  Zr7  1  0.34022000  0.36549000  0.49355000  1.0
  Zr  Zr8  1  0.66267000  0.61737000  0.49662000  1.0
  Zr  Zr9  1  0.35921000  0.62736000  0.48689000  1.0
  Zr  Zr10  1  0.50855000  0.49163000  0.36473000  1.0
  Zr  Zr11  1  0.49347000  0.49668000  0.62449000  1.0
  H  H12  1  0.99350000  0.20755000  0.89259000  1.0
  H  H13  1  0.76568000  0.99215000  0.10358000  1.0
  H  H14  1  0.98627000  0.78183000  0.90129000  1.0
  H  H15  1  0.25556000  0.00451000  0.08523000  1.0
  H  H16  1  0.62762000  0.11741000  0.04296000  1.0
  H  H17  1  0.65986000  0.97386000  0.98846000  1.0
  H  H18  1  0.76274000  0.68569000  0.97200000  1.0
  H  H19  1  0.20927000  0.67468000  0.95739000  1.0
  H  H20  1  0.38654000  0.87237000  0.96632000  1.0
  H  H21  1  0.35621000  0.20671000  0.02996000  1.0
  H  H22  1  0.12973000  0.32704000  0.02483000  1.0
  H  H23  1  0.97152000  0.29796000  0.99315000  1.0
  H  H24  1  0.19736000  0.68198000  0.03931000  1.0
  H  H25  1  0.35921000  0.18484000  0.94879000  1.0
  H  H26  1  0.84830000  0.32820000  0.95841000  1.0
  H  H27  1  0.67167000  0.89530000  0.92847000  1.0
  H  H28  1  0.49351000  0.28240000  0.59749000  1.0
  H  H29  1  0.26546000  0.49738000  0.38632000  1.0
  H  H30  1  0.48623000  0.70831000  0.58827000  1.0
  H  H31  1  0.75520000  0.48517000  0.40448000  1.0
  H  H32  1  0.12757000  0.37215000  0.44722000  1.0
  H  H33  1  0.15970000  0.51594000  0.50152000  1.0
  H  H34  1  0.26256000  0.80447000  0.51723000  1.0
  H  H35  1  0.70939000  0.81515000  0.53204000  1.0
  H  H36  1  0.88626000  0.61776000  0.52314000  1.0
  H  H37  1  0.85552000  0.28263000  0.45983000  1.0
  H  H38  1  0.62938000  0.16270000  0.46525000  1.0
  H  H39  1  0.47130000  0.19183000  0.49708000  1.0
  H  H40  1  0.69704000  0.80765000  0.45014000  1.0
  H  H41  1  0.85903000  0.30453000  0.54104000  1.0
  H  H42  1  0.34800000  0.16172000  0.53182000  1.0
  H  H43  1  0.17157000  0.59469000  0.56137000  1.0
  C  C44  1  0.18088000  0.17845000  0.15981000  1.0
  C  C45  1  0.80414000  0.15955000  0.82880000  1.0
  C  C46  1  0.82299000  0.16150000  0.16718000  1.0
  C  C47  1  0.18032000  0.15841000  0.82175000  1.0
  C  C48  1  0.18649000  0.83107000  0.82768000  1.0
  C  C49  1  0.83718000  0.81884000  0.16636000  1.0
  C  C50  1  0.78136000  0.86374000  0.80718000  1.0
  C  C51  1  0.18653000  0.82802000  0.16475000  1.0
  C  C52  1  0.68073000  0.31100000  0.33015000  1.0
  C  C53  1  0.30439000  0.33074000  0.66166000  1.0
  C  C54  1  0.32296000  0.32795000  0.32284000  1.0
  C  C55  1  0.68027000  0.33164000  0.66848000  1.0
  C  C56  1  0.68621000  0.65927000  0.66212000  1.0
  C  C57  1  0.33704000  0.67083000  0.32331000  1.0
  C  C58  1  0.28155000  0.62662000  0.68262000  1.0
  C  C59  1  0.68605000  0.66163000  0.32468000  1.0
  C  C60  1  0.75552000  0.78871000  0.75583000  1.0
  C  C61  1  0.72729000  0.72618000  0.71412000  1.0
  C  C62  1  0.25595000  0.70190000  0.73383000  1.0
  C  C63  1  0.22784000  0.76448000  0.77554000  1.0
  C  C64  1  0.72702000  0.27256000  0.72485000  1.0
  C  C65  1  0.75847000  0.22077000  0.77312000  1.0
  C  C66  1  0.78365000  0.76256000  0.22149000  1.0
  C  C67  1  0.73819000  0.71739000  0.26863000  1.0
  C  C68  1  0.23251000  0.23382000  0.21543000  1.0
  C  C69  1  0.27226000  0.27489000  0.26562000  1.0
  C  C70  1  0.23876000  0.77214000  0.22070000  1.0
  C  C71  1  0.28391000  0.72720000  0.26807000  1.0
  C  C72  1  0.25894000  0.26965000  0.71749000  1.0
  C  C73  1  0.22735000  0.21760000  0.76559000  1.0
  C  C74  1  0.73239000  0.25550000  0.27459000  1.0
  C  C75  1  0.77217000  0.21433000  0.22445000  1.0
  O  O76  1  0.20388000  0.20440000  0.09748000  1.0
  O  O77  1  0.11702000  0.10750000  0.17917000  1.0
  O  O78  1  0.77763000  0.18278000  0.89048000  1.0
  O  O79  1  0.86993000  0.08984000  0.80988000  1.0
  O  O80  1  0.79151000  0.18483000  0.10628000  1.0
  O  O81  1  0.89437000  0.09454000  0.18505000  1.0
  O  O82  1  0.21700000  0.17493000  0.88279000  1.0
  O  O83  1  0.10318000  0.09739000  0.80460000  1.0
  O  O84  1  0.09602000  0.28886000  0.98760000  1.0
  O  O85  1  0.33446000  0.15983000  0.99413000  1.0
  O  O86  1  0.88226000  0.28968000  0.99600000  1.0
  O  O87  1  0.66799000  0.09943000  0.00108000  1.0
  O  O88  1  0.99688000  0.10856000  0.04985000  1.0
  O  O89  1  0.99348000  0.14713000  0.92060000  1.0
  O  O90  1  0.21976000  0.81281000  0.88974000  1.0
  O  O91  1  0.11888000  0.89971000  0.80883000  1.0
  O  O92  1  0.81180000  0.79459000  0.10450000  1.0
  O  O93  1  0.90343000  0.88824000  0.18505000  1.0
  O  O94  1  0.70118000  0.89599000  0.84263000  1.0
  O  O95  1  0.88702000  0.88892000  0.81011000  1.0
  O  O96  1  0.20238000  0.79739000  0.10364000  1.0
  O  O97  1  0.13049000  0.90479000  0.18275000  1.0
  O  O98  1  0.16034000  0.69703000  0.99492000  1.0
  O  O99  1  0.33069000  0.88559000  0.00191000  1.0
  O  O100  1  0.82417000  0.73123000  0.96148000  1.0
  O  O101  1  0.67392000  0.90074000  0.98020000  1.0
  O  O102  1  0.00097000  0.84174000  0.92775000  1.0
  O  O103  1  0.01167000  0.88657000  0.05395000  1.0
  O  O104  1  0.12381000  0.00034000  0.93811000  1.0
  O  O105  1  0.83011000  0.99192000  0.07244000  1.0
  O  O106  1  0.18191000  0.00718000  0.06271000  1.0
  O  O107  1  0.87377000  0.99485000  0.94375000  1.0
  O  O108  1  0.70372000  0.28517000  0.39252000  1.0
  O  O109  1  0.61687000  0.38192000  0.31070000  1.0
  O  O110  1  0.27775000  0.30727000  0.60003000  1.0
  O  O111  1  0.37015000  0.40058000  0.68033000  1.0
  O  O112  1  0.29150000  0.30484000  0.38379000  1.0
  O  O113  1  0.39427000  0.39488000  0.30484000  1.0
  O  O114  1  0.71715000  0.31499000  0.60750000  1.0
  O  O115  1  0.60307000  0.39278000  0.68543000  1.0
  O  O116  1  0.59581000  0.20094000  0.50251000  1.0
  O  O117  1  0.83406000  0.32951000  0.49574000  1.0
  O  O118  1  0.38205000  0.20022000  0.49426000  1.0
  O  O119  1  0.16791000  0.39023000  0.48907000  1.0
  O  O120  1  0.49671000  0.38118000  0.44014000  1.0
  O  O121  1  0.49347000  0.34278000  0.56944000  1.0
  O  O122  1  0.71965000  0.67716000  0.60004000  1.0
  O  O123  1  0.61869000  0.59064000  0.68106000  1.0
  O  O124  1  0.31153000  0.69522000  0.38513000  1.0
  O  O125  1  0.40308000  0.60120000  0.30473000  1.0
  O  O126  1  0.20130000  0.59426000  0.64732000  1.0
  O  O127  1  0.38719000  0.60136000  0.67964000  1.0
  O  O128  1  0.70180000  0.69252000  0.38574000  1.0
  O  O129  1  0.63010000  0.58472000  0.30689000  1.0
  O  O130  1  0.66023000  0.79279000  0.49464000  1.0
  O  O131  1  0.83035000  0.60440000  0.48762000  1.0
  O  O132  1  0.32366000  0.75872000  0.52806000  1.0
  O  O133  1  0.17370000  0.58906000  0.50967000  1.0
  O  O134  1  0.50086000  0.64832000  0.56187000  1.0
  O  O135  1  0.51139000  0.60319000  0.43574000  1.0
  O  O136  1  0.62380000  0.48955000  0.55175000  1.0
  O  O137  1  0.32987000  0.49781000  0.41747000  1.0
  O  O138  1  0.68163000  0.48253000  0.42710000  1.0
  O  O139  1  0.37373000  0.49512000  0.54614000  1.0
