# generated using pymatgen
data_AlH8C12SNO5
_symmetry_space_group_name_H-M   'P 1'
_cell_length_a   6.65654000
_cell_length_b   12.69830000
_cell_length_c   16.92430000
_cell_angle_alpha   84.04040000
_cell_angle_beta   82.82240000
_cell_angle_gamma   75.44430000
_symmetry_Int_Tables_number   1
_chemical_formula_structural   AlH8C12SNO5
_chemical_formula_sum   'Al2 H16 C24 S2 N2 O10'
_cell_volume   1369.87733904
_cell_formula_units_Z   2
loop_
 _symmetry_equiv_pos_site_id
 _symmetry_equiv_pos_as_xyz
  1  'x, y, z'
loop_
 _atom_site_type_symbol
 _atom_site_label
 _atom_site_symmetry_multiplicity
 _atom_site_fract_x
 _atom_site_fract_y
 _atom_site_fract_z
 _atom_site_occupancy
  Al  Al0  1  0.50022000  0.49985000  0.49988000  1.0
  Al  Al1  1  0.00025000  0.49993000  0.49982000  1.0
  H  H2  1  0.21461000  0.61905000  0.43301000  1.0
  H  H3  1  0.78391000  0.38354000  0.56980000  1.0
  H  H4  1  0.85532000  0.49333000  0.73621000  1.0
  H  H5  1  0.79291000  0.49246000  0.88634000  1.0
  H  H6  1  0.42540000  0.50997000  0.89520000  1.0
  H  H7  1  0.48641000  0.51319000  0.74435000  1.0
  H  H8  1  0.57474000  0.48994000  0.10464000  1.0
  H  H9  1  0.20726000  0.50738000  0.11357000  1.0
  H  H10  1  0.14467000  0.50657000  0.26373000  1.0
  H  H11  1  0.51362000  0.48672000  0.25551000  1.0
  H  H12  1  0.82671000  0.19583000  0.53214000  1.0
  H  H13  1  0.83657000  0.07943000  0.60105000  1.0
  H  H14  1  0.65204000  0.20499000  0.62039000  1.0
  H  H15  1  0.34735000  0.79478000  0.37978000  1.0
  H  H16  1  0.16341000  0.92061000  0.39889000  1.0
  H  H17  1  0.17251000  0.80461000  0.46805000  1.0
  C  C18  1  0.66278000  0.69564000  0.50189000  1.0
  C  C19  1  0.78943000  0.49785000  0.35637000  1.0
  C  C20  1  0.33748000  0.30431000  0.49786000  1.0
  C  C21  1  0.21073000  0.50186000  0.64350000  1.0
  C  C22  1  0.17445000  0.50299000  0.73225000  1.0
  C  C23  1  0.97827000  0.49718000  0.77197000  1.0
  C  C24  1  0.94349000  0.49670000  0.85442000  1.0
  C  C25  1  0.10660000  0.50126000  0.89860000  1.0
  C  C26  1  0.30260000  0.50679000  0.85910000  1.0
  C  C27  1  0.33605000  0.50827000  0.77628000  1.0
  C  C28  1  0.69750000  0.49310000  0.14076000  1.0
  C  C29  1  0.89356000  0.49860000  0.10129000  1.0
  C  C30  1  0.05669000  0.50313000  0.14549000  1.0
  C  C31  1  0.02184000  0.50264000  0.22794000  1.0
  C  C32  1  0.82561000  0.49682000  0.26762000  1.0
  C  C33  1  0.66399000  0.49158000  0.22359000  1.0
  C  C34  1  0.57668000  0.11661000  0.53098000  1.0
  C  C35  1  0.42322000  0.88335000  0.46901000  1.0
  C  C36  1  0.40369000  0.18520000  0.49821000  1.0
  C  C37  1  0.59628000  0.81474000  0.50171000  1.0
  C  C38  1  0.41793000  0.99315000  0.48002000  1.0
  C  C39  1  0.58197000  0.00680000  0.51998000  1.0
  C  C40  1  0.73141000  0.15085000  0.57349000  1.0
  C  C41  1  0.26828000  0.84918000  0.42656000  1.0
  S  S42  1  0.25196000  0.11697000  0.45576000  1.0
  S  S43  1  0.74795000  0.88297000  0.54420000  1.0
  N  N44  1  0.09003000  0.50046000  0.98267000  1.0
  N  N45  1  0.91017000  0.49941000  0.01723000  1.0
  O  O46  1  0.52711000  0.64680000  0.48719000  1.0
  O  O47  1  0.93337000  0.51753000  0.39155000  1.0
  O  O48  1  0.14987000  0.35049000  0.48390000  1.0
  O  O49  1  0.38322000  0.51851000  0.60971000  1.0
  O  O50  1  0.47311000  0.35309000  0.51267000  1.0
  O  O51  1  0.06667000  0.48231000  0.60830000  1.0
  O  O52  1  0.85064000  0.64959000  0.51561000  1.0
  O  O53  1  0.61711000  0.48105000  0.39019000  1.0
  O  O54  1  0.23780000  0.54939000  0.46396000  1.0
  O  O55  1  0.76260000  0.45066000  0.53579000  1.0
