# generated using pymatgen
data_CuH11C8SN3
_symmetry_space_group_name_H-M   'P 1'
_cell_length_a   5.71929000
_cell_length_b   9.38670000
_cell_length_c   17.70750000
_cell_angle_alpha   87.33920000
_cell_angle_beta   89.99910000
_cell_angle_gamma   89.99930000
_symmetry_Int_Tables_number   1
_chemical_formula_structural   CuH11C8SN3
_chemical_formula_sum   'Cu4 H44 C32 S4 N12'
_cell_volume   949.60682677
_cell_formula_units_Z   4
loop_
 _symmetry_equiv_pos_site_id
 _symmetry_equiv_pos_as_xyz
  1  'x, y, z'
loop_
 _atom_site_type_symbol
 _atom_site_label
 _atom_site_symmetry_multiplicity
 _atom_site_fract_x
 _atom_site_fract_y
 _atom_site_fract_z
 _atom_site_occupancy
  Cu  Cu0  1  0.37483000  0.37073000  0.04047000  1.0
  Cu  Cu1  1  0.87479000  0.12928000  0.45952000  1.0
  Cu  Cu2  1  0.62518000  0.62927000  0.95952000  1.0
  Cu  Cu3  1  0.12518000  0.87073000  0.54048000  1.0
  H  H4  1  0.52556000  0.85771000  0.22355000  1.0
  H  H5  1  0.02557000  0.64230000  0.27645000  1.0
  H  H6  1  0.47444000  0.14228000  0.77645000  1.0
  H  H7  1  0.97444000  0.35771000  0.72355000  1.0
  H  H8  1  0.81843000  0.88701000  0.25112000  1.0
  H  H9  1  0.31844000  0.61300000  0.24888000  1.0
  H  H10  1  0.18158000  0.11298000  0.74888000  1.0
  H  H11  1  0.68157000  0.38700000  0.75112000  1.0
  H  H12  1  0.75422000  0.83452000  0.15764000  1.0
  H  H13  1  0.25421000  0.66549000  0.34237000  1.0
  H  H14  1  0.24579000  0.16548000  0.84236000  1.0
  H  H15  1  0.74579000  0.33451000  0.65763000  1.0
  H  H16  1  0.16435000  0.09074000  0.10269000  1.0
  H  H17  1  0.66433000  0.40928000  0.39732000  1.0
  H  H18  1  0.83566000  0.90926000  0.89731000  1.0
  H  H19  1  0.33567000  0.59073000  0.60269000  1.0
  H  H20  1  0.32071000  0.92841000  0.12047000  1.0
  H  H21  1  0.82069000  0.57160000  0.37953000  1.0
  H  H22  1  0.67930000  0.07158000  0.87952000  1.0
  H  H23  1  0.17932000  0.42841000  0.62047000  1.0
  H  H24  1  0.97408000  0.16211000  0.23596000  1.0
  H  H25  1  0.47408000  0.33789000  0.26404000  1.0
  H  H26  1  0.02593000  0.83788000  0.76403000  1.0
  H  H27  1  0.52592000  0.66211000  0.73596000  1.0
  H  H28  1  0.79499000  0.49460000  0.10472000  1.0
  H  H29  1  0.29498000  0.00541000  0.39529000  1.0
  H  H30  1  0.20503000  0.50540000  0.89529000  1.0
  H  H31  1  0.70500000  0.99459000  0.60471000  1.0
  H  H32  1  0.01443000  0.43816000  0.17031000  1.0
  H  H33  1  0.51442000  0.06185000  0.32969000  1.0
  H  H34  1  0.98558000  0.56183000  0.82969000  1.0
  H  H35  1  0.48556000  0.93816000  0.67031000  1.0
  H  H36  1  0.73889000  0.49740000  0.20328000  1.0
  H  H37  1  0.23887000  0.00261000  0.29672000  1.0
  H  H38  1  0.26112000  0.50259000  0.79672000  1.0
  H  H39  1  0.76111000  0.99740000  0.70328000  1.0
  H  H40  1  0.24610000  0.95171000  0.98703000  1.0
  H  H41  1  0.74610000  0.54831000  0.51297000  1.0
  H  H42  1  0.75391000  0.04829000  0.01296000  1.0
  H  H43  1  0.25390000  0.45170000  0.48703000  1.0
  H  H44  1  0.34543000  0.13023000  0.98004000  1.0
  H  H45  1  0.84541000  0.36978000  0.51996000  1.0
  H  H46  1  0.65459000  0.86976000  0.01996000  1.0
  H  H47  1  0.15459000  0.63023000  0.48004000  1.0
  C  C48  1  0.88977000  0.34861000  0.97000000  1.0
  C  C49  1  0.38971000  0.15139000  0.53001000  1.0
  C  C50  1  0.11025000  0.65138000  0.03001000  1.0
  C  C51  1  0.61026000  0.84861000  0.47000000  1.0
  C  C52  1  0.68096000  0.05424000  0.17979000  1.0
  C  C53  1  0.18095000  0.44578000  0.32021000  1.0
  C  C54  1  0.31904000  0.94576000  0.82020000  1.0
  C  C55  1  0.81904000  0.55423000  0.67980000  1.0
  C  C56  1  0.73863000  0.28864000  0.15832000  1.0
  C  C57  1  0.23862000  0.21137000  0.34168000  1.0
  C  C58  1  0.26138000  0.71135000  0.84168000  1.0
  C  C59  1  0.76137000  0.78864000  0.65832000  1.0
  C  C60  1  0.69502000  0.90023000  0.20387000  1.0
  C  C61  1  0.19501000  0.59978000  0.29614000  1.0
  C  C62  1  0.30499000  0.09976000  0.79613000  1.0
  C  C63  1  0.80499000  0.40023000  0.70387000  1.0
  C  C64  1  0.33068000  0.03567000  0.09317000  1.0
  C  C65  1  0.83065000  0.46434000  0.40683000  1.0
  C  C66  1  0.66933000  0.96433000  0.90683000  1.0
  C  C67  1  0.16934000  0.53567000  0.59317000  1.0
  C  C68  1  0.82565000  0.16675000  0.19800000  1.0
  C  C69  1  0.32564000  0.33325000  0.30200000  1.0
  C  C70  1  0.17436000  0.83324000  0.80200000  1.0
  C  C71  1  0.67435000  0.66675000  0.69800000  1.0
  C  C72  1  0.82600000  0.43765000  0.15915000  1.0
  C  C73  1  0.32599000  0.06236000  0.34085000  1.0
  C  C74  1  0.17401000  0.56235000  0.84085000  1.0
  C  C75  1  0.67399000  0.93764000  0.65915000  1.0
  C  C76  1  0.37707000  0.02560000  0.00859000  1.0
  C  C77  1  0.87706000  0.47441000  0.49141000  1.0
  C  C78  1  0.62295000  0.97439000  0.99141000  1.0
  C  C79  1  0.12294000  0.52560000  0.50859000  1.0
  S  S80  1  0.63475000  0.38243000  0.93024000  1.0
  S  S81  1  0.13470000  0.11757000  0.56976000  1.0
  S  S82  1  0.36526000  0.61757000  0.06976000  1.0
  S  S83  1  0.86526000  0.88244000  0.43024000  1.0
  N  N84  1  0.07425000  0.32985000  0.99898000  1.0
  N  N85  1  0.57422000  0.17016000  0.50102000  1.0
  N  N86  1  0.92575000  0.67014000  0.00102000  1.0
  N  N87  1  0.42575000  0.82985000  0.49898000  1.0
  N  N88  1  0.54850000  0.25372000  0.11788000  1.0
  N  N89  1  0.04848000  0.24630000  0.38212000  1.0
  N  N90  1  0.45150000  0.74628000  0.88211000  1.0
  N  N91  1  0.95150000  0.75371000  0.61789000  1.0
  N  N92  1  0.51463000  0.11068000  0.13206000  1.0
  N  N93  1  0.01461000  0.38933000  0.36794000  1.0
  N  N94  1  0.48538000  0.88932000  0.86794000  1.0
  N  N95  1  0.98538000  0.61067000  0.63206000  1.0
