# generated using pymatgen
data_CdH18C18(NO)4
_symmetry_space_group_name_H-M   'P 1'
_cell_length_a   11.90540000
_cell_length_b   13.63570000
_cell_length_c   15.83870722
_cell_angle_alpha   87.77197549
_cell_angle_beta   67.92315173
_cell_angle_gamma   90.00950000
_symmetry_Int_Tables_number   1
_chemical_formula_structural   CdH18C18(NO)4
_chemical_formula_sum   'Cd4 H72 C72 N16 O16'
_cell_volume   2380.60569324
_cell_formula_units_Z   4
loop_
 _symmetry_equiv_pos_site_id
 _symmetry_equiv_pos_as_xyz
  1  'x, y, z'
loop_
 _atom_site_type_symbol
 _atom_site_label
 _atom_site_symmetry_multiplicity
 _atom_site_fract_x
 _atom_site_fract_y
 _atom_site_fract_z
 _atom_site_occupancy
  Cd  Cd0  1  0.00184000  0.36729000  0.54867000  1.0
  Cd  Cd1  1  0.55067000  0.13255000  0.45114000  1.0
  Cd  Cd2  1  0.99816000  0.63271000  0.45133000  1.0
  Cd  Cd3  1  0.44933000  0.86745000  0.54886000  1.0
  H  H4  1  0.94378000  0.41157000  0.75572000  1.0
  H  H5  1  0.70000000  0.08794000  0.24398000  1.0
  H  H6  1  0.05622000  0.58843000  0.24428000  1.0
  H  H7  1  0.30000000  0.91206000  0.75602000  1.0
  H  H8  1  0.77121000  0.40860000  0.90880000  1.0
  H  H9  1  0.68046000  0.09095000  0.09092000  1.0
  H  H10  1  0.22879000  0.59140000  0.09120000  1.0
  H  H11  1  0.31953000  0.90905000  0.90908000  1.0
  H  H12  1  0.52847000  0.38045000  0.76543000  1.0
  H  H13  1  0.29439000  0.11931000  0.23435000  1.0
  H  H14  1  0.47153000  0.61955000  0.23457000  1.0
  H  H15  1  0.70559000  0.88069000  0.76566000  1.0
  H  H16  1  0.70893000  0.38710000  0.62051000  1.0
  H  H17  1  0.32998000  0.11262000  0.37924000  1.0
  H  H18  1  0.29107000  0.61290000  0.37949000  1.0
  H  H19  1  0.67002000  0.88738000  0.62076000  1.0
  H  H20  1  0.33959000  0.37287000  0.00963000  1.0
  H  H21  1  0.34960000  0.12701000  0.99031000  1.0
  H  H22  1  0.66041000  0.62713000  0.99037000  1.0
  H  H23  1  0.65040000  0.87299000  0.00969000  1.0
  H  H24  1  0.39693000  0.30606000  0.90730000  1.0
  H  H25  1  0.30491000  0.19383000  0.09263000  1.0
  H  H26  1  0.60306000  0.69394000  0.09270000  1.0
  H  H27  1  0.69509000  0.80617000  0.90737000  1.0
  H  H28  1  0.38748000  0.43581000  0.90045000  1.0
  H  H29  1  0.28824000  0.06410000  0.09950000  1.0
  H  H30  1  0.61252000  0.56419000  0.09955000  1.0
  H  H31  1  0.71176000  0.93590000  0.90050000  1.0
  H  H32  1  0.68103000  0.37010000  0.09835000  1.0
  H  H33  1  0.77968000  0.12953000  0.90131000  1.0
  H  H34  1  0.31898000  0.62990000  0.90165000  1.0
  H  H35  1  0.22031000  0.87047000  0.09870000  1.0
  H  H36  1  0.62580000  0.29873000  0.20382000  1.0
  H  H37  1  0.82990000  0.20088000  0.79581000  1.0
  H  H38  1  0.37420000  0.70127000  0.79618000  1.0
  H  H39  1  0.17010000  0.79912000  0.20420000  1.0
  H  H40  1  0.62449000  0.42735000  0.20644000  1.0
  H  H41  1  0.83095000  0.07222000  0.79320000  1.0
  H  H42  1  0.37551000  0.57264000  0.79356000  1.0
  H  H43  1  0.16905000  0.92777000  0.20680000  1.0
  H  H44  1  0.48077000  0.35858000  0.34456000  1.0
  H  H45  1  0.82544000  0.14105000  0.65518000  1.0
  H  H46  1  0.51923000  0.64142000  0.65544000  1.0
  H  H47  1  0.17455000  0.85896000  0.34483000  1.0
  H  H48  1  0.29380000  0.35101000  0.48417000  1.0
  H  H49  1  0.77809000  0.14878000  0.51564000  1.0
  H  H50  1  0.70620000  0.64898000  0.51583000  1.0
  H  H51  1  0.22191000  0.85123000  0.48437000  1.0
  H  H52  1  0.07321000  0.33642000  0.33593000  1.0
  H  H53  1  0.40931000  0.16394000  0.66387000  1.0
  H  H54  1  0.92679000  0.66357000  0.66407000  1.0
  H  H55  1  0.59069000  0.83606000  0.33613000  1.0
  H  H56  1  0.25143000  0.35063000  0.18753000  1.0
  H  H57  1  0.43915000  0.14972000  0.81226000  1.0
  H  H58  1  0.74858000  0.64936000  0.81246000  1.0
  H  H59  1  0.56085000  0.85029000  0.18774000  1.0
  H  H60  1  0.18738000  0.18821000  0.72643000  1.0
  H  H61  1  0.91410000  0.31175000  0.27344000  1.0
  H  H62  1  0.81262000  0.81179000  0.27357000  1.0
  H  H63  1  0.08589000  0.68825000  0.72656000  1.0
  H  H64  1  0.04493000  0.12673000  0.75950000  1.0
  H  H65  1  0.80463000  0.37304000  0.24033000  1.0
  H  H66  1  0.95507000  0.87327000  0.24050000  1.0
  H  H67  1  0.19537000  0.62696000  0.75967000  1.0
  H  H68  1  0.19031000  0.00371000  0.67795000  1.0
  H  H69  1  0.86842000  0.49622000  0.32182000  1.0
  H  H70  1  0.80969000  0.99629000  0.32205000  1.0
  H  H71  1  0.13158000  0.50378000  0.67818000  1.0
  H  H72  1  0.12138000  0.04802000  0.60391000  1.0
  H  H73  1  0.72544000  0.45191000  0.39585000  1.0
  H  H74  1  0.87863000  0.95198000  0.39608000  1.0
  H  H75  1  0.27456000  0.54810000  0.60415000  1.0
  C  C76  1  0.84942000  0.40699000  0.76208000  1.0
  C  C77  1  0.61199000  0.09260000  0.23764000  1.0
  C  C78  1  0.15058000  0.59301000  0.23792000  1.0
  C  C79  1  0.38801000  0.90740000  0.76236000  1.0
  C  C80  1  0.75432000  0.40420000  0.84615000  1.0
  C  C81  1  0.60094000  0.09537000  0.15358000  1.0
  C  C82  1  0.24569000  0.59580000  0.15384000  1.0
  C  C83  1  0.39906000  0.90463000  0.84642000  1.0
  C  C84  1  0.63480000  0.39278000  0.85059000  1.0
  C  C85  1  0.48584000  0.10683000  0.14919000  1.0
  C  C86  1  0.36520000  0.60722000  0.14941000  1.0
  C  C87  1  0.51415000  0.89316000  0.85082000  1.0
  C  C88  1  0.61820000  0.38879000  0.76762000  1.0
  C  C89  1  0.38631000  0.11089000  0.23216000  1.0
  C  C90  1  0.38180000  0.61121000  0.23237000  1.0
  C  C91  1  0.61368000  0.88911000  0.76785000  1.0
  C  C92  1  0.71881000  0.39232000  0.68596000  1.0
  C  C93  1  0.40528000  0.10733000  0.31380000  1.0
  C  C94  1  0.28120000  0.60768000  0.31403000  1.0
  C  C95  1  0.59472000  0.89267000  0.68620000  1.0
  C  C96  1  0.53173000  0.38285000  0.93910000  1.0
  C  C97  1  0.47131000  0.11679000  0.06071000  1.0
  C  C98  1  0.46827000  0.61714000  0.06090000  1.0
  C  C99  1  0.52869000  0.88320000  0.93929000  1.0
  C  C100  1  0.40602000  0.37402000  0.93967000  1.0
  C  C101  1  0.34615000  0.12580000  0.06025000  1.0
  C  C102  1  0.59398000  0.62598000  0.06033000  1.0
  C  C103  1  0.65385000  0.87420000  0.93975000  1.0
  C  C104  1  0.61267000  0.36553000  0.16770000  1.0
  C  C105  1  0.78060000  0.13410000  0.83197000  1.0
  C  C106  1  0.38734000  0.63447000  0.83229000  1.0
  C  C107  1  0.21941000  0.86590000  0.16803000  1.0
  C  C108  1  0.48796000  0.36527000  0.16572000  1.0
  C  C109  1  0.65387000  0.13459000  0.83403000  1.0
  C  C110  1  0.51205000  0.63473000  0.83427000  1.0
  C  C111  1  0.34613000  0.86541000  0.16597000  1.0
  C  C112  1  0.38158000  0.35788000  0.25262000  1.0
  C  C113  1  0.63435000  0.14204000  0.74715000  1.0
  C  C114  1  0.61842000  0.64212000  0.74738000  1.0
  C  C115  1  0.36565000  0.85797000  0.25285000  1.0
  C  C116  1  0.39289000  0.35704000  0.33774000  1.0
  C  C117  1  0.73075000  0.14277000  0.66203000  1.0
  C  C118  1  0.60711000  0.64295000  0.66226000  1.0
  C  C119  1  0.26925000  0.85724000  0.33798000  1.0
  C  C120  1  0.28824000  0.35204000  0.41698000  1.0
  C  C121  1  0.70535000  0.14786000  0.58280000  1.0
  C  C122  1  0.71176000  0.64796000  0.58302000  1.0
  C  C123  1  0.29466000  0.85215000  0.41720000  1.0
  C  C124  1  0.16535000  0.34403000  0.33390000  1.0
  C  C125  1  0.49941000  0.15621000  0.66588000  1.0
  C  C126  1  0.83465000  0.65596000  0.66610000  1.0
  C  C127  1  0.50059000  0.84380000  0.33412000  1.0
  C  C128  1  0.26403000  0.35055000  0.25207000  1.0
  C  C129  1  0.51627000  0.14963000  0.74771000  1.0
  C  C130  1  0.73597000  0.64945000  0.74793000  1.0
  C  C131  1  0.48373000  0.85038000  0.25229000  1.0
  C  C132  1  0.07816000  0.23472000  0.65186000  1.0
  C  C133  1  0.73034000  0.26507000  0.34804000  1.0
  C  C134  1  0.92183000  0.76528000  0.34815000  1.0
  C  C135  1  0.26965000  0.73493000  0.65196000  1.0
  C  C136  1  0.12365000  0.15471000  0.70032000  1.0
  C  C137  1  0.82422000  0.34515000  0.29951000  1.0
  C  C138  1  0.87635000  0.84528000  0.29968000  1.0
  C  C139  1  0.17577000  0.65485000  0.70049000  1.0
  C  C140  1  0.18098000  0.06965000  0.63925000  1.0
  C  C141  1  0.82038000  0.43029000  0.36056000  1.0
  C  C142  1  0.81903000  0.93035000  0.36075000  1.0
  C  C143  1  0.17961000  0.56971000  0.63944000  1.0
  C  C144  1  0.30399000  0.09627000  0.56665000  1.0
  C  C145  1  0.87085000  0.40383000  0.43317000  1.0
  C  C146  1  0.69602000  0.90373000  0.43335000  1.0
  C  C147  1  0.12916000  0.59617000  0.56682000  1.0
  N  N148  1  0.83247000  0.39971000  0.68300000  1.0
  N  N149  1  0.51599000  0.09989000  0.31673000  1.0
  N  N150  1  0.16753000  0.60029000  0.31700000  1.0
  N  N151  1  0.48401000  0.90011000  0.68327000  1.0
  N  N152  1  0.55991000  0.38082000  0.01126000  1.0
  N  N153  1  0.57158000  0.11890000  0.98849000  1.0
  N  N154  1  0.44008000  0.61918000  0.98874000  1.0
  N  N155  1  0.42842000  0.88110000  0.01151000  1.0
  N  N156  1  0.46231000  0.37124000  0.09247000  1.0
  N  N157  1  0.55502000  0.12860000  0.90733000  1.0
  N  N158  1  0.53769000  0.62876000  0.90753000  1.0
  N  N159  1  0.44499000  0.87140000  0.09267000  1.0
  N  N160  1  0.17643000  0.34622000  0.41534000  1.0
  N  N161  1  0.59191000  0.15386000  0.58444000  1.0
  N  N162  1  0.82358000  0.65378000  0.58465000  1.0
  N  N163  1  0.40810000  0.84615000  0.41556000  1.0
  O  O164  1  0.01475000  0.20731000  0.60676000  1.0
  O  O165  1  0.62181000  0.29247000  0.39307000  1.0
  O  O166  1  0.98525000  0.79269000  0.39324000  1.0
  O  O167  1  0.37819000  0.70755000  0.60693000  1.0
  O  O168  1  0.10197000  0.32422000  0.65842000  1.0
  O  O169  1  0.76075000  0.17560000  0.34148000  1.0
  O  O170  1  0.89804000  0.67578000  0.34157000  1.0
  O  O171  1  0.23924000  0.82441000  0.65852000  1.0
  O  O172  1  0.33367000  0.18498000  0.54192000  1.0
  O  O173  1  0.87632000  0.31511000  0.45765000  1.0
  O  O174  1  0.66634000  0.81502000  0.45808000  1.0
  O  O175  1  0.12367000  0.68489000  0.54235000  1.0
  O  O176  1  0.37768000  0.02662000  0.53146000  1.0
  O  O177  1  0.90887000  0.47356000  0.46858000  1.0
  O  O178  1  0.62231000  0.97337000  0.46855000  1.0
  O  O179  1  0.09114000  0.52644000  0.53141000  1.0
