# generated using pymatgen
data_NaH10C5BrO6
_symmetry_space_group_name_H-M   'P 1'
_cell_length_a   6.00864000
_cell_length_b   6.00866000
_cell_length_c   25.76930000
_cell_angle_alpha   90.00000000
_cell_angle_beta   90.00020000
_cell_angle_gamma   104.61300000
_symmetry_Int_Tables_number   1
_chemical_formula_structural   NaH10C5BrO6
_chemical_formula_sum   'Na4 H40 C20 Br4 O24'
_cell_volume   900.27587767
_cell_formula_units_Z   4
loop_
 _symmetry_equiv_pos_site_id
 _symmetry_equiv_pos_as_xyz
  1  'x, y, z'
loop_
 _atom_site_type_symbol
 _atom_site_label
 _atom_site_symmetry_multiplicity
 _atom_site_fract_x
 _atom_site_fract_y
 _atom_site_fract_z
 _atom_site_occupancy
  Na  Na0  1  0.75278000  0.75278000  0.50000000  1.0
  Na  Na1  1  0.24723000  0.24723000  1.00000000  1.0
  Na  Na2  1  0.00851000  0.99148000  0.25000000  1.0
  Na  Na3  1  0.99148000  0.00852000  0.75000000  1.0
  H  H4  1  0.18316000  0.96413000  0.44017000  1.0
  H  H5  1  0.96414000  0.18316000  0.55983000  1.0
  H  H6  1  0.03587000  0.81684000  0.05983000  1.0
  H  H7  1  0.81684000  0.03586000  0.94017000  1.0
  H  H8  1  0.24102000  0.60927000  0.22901000  1.0
  H  H9  1  0.60927000  0.24102000  0.77099000  1.0
  H  H10  1  0.39072000  0.75898000  0.27099000  1.0
  H  H11  1  0.75898000  0.39072000  0.72901000  1.0
  H  H12  1  0.63209000  0.22169000  0.22845000  1.0
  H  H13  1  0.22169000  0.63209000  0.77156000  1.0
  H  H14  1  0.77831000  0.36791000  0.27155000  1.0
  H  H15  1  0.36792000  0.77831000  0.72845000  1.0
  H  H16  1  0.80483000  0.59623000  0.39904000  1.0
  H  H17  1  0.59623000  0.80483000  0.60096000  1.0
  H  H18  1  0.40377000  0.19517000  0.10096000  1.0
  H  H19  1  0.19517000  0.40376000  0.89903000  1.0
  H  H20  1  0.76271000  0.23485000  0.46854000  1.0
  H  H21  1  0.23485000  0.76271000  0.53146000  1.0
  H  H22  1  0.76515000  0.23729000  0.03146000  1.0
  H  H23  1  0.23729000  0.76515000  0.96854000  1.0
  H  H24  1  0.37778000  0.32545000  0.31801000  1.0
  H  H25  1  0.32545000  0.37777000  0.68199000  1.0
  H  H26  1  0.67454000  0.62222000  0.18199000  1.0
  H  H27  1  0.62222000  0.67455000  0.81801000  1.0
  H  H28  1  0.08883000  0.48830000  0.36703000  1.0
  H  H29  1  0.48831000  0.08883000  0.63297000  1.0
  H  H30  1  0.51169000  0.91117000  0.13297000  1.0
  H  H31  1  0.91116000  0.51169000  0.86702000  1.0
  H  H32  1  0.85529000  0.10437000  0.37932000  1.0
  H  H33  1  0.10437000  0.85530000  0.62068000  1.0
  H  H34  1  0.89563000  0.14471000  0.12068000  1.0
  H  H35  1  0.14471000  0.89563000  0.87932000  1.0
  H  H36  1  0.44587000  0.02616000  0.36252000  1.0
  H  H37  1  0.02616000  0.44587000  0.63748000  1.0
  H  H38  1  0.97384000  0.55413000  0.13748000  1.0
  H  H39  1  0.55413000  0.97384000  0.86252000  1.0
  H  H40  1  0.15797000  0.87156000  0.35040000  1.0
  H  H41  1  0.87156000  0.15798000  0.64961000  1.0
  H  H42  1  0.12844000  0.84203000  0.14961000  1.0
  H  H43  1  0.84203000  0.12844000  0.85039000  1.0
  C  C44  1  0.28001000  0.49200000  0.43649000  1.0
  C  C45  1  0.49204000  0.28003000  0.56350000  1.0
  C  C46  1  0.50797000  0.71998000  0.06350000  1.0
  C  C47  1  0.71998000  0.50797000  0.93650000  1.0
  C  C48  1  0.05013000  0.44339000  0.40822000  1.0
  C  C49  1  0.44339000  0.05013000  0.59178000  1.0
  C  C50  1  0.55661000  0.94988000  0.09178000  1.0
  C  C51  1  0.94988000  0.55661000  0.90822000  1.0
  C  C52  1  0.96447000  0.18081000  0.41231000  1.0
  C  C53  1  0.18082000  0.96448000  0.58770000  1.0
  C  C54  1  0.81919000  0.03553000  0.08769000  1.0
  C  C55  1  0.03553000  0.81918000  0.91230000  1.0
  C  C56  1  0.18985000  0.10572000  0.41294000  1.0
  C  C57  1  0.10572000  0.18985000  0.58706000  1.0
  C  C58  1  0.89428000  0.81015000  0.08706000  1.0
  C  C59  1  0.81015000  0.89428000  0.91294000  1.0
  C  C60  1  0.26775000  0.04214000  0.36029000  1.0
  C  C61  1  0.04214000  0.26775000  0.63971000  1.0
  C  C62  1  0.95786000  0.73225000  0.13971000  1.0
  C  C63  1  0.73225000  0.95786000  0.86029000  1.0
  Br  Br64  1  0.67438000  0.65527000  0.32408000  1.0
  Br  Br65  1  0.65527000  0.67438000  0.67592000  1.0
  Br  Br66  1  0.34473000  0.32562000  0.17592000  1.0
  Br  Br67  1  0.32562000  0.34473000  0.82408000  1.0
  O  O68  1  0.25201000  0.74800000  0.25000000  1.0
  O  O69  1  0.74801000  0.25201000  0.75000000  1.0
  O  O70  1  0.76901000  0.23099000  0.25000000  1.0
  O  O71  1  0.23100000  0.76902000  0.75000000  1.0
  O  O72  1  0.38468000  0.67086000  0.45744000  1.0
  O  O73  1  0.67085000  0.38467000  0.54256000  1.0
  O  O74  1  0.32915000  0.61534000  0.04256000  1.0
  O  O75  1  0.61534000  0.32915000  0.95744000  1.0
  O  O76  1  0.89940000  0.56630000  0.42907000  1.0
  O  O77  1  0.56629000  0.89940000  0.57093000  1.0
  O  O78  1  0.43371000  0.10061000  0.07093000  1.0
  O  O79  1  0.10060000  0.43370000  0.92907000  1.0
  O  O80  1  0.84675000  0.11887000  0.46036000  1.0
  O  O81  1  0.11887000  0.84675000  0.53964000  1.0
  O  O82  1  0.88113000  0.15325000  0.03964000  1.0
  O  O83  1  0.15325000  0.88113000  0.96036000  1.0
  O  O84  1  0.36203000  0.30404000  0.43525000  1.0
  O  O85  1  0.30405000  0.36203000  0.56475000  1.0
  O  O86  1  0.69595000  0.63797000  0.06475000  1.0
  O  O87  1  0.63797000  0.69595000  0.93525000  1.0
  O  O88  1  0.24011000  0.19428000  0.31951000  1.0
  O  O89  1  0.19428000  0.24011000  0.68049000  1.0
  O  O90  1  0.80571000  0.75989000  0.18049000  1.0
  O  O91  1  0.75989000  0.80572000  0.81951000  1.0
