# generated using pymatgen
data_V2ZnH7C8(NO2)3
_symmetry_space_group_name_H-M   'P 1'
_cell_length_a   7.71975000
_cell_length_b   8.47992000
_cell_length_c   10.36520000
_cell_angle_alpha   111.96600000
_cell_angle_beta   92.88470000
_cell_angle_gamma   105.73800000
_symmetry_Int_Tables_number   1
_chemical_formula_structural   V2ZnH7C8(NO2)3
_chemical_formula_sum   'V4 Zn2 H14 C16 N6 O12'
_cell_volume   596.86711678
_cell_formula_units_Z   2
loop_
 _symmetry_equiv_pos_site_id
 _symmetry_equiv_pos_as_xyz
  1  'x, y, z'
loop_
 _atom_site_type_symbol
 _atom_site_label
 _atom_site_symmetry_multiplicity
 _atom_site_fract_x
 _atom_site_fract_y
 _atom_site_fract_z
 _atom_site_occupancy
  C  C0  1  0.72896000  0.03319500  0.20877000  1.0
  C  C1  1  0.27104000  0.96681000  0.79123000  1.0
  C  C2  1  0.83418000  0.10362500  0.12592500  1.0
  C  C3  1  0.16582000  0.89638000  0.87407500  1.0
  C  C4  1  0.78808000  0.01488500  0.97925500  1.0
  C  C5  1  0.21192000  0.98512000  0.02074500  1.0
  C  C6  1  0.64059000  0.85828500  0.91938500  1.0
  C  C7  1  0.35941000  0.14172000  0.08061500  1.0
  C  C8  1  0.54260000  0.79658000  0.00998500  1.0
  C  C9  1  0.45740000  0.20341500  0.99001500  1.0
  C  C10  1  0.38717000  0.63493000  0.96311000  1.0
  C  C11  1  0.61284000  0.36507000  0.03689000  1.0
  C  C12  1  0.16555000  0.42361000  0.97882500  1.0
  C  C13  1  0.83445000  0.57638500  0.02117500  1.0
  C  C14  1  0.15958000  0.38969500  0.83731500  1.0
  C  C15  1  0.84043000  0.61031000  0.16268500  1.0
  H  H16  1  0.33067000  0.54318500  0.73814500  1.0
  H  H17  1  0.66933000  0.45682000  0.26185500  1.0
  H  H18  1  0.75901000  0.09796000  0.32357000  1.0
  H  H19  1  0.24099000  0.90204000  0.67643000  1.0
  H  H20  1  0.94974000  0.22534500  0.17690500  1.0
  H  H21  1  0.05026000  0.77466000  0.82309500  1.0
  H  H22  1  0.86470000  0.06574000  0.91006500  1.0
  H  H23  1  0.13530000  0.93426500  0.08993500  1.0
  H  H24  1  0.60274000  0.78563000  0.80517000  1.0
  H  H25  1  0.39727000  0.21437000  0.19483000  1.0
  H  H26  1  0.07832000  0.35066500  0.02974500  1.0
  H  H27  1  0.92167000  0.64933500  0.97026000  1.0
  H  H28  1  0.06635000  0.28506500  0.74471000  1.0
  H  H29  1  0.93365000  0.71493000  0.25529000  1.0
  N  N30  1  0.58599000  0.88367500  0.15231500  1.0
  N  N31  1  0.41401000  0.11632500  0.84768500  1.0
  N  N32  1  0.30723000  0.57625000  0.05559500  1.0
  N  N33  1  0.69276000  0.42374500  0.94440500  1.0
  N  N34  1  0.30077000  0.52376000  0.82982500  1.0
  N  N35  1  0.69923000  0.47623500  0.17017000  1.0
  O  O36  1  0.00000000  0.50000000  0.50000000  1.0
  O  O37  1  0.37064000  0.59552000  0.59972000  1.0
  O  O38  1  0.62937000  0.40448500  0.40028000  1.0
  O  O39  1  0.73429000  0.43924000  0.66886500  1.0
  O  O40  1  0.26570000  0.56075500  0.33113500  1.0
  O  O41  1  1.00000000  0.00000000  0.50000000  1.0
  O  O42  1  0.25047000  0.91107000  0.31711500  1.0
  O  O43  1  0.74953000  0.08893500  0.68288000  1.0
  O  O44  1  0.37830000  0.16812000  0.58632000  1.0
  O  O45  1  0.62169000  0.83187500  0.41368000  1.0
  O  O46  1  0.80655000  0.75459500  0.61423500  1.0
  O  O47  1  0.19345000  0.24540500  0.38577000  1.0
  V  V48  1  0.78734000  0.91902000  0.55193500  1.0
  V  V49  1  0.21266000  0.08097500  0.44806000  1.0
  V  V50  1  0.78363000  0.51788000  0.54517500  1.0
  V  V51  1  0.21638000  0.48212000  0.45483000  1.0
  Zn  Zn52  1  0.40379000  0.74847000  0.26326000  1.0
  Zn  Zn53  1  0.59622000  0.25153000  0.73674500  1.0
