# generated using pymatgen
data_Zn2H11C14N9O4
_symmetry_space_group_name_H-M   'P 1'
_cell_length_a   7.77454000
_cell_length_b   10.19230000
_cell_length_c   13.37300000
_cell_angle_alpha   110.84100000
_cell_angle_beta   105.55400000
_cell_angle_gamma   93.57770000
_symmetry_Int_Tables_number   1
_chemical_formula_structural   Zn2H11C14N9O4
_chemical_formula_sum   'Zn4 H22 C28 N18 O8'
_cell_volume   939.31194315
_cell_formula_units_Z   2
loop_
 _symmetry_equiv_pos_site_id
 _symmetry_equiv_pos_as_xyz
  1  'x, y, z'
loop_
 _atom_site_type_symbol
 _atom_site_label
 _atom_site_symmetry_multiplicity
 _atom_site_fract_x
 _atom_site_fract_y
 _atom_site_fract_z
 _atom_site_occupancy
  Zn  Zn0  1  0.62849000  0.87757000  0.25571000  1.0
  Zn  Zn1  1  0.37151000  0.12243000  0.74429000  1.0
  Zn  Zn2  1  0.00000000  0.50000000  0.50000000  1.0
  Zn  Zn3  1  0.50000000  0.50000000  0.50000000  1.0
  H  H4  1  0.03678000  0.29562000  0.07902000  1.0
  H  H5  1  0.96322000  0.70438000  0.92098000  1.0
  H  H6  1  0.82890000  0.35085000  0.20545000  1.0
  H  H7  1  0.17110000  0.64914000  0.79455000  1.0
  H  H8  1  0.37220000  0.36694000  0.20289000  1.0
  H  H9  1  0.62780000  0.63306000  0.79711000  1.0
  H  H10  1  0.93249000  0.15034000  0.36943000  1.0
  H  H11  1  0.06751000  0.84966000  0.63057000  1.0
  H  H12  1  0.38814000  0.14014000  0.35844000  1.0
  H  H13  1  0.61186000  0.85986000  0.64156000  1.0
  H  H14  1  0.97789000  0.73701000  0.37320000  1.0
  H  H15  1  0.02211000  0.26299000  0.62680000  1.0
  H  H16  1  0.44592000  0.73855000  0.38635000  1.0
  H  H17  1  0.55408000  0.26145000  0.61365000  1.0
  H  H18  1  0.15138000  0.93216000  0.15912000  1.0
  H  H19  1  0.84863000  0.06785000  0.84087000  1.0
  H  H20  1  0.66772000  0.00427000  0.95088000  1.0
  H  H21  1  0.33228000  0.99574000  0.04912000  1.0
  H  H22  1  0.02311000  0.72194000  0.16471000  1.0
  H  H23  1  0.97689000  0.27805000  0.83529000  1.0
  H  H24  1  0.28010000  0.43179000  0.95265000  1.0
  H  H25  1  0.71990000  0.56821000  0.04735000  1.0
  C  C26  1  0.97585000  0.36866000  0.23412000  1.0
  C  C27  1  0.02415000  0.63134000  0.76587000  1.0
  C  C28  1  0.25533000  0.37691000  0.23297000  1.0
  C  C29  1  0.74467000  0.62310000  0.76703000  1.0
  C  C30  1  0.80673000  0.18366000  0.38033000  1.0
  C  C31  1  0.19327000  0.81634000  0.61967000  1.0
  C  C32  1  0.53020000  0.17784000  0.37401000  1.0
  C  C33  1  0.46980000  0.82216000  0.62599000  1.0
  C  C34  1  0.85153000  0.71415000  0.38870000  1.0
  C  C35  1  0.14847000  0.28585000  0.61130000  1.0
  C  C36  1  0.58231000  0.71551000  0.39631000  1.0
  C  C37  1  0.41769000  0.28449000  0.60369000  1.0
  C  C38  1  0.78815000  0.92692000  0.12701000  1.0
  C  C39  1  0.21185000  0.07309000  0.87300000  1.0
  C  C40  1  0.89831000  0.96463000  0.06173000  1.0
  C  C41  1  0.10170000  0.03538000  0.93827000  1.0
  C  C42  1  0.08563000  0.96328000  0.09018000  1.0
  C  C43  1  0.91437000  0.03673000  0.90982000  1.0
  C  C44  1  0.81295000  0.00184000  0.97131000  1.0
  C  C45  1  0.18706000  0.99817000  0.02869000  1.0
  C  C46  1  0.01261000  0.62447000  0.09273000  1.0
  C  C47  1  0.98738000  0.37552000  0.90728000  1.0
  C  C48  1  0.15667000  0.46036000  0.97263000  1.0
  C  C49  1  0.84334000  0.53965000  0.02738000  1.0
  C  C50  1  0.16959000  0.58544000  0.06571000  1.0
  C  C51  1  0.83041000  0.41456000  0.93430000  1.0
  C  C52  1  0.35210000  0.67597000  0.13474000  1.0
  C  C53  1  0.64789000  0.32403000  0.86527000  1.0
  N  N54  1  0.08124000  0.42383000  0.34004000  1.0
  N  N55  1  0.91876000  0.57617000  0.65996000  1.0
  N  N56  1  0.25849000  0.42916000  0.33934000  1.0
  N  N57  1  0.74151000  0.57084000  0.66066000  1.0
  N  N58  1  0.08051000  0.33776000  0.16510000  1.0
  N  N59  1  0.91949000  0.66224000  0.83491000  1.0
  N  N60  1  0.78720000  0.31848000  0.42798000  1.0
  N  N61  1  0.21280000  0.68152000  0.57202000  1.0
  N  N62  1  0.60865000  0.31505000  0.42406000  1.0
  N  N63  1  0.39135000  0.68495000  0.57594000  1.0
  N  N64  1  0.64953000  0.09187000  0.34555000  1.0
  N  N65  1  0.35046000  0.90813000  0.65445000  1.0
  N  N66  1  0.82072000  0.62089000  0.43388000  1.0
  N  N67  1  0.17928000  0.37911000  0.56612000  1.0
  N  N68  1  0.64650000  0.62195000  0.43866000  1.0
  N  N69  1  0.35350000  0.37805000  0.56134000  1.0
  N  N70  1  0.70607000  0.77628000  0.36437000  1.0
  N  N71  1  0.29392000  0.22372000  0.63563000  1.0
  O  O72  1  0.87139000  0.90769000  0.21693000  1.0
  O  O73  1  0.12862000  0.09231000  0.78307000  1.0
  O  O74  1  0.61746000  0.91642000  0.09434000  1.0
  O  O75  1  0.38254000  0.08359000  0.90567000  1.0
  O  O76  1  0.35609000  0.80188000  0.20749000  1.0
  O  O77  1  0.64390000  0.19811000  0.79250000  1.0
  O  O78  1  0.49323000  0.62930000  0.12039000  1.0
  O  O79  1  0.50677000  0.37070000  0.87961000  1.0
