# generated using pymatgen
data_UH10(C7O3)2
_symmetry_space_group_name_H-M   'P 1'
_cell_length_a   5.34946000
_cell_length_b   7.22027000
_cell_length_c   9.47505117
_cell_angle_alpha   67.67270790
_cell_angle_beta   87.45938510
_cell_angle_gamma   83.31580000
_symmetry_Int_Tables_number   1
_chemical_formula_structural   UH10(C7O3)2
_chemical_formula_sum   'U1 H10 C14 O6'
_cell_volume   336.23131327
_cell_formula_units_Z   1
loop_
 _symmetry_equiv_pos_site_id
 _symmetry_equiv_pos_as_xyz
  1  'x, y, z'
loop_
 _atom_site_type_symbol
 _atom_site_label
 _atom_site_symmetry_multiplicity
 _atom_site_fract_x
 _atom_site_fract_y
 _atom_site_fract_z
 _atom_site_occupancy
  U  U0  1  0.00002000  0.99996000  0.00000000  1.0
  H  H1  1  0.87873000  0.08412000  0.55968000  1.0
  H  H2  1  0.12114000  0.35560000  0.56022000  1.0
  H  H3  1  0.12126000  0.91590000  0.44033000  1.0
  H  H4  1  0.87885000  0.64441000  0.43978000  1.0
  H  H5  1  0.49975000  0.43347000  0.13347000  1.0
  H  H6  1  0.50023000  0.56653000  0.86653000  1.0
  H  H7  1  0.87874000  0.22625000  0.27408000  1.0
  H  H8  1  0.12085000  0.49946000  0.27460000  1.0
  H  H9  1  0.12124000  0.77374000  0.72592000  1.0
  H  H10  1  0.87913000  0.50053000  0.72540000  1.0
  C  C11  1  0.50013000  0.12712000  0.74521000  1.0
  C  C12  1  0.49988000  0.87289000  0.25479000  1.0
  C  C13  1  0.49994000  0.21164000  0.57651000  1.0
  C  C14  1  0.50005000  0.78839000  0.42349000  1.0
  C  C15  1  0.71409000  0.17554000  0.49608000  1.0
  C  C16  1  0.28564000  0.32806000  0.49638000  1.0
  C  C17  1  0.28590000  0.82447000  0.50393000  1.0
  C  C18  1  0.71436000  0.67196000  0.50362000  1.0
  C  C19  1  0.49973000  0.37116000  0.25778000  1.0
  C  C20  1  0.50027000  0.62884000  0.74222000  1.0
  C  C21  1  0.71335000  0.25436000  0.33731000  1.0
  C  C22  1  0.28631000  0.40826000  0.33760000  1.0
  C  C23  1  0.28664000  0.74564000  0.66270000  1.0
  C  C24  1  0.71368000  0.59176000  0.66240000  1.0
  O  O25  1  0.10266000  0.75245000  0.00009000  1.0
  O  O26  1  0.89739000  0.24750000  0.99990000  1.0
  O  O27  1  0.70762000  0.04692000  0.81568000  1.0
  O  O28  1  0.29281000  0.13673000  0.81595000  1.0
  O  O29  1  0.29239000  0.95306000  0.18431000  1.0
  O  O30  1  0.70721000  0.86328000  0.18405000  1.0
