# generated using pymatgen
data_Al4H19C28O20F3
_symmetry_space_group_name_H-M   'P 1'
_cell_length_a   6.67345000
_cell_length_b   13.15950000
_cell_length_c   16.96400000
_cell_angle_alpha   90.53560000
_cell_angle_beta   89.82180000
_cell_angle_gamma   89.62900000
_symmetry_Int_Tables_number   1
_chemical_formula_structural   Al4H19C28O20F3
_chemical_formula_sum   'Al4 H19 C28 O20 F3'
_cell_volume   1489.66220622
_cell_formula_units_Z   1
loop_
 _symmetry_equiv_pos_site_id
 _symmetry_equiv_pos_as_xyz
  1  'x, y, z'
loop_
 _atom_site_type_symbol
 _atom_site_label
 _atom_site_symmetry_multiplicity
 _atom_site_fract_x
 _atom_site_fract_y
 _atom_site_fract_z
 _atom_site_occupancy
  Al  Al0  1  0.88278000  0.49801000  0.50139000  1.0
  Al  Al1  1  0.38247000  0.50019000  0.50107000  1.0
  Al  Al2  1  0.38205000  0.00965000  0.00528000  1.0
  Al  Al3  1  0.88105000  0.00957000  0.00405000  1.0
  H  H4  1  0.38868000  0.31236000  0.16153000  1.0
  H  H5  1  0.06517000  0.43128000  0.22452000  1.0
  H  H6  1  0.28910000  0.31893000  0.71147000  1.0
  H  H7  1  0.82944000  0.20732000  0.81470000  1.0
  H  H8  1  0.28934000  0.19635000  0.79866000  1.0
  H  H9  1  0.93664000  0.80523000  0.19264000  1.0
  H  H10  1  0.47824000  0.82013000  0.21279000  1.0
  H  H11  1  0.93520000  0.71080000  0.31834000  1.0
  H  H12  1  0.48044000  0.68905000  0.29293000  1.0
  H  H13  1  0.93430000  0.80644000  0.81232000  1.0
  H  H14  1  0.47253000  0.80251000  0.80998000  1.0
  H  H15  1  0.93049000  0.68774000  0.69991000  1.0
  H  H16  1  0.79997000  0.26540000  0.19355000  1.0
  H  H17  1  0.87672000  0.19280000  0.34687000  1.0
  H  H18  1  0.83316000  0.29925000  0.68769000  1.0
  H  H19  1  0.63144000  0.37468000  0.46768000  1.0
  H  H20  1  0.12749000  0.62791000  0.47489000  1.0
  H  H21  1  0.63052000  0.13388000  0.03947000  1.0
  H  H22  1  0.13167000  0.88160000  0.03061000  1.0
  C  C23  1  0.62923000  0.61742000  0.39151000  1.0
  C  C24  1  0.63524000  0.61958000  0.60799000  1.0
  C  C25  1  0.13830000  0.38711000  0.61199000  1.0
  C  C26  1  0.13226000  0.37555000  0.39376000  1.0
  C  C27  1  0.09444000  0.35116000  0.23673000  1.0
  C  C28  1  0.27465000  0.28689000  0.20318000  1.0
  C  C29  1  0.12644000  0.19711000  0.18578000  1.0
  C  C30  1  0.94782000  0.26080000  0.22068000  1.0
  C  C31  1  0.98960000  0.21885000  0.30507000  1.0
  C  C32  1  0.16817000  0.15485000  0.27158000  1.0
  C  C33  1  0.31591000  0.24525000  0.28736000  1.0
  C  C34  1  0.13764000  0.30920000  0.32241000  1.0
  C  C35  1  0.97629000  0.28519000  0.71698000  1.0
  C  C36  1  0.14144000  0.32687000  0.68475000  1.0
  C  C37  1  0.97467000  0.22434000  0.78801000  1.0
  C  C38  1  0.13951000  0.18555000  0.82290000  1.0
  C  C39  1  0.79198000  0.78842000  0.21984000  1.0
  C  C40  1  0.62683000  0.82977000  0.18703000  1.0
  C  C41  1  0.79163000  0.72490000  0.28941000  1.0
  C  C42  1  0.62742000  0.68060000  0.32015000  1.0
  C  C43  1  0.78758000  0.78457000  0.78935000  1.0
  C  C44  1  0.62406000  0.82134000  0.82782000  1.0
  C  C45  1  0.78754000  0.71826000  0.72107000  1.0
  C  C46  1  0.62785000  0.68890000  0.67782000  1.0
  C  C47  1  0.63638000  0.88939000  0.89704000  1.0
  C  C48  1  0.63033000  0.89215000  0.11517000  1.0
  C  C49  1  0.12595000  0.13212000  0.11362000  1.0
  C  C50  1  0.13375000  0.12425000  0.89516000  1.0
  O  O51  1  0.46916000  0.60146000  0.57474000  1.0
  O  O52  1  0.79638000  0.59887000  0.42512000  1.0
  O  O53  1  0.95942000  0.40681000  0.41551000  1.0
  O  O54  1  0.80643000  0.58510000  0.58801000  1.0
  O  O55  1  0.97159000  0.40214000  0.57729000  1.0
  O  O56  1  0.45702000  0.58628000  0.41393000  1.0
  O  O57  1  0.63288000  0.43692000  0.49883000  1.0
  O  O58  1  0.30844000  0.41950000  0.58883000  1.0
  O  O59  1  0.29911000  0.39715000  0.42578000  1.0
  O  O60  1  0.13080000  0.56126000  0.49862000  1.0
  O  O61  1  0.79885000  0.91166000  0.08311000  1.0
  O  O62  1  0.46835000  0.91227000  0.92910000  1.0
  O  O63  1  0.30444000  0.09550000  0.92083000  1.0
  O  O64  1  0.45807000  0.92113000  0.09088000  1.0
  O  O65  1  0.29651000  0.11068000  0.08358000  1.0
  O  O66  1  0.80707000  0.92035000  0.92029000  1.0
  O  O67  1  0.63087000  0.07225000  0.00771000  1.0
  O  O68  1  0.95563000  0.10259000  0.08925000  1.0
  O  O69  1  0.96486000  0.10496000  0.92672000  1.0
  O  O70  1  0.13208000  0.94856000  0.00741000  1.0
  F  F71  1  0.43978000  0.72162000  0.69571000  1.0
  F  F72  1  0.20518000  0.05503000  0.28852000  1.0
  F  F73  1  0.50269000  0.23591000  0.32027000  1.0
