# generated using pymatgen
data_HgH11C11N3Cl2
_symmetry_space_group_name_H-M   'P 1'
_cell_length_a   7.83989000
_cell_length_b   8.20252000
_cell_length_c   11.23960000
_cell_angle_alpha   103.77200000
_cell_angle_beta   95.16660000
_cell_angle_gamma   113.97600000
_symmetry_Int_Tables_number   1
_chemical_formula_structural   HgH11C11N3Cl2
_chemical_formula_sum   'Hg2 H22 C22 N6 Cl4'
_cell_volume   627.06296755
_cell_formula_units_Z   2
loop_
 _symmetry_equiv_pos_site_id
 _symmetry_equiv_pos_as_xyz
  1  'x, y, z'
loop_
 _atom_site_type_symbol
 _atom_site_label
 _atom_site_symmetry_multiplicity
 _atom_site_fract_x
 _atom_site_fract_y
 _atom_site_fract_z
 _atom_site_occupancy
  Hg  Hg0  1  0.94026000  0.55457000  0.71232000  1.0
  Hg  Hg1  1  0.05973000  0.44543000  0.28768000  1.0
  H  H2  1  0.84725000  0.84422000  0.66986000  1.0
  H  H3  1  0.15275000  0.15578000  0.33014000  1.0
  H  H4  1  0.48933000  0.80683000  0.65672000  1.0
  H  H5  1  0.51068000  0.19318000  0.34329000  1.0
  H  H6  1  0.18243000  0.81442000  0.58553000  1.0
  H  H7  1  0.81758000  0.18558000  0.41447000  1.0
  H  H8  1  0.18724000  0.12520000  0.58809000  1.0
  H  H9  1  0.81275000  0.87480000  0.41191000  1.0
  H  H10  1  0.49904000  0.40872000  0.65156000  1.0
  H  H11  1  0.50096000  0.59128000  0.34844000  1.0
  H  H12  1  0.93203000  0.14615000  0.65723000  1.0
  H  H13  1  0.06798000  0.85386000  0.34277000  1.0
  H  H14  1  0.93029000  0.22885000  0.81532000  1.0
  H  H15  1  0.06971000  0.77115000  0.18468000  1.0
  H  H16  1  0.74442000  0.11714000  0.94398000  1.0
  H  H17  1  0.25558000  0.88285000  0.05602000  1.0
  H  H18  1  0.66144000  0.99782000  0.12128000  1.0
  H  H19  1  0.33856000  0.00218000  0.87872000  1.0
  H  H20  1  0.66603000  0.69020000  0.12453000  1.0
  H  H21  1  0.33397000  0.30979000  0.87547000  1.0
  H  H22  1  0.75827000  0.52410000  0.94632000  1.0
  H  H23  1  0.24173000  0.47590000  0.05368000  1.0
  C  C24  1  0.65617000  0.10394000  0.69037000  1.0
  C  C25  1  0.34383000  0.89607000  0.30963000  1.0
  C  C26  1  0.48718000  0.93815000  0.65496000  1.0
  C  C27  1  0.51283000  0.06185000  0.34505000  1.0
  C  C28  1  0.31576000  0.94302000  0.61663000  1.0
  C  C29  1  0.68423000  0.05698000  0.38337000  1.0
  C  C30  1  0.31710000  0.11349000  0.61677000  1.0
  C  C31  1  0.68291000  0.88652000  0.38323000  1.0
  C  C32  1  0.49090000  0.27313000  0.65247000  1.0
  C  C33  1  0.50909000  0.72687000  0.34753000  1.0
  C  C34  1  0.84983000  0.11087000  0.72948000  1.0
  C  C35  1  0.15018000  0.88913000  0.27052000  1.0
  C  C36  1  0.79752000  0.88322000  0.84742000  1.0
  C  C37  1  0.20248000  0.11677000  0.15258000  1.0
  C  C38  1  0.74739000  0.98628000  0.94577000  1.0
  C  C39  1  0.25261000  0.01372000  0.05423000  1.0
  C  C40  1  0.70029000  0.91810000  0.04565000  1.0
  C  C41  1  0.29971000  0.08189000  0.95435000  1.0
  C  C42  1  0.70211000  0.74900000  0.04806000  1.0
  C  C43  1  0.29789000  0.25101000  0.95194000  1.0
  C  C44  1  0.75315000  0.65574000  0.94850000  1.0
  C  C45  1  0.24685000  0.34425000  0.05150000  1.0
  N  N46  1  0.65633000  0.26764000  0.68796000  1.0
  N  N47  1  0.34367000  0.73237000  0.31204000  1.0
  N  N48  1  0.84672000  0.94146000  0.74602000  1.0
  N  N49  1  0.15328000  0.05854000  0.25399000  1.0
  N  N50  1  0.80069000  0.72032000  0.85092000  1.0
  N  N51  1  0.19931000  0.27968000  0.14908000  1.0
  Cl  Cl52  1  0.23458000  0.60283000  0.83345000  1.0
  Cl  Cl53  1  0.76543000  0.39716000  0.16653000  1.0
  Cl  Cl54  1  0.81976000  0.59577000  0.51365000  1.0
  Cl  Cl55  1  0.18024000  0.40423000  0.48635000  1.0
