# generated using pymatgen
data_TbH6(C2O3)3
_symmetry_space_group_name_H-M   'P 1'
_cell_length_a   6.56625000
_cell_length_b   10.22610000
_cell_length_c   13.37240000
_cell_angle_alpha   90.00000000
_cell_angle_beta   89.99990000
_cell_angle_gamma   89.99990000
_symmetry_Int_Tables_number   1
_chemical_formula_structural   TbH6(C2O3)3
_chemical_formula_sum   'Tb4 H24 C24 O36'
_cell_volume   897.91826951
_cell_formula_units_Z   4
loop_
 _symmetry_equiv_pos_site_id
 _symmetry_equiv_pos_as_xyz
  1  'x, y, z'
loop_
 _atom_site_type_symbol
 _atom_site_label
 _atom_site_symmetry_multiplicity
 _atom_site_fract_x
 _atom_site_fract_y
 _atom_site_fract_z
 _atom_site_occupancy
  Tb  Tb0  1  0.13564000  0.50000000  0.69894000  1.0
  Tb  Tb1  1  0.86436000  0.50000000  0.30106000  1.0
  Tb  Tb2  1  0.63564000  0.00000000  0.80106000  1.0
  Tb  Tb3  1  0.36437000  0.00000000  0.19894000  1.0
  H  H4  1  0.21687000  0.27367000  0.84678000  1.0
  H  H5  1  0.78313000  0.27367000  0.15321000  1.0
  H  H6  1  0.71687000  0.22633000  0.65322000  1.0
  H  H7  1  0.28313000  0.22633000  0.34678000  1.0
  H  H8  1  0.78314000  0.72633000  0.15321000  1.0
  H  H9  1  0.21687000  0.72633000  0.84679000  1.0
  H  H10  1  0.28314000  0.77367000  0.34679000  1.0
  H  H11  1  0.71687000  0.77367000  0.65321000  1.0
  H  H12  1  0.98164000  0.31111000  0.85030000  1.0
  H  H13  1  0.01836000  0.31111000  0.14970000  1.0
  H  H14  1  0.48165000  0.18889000  0.64970000  1.0
  H  H15  1  0.51836000  0.18889000  0.35030000  1.0
  H  H16  1  0.01836000  0.68889000  0.14970000  1.0
  H  H17  1  0.98164000  0.68889000  0.85030000  1.0
  H  H18  1  0.51836000  0.81111000  0.35030000  1.0
  H  H19  1  0.48164000  0.81111000  0.64970000  1.0
  H  H20  1  0.22615000  0.42428000  0.48315000  1.0
  H  H21  1  0.77385000  0.42428000  0.51685000  1.0
  H  H22  1  0.72615000  0.07572000  0.01685000  1.0
  H  H23  1  0.27385000  0.07572000  0.98315000  1.0
  H  H24  1  0.77385000  0.57572000  0.51685000  1.0
  H  H25  1  0.22615000  0.57572000  0.48315000  1.0
  H  H26  1  0.27385000  0.92428000  0.98315000  1.0
  H  H27  1  0.72615000  0.92428000  0.01685000  1.0
  C  C28  1  0.07712000  0.75447000  0.60109000  1.0
  C  C29  1  0.92288000  0.75447000  0.39891000  1.0
  C  C30  1  0.57712000  0.74553000  0.89891000  1.0
  C  C31  1  0.42288000  0.74553000  0.10109000  1.0
  C  C32  1  0.92288000  0.24553000  0.39890000  1.0
  C  C33  1  0.07712000  0.24553000  0.60109000  1.0
  C  C34  1  0.42288000  0.25447000  0.10109000  1.0
  C  C35  1  0.57712000  0.25447000  0.89891000  1.0
  C  C36  1  0.03927000  0.88163000  0.54878000  1.0
  C  C37  1  0.96072000  0.88163000  0.45122000  1.0
  C  C38  1  0.53927000  0.61837000  0.95122000  1.0
  C  C39  1  0.46072000  0.61837000  0.04878000  1.0
  C  C40  1  0.96072000  0.11837000  0.45122000  1.0
  C  C41  1  0.03927000  0.11837000  0.54878000  1.0
  C  C42  1  0.46072000  0.38163000  0.04878000  1.0
  C  C43  1  0.53927000  0.38163000  0.95122000  1.0
  C  C44  1  0.07651000  0.00000000  0.59812000  1.0
  C  C45  1  0.92349000  0.00000000  0.40188000  1.0
  C  C46  1  0.57651000  0.50000000  0.90188000  1.0
  C  C47  1  0.42349000  0.50000000  0.09812000  1.0
  C  C48  1  0.12813000  0.00000000  0.70836000  1.0
  C  C49  1  0.87187000  0.00000000  0.29164000  1.0
  C  C50  1  0.62813000  0.50000000  0.79164000  1.0
  C  C51  1  0.37188000  0.50000000  0.20836000  1.0
  O  O52  1  0.11842000  0.34354000  0.83070000  1.0
  O  O53  1  0.88158000  0.34354000  0.16930000  1.0
  O  O54  1  0.61842000  0.15646000  0.66930000  1.0
  O  O55  1  0.38158000  0.15646000  0.33070000  1.0
  O  O56  1  0.88158000  0.65646000  0.16930000  1.0
  O  O57  1  0.11841000  0.65646000  0.83070000  1.0
  O  O58  1  0.38158000  0.84354000  0.33070000  1.0
  O  O59  1  0.61842000  0.84354000  0.66930000  1.0
  O  O60  1  0.25122000  0.50000000  0.52660000  1.0
  O  O61  1  0.74879000  0.50000000  0.47341000  1.0
  O  O62  1  0.75122000  0.00000000  0.97340000  1.0
  O  O63  1  0.24878000  0.00000000  0.02659000  1.0
  O  O64  1  0.92824000  0.67362000  0.61126000  1.0
  O  O65  1  0.07176000  0.67362000  0.38874000  1.0
  O  O66  1  0.42824000  0.82638000  0.88874000  1.0
  O  O67  1  0.57175000  0.82638000  0.11126000  1.0
  O  O68  1  0.07176000  0.32638000  0.38874000  1.0
  O  O69  1  0.92824000  0.32638000  0.61126000  1.0
  O  O70  1  0.57175000  0.17361000  0.11126000  1.0
  O  O71  1  0.42825000  0.17361000  0.88874000  1.0
  O  O72  1  0.25213000  0.72698000  0.63450000  1.0
  O  O73  1  0.74787000  0.72698000  0.36550000  1.0
  O  O74  1  0.75213000  0.77301000  0.86550000  1.0
  O  O75  1  0.24787000  0.77302000  0.13450000  1.0
  O  O76  1  0.74787000  0.27302000  0.36550000  1.0
  O  O77  1  0.25213000  0.27302000  0.63450000  1.0
  O  O78  1  0.24786000  0.22698000  0.13450000  1.0
  O  O79  1  0.75213000  0.22698000  0.86550000  1.0
  O  O80  1  0.97647000  0.00000000  0.76744000  1.0
  O  O81  1  0.02354000  0.00000000  0.23256000  1.0
  O  O82  1  0.47646000  0.50000000  0.73256000  1.0
  O  O83  1  0.52354000  0.50000000  0.26744000  1.0
  O  O84  1  0.31093000  0.00000000  0.73483000  1.0
  O  O85  1  0.68907000  0.00000000  0.26517000  1.0
  O  O86  1  0.81094000  0.50000000  0.76517000  1.0
  O  O87  1  0.18907000  0.50000000  0.23483000  1.0
