# generated using pymatgen
data_CuH20C16(BrN4)2
_symmetry_space_group_name_H-M   'P 1'
_cell_length_a   7.26457000
_cell_length_b   11.44440000
_cell_length_c   12.92330000
_cell_angle_alpha   69.81600000
_cell_angle_beta   89.99950000
_cell_angle_gamma   89.99960000
_symmetry_Int_Tables_number   1
_chemical_formula_structural   CuH20C16(BrN4)2
_chemical_formula_sum   'Cu2 H40 C32 Br4 N16'
_cell_volume   1008.44453836
_cell_formula_units_Z   2
loop_
 _symmetry_equiv_pos_site_id
 _symmetry_equiv_pos_as_xyz
  1  'x, y, z'
loop_
 _atom_site_type_symbol
 _atom_site_label
 _atom_site_symmetry_multiplicity
 _atom_site_fract_x
 _atom_site_fract_y
 _atom_site_fract_z
 _atom_site_occupancy
  Cu  Cu0  1  0.44377000  0.67261000  0.41930000  1.0
  Cu  Cu1  1  0.94378000  0.32737000  0.58070000  1.0
  H  H2  1  0.71285000  0.60793000  0.55666000  1.0
  H  H3  1  0.21286000  0.39206000  0.44335000  1.0
  H  H4  1  0.51019000  0.56000000  0.61461000  1.0
  H  H5  1  0.01019000  0.44000000  0.38539000  1.0
  H  H6  1  0.17588000  0.66626000  0.29448000  1.0
  H  H7  1  0.67589000  0.33374000  0.70552000  1.0
  H  H8  1  0.37879000  0.65905000  0.23644000  1.0
  H  H9  1  0.87880000  0.34095000  0.76355000  1.0
  H  H10  1  0.69807000  0.86943000  0.45648000  1.0
  H  H11  1  0.19810000  0.13057000  0.54350000  1.0
  H  H12  1  0.86143000  0.79824000  0.56260000  1.0
  H  H13  1  0.36143000  0.20177000  0.43738000  1.0
  H  H14  1  0.71436000  0.91768000  0.57349000  1.0
  H  H15  1  0.21438000  0.08231000  0.42649000  1.0
  H  H16  1  0.44043000  0.78219000  0.58934000  1.0
  H  H17  1  0.94044000  0.21780000  0.41067000  1.0
  H  H18  1  0.78492000  0.54167000  0.74323000  1.0
  H  H19  1  0.28491000  0.45833000  0.25677000  1.0
  H  H20  1  0.81353000  0.47277000  0.94660000  1.0
  H  H21  1  0.31353000  0.52724000  0.05341000  1.0
  H  H22  1  0.47547000  0.78103000  0.95000000  1.0
  H  H23  1  0.97548000  0.21897000  0.04999000  1.0
  H  H24  1  0.43347000  0.84251000  0.74767000  1.0
  H  H25  1  0.93347000  0.15749000  0.25232000  1.0
  H  H26  1  0.20706000  0.90072000  0.33933000  1.0
  H  H27  1  0.70704000  0.09927000  0.66068000  1.0
  H  H28  1  0.14738000  0.00501000  0.20589000  1.0
  H  H29  1  0.64737000  0.99499000  0.79413000  1.0
  H  H30  1  0.01746000  0.86659000  0.26755000  1.0
  H  H31  1  0.51746000  0.13341000  0.73247000  1.0
  H  H32  1  0.42386000  0.87962000  0.19873000  1.0
  H  H33  1  0.92386000  0.12037000  0.80127000  1.0
  H  H34  1  0.08185000  0.67578000  0.13068000  1.0
  H  H35  1  0.58185000  0.32422000  0.86932000  1.0
  H  H36  1  0.99489000  0.70225000  0.93976000  1.0
  H  H37  1  0.49489000  0.29776000  0.06024000  1.0
  H  H38  1  0.25047000  0.06450000  0.82553000  1.0
  H  H39  1  0.75049000  0.93551000  0.17448000  1.0
  H  H40  1  0.34868000  0.03509000  0.01683000  1.0
  H  H41  1  0.84869000  0.96492000  0.98318000  1.0
  C  C42  1  0.72183000  0.83739000  0.54575000  1.0
  C  C43  1  0.22186000  0.16260000  0.45424000  1.0
  C  C44  1  0.57839000  0.74004000  0.60663000  1.0
  C  C45  1  0.07841000  0.25996000  0.39337000  1.0
  C  C46  1  0.60384000  0.69580000  0.73093000  1.0
  C  C47  1  0.10384000  0.30419000  0.26907000  1.0
  C  C48  1  0.71188000  0.59251000  0.78809000  1.0
  C  C49  1  0.21189000  0.40749000  0.21190000  1.0
  C  C50  1  0.73099000  0.55404000  0.90245000  1.0
  C  C51  1  0.23101000  0.44596000  0.09755000  1.0
  C  C52  1  0.64518000  0.62223000  0.95959000  1.0
  C  C53  1  0.14517000  0.37778000  0.04041000  1.0
  C  C54  1  0.54017000  0.72741000  0.90480000  1.0
  C  C55  1  0.04016000  0.27261000  0.09519000  1.0
  C  C56  1  0.51895000  0.76209000  0.79082000  1.0
  C  C57  1  0.01895000  0.23790000  0.20917000  1.0
  C  C58  1  0.15634000  0.90668000  0.25776000  1.0
  C  C59  1  0.65634000  0.09331000  0.74225000  1.0
  C  C60  1  0.28576000  0.83856000  0.20451000  1.0
  C  C61  1  0.78576000  0.16143000  0.79549000  1.0
  C  C62  1  0.22514000  0.85259000  0.08820000  1.0
  C  C63  1  0.72515000  0.14741000  0.91180000  1.0
  C  C64  1  0.12338000  0.76071000  0.06493000  1.0
  C  C65  1  0.62339000  0.23930000  0.93507000  1.0
  C  C66  1  0.07131000  0.77514000  0.95717000  1.0
  C  C67  1  0.57133000  0.22488000  0.04283000  1.0
  C  C68  1  0.11944000  0.88412000  0.87224000  1.0
  C  C69  1  0.61944000  0.11590000  0.12776000  1.0
  C  C70  1  0.21714000  0.97884000  0.89284000  1.0
  C  C71  1  0.71715000  0.02117000  0.10717000  1.0
  C  C72  1  0.27011000  0.96183000  0.00086000  1.0
  C  C73  1  0.77012000  0.03818000  0.99915000  1.0
  Br  Br74  1  0.68144000  0.57262000  0.11529000  1.0
  Br  Br75  1  0.18145000  0.42738000  0.88471000  1.0
  Br  Br76  1  0.05099000  0.90230000  0.72492000  1.0
  Br  Br77  1  0.55100000  0.09772000  0.27507000  1.0
  N  N78  1  0.57952000  0.63635000  0.56247000  1.0
  N  N79  1  0.07953000  0.36364000  0.43753000  1.0
  N  N80  1  0.30466000  0.70666000  0.27654000  1.0
  N  N81  1  0.80466000  0.29333000  0.72346000  1.0
  N  N82  1  0.20946000  0.68140000  0.50255000  1.0
  N  N83  1  0.70946000  0.31859000  0.49745000  1.0
  N  N84  1  0.67287000  0.74040000  0.32757000  1.0
  N  N85  1  0.17288000  0.25959000  0.67243000  1.0
  N  N86  1  0.09403000  0.60482000  0.54020000  1.0
  N  N87  1  0.59402000  0.39518000  0.45980000  1.0
  N  N88  1  0.97394000  0.53327000  0.57938000  1.0
  N  N89  1  0.47394000  0.46673000  0.42062000  1.0
  N  N90  1  0.79440000  0.67247000  0.32223000  1.0
  N  N91  1  0.29442000  0.32753000  0.67777000  1.0
  N  N92  1  0.91667000  0.60933000  0.31295000  1.0
  N  N93  1  0.41668000  0.39066000  0.68705000  1.0
