# generated using pymatgen
data_Al3H31C45N3O14F15
_symmetry_space_group_name_H-M   'P 1'
_cell_length_a   13.63180000
_cell_length_b   13.63050000
_cell_length_c   28.15850000
_cell_angle_alpha   89.89840000
_cell_angle_beta   89.88350000
_cell_angle_gamma   119.94000000
_symmetry_Int_Tables_number   1
_chemical_formula_structural   Al3H31C45N3O14F15
_chemical_formula_sum   'Al6 H62 C90 N6 O28 F30'
_cell_volume   4533.81977169
_cell_formula_units_Z   2
loop_
 _symmetry_equiv_pos_site_id
 _symmetry_equiv_pos_as_xyz
  1  'x, y, z'
loop_
 _atom_site_type_symbol
 _atom_site_label
 _atom_site_symmetry_multiplicity
 _atom_site_fract_x
 _atom_site_fract_y
 _atom_site_fract_z
 _atom_site_occupancy
  Al  Al0  1  0.76337000  0.24664000  0.74922000  1.0
  Al  Al1  1  0.53309000  0.25700000  0.74946000  1.0
  Al  Al2  1  0.75256000  0.47711000  0.75107000  1.0
  Al  Al3  1  0.51443000  0.75401000  0.25124000  1.0
  Al  Al4  1  0.27124000  0.73935000  0.25087000  1.0
  Al  Al5  1  0.27478000  0.52156000  0.25129000  1.0
  H  H6  1  0.36796000  0.34376000  0.03284000  1.0
  H  H7  1  0.77694000  0.39488000  0.52494000  1.0
  H  H8  1  0.58643000  0.38945000  0.52992000  1.0
  H  H9  1  0.49955000  0.15820000  0.53926000  1.0
  H  H10  1  0.37992000  0.32702000  0.54247000  1.0
  H  H11  1  0.90764000  0.60932000  0.52086000  1.0
  H  H12  1  0.67264000  0.12758000  0.52447000  1.0
  H  H13  1  0.12546000  0.67497000  0.47158000  1.0
  H  H14  1  0.31549000  0.44587000  0.47650000  1.0
  H  H15  1  0.60070000  0.90837000  0.47414000  1.0
  H  H16  1  0.42676000  0.31669000  0.95835000  1.0
  H  H17  1  0.97038000  0.62401000  0.04390000  1.0
  H  H18  1  0.88218000  0.57062000  0.96957000  1.0
  H  H19  1  0.67500000  0.10667000  0.96220000  1.0
  H  H20  1  0.16031000  0.66576000  0.03996000  1.0
  H  H21  1  0.32622000  0.49485000  0.02934000  1.0
  H  H22  1  0.49601000  0.83394000  0.03608000  1.0
  H  H23  1  0.68889000  0.53396000  0.53029000  1.0
  H  H24  1  0.84520000  0.31466000  0.51896000  1.0
  H  H25  1  0.36747000  0.03448000  0.53263000  1.0
  H  H26  1  0.03715000  0.37175000  0.46436000  1.0
  H  H27  1  0.61045000  0.69303000  0.46732000  1.0
  H  H28  1  0.64629000  0.02608000  0.03799000  1.0
  H  H29  1  0.31113000  0.86380000  0.48083000  1.0
  H  H30  1  0.47465000  0.62961000  0.55517000  1.0
  H  H31  1  0.13780000  0.53997000  0.54371000  1.0
  H  H32  1  0.47443000  0.83018000  0.54292000  1.0
  H  H33  1  0.82625000  0.47158000  0.44863000  1.0
  H  H34  1  0.55621000  0.39767000  0.44950000  1.0
  H  H35  1  0.55740000  0.15186000  0.46054000  1.0
  H  H36  1  0.73850000  0.63271000  0.46105000  1.0
  H  H37  1  0.80447000  0.59793000  0.38576000  1.0
  H  H38  1  0.68598000  0.61803000  0.37684000  1.0
  H  H39  1  0.08858000  0.66606000  0.96488000  1.0
  H  H40  1  0.66643000  0.47925000  0.37846000  1.0
  H  H41  1  0.84185000  0.26489000  0.44011000  1.0
  H  H42  1  0.73282000  0.22678000  0.37220000  1.0
  H  H43  1  0.84996000  0.36397000  0.35995000  1.0
  H  H44  1  0.72022000  0.34892000  0.38141000  1.0
  H  H45  1  0.31101000  0.02411000  0.44960000  1.0
  H  H46  1  0.34568000  0.16572000  0.39190000  1.0
  H  H47  1  0.42231000  0.09833000  0.37221000  1.0
  H  H48  1  0.49265000  0.22969000  0.40303000  1.0
  H  H49  1  0.98941000  0.29343000  0.53837000  1.0
  H  H50  1  0.33350000  0.42712000  0.95422000  1.0
  H  H51  1  0.10728000  0.29737000  0.60435000  1.0
  H  H52  1  0.01313000  0.34404000  0.62437000  1.0
  H  H53  1  0.15639000  0.44392000  0.60955000  1.0
  H  H54  1  0.71671000  0.71367000  0.54232000  1.0
  H  H55  1  0.73450000  0.83976000  0.60476000  1.0
  H  H56  1  0.65508000  0.69950000  0.62837000  1.0
  H  H57  1  0.58555000  0.77329000  0.60826000  1.0
  H  H58  1  0.26674000  0.83671000  0.56306000  1.0
  H  H59  1  0.24259000  0.71310000  0.62555000  1.0
  H  H60  1  0.37883000  0.83274000  0.63673000  1.0
  H  H61  1  0.56401000  0.90359000  0.96001000  1.0
  H  H62  1  0.36645000  0.71062000  0.60799000  1.0
  H  H63  1  0.46801000  0.65605000  0.47437000  1.0
  H  H64  1  0.15812000  0.50709000  0.46357000  1.0
  H  H65  1  0.38047000  0.78674000  0.46853000  1.0
  H  H66  1  0.87199000  0.16962000  0.77785000  1.0
  H  H67  1  0.70057000  0.84834000  0.22172000  1.0
  C  C68  1  0.56146000  0.12411000  0.81628000  1.0
  C  C69  1  0.86819000  0.42305000  0.45820000  1.0
  C  C70  1  0.58846000  0.48155000  0.46569000  1.0
  C  C71  1  0.47524000  0.07785000  0.47014000  1.0
  C  C72  1  0.45267000  0.52937000  0.36600000  1.0
  C  C73  1  0.07237000  0.53551000  0.35889000  1.0
  C  C74  1  0.45412000  0.91565000  0.36512000  1.0
  C  C75  1  0.91175000  0.47071000  0.63297000  1.0
  C  C76  1  0.54859000  0.46418000  0.64010000  1.0
  C  C77  1  0.53461000  0.06572000  0.63915000  1.0
  C  C78  1  0.52092000  0.50027000  0.54943000  1.0
  C  C79  1  0.57213000  0.43656000  0.81383000  1.0
  C  C80  1  0.95866000  0.48693000  0.54061000  1.0
  C  C81  1  0.50364000  0.00082000  0.54901000  1.0
  C  C82  1  0.99994000  0.50505000  0.44836000  1.0
  C  C83  1  0.49335000  0.51442000  0.45741000  1.0
  C  C84  1  0.48432000  0.96985000  0.45649000  1.0
  C  C85  1  0.38251000  0.42404000  0.48122000  1.0
  C  C86  1  0.03267000  0.62084000  0.47075000  1.0
  C  C87  1  0.59927000  0.98844000  0.47464000  1.0
  C  C88  1  0.98549000  0.60366000  0.52113000  1.0
  C  C89  1  0.39926000  0.41392000  0.53440000  1.0
  C  C90  1  0.87999000  0.44231000  0.81864000  1.0
  C  C91  1  0.61889000  0.03473000  0.52525000  1.0
  C  C92  1  0.47260000  0.52181000  0.40746000  1.0
  C  C93  1  0.03295000  0.51991000  0.39882000  1.0
  C  C94  1  0.47062000  0.94476000  0.40641000  1.0
  C  C95  1  0.93343000  0.47890000  0.59078000  1.0
  C  C96  1  0.53601000  0.48486000  0.59928000  1.0
  C  C97  1  0.51878000  0.02904000  0.59890000  1.0
  C  C98  1  0.56548000  0.12362000  0.68385000  1.0
  C  C99  1  0.57454000  0.43527000  0.68545000  1.0
  C  C100  1  0.87471000  0.44499000  0.68141000  1.0
  C  C101  1  0.43075000  0.87390000  0.18450000  1.0
  C  C102  1  0.43285000  0.86716000  0.31856000  1.0
  C  C103  1  0.13286000  0.56300000  0.31480000  1.0
  C  C104  1  0.43394000  0.55466000  0.31845000  1.0
  C  C105  1  0.49410000  0.39159000  0.97631000  1.0
  C  C106  1  0.89113000  0.50245000  0.98617000  1.0
  C  C107  1  0.60023000  0.10127000  0.97967000  1.0
  C  C108  1  0.12537000  0.58282000  0.02293000  1.0
  C  C109  1  0.41092000  0.54320000  0.01369000  1.0
  C  C110  1  0.44778000  0.86922000  0.01935000  1.0
  C  C111  1  0.40905000  0.51037000  0.96058000  1.0
  C  C112  1  0.13534000  0.55626000  0.18677000  1.0
  C  C113  1  0.09543000  0.58953000  0.97008000  1.0
  C  C114  1  0.48096000  0.89690000  0.96604000  1.0
  C  C115  1  0.92949000  0.53165000  0.03879000  1.0
  C  C116  1  0.46057000  0.39634000  0.02880000  1.0
  C  C117  1  0.59418000  0.06630000  0.03271000  1.0
  C  C118  1  0.45919000  0.53583000  0.13456000  1.0
  C  C119  1  0.07755000  0.52461000  0.14191000  1.0
  C  C120  1  0.44978000  0.92620000  0.13835000  1.0
  C  C121  1  0.92853000  0.46824000  0.86564000  1.0
  C  C122  1  0.54213000  0.46672000  0.85826000  1.0
  C  C123  1  0.43726000  0.56056000  0.18200000  1.0
  C  C124  1  0.52674000  0.06789000  0.86167000  1.0
  C  C125  1  0.51521000  0.50045000  0.94907000  1.0
  C  C126  1  0.97938000  0.48487000  0.95746000  1.0
  C  C127  1  0.49161000  0.01255000  0.95295000  1.0
  C  C128  1  0.01841000  0.49582000  0.05098000  1.0
  C  C129  1  0.49407000  0.51953000  0.04266000  1.0
  C  C130  1  0.47047000  0.97780000  0.04663000  1.0
  C  C131  1  0.61716000  0.60251000  0.02581000  1.0
  C  C132  1  0.97892000  0.37477000  0.03191000  1.0
  C  C133  1  0.38782000  0.01690000  0.02850000  1.0
  C  C134  1  0.54247000  0.62284000  0.53702000  1.0
  C  C135  1  0.97672000  0.37552000  0.97584000  1.0
  C  C136  1  0.62241000  0.60503000  0.96973000  1.0
  C  C137  1  0.38687000  0.01693000  0.97252000  1.0
  C  C138  1  0.47851000  0.52902000  0.09300000  1.0
  C  C139  1  0.04526000  0.50652000  0.10109000  1.0
  C  C140  1  0.45886000  0.95438000  0.09702000  1.0
  C  C141  1  0.95497000  0.47758000  0.90718000  1.0
  C  C142  1  0.52837000  0.48619000  0.89898000  1.0
  C  C143  1  0.50655000  0.03676000  0.90264000  1.0
  C  C144  1  0.60119000  0.47382000  0.52002000  1.0
  C  C145  1  0.06141000  0.46582000  0.52972000  1.0
  C  C146  1  0.85492000  0.39864000  0.51222000  1.0
  C  C147  1  0.45822000  0.07232000  0.52445000  1.0
  C  C148  1  0.06918000  0.46013000  0.47504000  1.0
  C  C149  1  0.52928000  0.62828000  0.48244000  1.0
  C  C150  1  0.39249000  0.86564000  0.48427000  1.0
  C  C151  1  0.71442000  0.56409000  0.39409000  1.0
  C  C152  1  0.77818000  0.31502000  0.38427000  1.0
  C  C153  1  0.41345000  0.14787000  0.40109000  1.0
  C  C154  1  0.08292000  0.36242000  0.59966000  1.0
  C  C155  1  0.65617000  0.75811000  0.60110000  1.0
  C  C156  1  0.42257000  0.87052000  0.53731000  1.0
  C  C157  1  0.32839000  0.76510000  0.61108000  1.0
  N  N158  1  0.69995000  0.55465000  0.44573000  1.0
  N  N159  1  0.80933000  0.31659000  0.43383000  1.0
  N  N160  1  0.38939000  0.09421000  0.44782000  1.0
  N  N161  1  0.05770000  0.36666000  0.54954000  1.0
  N  N162  1  0.64768000  0.71921000  0.55214000  1.0
  N  N163  1  0.31999000  0.80459000  0.56394000  1.0
  O  O164  1  0.85833000  0.34831000  0.80143000  1.0
  O  O165  1  0.50389000  0.85120000  0.19982000  1.0
  O  O166  1  0.16275000  0.65435000  0.20243000  1.0
  O  O167  1  0.34521000  0.48593000  0.20232000  1.0
  O  O168  1  0.85432000  0.35001000  0.69735000  1.0
  O  O169  1  0.49369000  0.14795000  0.70264000  1.0
  O  O170  1  0.66942000  0.50594000  0.70403000  1.0
  O  O171  1  0.50633000  0.64916000  0.30139000  1.0
  O  O172  1  0.33899000  0.84608000  0.29877000  1.0
  O  O173  1  0.16371000  0.49462000  0.29895000  1.0
  O  O174  1  0.66149000  0.14954000  0.70023000  1.0
  O  O175  1  0.49032000  0.14744000  0.79635000  1.0
  O  O176  1  0.50316000  0.33865000  0.70296000  1.0
  O  O177  1  0.86180000  0.51999000  0.70438000  1.0
  O  O178  1  0.50580000  0.84566000  0.30164000  1.0
  O  O179  1  0.15604000  0.65745000  0.29540000  1.0
  O  O180  1  0.34234000  0.47982000  0.29768000  1.0
  O  O181  1  0.68218000  0.32792000  0.75053000  1.0
  O  O182  1  0.35177000  0.67069000  0.25052000  1.0
  O  O183  1  0.66931000  0.50732000  0.79690000  1.0
  O  O184  1  0.50882000  0.65569000  0.19846000  1.0
  O  O185  1  0.33643000  0.85040000  0.20474000  1.0
  O  O186  1  0.15961000  0.48589000  0.20587000  1.0
  O  O187  1  0.65846000  0.14963000  0.80130000  1.0
  O  O188  1  0.50278000  0.34007000  0.79638000  1.0
  O  O189  1  0.85884000  0.51558000  0.79942000  1.0
  O  O190  1  0.83901000  0.17429000  0.74818000  1.0
  O  O191  1  0.66228000  0.82936000  0.25209000  1.0
  F  F192  1  0.32232000  0.43347000  0.56052000  1.0
  F  F193  1  0.83740000  0.48202000  0.06904000  1.0
  F  F194  1  0.50902000  0.35261000  0.05888000  1.0
  F  F195  1  0.63749000  0.16012000  0.06173000  1.0
  F  F196  1  0.44413000  0.65729000  0.01699000  1.0
  F  F197  1  0.20704000  0.55055000  0.02536000  1.0
  F  F198  1  0.33375000  0.78851000  0.02324000  1.0
  F  F199  1  0.78747000  0.40453000  0.98439000  1.0
  F  F200  1  0.59140000  0.38459000  0.97472000  1.0
  F  F201  1  0.60864000  0.20608000  0.97639000  1.0
  F  F202  1  0.71972000  0.60862000  0.95475000  1.0
  F  F203  1  0.06329000  0.69227000  0.55040000  1.0
  F  F204  1  0.88356000  0.27982000  0.95982000  1.0
  F  F205  1  0.38421000  0.11023000  0.95616000  1.0
  F  F206  1  0.04863000  0.33579000  0.04722000  1.0
  F  F207  1  0.65493000  0.70961000  0.04265000  1.0
  F  F208  1  0.28032000  0.94832000  0.04544000  1.0
  F  F209  1  0.62766000  0.70255000  0.95355000  1.0
  F  F210  1  0.06941000  0.37218000  0.95874000  1.0
  F  F211  1  0.28950000  0.92431000  0.95676000  1.0
  F  F212  1  0.87307000  0.30120000  0.04888000  1.0
  F  F213  1  0.68894000  0.56817000  0.04306000  1.0
  F  F214  1  0.67792000  0.99227000  0.55111000  1.0
  F  F215  1  0.42159000  0.12361000  0.04461000  1.0
  F  F216  1  0.99070000  0.67916000  0.44369000  1.0
  F  F217  1  0.34456000  0.31810000  0.45956000  1.0
  F  F218  1  0.68887000  0.06430000  0.44510000  1.0
  F  F219  1  0.40086000  0.58718000  0.93118000  1.0
  F  F220  1  0.18072000  0.59937000  0.94041000  1.0
  F  F221  1  0.40398000  0.81072000  0.93743000  1.0
