# generated using pymatgen
data_MnH17C20N2O5
_symmetry_space_group_name_H-M   'P 1'
_cell_length_a   9.39280000
_cell_length_b   9.61866000
_cell_length_c   10.98550000
_cell_angle_alpha   94.17240000
_cell_angle_beta   101.16000000
_cell_angle_gamma   108.50800000
_symmetry_Int_Tables_number   1
_chemical_formula_structural   MnH17C20N2O5
_chemical_formula_sum   'Mn2 H34 C40 N4 O10'
_cell_volume   913.71154484
_cell_formula_units_Z   2
loop_
 _symmetry_equiv_pos_site_id
 _symmetry_equiv_pos_as_xyz
  1  'x, y, z'
loop_
 _atom_site_type_symbol
 _atom_site_label
 _atom_site_symmetry_multiplicity
 _atom_site_fract_x
 _atom_site_fract_y
 _atom_site_fract_z
 _atom_site_occupancy
  Mn  Mn0  1  0.43280000  0.51707000  0.62039000  1.0
  Mn  Mn1  1  0.56720000  0.48293000  0.37962000  1.0
  H  H2  1  0.94294000  0.35363000  0.40779000  1.0
  H  H3  1  0.05706000  0.64637000  0.59221000  1.0
  H  H4  1  0.68028000  0.21263000  0.27940000  1.0
  H  H5  1  0.31973000  0.78738000  0.72060000  1.0
  H  H6  1  0.64795000  0.02757000  0.09501000  1.0
  H  H7  1  0.35205000  0.97242000  0.90499000  1.0
  H  H8  1  0.87912000  0.97815000  0.04816000  1.0
  H  H9  1  0.12088000  0.02185000  0.95183000  1.0
  H  H10  1  0.10104000  0.00802000  0.38795000  1.0
  H  H11  1  0.89896000  0.99197000  0.61203000  1.0
  H  H12  1  0.22713000  0.84838000  0.50083000  1.0
  H  H13  1  0.77287000  0.15164000  0.49917000  1.0
  H  H14  1  0.50793000  0.86837000  0.23433000  1.0
  H  H15  1  0.49207000  0.13163000  0.76568000  1.0
  H  H16  1  0.38055000  0.02732000  0.11729000  1.0
  H  H17  1  0.61945000  0.97267000  0.88271000  1.0
  H  H18  1  0.57491000  0.73031000  0.89396000  1.0
  H  H19  1  0.42509000  0.26969000  0.10604000  1.0
  H  H20  1  0.43810000  0.67210000  0.09845000  1.0
  H  H21  1  0.56190000  0.32790000  0.90156000  1.0
  H  H22  1  0.15736000  0.30463000  0.66587000  1.0
  H  H23  1  0.84264000  0.69538000  0.33413000  1.0
  H  H24  1  0.02492000  0.32212000  0.75593000  1.0
  H  H25  1  0.97507000  0.67788000  0.24407000  1.0
  H  H26  1  0.14205000  0.21355000  0.80040000  1.0
  H  H27  1  0.85795000  0.78645000  0.19960000  1.0
  H  H28  1  0.24330000  0.41920000  0.12995000  1.0
  H  H29  1  0.75669000  0.58081000  0.87005000  1.0
  H  H30  1  0.10824000  0.30862000  0.99477000  1.0
  H  H31  1  0.89175000  0.69138000  0.00523000  1.0
  H  H32  1  0.99772000  0.44858000  0.12937000  1.0
  H  H33  1  0.00228000  0.55143000  0.87063000  1.0
  H  H34  1  0.12378000  0.61814000  0.10228000  1.0
  H  H35  1  0.87622000  0.38187000  0.89773000  1.0
  C  C36  1  0.21421000  0.33954000  0.38041000  1.0
  C  C37  1  0.78579000  0.66046000  0.61959000  1.0
  C  C38  1  0.05832000  0.24639000  0.30237000  1.0
  C  C39  1  0.94169000  0.75361000  0.69763000  1.0
  C  C40  1  0.92693000  0.27071000  0.32857000  1.0
  C  C41  1  0.07307000  0.72929000  0.67142000  1.0
  C  C42  1  0.77990000  0.19256000  0.25556000  1.0
  C  C43  1  0.22010000  0.80744000  0.74444000  1.0
  C  C44  1  0.76234000  0.08827000  0.15364000  1.0
  C  C45  1  0.23767000  0.91173000  0.84635000  1.0
  C  C46  1  0.89056000  0.05956000  0.12708000  1.0
  C  C47  1  0.10944000  0.94044000  0.87291000  1.0
  C  C48  1  0.03702000  0.13731000  0.20176000  1.0
  C  C49  1  0.96299000  0.86269000  0.79824000  1.0
  C  C50  1  0.23108000  0.02434000  0.24384000  1.0
  C  C51  1  0.76892000  0.97566000  0.75615000  1.0
  C  C52  1  0.18981000  0.97753000  0.35361000  1.0
  C  C53  1  0.81018000  0.02246000  0.64637000  1.0
  C  C54  1  0.26067000  0.88792000  0.41682000  1.0
  C  C55  1  0.73934000  0.11208000  0.58318000  1.0
  C  C56  1  0.37220000  0.84422000  0.37250000  1.0
  C  C57  1  0.62780000  0.15578000  0.62750000  1.0
  C  C58  1  0.41704000  0.89821000  0.26565000  1.0
  C  C59  1  0.58296000  0.10179000  0.73436000  1.0
  C  C60  1  0.34753000  0.98734000  0.20140000  1.0
  C  C61  1  0.65246000  0.01264000  0.79859000  1.0
  C  C62  1  0.43569000  0.73507000  0.43212000  1.0
  C  C63  1  0.56431000  0.26493000  0.56789000  1.0
  C  C64  1  0.46969000  0.64564000  0.90103000  1.0
  C  C65  1  0.53031000  0.35436000  0.09898000  1.0
  C  C66  1  0.40383000  0.61931000  0.00176000  1.0
  C  C67  1  0.59617000  0.38069000  0.99825000  1.0
  C  C68  1  0.26300000  0.44794000  0.83822000  1.0
  C  C69  1  0.73699000  0.55206000  0.16178000  1.0
  C  C70  1  0.14042000  0.31535000  0.76151000  1.0
  C  C71  1  0.85957000  0.68465000  0.23849000  1.0
  C  C72  1  0.17111000  0.42336000  0.03975000  1.0
  C  C73  1  0.82889000  0.57665000  0.96026000  1.0
  C  C74  1  0.05816000  0.50230000  0.05985000  1.0
  C  C75  1  0.94184000  0.49771000  0.94015000  1.0
  N  N76  1  0.38143000  0.53874000  0.79962000  1.0
  N  N77  1  0.61856000  0.46127000  0.20039000  1.0
  N  N78  1  0.27370000  0.49457000  0.96091000  1.0
  N  N79  1  0.72629000  0.50543000  0.03910000  1.0
  O  O80  1  0.22068000  0.38635000  0.49313000  1.0
  O  O81  1  0.77932000  0.61364000  0.50686000  1.0
  O  O82  1  0.32679000  0.36856000  0.32683000  1.0
  O  O83  1  0.67322000  0.63144000  0.67317000  1.0
  O  O84  1  0.15983000  0.10361000  0.16911000  1.0
  O  O85  1  0.84017000  0.89639000  0.83089000  1.0
  O  O86  1  0.40109000  0.69777000  0.53467000  1.0
  O  O87  1  0.59892000  0.30223000  0.46534000  1.0
  O  O88  1  0.51652000  0.68254000  0.37350000  1.0
  O  O89  1  0.48349000  0.31746000  0.62651000  1.0
