# generated using pymatgen
data_DyH21C33S4NO8
_symmetry_space_group_name_H-M   'P 1'
_cell_length_a   9.34905000
_cell_length_b   10.46740000
_cell_length_c   15.88960000
_cell_angle_alpha   82.92860000
_cell_angle_beta   82.32320000
_cell_angle_gamma   78.35160000
_symmetry_Int_Tables_number   1
_chemical_formula_structural   DyH21C33S4NO8
_chemical_formula_sum   'Dy2 H42 C66 S8 N2 O16'
_cell_volume   1501.86526380
_cell_formula_units_Z   2
loop_
 _symmetry_equiv_pos_site_id
 _symmetry_equiv_pos_as_xyz
  1  'x, y, z'
loop_
 _atom_site_type_symbol
 _atom_site_label
 _atom_site_symmetry_multiplicity
 _atom_site_fract_x
 _atom_site_fract_y
 _atom_site_fract_z
 _atom_site_occupancy
  Dy  Dy0  1  0.83603000  0.92140000  0.04678000  1.0
  Dy  Dy1  1  0.16397000  0.07860000  0.95322000  1.0
  H  H2  1  0.29094000  0.82475000  0.76136000  1.0
  H  H3  1  0.70907000  0.17525000  0.23864000  1.0
  H  H4  1  0.24853000  0.35732000  0.86262000  1.0
  H  H5  1  0.75147000  0.64268000  0.13738000  1.0
  H  H6  1  0.42528000  0.13307000  0.07051000  1.0
  H  H7  1  0.57472000  0.86694000  0.92949000  1.0
  H  H8  1  0.39833000  0.86464000  0.19353000  1.0
  H  H9  1  0.60167000  0.13535000  0.80648000  1.0
  H  H10  1  0.07519000  0.42850000  0.76295000  1.0
  H  H11  1  0.92480000  0.57150000  0.23705000  1.0
  H  H12  1  0.39710000  0.66326000  0.65554000  1.0
  H  H13  1  0.60291000  0.33673000  0.34445000  1.0
  H  H14  1  0.36376000  0.54152000  0.88009000  1.0
  H  H15  1  0.63624000  0.45848000  0.11991000  1.0
  H  H16  1  0.54977000  0.30677000  0.09785000  1.0
  H  H17  1  0.45022000  0.69323000  0.90215000  1.0
  H  H18  1  0.19284000  0.45705000  0.23522000  1.0
  H  H19  1  0.80715000  0.54295000  0.76479000  1.0
  H  H20  1  0.46030000  0.69776000  0.31720000  1.0
  H  H21  1  0.53970000  0.30224000  0.68280000  1.0
  H  H22  1  0.28397000  0.46656000  0.65614000  1.0
  H  H23  1  0.71603000  0.53344000  0.34386000  1.0
  H  H24  1  0.20090000  0.27366000  0.66779000  1.0
  H  H25  1  0.79910000  0.72634000  0.33221000  1.0
  H  H26  1  0.35311000  0.49379000  0.33663000  1.0
  H  H27  1  0.64689000  0.50621000  0.66337000  1.0
  H  H28  1  0.66480000  0.98752000  0.56454000  1.0
  H  H29  1  0.33520000  0.01248000  0.43546000  1.0
  H  H30  1  0.31280000  0.31296000  0.51589000  1.0
  H  H31  1  0.68720000  0.68704000  0.48411000  1.0
  H  H32  1  0.54879000  0.16895000  0.46721000  1.0
  H  H33  1  0.45121000  0.83105000  0.53279000  1.0
  H  H34  1  0.80962000  0.99909000  0.71947000  1.0
  H  H35  1  0.19039000  0.00091000  0.28053000  1.0
  H  H36  1  0.20741000  0.80879000  0.50621000  1.0
  H  H37  1  0.79259000  0.19121000  0.49379000  1.0
  H  H38  1  0.02672000  0.10225000  0.67911000  1.0
  H  H39  1  0.97329000  0.89775000  0.32090000  1.0
  H  H40  1  0.10242000  0.53863000  0.46578000  1.0
  H  H41  1  0.89758000  0.46137000  0.53422000  1.0
  H  H42  1  0.22591000  0.01137000  0.56954000  1.0
  H  H43  1  0.77409000  0.98863000  0.43046000  1.0
  C  C44  1  0.06715000  0.82177000  0.87989000  1.0
  C  C45  1  0.93286000  0.17823000  0.12011000  1.0
  C  C46  1  0.21269000  0.86876000  0.08373000  1.0
  C  C47  1  0.78731000  0.13124000  0.91627000  1.0
  C  C48  1  0.12266000  0.72047000  0.81926000  1.0
  C  C49  1  0.87734000  0.27953000  0.18074000  1.0
  C  C50  1  0.25201000  0.76036000  0.15056000  1.0
  C  C51  1  0.74799000  0.23964000  0.84945000  1.0
  C  C52  1  0.06117000  0.60694000  0.82133000  1.0
  C  C53  1  0.93884000  0.39306000  0.17866000  1.0
  C  C54  1  0.24393000  0.73818000  0.75967000  1.0
  C  C55  1  0.75608000  0.26182000  0.24033000  1.0
  C  C56  1  0.30678000  0.10515000  0.79081000  1.0
  C  C57  1  0.69322000  0.89485000  0.20919000  1.0
  C  C58  1  0.31548000  0.35046000  0.91451000  1.0
  C  C59  1  0.68452000  0.64954000  0.08549000  1.0
  C  C60  1  0.41322000  0.22575000  0.03011000  1.0
  C  C61  1  0.58678000  0.77425000  0.96989000  1.0
  C  C62  1  0.19360000  0.64397000  0.16095000  1.0
  C  C63  1  0.80639000  0.35603000  0.83905000  1.0
  C  C64  1  0.35088000  0.77632000  0.20573000  1.0
  C  C65  1  0.64911000  0.22369000  0.79427000  1.0
  C  C66  1  0.12020000  0.51724000  0.76114000  1.0
  C  C67  1  0.87980000  0.48277000  0.23885000  1.0
  C  C68  1  0.30285000  0.64792000  0.70129000  1.0
  C  C69  1  0.69715000  0.35208000  0.29870000  1.0
  C  C70  1  0.37145000  0.11390000  0.70051000  1.0
  C  C71  1  0.62855000  0.88610000  0.29949000  1.0
  C  C72  1  0.38111000  0.45415000  0.92497000  1.0
  C  C73  1  0.61888000  0.54585000  0.07503000  1.0
  C  C74  1  0.48318000  0.32510000  0.04488000  1.0
  C  C75  1  0.51682000  0.67491000  0.95512000  1.0
  C  C76  1  0.23392000  0.54850000  0.22762000  1.0
  C  C77  1  0.76608000  0.45150000  0.77238000  1.0
  C  C78  1  0.38660000  0.68250000  0.27341000  1.0
  C  C79  1  0.61339000  0.31750000  0.72660000  1.0
  C  C80  1  0.23937000  0.53787000  0.70186000  1.0
  C  C81  1  0.76063000  0.46212000  0.29813000  1.0
  C  C82  1  0.50212000  0.02899000  0.67195000  1.0
  C  C83  1  0.49787000  0.97101000  0.32805000  1.0
  C  C84  1  0.30382000  0.21362000  0.64343000  1.0
  C  C85  1  0.69618000  0.78638000  0.35657000  1.0
  C  C86  1  0.46622000  0.44464000  0.99264000  1.0
  C  C87  1  0.53378000  0.55536000  0.00736000  1.0
  C  C88  1  0.32722000  0.56869000  0.28404000  1.0
  C  C89  1  0.67277000  0.43131000  0.71596000  1.0
  C  C90  1  0.56441000  0.05183000  0.58757000  1.0
  C  C91  1  0.43558000  0.94817000  0.41243000  1.0
  C  C92  1  0.36627000  0.23534000  0.55976000  1.0
  C  C93  1  0.63372000  0.76466000  0.44024000  1.0
  C  C94  1  0.49814000  0.15422000  0.53265000  1.0
  C  C95  1  0.50185000  0.84578000  0.46735000  1.0
  C  C96  1  0.88470000  0.84398000  0.63757000  1.0
  C  C97  1  0.11530000  0.15602000  0.36243000  1.0
  C  C98  1  0.00067000  0.78844000  0.57786000  1.0
  C  C99  1  0.99932000  0.21156000  0.42214000  1.0
  C  C100  1  0.89721000  0.95708000  0.67278000  1.0
  C  C101  1  0.10279000  0.04292000  0.32722000  1.0
  C  C102  1  0.99915000  0.66513000  0.54272000  1.0
  C  C103  1  0.00085000  0.33488000  0.45728000  1.0
  C  C104  1  0.12131000  0.85156000  0.55333000  1.0
  C  C105  1  0.87869000  0.14844000  0.44667000  1.0
  C  C106  1  0.01938000  0.01571000  0.64924000  1.0
  C  C107  1  0.98062000  0.98429000  0.35076000  1.0
  C  C108  1  0.13134000  0.96405000  0.58831000  1.0
  C  C109  1  0.86866000  0.03595000  0.41169000  1.0
  S  S110  1  0.91556000  0.58002000  0.90160000  1.0
  S  S111  1  0.08445000  0.41998000  0.09840000  1.0
  S  S112  1  0.07807000  0.61833000  0.08692000  1.0
  S  S113  1  0.92193000  0.38167000  0.91308000  1.0
  S  S114  1  0.58360000  0.89765000  0.74361000  1.0
  S  S115  1  0.41640000  0.10235000  0.25639000  1.0
  S  S116  1  0.72352000  0.77465000  0.66357000  1.0
  S  S117  1  0.27648000  0.22535000  0.33644000  1.0
  N  N118  1  0.32777000  0.23803000  0.96663000  1.0
  N  N119  1  0.67223000  0.76197000  0.03337000  1.0
  O  O120  1  0.94257000  0.81964000  0.92428000  1.0
  O  O121  1  0.05744000  0.18036000  0.07572000  1.0
  O  O122  1  0.91659000  0.10938000  0.94148000  1.0
  O  O123  1  0.08341000  0.89062000  0.05852000  1.0
  O  O124  1  0.14818000  0.90409000  0.88363000  1.0
  O  O125  1  0.85184000  0.09591000  0.11637000  1.0
  O  O126  1  0.30427000  0.94096000  0.05161000  1.0
  O  O127  1  0.69573000  0.05904000  0.94840000  1.0
  O  O128  1  0.38051000  0.03228000  0.84666000  1.0
  O  O129  1  0.61949000  0.96772000  0.15334000  1.0
  O  O130  1  0.17904000  0.17302000  0.81176000  1.0
  O  O131  1  0.82096000  0.82698000  0.18824000  1.0
  O  O132  1  0.89873000  0.60085000  0.56621000  1.0
  O  O133  1  0.10126000  0.39915000  0.43379000  1.0
  O  O134  1  0.11131000  0.62599000  0.48528000  1.0
  O  O135  1  0.88869000  0.37401000  0.51472000  1.0
