# generated using pymatgen
data_Zn4H34C39O16
_symmetry_space_group_name_H-M   'P 1'
_cell_length_a   18.16710000
_cell_length_b   18.23580000
_cell_length_c   18.29295144
_cell_angle_alpha   60.77901775
_cell_angle_beta   61.17337367
_cell_angle_gamma   60.94780000
_symmetry_Int_Tables_number   1
_chemical_formula_structural   Zn4H34C39O16
_chemical_formula_sum   'Zn8 H68 C78 O32'
_cell_volume   4378.51359046
_cell_formula_units_Z   2
loop_
 _symmetry_equiv_pos_site_id
 _symmetry_equiv_pos_as_xyz
  1  'x, y, z'
loop_
 _atom_site_type_symbol
 _atom_site_label
 _atom_site_symmetry_multiplicity
 _atom_site_fract_x
 _atom_site_fract_y
 _atom_site_fract_z
 _atom_site_occupancy
  Zn  Zn0  1  0.88129000  0.20981000  0.70562000  1.0
  Zn  Zn1  1  0.11774000  0.79683000  0.29179000  1.0
  Zn  Zn2  1  0.70723000  0.20650000  0.70622000  1.0
  Zn  Zn3  1  0.29259000  0.79916000  0.29325000  1.0
  Zn  Zn4  1  0.70636000  0.38007000  0.71033000  1.0
  Zn  Zn5  1  0.29462000  0.62617000  0.28896000  1.0
  Zn  Zn6  1  0.70963000  0.20815000  0.88145000  1.0
  Zn  Zn7  1  0.29239000  0.79216000  0.11872000  1.0
  H  H8  1  0.23273000  0.17433000  0.57242000  1.0
  H  H9  1  0.46861000  0.43934000  0.42921000  1.0
  H  H10  1  0.43839000  0.66666667  0.46978000  1.0
  H  H11  1  0.56123000  0.33948000  0.53066000  1.0
  H  H12  1  0.06763000  0.05587000  0.54700000  1.0
  H  H13  1  0.93233000  0.94872000  0.45345000  1.0
  H  H14  1  0.16483000  0.95501000  0.45477000  1.0
  H  H15  1  0.83527000  0.04851000  0.54662000  1.0
  H  H16  1  0.16845000  0.06357000  0.60610000  1.0
  H  H17  1  0.75481000  0.91543000  0.37098000  1.0
  H  H18  1  0.07788000  0.99962000  0.75938000  1.0
  H  H19  1  0.79838000  0.75094000  0.41300000  1.0
  H  H20  1  0.83137000  0.00265000  0.22156000  1.0
  H  H21  1  0.11283000  0.15792000  0.84631000  1.0
  H  H22  1  0.99865000  0.76217000  0.15706000  1.0
  H  H23  1  0.20494000  0.22062000  0.69382000  1.0
  H  H24  1  0.92102000  0.67494000  0.30584000  1.0
  H  H25  1  0.93895000  0.66599000  0.45259000  1.0
  H  H26  1  0.06297000  0.33850000  0.56156000  1.0
  H  H27  1  0.30682000  0.89487000  0.88319000  1.0
  H  H28  1  0.24823000  0.96620000  0.80486000  1.0
  H  H29  1  0.22044000  0.79321000  0.95275000  1.0
  H  H30  1  0.40347000  0.65517000  0.94417000  1.0
  H  H31  1  0.15249000  0.86690000  0.88463000  1.0
  H  H32  1  0.28391000  0.84809000  0.74870000  1.0
  H  H33  1  0.26716000  0.74509000  0.82427000  1.0
  H  H34  1  0.35393000  0.77130000  0.81513000  1.0
  H  H35  1  0.86753000  0.86944000  0.06175000  1.0
  H  H36  1  0.82740000  0.95729000  0.97296000  1.0
  H  H37  1  0.71549000  0.90417000  0.16894000  1.0
  H  H38  1  0.67485000  0.99334000  0.08218000  1.0
  H  H39  1  0.71790000  0.88540000  0.00844000  1.0
  H  H40  1  0.64412000  0.85644000  0.11743000  1.0
  H  H41  1  0.58942000  0.34444000  0.05678000  1.0
  H  H42  1  0.75958000  0.79565000  0.09460000  1.0
  H  H43  1  0.80934000  0.64104000  0.64269000  1.0
  H  H44  1  0.79373000  0.53514000  0.69250000  1.0
  H  H45  1  0.66677000  0.70753000  0.60485000  1.0
  H  H46  1  0.65011000  0.60283000  0.66733000  1.0
  H  H47  1  0.64927000  0.60930000  0.80321000  1.0
  H  H48  1  0.56389000  0.69913000  0.76184000  1.0
  H  H49  1  0.66173000  0.71631000  0.74084000  1.0
  H  H50  1  0.27880000  0.30871000  0.50719000  1.0
  H  H51  1  0.17492000  0.34227000  0.58753000  1.0
  H  H52  1  0.56044000  0.03519000  0.83564000  1.0
  H  H53  1  0.30927000  0.44364000  0.47079000  1.0
  H  H54  1  0.20405000  0.48319000  0.54374000  1.0
  H  H55  1  0.24499000  0.35318000  0.67379000  1.0
  H  H56  1  0.32554000  0.40812000  0.61364000  1.0
  H  H57  1  0.34963000  0.30701000  0.60239000  1.0
  H  H58  1  0.40356000  0.62054000  0.76141000  1.0
  H  H59  1  0.35198000  0.58656000  0.87845000  1.0
  H  H60  1  0.48951000  0.46191000  0.77037000  1.0
  H  H61  1  0.43735000  0.42668000  0.88653000  1.0
  H  H62  1  0.28750000  0.49518000  0.86459000  1.0
  H  H63  1  0.43294000  0.97461000  0.16068000  1.0
  H  H64  1  0.36156000  0.41591000  0.80938000  1.0
  H  H65  1  0.33952000  0.53105000  0.74808000  1.0
  H  H66  1  0.51368000  0.32423000  0.28243000  1.0
  H  H67  1  0.51734000  0.30056000  0.19694000  1.0
  H  H68  1  0.35215000  0.41092000  0.30881000  1.0
  H  H69  1  0.35501000  0.39752000  0.21849000  1.0
  H  H70  1  0.38998000  0.23226000  0.29569000  1.0
  H  H71  1  0.29204000  0.29027000  0.36403000  1.0
  H  H72  1  0.39426000  0.24174000  0.38550000  1.0
  H  H73  1  0.45919000  0.94270000  0.93076000  1.0
  H  H74  1  0.53334000  0.06778000  0.06554000  1.0
  H  H75  1  0.53209000  0.56695000  0.57026000  1.0
  C  C76  1  0.61432000  0.11012000  0.88834000  1.0
  C  C77  1  0.91219000  0.99497000  0.03079000  1.0
  C  C78  1  0.05384000  0.93231000  0.05455000  1.0
  C  C79  1  0.94921000  0.04274000  0.94158000  1.0
  C  C80  1  0.96323000  0.94039000  0.08807000  1.0
  C  C81  1  0.04087000  0.03168000  0.90694000  1.0
  C  C82  1  0.90809000  0.54523000  0.53423000  1.0
  C  C83  1  0.09428000  0.45993000  0.48146000  1.0
  C  C84  1  0.96630000  0.59381000  0.47671000  1.0
  C  C85  1  0.03604000  0.41087000  0.53839000  1.0
  C  C86  1  0.05882000  0.55371000  0.44871000  1.0
  C  C87  1  0.38179000  0.89671000  0.10866000  1.0
  C  C88  1  0.94355000  0.45094000  0.56512000  1.0
  C  C89  1  0.49225000  0.53469000  0.91443000  1.0
  C  C90  1  0.49634000  0.46374000  0.08925000  1.0
  C  C91  1  0.88791000  0.39122000  0.62051000  1.0
  C  C92  1  0.11418000  0.61341000  0.38773000  1.0
  C  C93  1  0.44380000  0.58654000  0.96921000  1.0
  C  C94  1  0.54669000  0.41234000  0.03359000  1.0
  C  C95  1  0.44483000  0.55290000  0.05594000  1.0
  C  C96  1  0.54659000  0.44661000  0.94651000  1.0
  C  C97  1  0.53192000  0.02155000  0.90687000  1.0
  C  C98  1  0.12414000  0.13805000  0.79344000  1.0
  C  C99  1  0.46107000  0.98859000  0.08941000  1.0
  C  C100  1  0.47584000  0.97045000  0.95950000  1.0
  C  C101  1  0.51691000  0.03991000  0.03674000  1.0
  C  C102  1  0.44045000  0.95336000  0.05117000  1.0
  C  C103  1  0.55311000  0.05618000  0.94522000  1.0
  C  C104  1  0.51714000  0.53987000  0.53942000  1.0
  C  C105  1  0.48259000  0.46631000  0.46094000  1.0
  C  C106  1  0.46553000  0.59501000  0.48374000  1.0
  C  C107  1  0.53387000  0.41113000  0.51689000  1.0
  C  C108  1  0.44814000  0.55845000  0.44412000  1.0
  C  C109  1  0.94508000  0.79577000  0.20410000  1.0
  C  C110  1  0.55163000  0.44773000  0.55615000  1.0
  C  C111  1  0.03896000  0.03170000  0.52624000  1.0
  C  C112  1  0.96109000  0.97231000  0.47469000  1.0
  C  C113  1  0.09262000  0.97612000  0.47527000  1.0
  C  C114  1  0.90747000  0.02755000  0.52600000  1.0
  C  C115  1  0.88841000  0.11777000  0.60624000  1.0
  C  C116  1  0.11164000  0.88846000  0.39231000  1.0
  C  C117  1  0.05395000  0.94650000  0.44891000  1.0
  C  C118  1  0.94610000  0.05781000  0.55172000  1.0
  C  C119  1  0.60801000  0.38871000  0.89024000  1.0
  C  C120  1  0.17611000  0.17318000  0.70750000  1.0
  C  C121  1  0.38888000  0.61302000  0.11022000  1.0
  C  C122  1  0.60834000  0.38910000  0.61476000  1.0
  C  C123  1  0.39283000  0.61714000  0.38406000  1.0
  C  C124  1  0.88941000  0.10663000  0.88600000  1.0
  C  C125  1  0.10956000  0.87746000  0.11464000  1.0
  C  C126  1  0.15622000  0.08463000  0.65859000  1.0
  C  C127  1  0.80810000  0.88161000  0.32404000  1.0
  C  C128  1  0.10509000  0.04873000  0.74468000  1.0
  C  C129  1  0.85119000  0.93075000  0.24034000  1.0
  C  C130  1  0.08805000  0.07539000  0.81311000  1.0
  C  C131  1  0.90120000  0.74682000  0.28755000  1.0
  C  C132  1  0.92026000  0.88826000  0.17947000  1.0
  C  C133  1  0.24301000  0.91902000  0.87278000  1.0
  C  C134  1  0.22041000  0.84209000  0.88652000  1.0
  C  C135  1  0.28505000  0.79934000  0.81480000  1.0
  C  C136  1  0.81613000  0.93454000  0.04463000  1.0
  C  C137  1  0.72407000  0.92683000  0.09831000  1.0
  C  C138  1  0.71071000  0.86249000  0.07870000  1.0
  C  C139  1  0.77900000  0.60142000  0.64220000  1.0
  C  C140  1  0.67939000  0.64675000  0.66139000  1.0
  C  C141  1  0.63633000  0.66936000  0.74638000  1.0
  C  C142  1  0.19217000  0.14688000  0.63969000  1.0
  C  C143  1  0.22399000  0.36669000  0.52459000  1.0
  C  C144  1  0.25863000  0.42214000  0.53341000  1.0
  C  C145  1  0.29667000  0.36978000  0.60996000  1.0
  C  C146  1  0.41241000  0.56825000  0.82406000  1.0
  C  C147  1  0.42776000  0.47850000  0.82382000  1.0
  C  C148  1  0.34975000  0.48028000  0.81085000  1.0
  C  C149  1  0.48347000  0.34959000  0.23148000  1.0
  C  C150  1  0.38390000  0.36451000  0.27211000  1.0
  C  C151  1  0.36407000  0.27732000  0.33253000  1.0
  C  C152  1  0.83235000  0.78954000  0.34781000  1.0
  C  C153  1  0.09244000  0.97600000  0.96442000  1.0
  O  O154  1  0.75050000  0.25023000  0.75140000  1.0
  O  O155  1  0.19791000  0.57806000  0.37118000  1.0
  O  O156  1  0.64419000  0.12592000  0.92783000  1.0
  O  O157  1  0.35431000  0.87759000  0.06970000  1.0
  O  O158  1  0.92873000  0.30780000  0.65010000  1.0
  O  O159  1  0.07223000  0.69625000  0.35790000  1.0
  O  O160  1  0.80484000  0.13128000  0.63532000  1.0
  O  O161  1  0.19551000  0.87169000  0.36697000  1.0
  O  O162  1  0.64341000  0.42675000  0.80858000  1.0
  O  O163  1  0.35342000  0.57799000  0.19261000  1.0
  O  O164  1  0.63532000  0.30549000  0.63051000  1.0
  O  O165  1  0.24873000  0.75595000  0.24837000  1.0
  O  O166  1  0.36565000  0.70079000  0.36830000  1.0
  O  O167  1  0.81250000  0.15345000  0.92275000  1.0
  O  O168  1  0.18843000  0.82806000  0.08542000  1.0
  O  O169  1  0.62508000  0.42805000  0.64429000  1.0
  O  O170  1  0.37727000  0.57816000  0.35360000  1.0
  O  O171  1  0.91992000  0.11032000  0.80558000  1.0
  O  O172  1  0.07306000  0.88418000  0.19168000  1.0
  O  O173  1  0.18050000  0.96728000  0.93511000  1.0
  O  O174  1  0.82533000  0.99769000  0.06319000  1.0
  O  O175  1  0.81878000  0.59262000  0.55542000  1.0
  O  O176  1  0.92736000  0.15061000  0.61923000  1.0
  O  O177  1  0.18391000  0.41518000  0.45529000  1.0
  O  O178  1  0.48702000  0.57173000  0.83029000  1.0
  O  O179  1  0.50261000  0.43163000  0.17184000  1.0
  O  O180  1  0.07232000  0.86080000  0.37395000  1.0
  O  O181  1  0.62176000  0.30516000  0.92960000  1.0
  O  O182  1  0.37900000  0.69580000  0.06870000  1.0
  O  O183  1  0.63180000  0.13558000  0.80488000  1.0
  O  O184  1  0.36464000  0.87219000  0.19193000  1.0
  O  O185  1  0.80473000  0.42729000  0.63278000  1.0
