# generated using pymatgen
data_CuH15C13(N2O)3
_symmetry_space_group_name_H-M   'P 1'
_cell_length_a   7.72158000
_cell_length_b   10.29230000
_cell_length_c   18.69150000
_cell_angle_alpha   89.99800000
_cell_angle_beta   90.00130000
_cell_angle_gamma   89.99530000
_symmetry_Int_Tables_number   1
_chemical_formula_structural   CuH15C13(N2O)3
_chemical_formula_sum   'Cu4 H60 C52 N24 O12'
_cell_volume   1485.46616826
_cell_formula_units_Z   4
loop_
 _symmetry_equiv_pos_site_id
 _symmetry_equiv_pos_as_xyz
  1  'x, y, z'
loop_
 _atom_site_type_symbol
 _atom_site_label
 _atom_site_symmetry_multiplicity
 _atom_site_fract_x
 _atom_site_fract_y
 _atom_site_fract_z
 _atom_site_occupancy
  Cu  Cu0  1  0.93521000  0.28161000  0.76464000  1.0
  Cu  Cu1  1  0.06478000  0.28159000  0.23536000  1.0
  Cu  Cu2  1  0.43522000  0.71842000  0.73535000  1.0
  Cu  Cu3  1  0.56476000  0.71839000  0.26465000  1.0
  H  H4  1  0.56670000  0.21308000  0.78881000  1.0
  H  H5  1  0.43326000  0.21308000  0.21121000  1.0
  H  H6  1  0.06672000  0.78693000  0.71120000  1.0
  H  H7  1  0.93326000  0.78691000  0.28878000  1.0
  H  H8  1  0.97318000  0.32960000  0.91723000  1.0
  H  H9  1  0.02681000  0.32959000  0.08280000  1.0
  H  H10  1  0.47320000  0.67041000  0.58278000  1.0
  H  H11  1  0.52681000  0.67041000  0.41720000  1.0
  H  H12  1  0.29951000  0.29781000  0.71552000  1.0
  H  H13  1  0.70049000  0.29784000  0.28447000  1.0
  H  H14  1  0.79952000  0.70218000  0.78448000  1.0
  H  H15  1  0.20051000  0.70217000  0.21553000  1.0
  H  H16  1  0.23074000  0.38615000  0.63981000  1.0
  H  H17  1  0.76925000  0.38616000  0.36018000  1.0
  H  H18  1  0.73077000  0.61384000  0.86018000  1.0
  H  H19  1  0.26927000  0.61384000  0.13982000  1.0
  H  H20  1  0.99925000  0.02819000  0.67173000  1.0
  H  H21  1  0.00075000  0.02819000  0.32826000  1.0
  H  H22  1  0.49925000  0.97182000  0.82826000  1.0
  H  H23  1  0.50074000  0.97179000  0.17174000  1.0
  H  H24  1  0.83716000  0.17973000  0.62042000  1.0
  H  H25  1  0.16283000  0.17972000  0.37957000  1.0
  H  H26  1  0.33718000  0.82028000  0.87958000  1.0
  H  H27  1  0.66282000  0.82025000  0.12043000  1.0
  H  H28  1  0.01822000  0.19521000  0.56148000  1.0
  H  H29  1  0.98181000  0.19520000  0.43852000  1.0
  H  H30  1  0.51821000  0.80480000  0.93853000  1.0
  H  H31  1  0.48179000  0.80480000  0.06148000  1.0
  H  H32  1  0.35987000  0.20853000  0.89121000  1.0
  H  H33  1  0.64013000  0.20853000  0.10882000  1.0
  H  H34  1  0.85986000  0.79148000  0.60880000  1.0
  H  H35  1  0.14012000  0.79146000  0.39118000  1.0
  H  H36  1  0.78424000  0.33282000  0.02703000  1.0
  H  H37  1  0.21572000  0.33283000  0.97299000  1.0
  H  H38  1  0.28427000  0.66717000  0.47298000  1.0
  H  H39  1  0.71572000  0.66718000  0.52701000  1.0
  H  H40  1  0.48438000  0.20090000  0.62954000  1.0
  H  H41  1  0.51560000  0.20094000  0.37045000  1.0
  H  H42  1  0.98441000  0.79907000  0.87047000  1.0
  H  H43  1  0.01560000  0.79909000  0.12955000  1.0
  H  H44  1  0.36500000  0.99798000  0.66344000  1.0
  H  H45  1  0.63502000  0.99799000  0.33655000  1.0
  H  H46  1  0.86499000  0.00202000  0.83656000  1.0
  H  H47  1  0.13500000  0.00203000  0.16345000  1.0
  H  H48  1  0.23119000  0.00780000  0.58723000  1.0
  H  H49  1  0.76883000  0.00779000  0.41277000  1.0
  H  H50  1  0.73117000  0.99220000  0.91278000  1.0
  H  H51  1  0.26881000  0.99221000  0.08722000  1.0
  H  H52  1  0.01528000  0.43925000  0.58274000  1.0
  H  H53  1  0.98472000  0.43924000  0.41724000  1.0
  H  H54  1  0.51531000  0.56076000  0.91726000  1.0
  H  H55  1  0.48471000  0.56075000  0.08276000  1.0
  H  H56  1  0.83312000  0.37530000  0.53811000  1.0
  H  H57  1  0.16687000  0.37529000  0.46187000  1.0
  H  H58  1  0.33316000  0.62473000  0.96189000  1.0
  H  H59  1  0.66688000  0.62470000  0.03812000  1.0
  H  H60  1  0.35786000  0.15720000  0.51277000  1.0
  H  H61  1  0.64213000  0.15720000  0.48722000  1.0
  H  H62  1  0.85787000  0.84278000  0.98723000  1.0
  H  H63  1  0.14214000  0.84282000  0.01278000  1.0
  C  C64  1  0.60822000  0.23834000  0.84269000  1.0
  C  C65  1  0.39176000  0.23833000  0.15734000  1.0
  C  C66  1  0.10822000  0.76167000  0.65732000  1.0
  C  C67  1  0.89176000  0.76166000  0.34266000  1.0
  C  C68  1  0.83742000  0.30095000  0.91515000  1.0
  C  C69  1  0.16257000  0.30094000  0.08486000  1.0
  C  C70  1  0.33743000  0.69906000  0.58485000  1.0
  C  C71  1  0.66257000  0.69905000  0.41514000  1.0
  C  C72  1  0.24030000  0.28849000  0.66240000  1.0
  C  C73  1  0.75972000  0.28850000  0.33760000  1.0
  C  C74  1  0.74029000  0.71151000  0.83760000  1.0
  C  C75  1  0.25973000  0.71151000  0.16240000  1.0
  C  C76  1  0.11328000  0.08759000  0.68459000  1.0
  C  C77  1  0.88672000  0.08757000  0.31538000  1.0
  C  C78  1  0.61327000  0.91242000  0.81539000  1.0
  C  C79  1  0.38672000  0.91241000  0.18462000  1.0
  C  C80  1  0.95260000  0.23804000  0.60805000  1.0
  C  C81  1  0.04741000  0.23804000  0.39195000  1.0
  C  C82  1  0.45262000  0.76198000  0.89195000  1.0
  C  C83  1  0.54739000  0.76196000  0.10806000  1.0
  C  C84  1  0.78317000  0.43519000  0.64416000  1.0
  C  C85  1  0.21683000  0.43517000  0.35583000  1.0
  C  C86  1  0.28318000  0.56483000  0.85584000  1.0
  C  C87  1  0.71684000  0.56481000  0.14417000  1.0
  C  C88  1  0.14875000  0.06387000  0.76469000  1.0
  C  C89  1  0.85124000  0.06389000  0.23530000  1.0
  C  C90  1  0.64876000  0.93611000  0.73530000  1.0
  C  C91  1  0.35124000  0.93610000  0.26470000  1.0
  C  C92  1  0.49477000  0.23558000  0.90026000  1.0
  C  C93  1  0.50524000  0.23557000  0.09977000  1.0
  C  C94  1  0.99475000  0.76442000  0.59975000  1.0
  C  C95  1  0.00523000  0.76442000  0.40023000  1.0
  C  C96  1  0.73256000  0.30125000  0.97550000  1.0
  C  C97  1  0.26742000  0.30126000  0.02451000  1.0
  C  C98  1  0.23257000  0.69874000  0.52450000  1.0
  C  C99  1  0.76742000  0.69874000  0.47549000  1.0
  C  C100  1  0.34534000  0.19407000  0.61666000  1.0
  C  C101  1  0.65466000  0.19411000  0.38334000  1.0
  C  C102  1  0.84534000  0.80590000  0.88334000  1.0
  C  C103  1  0.15466000  0.80591000  0.11666000  1.0
  C  C104  1  0.27046000  0.05959000  0.63604000  1.0
  C  C105  1  0.72957000  0.05958000  0.36394000  1.0
  C  C106  1  0.77044000  0.94042000  0.86395000  1.0
  C  C107  1  0.22956000  0.94042000  0.13605000  1.0
  C  C108  1  0.90055000  0.37701000  0.58989000  1.0
  C  C109  1  0.09943000  0.37700000  0.41011000  1.0
  C  C110  1  0.40058000  0.62300000  0.91011000  1.0
  C  C111  1  0.59944000  0.62298000  0.08990000  1.0
  C  C112  1  0.55733000  0.26748000  0.96858000  1.0
  C  C113  1  0.44265000  0.26748000  0.03146000  1.0
  C  C114  1  0.05733000  0.73251000  0.53143000  1.0
  C  C115  1  0.94265000  0.73252000  0.46855000  1.0
  N  N116  1  0.77621000  0.26981000  0.85004000  1.0
  N  N117  1  0.22375000  0.26979000  0.14998000  1.0
  N  N118  1  0.27622000  0.73020000  0.64996000  1.0
  N  N119  1  0.72377000  0.73018000  0.35003000  1.0
  N  N120  1  0.09301000  0.44972000  0.80296000  1.0
  N  N121  1  0.90705000  0.44970000  0.19705000  1.0
  N  N122  1  0.59298000  0.55032000  0.69702000  1.0
  N  N123  1  0.40701000  0.55028000  0.30294000  1.0
  N  N124  1  0.06692000  0.22688000  0.67222000  1.0
  N  N125  1  0.93310000  0.22688000  0.32776000  1.0
  N  N126  1  0.56693000  0.77313000  0.82777000  1.0
  N  N127  1  0.43308000  0.77311000  0.17223000  1.0
  N  N128  1  0.76876000  0.39159000  0.71192000  1.0
  N  N129  1  0.23126000  0.39156000  0.28806000  1.0
  N  N130  1  0.26878000  0.60844000  0.78808000  1.0
  N  N131  1  0.73126000  0.60842000  0.21194000  1.0
  N  N132  1  0.64805000  0.46545000  0.74424000  1.0
  N  N133  1  0.35195000  0.46539000  0.25573000  1.0
  N  N134  1  0.14808000  0.53459000  0.75575000  1.0
  N  N135  1  0.85197000  0.53457000  0.24426000  1.0
  N  N136  1  0.67460000  0.53464000  0.63354000  1.0
  N  N137  1  0.32538000  0.53462000  0.36644000  1.0
  N  N138  1  0.17462000  0.46539000  0.86645000  1.0
  N  N139  1  0.82541000  0.46537000  0.13356000  1.0
  O  O140  1  0.09249000  0.15153000  0.80865000  1.0
  O  O141  1  0.90749000  0.15153000  0.19135000  1.0
  O  O142  1  0.59249000  0.84849000  0.69136000  1.0
  O  O143  1  0.40750000  0.84846000  0.30864000  1.0
  O  O144  1  0.22301000  0.96190000  0.78374000  1.0
  O  O145  1  0.77699000  0.96194000  0.21625000  1.0
  O  O146  1  0.72304000  0.03808000  0.71626000  1.0
  O  O147  1  0.27697000  0.03806000  0.28374000  1.0
  O  O148  1  0.31803000  0.22875000  0.54252000  1.0
  O  O149  1  0.68197000  0.22875000  0.45747000  1.0
  O  O150  1  0.81802000  0.77123000  0.95748000  1.0
  O  O151  1  0.18198000  0.77126000  0.04253000  1.0
