# generated using pymatgen
data_Al2H5C18O10F
_symmetry_space_group_name_H-M   'P 1'
_cell_length_a   6.69391000
_cell_length_b   18.17890000
_cell_length_c   20.83580000
_cell_angle_alpha   107.99500000
_cell_angle_beta   89.98030000
_cell_angle_gamma   89.89160000
_symmetry_Int_Tables_number   1
_chemical_formula_structural   Al2H5C18O10F
_chemical_formula_sum   'Al4 H10 C36 O20 F2'
_cell_volume   2411.43357530
_cell_formula_units_Z   2
loop_
 _symmetry_equiv_pos_site_id
 _symmetry_equiv_pos_as_xyz
  1  'x, y, z'
loop_
 _atom_site_type_symbol
 _atom_site_label
 _atom_site_symmetry_multiplicity
 _atom_site_fract_x
 _atom_site_fract_y
 _atom_site_fract_z
 _atom_site_occupancy
  Al  Al0  1  0.13388000  0.49996000  0.49962000  1.0
  Al  Al1  1  0.63418000  0.49930000  0.49922000  1.0
  Al  Al2  1  0.64867000  0.99945000  0.99873000  1.0
  Al  Al3  1  0.14836000  0.99997000  0.99909000  1.0
  H  H4  1  0.20843000  0.30312000  0.72046000  1.0
  H  H5  1  0.21167000  0.22305000  0.79855000  1.0
  H  H6  1  0.57278000  0.19686000  0.77900000  1.0
  H  H7  1  0.56942000  0.27695000  0.70092000  1.0
  H  H8  1  0.68873000  0.66852000  0.25550000  1.0
  H  H9  1  0.09103000  0.75215000  0.32143000  1.0
  H  H10  1  0.38364000  0.40012000  0.48982000  1.0
  H  H11  1  0.88229000  0.60122000  0.52188000  1.0
  H  H12  1  0.39861000  0.10110000  0.01868000  1.0
  H  H13  1  0.89954000  0.90646000  0.00535000  1.0
  C  C14  1  0.38357000  0.60621000  0.60369000  1.0
  C  C15  1  0.38450000  0.57686000  0.42373000  1.0
  C  C16  1  0.88608000  0.39411000  0.39497000  1.0
  C  C17  1  0.88350000  0.42187000  0.57504000  1.0
  C  C18  1  0.07198000  0.23506000  0.77685000  1.0
  C  C19  1  0.89249000  0.20478000  0.79380000  1.0
  C  C20  1  0.71097000  0.22051000  0.76604000  1.0
  C  C21  1  0.70906000  0.26504000  0.72272000  1.0
  C  C22  1  0.88862000  0.29529000  0.70573000  1.0
  C  C23  1  0.07016000  0.27957000  0.73351000  1.0
  C  C24  1  0.89472000  0.15951000  0.83814000  1.0
  C  C25  1  0.88666000  0.34030000  0.66116000  1.0
  C  C26  1  0.88471000  0.37849000  0.62232000  1.0
  C  C27  1  0.89728000  0.12080000  0.87653000  1.0
  C  C28  1  0.89528000  0.16784000  0.16692000  1.0
  C  C29  1  0.89234000  0.22082000  0.22007000  1.0
  C  C30  1  0.88959000  0.27947000  0.27864000  1.0
  C  C31  1  0.88722000  0.33265000  0.33165000  1.0
  C  C32  1  0.38548000  0.66755000  0.66706000  1.0
  C  C33  1  0.38897000  0.72071000  0.72008000  1.0
  C  C34  1  0.39306000  0.77952000  0.77852000  1.0
  C  C35  1  0.39745000  0.83286000  0.83139000  1.0
  C  C36  1  0.55735000  0.74832000  0.21034000  1.0
  C  C37  1  0.39449000  0.79576000  0.20526000  1.0
  C  C38  1  0.22906000  0.79500000  0.24719000  1.0
  C  C39  1  0.22263000  0.75068000  0.29041000  1.0
  C  C40  1  0.38940000  0.70455000  0.29387000  1.0
  C  C41  1  0.55888000  0.70379000  0.25342000  1.0
  C  C42  1  0.39660000  0.84049000  0.16093000  1.0
  C  C43  1  0.38682000  0.65928000  0.33822000  1.0
  C  C44  1  0.38460000  0.62077000  0.37676000  1.0
  C  C45  1  0.39807000  0.87864000  0.12212000  1.0
  C  C46  1  0.39781000  0.92228000  0.07502000  1.0
  C  C47  1  0.39964000  0.89428000  0.89482000  1.0
  C  C48  1  0.89877000  0.07640000  0.92298000  1.0
  C  C49  1  0.89660000  0.10679000  0.10325000  1.0
  O  O50  1  0.55500000  0.55871000  0.44134000  1.0
  O  O51  1  0.21264000  0.58217000  0.57944000  1.0
  O  O52  1  0.05368000  0.43808000  0.55545000  1.0
  O  O53  1  0.21434000  0.56154000  0.44369000  1.0
  O  O54  1  0.05602000  0.41878000  0.41956000  1.0
  O  O55  1  0.55351000  0.58286000  0.57781000  1.0
  O  O56  1  0.38399000  0.45430000  0.49265000  1.0
  O  O57  1  0.71554000  0.41686000  0.42051000  1.0
  O  O58  1  0.71258000  0.43894000  0.55659000  1.0
  O  O59  1  0.88358000  0.54522000  0.50678000  1.0
  O  O60  1  0.22992000  0.91738000  0.92077000  1.0
  O  O61  1  0.56793000  0.93755000  0.05478000  1.0
  O  O62  1  0.72626000  0.08242000  0.07869000  1.0
  O  O63  1  0.57049000  0.91827000  0.91885000  1.0
  O  O64  1  0.72900000  0.05979000  0.94240000  1.0
  O  O65  1  0.22711000  0.94052000  0.05742000  1.0
  O  O66  1  0.39843000  0.04520000  0.00642000  1.0
  O  O67  1  0.06923000  0.05868000  0.94109000  1.0
  O  O68  1  0.06751000  0.08434000  0.07777000  1.0
  O  O69  1  0.89894000  0.95411000  0.99365000  1.0
  F  F70  1  0.71814000  0.74650000  0.17060000  1.0
  F  F71  1  0.07055000  0.84011000  0.24460000  1.0
