# generated using pymatgen
data_ZnSiH6C8(NF2)4
_symmetry_space_group_name_H-M   'P 1'
_cell_length_a   7.28088000
_cell_length_b   7.28074000
_cell_length_c   7.71788000
_cell_angle_alpha   94.42190000
_cell_angle_beta   94.42260000
_cell_angle_gamma   91.22190000
_symmetry_Int_Tables_number   1
_chemical_formula_structural   ZnSiH6C8(NF2)4
_chemical_formula_sum   'Zn1 Si1 H6 C8 N4 F8'
_cell_volume   406.54084956
_cell_formula_units_Z   1
loop_
 _symmetry_equiv_pos_site_id
 _symmetry_equiv_pos_as_xyz
  1  'x, y, z'
loop_
 _atom_site_type_symbol
 _atom_site_label
 _atom_site_symmetry_multiplicity
 _atom_site_fract_x
 _atom_site_fract_y
 _atom_site_fract_z
 _atom_site_occupancy
  Zn  Zn0  1  0.49864000  0.49864000  0.50876000  1.0
  Si  Si1  1  0.47687000  0.47687000  0.01085000  1.0
  H  H2  1  0.15161000  0.50732000  0.22614000  1.0
  H  H3  1  0.19736000  0.51522000  0.77141000  1.0
  H  H4  1  0.80712000  0.50901000  0.22908000  1.0
  H  H5  1  0.50732000  0.15161000  0.22615000  1.0
  H  H6  1  0.51522000  0.19736000  0.77141000  1.0
  H  H7  1  0.50900000  0.80712000  0.22909000  1.0
  C  C8  1  0.92328000  0.51078000  0.64494000  1.0
  C  C9  1  0.08600000  0.50745000  0.34838000  1.0
  C  C10  1  0.11485000  0.51138000  0.64779000  1.0
  C  C11  1  0.89467000  0.50787000  0.35000000  1.0
  C  C12  1  0.51079000  0.92327000  0.64495000  1.0
  C  C13  1  0.50745000  0.08601000  0.34839000  1.0
  C  C14  1  0.51138000  0.11485000  0.64780000  1.0
  C  C15  1  0.50787000  0.89467000  0.35000000  1.0
  N  N16  1  0.81081000  0.50878000  0.50097000  1.0
  N  N17  1  0.19587000  0.50837000  0.49794000  1.0
  N  N18  1  0.50879000  0.81080000  0.50098000  1.0
  N  N19  1  0.50837000  0.19587000  0.49795000  1.0
  F  F20  1  0.46671000  0.46672000  0.24071000  1.0
  F  F21  1  0.48789000  0.48789000  0.78128000  1.0
  F  F22  1  0.31251000  0.63799000  0.01389000  1.0
  F  F23  1  0.63799000  0.31250000  0.01389000  1.0
  F  F24  1  0.31030000  0.31029000  0.97236000  1.0
  F  F25  1  0.64291000  0.64292000  0.05237000  1.0
  F  F26  1  0.84862000  0.51269000  0.79661000  1.0
  F  F27  1  0.51269000  0.84862000  0.79662000  1.0
