# generated using pymatgen
data_HgH8(C3N2)3
_symmetry_space_group_name_H-M   'P 1'
_cell_length_a   9.20042000
_cell_length_b   9.20324000
_cell_length_c   14.73920000
_cell_angle_alpha   108.17400000
_cell_angle_beta   101.68300000
_cell_angle_gamma   100.13300000
_symmetry_Int_Tables_number   1
_chemical_formula_structural   HgH8(C3N2)3
_chemical_formula_sum   'Hg4 H32 C36 N24'
_cell_volume   1122.20352072
_cell_formula_units_Z   4
loop_
 _symmetry_equiv_pos_site_id
 _symmetry_equiv_pos_as_xyz
  1  'x, y, z'
loop_
 _atom_site_type_symbol
 _atom_site_label
 _atom_site_symmetry_multiplicity
 _atom_site_fract_x
 _atom_site_fract_y
 _atom_site_fract_z
 _atom_site_occupancy
  Hg  Hg0  1  0.21704000  0.68565000  0.14351000  1.0
  Hg  Hg1  1  0.54185000  0.57354000  0.35657000  1.0
  Hg  Hg2  1  0.78296000  0.31435000  0.85649000  1.0
  Hg  Hg3  1  0.45816000  0.42647000  0.64344000  1.0
  H  H4  1  0.74405000  0.12571000  0.03077000  1.0
  H  H5  1  0.09462000  0.21319000  0.46926000  1.0
  H  H6  1  0.25593000  0.87428000  0.96923000  1.0
  H  H7  1  0.90537000  0.78681000  0.53074000  1.0
  H  H8  1  0.68744000  0.91572000  0.96453000  1.0
  H  H9  1  0.95076000  0.22294000  0.53546000  1.0
  H  H10  1  0.31255000  0.08427000  0.03547000  1.0
  H  H11  1  0.04923000  0.77706000  0.46454000  1.0
  H  H12  1  0.51304000  0.74364000  0.02072000  1.0
  H  H13  1  0.72256000  0.99225000  0.47936000  1.0
  H  H14  1  0.48697000  0.25635000  0.97929000  1.0
  H  H15  1  0.27744000  0.00776000  0.52064000  1.0
  H  H16  1  0.48217000  0.07677000  0.28459000  1.0
  H  H17  1  0.79193000  0.69768000  0.21548000  1.0
  H  H18  1  0.51783000  0.92323000  0.71542000  1.0
  H  H19  1  0.20805000  0.30231000  0.78453000  1.0
  H  H20  1  0.69956000  0.22251000  0.21193000  1.0
  H  H21  1  0.01012000  0.98776000  0.28802000  1.0
  H  H22  1  0.30044000  0.77749000  0.78807000  1.0
  H  H23  1  0.98987000  0.01223000  0.71197000  1.0
  H  H24  1  0.85666000  0.74848000  0.03357000  1.0
  H  H25  1  0.71447000  0.32287000  0.46628000  1.0
  H  H26  1  0.14334000  0.25153000  0.96644000  1.0
  H  H27  1  0.28553000  0.67714000  0.53372000  1.0
  H  H28  1  0.24845000  0.12313000  0.21005000  1.0
  H  H29  1  0.91308000  0.53854000  0.29010000  1.0
  H  H30  1  0.75155000  0.87688000  0.78994000  1.0
  H  H31  1  0.08693000  0.46147000  0.70990000  1.0
  H  H32  1  0.00698000  0.24853000  0.15074000  1.0
  H  H33  1  0.09775000  0.35636000  0.34937000  1.0
  H  H34  1  0.99302000  0.75147000  0.84925000  1.0
  H  H35  1  0.90224000  0.64363000  0.65062000  1.0
  C  C36  1  0.73557000  0.00979000  0.03779000  1.0
  C  C37  1  0.97165000  0.19775000  0.46221000  1.0
  C  C38  1  0.26443000  0.99021000  0.96221000  1.0
  C  C39  1  0.02834000  0.80224000  0.53779000  1.0
  C  C40  1  0.53138000  0.85144000  0.08397000  1.0
  C  C41  1  0.76712000  0.94741000  0.41611000  1.0
  C  C42  1  0.46862000  0.14856000  0.91605000  1.0
  C  C43  1  0.23287000  0.05259000  0.58390000  1.0
  C  C44  1  0.52135000  0.02795000  0.21955000  1.0
  C  C45  1  0.80809000  0.80186000  0.28050000  1.0
  C  C46  1  0.47865000  0.97205000  0.78046000  1.0
  C  C47  1  0.19190000  0.19813000  0.71950000  1.0
  C  C48  1  0.62922000  0.10217000  0.18520000  1.0
  C  C49  1  0.91656000  0.94410000  0.31479000  1.0
  C  C50  1  0.37079000  0.89783000  0.81481000  1.0
  C  C51  1  0.08342000  0.05589000  0.68520000  1.0
  C  C52  1  0.93370000  0.86537000  0.07468000  1.0
  C  C53  1  0.79037000  0.35892000  0.42525000  1.0
  C  C54  1  0.06630000  0.13463000  0.92532000  1.0
  C  C55  1  0.20963000  0.64108000  0.57475000  1.0
  C  C56  1  0.13189000  0.06307000  0.16457000  1.0
  C  C57  1  0.89842000  0.46741000  0.33552000  1.0
  C  C58  1  0.86810000  0.93694000  0.83541000  1.0
  C  C59  1  0.10159000  0.53259000  0.66447000  1.0
  C  C60  1  0.01410000  0.12765000  0.13731000  1.0
  C  C61  1  0.99024000  0.37688000  0.36277000  1.0
  C  C62  1  0.98590000  0.87234000  0.86268000  1.0
  C  C63  1  0.00976000  0.62312000  0.63722000  1.0
  C  C64  1  0.18085000  0.57718000  0.99172000  1.0
  C  C65  1  0.58520000  0.68909000  0.50838000  1.0
  C  C66  1  0.81917000  0.42283000  0.00829000  1.0
  C  C67  1  0.41482000  0.31094000  0.49162000  1.0
  C  C68  1  0.22896000  0.72996000  0.29118000  1.0
  C  C69  1  0.43881000  0.43800000  0.20884000  1.0
  C  C70  1  0.77101000  0.27003000  0.70882000  1.0
  C  C71  1  0.56118000  0.56196000  0.79117000  1.0
  N  N72  1  0.63384000  0.98909000  0.09891000  1.0
  N  N73  1  0.88974000  0.03497000  0.40109000  1.0
  N  N74  1  0.36616000  0.01091000  0.90109000  1.0
  N  N75  1  0.11025000  0.96502000  0.59891000  1.0
  N  N76  1  0.46116000  0.87238000  0.15557000  1.0
  N  N77  1  0.71653000  0.80559000  0.34453000  1.0
  N  N78  1  0.53885000  0.12762000  0.84444000  1.0
  N  N79  1  0.28347000  0.19441000  0.65548000  1.0
  N  N80  1  0.88923000  0.00089000  0.08022000  1.0
  N  N81  1  0.92041000  0.30898000  0.41976000  1.0
  N  N82  1  0.11077000  0.99911000  0.91978000  1.0
  N  N83  1  0.07958000  0.69102000  0.58023000  1.0
  N  N84  1  0.08011000  0.89946000  0.12478000  1.0
  N  N85  1  0.77444000  0.45530000  0.37522000  1.0
  N  N86  1  0.91989000  0.10055000  0.87521000  1.0
  N  N87  1  0.22556000  0.54471000  0.62478000  1.0
  N  N88  1  0.16233000  0.52750000  0.90566000  1.0
  N  N89  1  0.62165000  0.75660000  0.59443000  1.0
  N  N90  1  0.83767000  0.47253000  0.09434000  1.0
  N  N91  1  0.37835000  0.24338000  0.40557000  1.0
  N  N92  1  0.23805000  0.76076000  0.37566000  1.0
  N  N93  1  0.38550000  0.36275000  0.12430000  1.0
  N  N94  1  0.76195000  0.23923000  0.62433000  1.0
  N  N95  1  0.61452000  0.63724000  0.87570000  1.0
