# generated using pymatgen
data_CoH13C20N7O4
_symmetry_space_group_name_H-M   'P 1'
_cell_length_a   10.06720000
_cell_length_b   10.10620000
_cell_length_c   14.09450000
_cell_angle_alpha   80.34340000
_cell_angle_beta   78.26590000
_cell_angle_gamma   69.35730000
_symmetry_Int_Tables_number   1
_chemical_formula_structural   CoH13C20N7O4
_chemical_formula_sum   'Co2 H26 C40 N14 O8'
_cell_volume   1306.64159024
_cell_formula_units_Z   2
loop_
 _symmetry_equiv_pos_site_id
 _symmetry_equiv_pos_as_xyz
  1  'x, y, z'
loop_
 _atom_site_type_symbol
 _atom_site_label
 _atom_site_symmetry_multiplicity
 _atom_site_fract_x
 _atom_site_fract_y
 _atom_site_fract_z
 _atom_site_occupancy
  Co  Co0  1  0.86834000  0.39522000  0.97552000  1.0
  Co  Co1  1  0.13165000  0.60479000  0.02448000  1.0
  H  H2  1  0.53161000  0.25050000  0.86679000  1.0
  H  H3  1  0.46839000  0.74949000  0.13321000  1.0
  H  H4  1  0.57300000  0.80632000  0.88715000  1.0
  H  H5  1  0.42699000  0.19367000  0.11285000  1.0
  H  H6  1  0.90283000  0.92747000  0.96647000  1.0
  H  H7  1  0.09716000  0.07254000  0.03354000  1.0
  H  H8  1  0.56112000  0.50649000  0.06717000  1.0
  H  H9  1  0.43889000  0.49351000  0.93283000  1.0
  H  H10  1  0.41116000  0.51080000  0.23026000  1.0
  H  H11  1  0.58885000  0.48920000  0.76974000  1.0
  H  H12  1  0.80067000  0.26923000  0.35009000  1.0
  H  H13  1  0.19933000  0.73077000  0.64990000  1.0
  H  H14  1  0.93472000  0.27477000  0.18035000  1.0
  H  H15  1  0.06527000  0.72522000  0.81964000  1.0
  H  H16  1  0.57747000  0.32453000  0.46233000  1.0
  H  H17  1  0.42256000  0.67545000  0.53768000  1.0
  H  H18  1  0.12940000  0.55234000  0.49088000  1.0
  H  H19  1  0.87057000  0.44768000  0.50910000  1.0
  H  H20  1  0.30093000  0.29273000  0.69902000  1.0
  H  H21  1  0.69907000  0.70727000  0.30098000  1.0
  H  H22  1  0.16355000  0.26733000  0.86516000  1.0
  H  H23  1  0.83644000  0.73266000  0.13484000  1.0
  H  H24  1  0.79080000  0.56945000  0.78625000  1.0
  H  H25  1  0.20920000  0.43053000  0.21374000  1.0
  H  H26  1  0.91091000  0.60776000  0.61573000  1.0
  H  H27  1  0.08909000  0.39224000  0.38427000  1.0
  C  C28  1  0.72325000  0.10015000  0.91746000  1.0
  C  C29  1  0.27674000  0.89985000  0.08254000  1.0
  C  C30  1  0.59291000  0.13881000  0.88252000  1.0
  C  C31  1  0.40708000  0.86120000  0.11748000  1.0
  C  C32  1  0.54036000  0.03335000  0.86931000  1.0
  C  C33  1  0.45964000  0.96666000  0.13069000  1.0
  C  C34  1  0.61497000  0.88980000  0.89343000  1.0
  C  C35  1  0.38502000  0.11020000  0.10657000  1.0
  C  C36  1  0.74560000  0.85174000  0.92821000  1.0
  C  C37  1  0.25440000  0.14826000  0.07179000  1.0
  C  C38  1  0.80130000  0.95640000  0.93914000  1.0
  C  C39  1  0.19869000  0.04361000  0.06087000  1.0
  C  C40  1  0.77725000  0.21309000  0.93424000  1.0
  C  C41  1  0.22276000  0.78690000  0.06577000  1.0
  C  C42  1  0.82370000  0.69772000  0.95464000  1.0
  C  C43  1  0.17631000  0.30227000  0.04536000  1.0
  C  C44  1  0.61013000  0.45439000  0.13161000  1.0
  C  C45  1  0.38987000  0.54562000  0.86838000  1.0
  C  C46  1  0.52670000  0.45638000  0.22304000  1.0
  C  C47  1  0.47331000  0.54363000  0.77696000  1.0
  C  C48  1  0.59349000  0.38826000  0.30496000  1.0
  C  C49  1  0.40653000  0.61175000  0.69503000  1.0
  C  C50  1  0.74333000  0.32339000  0.28926000  1.0
  C  C51  1  0.25669000  0.67661000  0.71073000  1.0
  C  C52  1  0.81880000  0.32584000  0.19530000  1.0
  C  C53  1  0.18121000  0.67416000  0.80470000  1.0
  C  C54  1  0.51511000  0.37838000  0.40295000  1.0
  C  C55  1  0.48488000  0.62164000  0.59704000  1.0
  C  C56  1  0.19034000  0.47336000  0.54386000  1.0
  C  C57  1  0.80968000  0.52663000  0.45615000  1.0
  C  C58  1  0.11743000  0.45287000  0.64256000  1.0
  C  C59  1  0.88256000  0.54713000  0.35746000  1.0
  C  C60  1  0.18777000  0.35538000  0.71507000  1.0
  C  C61  1  0.81223000  0.64462000  0.28493000  1.0
  C  C62  1  0.11184000  0.34143000  0.80762000  1.0
  C  C63  1  0.88816000  0.65856000  0.19237000  1.0
  C  C64  1  0.90363000  0.51044000  0.76349000  1.0
  C  C65  1  0.09637000  0.48956000  0.23651000  1.0
  C  C66  1  0.97164000  0.53119000  0.66876000  1.0
  C  C67  1  0.02835000  0.46881000  0.33125000  1.0
  N  N68  1  0.40868000  0.08124000  0.83264000  1.0
  N  N69  1  0.59131000  0.91876000  0.16736000  1.0
  N  N70  1  0.35332000  0.99420000  0.82294000  1.0
  N  N71  1  0.64668000  0.00581000  0.17705000  1.0
  N  N72  1  0.28845000  0.92701000  0.81033000  1.0
  N  N73  1  0.71154000  0.07299000  0.18966000  1.0
  N  N74  1  0.75434000  0.38971000  0.11710000  1.0
  N  N75  1  0.24566000  0.61030000  0.88291000  1.0
  N  N76  1  0.37581000  0.42827000  0.42155000  1.0
  N  N77  1  0.62417000  0.57177000  0.57844000  1.0
  N  N78  1  0.32431000  0.40017000  0.51852000  1.0
  N  N79  1  0.67572000  0.59983000  0.48150000  1.0
  N  N80  1  0.97208000  0.41793000  0.83280000  1.0
  N  N81  1  0.02793000  0.58206000  0.16719000  1.0
  O  O82  1  0.90264000  0.17854000  0.95644000  1.0
  O  O83  1  0.09737000  0.82144000  0.04356000  1.0
  O  O84  1  0.69737000  0.34375000  0.92821000  1.0
  O  O85  1  0.30262000  0.65625000  0.07179000  1.0
  O  O86  1  0.95288000  0.66166000  0.96893000  1.0
  O  O87  1  0.04713000  0.33834000  0.03107000  1.0
  O  O88  1  0.75703000  0.60942000  0.96001000  1.0
  O  O89  1  0.24296000  0.39058000  0.03999000  1.0
