# generated using pymatgen
data_NaLiH8(CO2)4
_symmetry_space_group_name_H-M   'P 1'
_cell_length_a   7.86106000
_cell_length_b   9.91367219
_cell_length_c   11.76707490
_cell_angle_alpha   81.87988431
_cell_angle_beta   70.50919106
_cell_angle_gamma   66.66202911
_symmetry_Int_Tables_number   1
_chemical_formula_structural   NaLiH8(CO2)4
_chemical_formula_sum   'Na4 Li4 H32 C16 O32'
_cell_volume   793.70898620
_cell_formula_units_Z   4
loop_
 _symmetry_equiv_pos_site_id
 _symmetry_equiv_pos_as_xyz
  1  'x, y, z'
loop_
 _atom_site_type_symbol
 _atom_site_label
 _atom_site_symmetry_multiplicity
 _atom_site_fract_x
 _atom_site_fract_y
 _atom_site_fract_z
 _atom_site_occupancy
  Na  Na0  1  0.99317000  0.74990000  0.25003000  1.0
  Na  Na1  1  0.00683000  0.25010000  0.74997000  1.0
  Na  Na2  1  0.00000000  0.50000000  0.50000000  1.0
  Na  Na3  1  0.00000000  0.00000000  0.00000000  1.0
  Li  Li4  1  0.93527000  0.83498000  0.53255000  1.0
  Li  Li5  1  0.30294000  0.66494000  0.96760000  1.0
  Li  Li6  1  0.06472000  0.16503000  0.46745000  1.0
  Li  Li7  1  0.69705000  0.33506000  0.03240000  1.0
  H  H8  1  0.50397000  0.14715000  0.59300000  1.0
  H  H9  1  0.24378000  0.35264000  0.90695000  1.0
  H  H10  1  0.49604000  0.85285000  0.40699000  1.0
  H  H11  1  0.75622000  0.64736000  0.09305000  1.0
  H  H12  1  0.54003000  0.34839000  0.46404000  1.0
  H  H13  1  0.35271000  0.15130000  0.03557000  1.0
  H  H14  1  0.45998000  0.65161000  0.53596000  1.0
  H  H15  1  0.64729000  0.84870000  0.96443000  1.0
  H  H16  1  0.62331000  0.92042000  0.15898000  1.0
  H  H17  1  0.70281000  0.57927000  0.34115000  1.0
  H  H18  1  0.37668000  0.07958000  0.84103000  1.0
  H  H19  1  0.29721000  0.42073000  0.65884000  1.0
  H  H20  1  0.68344000  0.00359000  0.23426000  1.0
  H  H21  1  0.92125000  0.49622000  0.26566000  1.0
  H  H22  1  0.31656000  0.99641000  0.76574000  1.0
  H  H23  1  0.07875000  0.50378000  0.73434000  1.0
  H  H24  1  0.77005000  0.69588000  0.71490000  1.0
  H  H25  1  0.18112000  0.80406000  0.78516000  1.0
  H  H26  1  0.22996000  0.30412000  0.28510000  1.0
  H  H27  1  0.81888000  0.19594000  0.21484000  1.0
  H  H28  1  0.64268000  0.76676000  0.62989000  1.0
  H  H29  1  0.03954000  0.73326000  0.87015000  1.0
  H  H30  1  0.35731000  0.23324000  0.37011000  1.0
  H  H31  1  0.96047000  0.26674000  0.12984000  1.0
  H  H32  1  0.73086000  0.05864000  0.68201000  1.0
  H  H33  1  0.47114000  0.44134000  0.81784000  1.0
  H  H34  1  0.26913000  0.94137000  0.31799000  1.0
  H  H35  1  0.52886000  0.55866000  0.18216000  1.0
  H  H36  1  0.84799000  0.35586000  0.37324000  1.0
  H  H37  1  0.57704000  0.14397000  0.12665000  1.0
  H  H38  1  0.15200000  0.64415000  0.62676000  1.0
  H  H39  1  0.42295000  0.85603000  0.87335000  1.0
  C  C40  1  0.68518000  0.04562000  0.42236000  1.0
  C  C41  1  0.15337000  0.45407000  0.07761000  1.0
  C  C42  1  0.31482000  0.95438000  0.57764000  1.0
  C  C43  1  0.84663000  0.54593000  0.92239000  1.0
  C  C44  1  0.65332000  0.12814000  0.53333000  1.0
  C  C45  1  0.31463000  0.37171000  0.96653000  1.0
  C  C46  1  0.34667000  0.87186000  0.46667000  1.0
  C  C47  1  0.68537000  0.62829000  0.03347000  1.0
  C  C48  1  0.66721000  0.27913000  0.49359000  1.0
  C  C49  1  0.43999000  0.22074000  0.00620000  1.0
  C  C50  1  0.33279000  0.72087000  0.50641000  1.0
  C  C51  1  0.56001000  0.77926000  0.99380000  1.0
  C  C52  1  0.66777000  0.34993000  0.60162000  1.0
  C  C53  1  0.61938000  0.15024000  0.89821000  1.0
  C  C54  1  0.33223000  0.65007000  0.39838000  1.0
  C  C55  1  0.38063000  0.84975000  0.10179000  1.0
  O  O56  1  0.80144000  0.91354000  0.40980000  1.0
  O  O57  1  0.12541000  0.58601000  0.09039000  1.0
  O  O58  1  0.19857000  0.08646000  0.59020000  1.0
  O  O59  1  0.87460000  0.41399000  0.90961000  1.0
  O  O60  1  0.59233000  0.11623000  0.34820000  1.0
  O  O61  1  0.05685000  0.38349000  0.15168000  1.0
  O  O62  1  0.40766000  0.88378000  0.65180000  1.0
  O  O63  1  0.94314000  0.61651000  0.84832000  1.0
  O  O64  1  0.79304000  0.04160000  0.59243000  1.0
  O  O65  1  0.42664000  0.45844000  0.90741000  1.0
  O  O66  1  0.20694000  0.95841000  0.40757000  1.0
  O  O67  1  0.57336000  0.54156000  0.09259000  1.0
  O  O68  1  0.84259000  0.25697000  0.39587000  1.0
  O  O69  1  0.49537000  0.24285000  0.10407000  1.0
  O  O70  1  0.15741000  0.74303000  0.60413000  1.0
  O  O71  1  0.50463000  0.75715000  0.89593000  1.0
  O  O72  1  0.50301000  0.40641000  0.68057000  1.0
  O  O73  1  0.59024000  0.09371000  0.81914000  1.0
  O  O74  1  0.49699000  0.59359000  0.31943000  1.0
  O  O75  1  0.40976000  0.90629000  0.18086000  1.0
  O  O76  1  0.82931000  0.34338000  0.60584000  1.0
  O  O77  1  0.77840000  0.15706000  0.89412000  1.0
  O  O78  1  0.17069000  0.65662000  0.39416000  1.0
  O  O79  1  0.22160000  0.84294000  0.10588000  1.0
  O  O80  1  0.73159000  0.95219000  0.15501000  1.0
  O  O81  1  0.83895000  0.54740000  0.34499000  1.0
  O  O82  1  0.26841000  0.04781000  0.84499000  1.0
  O  O83  1  0.16105000  0.45260000  0.65501000  1.0
  O  O84  1  0.78007000  0.71085000  0.62919000  1.0
  O  O85  1  0.12042000  0.78912000  0.87087000  1.0
  O  O86  1  0.21993000  0.28915000  0.37081000  1.0
  O  O87  1  0.87958000  0.21088000  0.12913000  1.0
