# generated using pymatgen
data_BaH24C20N2(OF2)2
_symmetry_space_group_name_H-M   'P 1'
_cell_length_a   8.35516000
_cell_length_b   10.99200000
_cell_length_c   11.97580000
_cell_angle_alpha   103.65000000
_cell_angle_beta   93.72380000
_cell_angle_gamma   95.08400000
_symmetry_Int_Tables_number   1
_chemical_formula_structural   BaH24C20N2(OF2)2
_chemical_formula_sum   'Ba2 H48 C40 N4 O4 F8'
_cell_volume   1060.39018160
_cell_formula_units_Z   2
loop_
 _symmetry_equiv_pos_site_id
 _symmetry_equiv_pos_as_xyz
  1  'x, y, z'
loop_
 _atom_site_type_symbol
 _atom_site_label
 _atom_site_symmetry_multiplicity
 _atom_site_fract_x
 _atom_site_fract_y
 _atom_site_fract_z
 _atom_site_occupancy
  Ba  Ba0  1  0.25680000  0.56643000  0.51194000  1.0
  Ba  Ba1  1  0.74320000  0.43357000  0.48806000  1.0
  H  H2  1  0.10517000  0.52616000  0.92954000  1.0
  H  H3  1  0.89484000  0.47384000  0.07046000  1.0
  H  H4  1  0.96056000  0.69367000  0.05420000  1.0
  H  H5  1  0.03944000  0.30633000  0.94580000  1.0
  H  H6  1  0.82404000  0.84488000  0.96063000  1.0
  H  H7  1  0.17596000  0.15512000  0.03938000  1.0
  H  H8  1  0.80168000  0.84398000  0.20601000  1.0
  H  H9  1  0.19832000  0.15602000  0.79399000  1.0
  H  H10  1  0.62438000  0.70042000  0.03974000  1.0
  H  H11  1  0.37562000  0.29958000  0.96027000  1.0
  H  H12  1  0.41750000  0.53875000  0.08272000  1.0
  H  H13  1  0.58250000  0.46125000  0.91728000  1.0
  H  H14  1  0.40732000  0.86217000  0.48627000  1.0
  H  H15  1  0.59269000  0.13783000  0.51373000  1.0
  H  H16  1  0.22111000  0.93285000  0.49412000  1.0
  H  H17  1  0.77889000  0.06715000  0.50588000  1.0
  H  H18  1  0.34606000  0.02842000  0.35297000  1.0
  H  H19  1  0.65394000  0.97158000  0.64703000  1.0
  H  H20  1  0.43417000  0.88781000  0.29220000  1.0
  H  H21  1  0.56583000  0.11219000  0.70780000  1.0
  H  H22  1  0.18860000  0.86739000  0.16104000  1.0
  H  H23  1  0.81140000  0.13261000  0.83896000  1.0
  H  H24  1  0.07517000  0.92830000  0.27851000  1.0
  H  H25  1  0.92483000  0.07170000  0.72149000  1.0
  H  H26  1  0.01201000  0.70770000  0.26871000  1.0
  H  H27  1  0.98799000  0.29230000  0.73130000  1.0
  H  H28  1  0.20083000  0.66997000  0.21444000  1.0
  H  H29  1  0.79917000  0.33003000  0.78556000  1.0
  H  H30  1  0.55157000  0.70444000  0.79436000  1.0
  H  H31  1  0.44843000  0.29556000  0.20564000  1.0
  H  H32  1  0.36078000  0.65927000  0.84123000  1.0
  H  H33  1  0.63923000  0.34073000  0.15877000  1.0
  H  H34  1  0.44392000  0.84559000  0.99332000  1.0
  H  H35  1  0.55609000  0.15441000  0.00668000  1.0
  H  H36  1  0.55323000  0.91911000  0.89950000  1.0
  H  H37  1  0.44677000  0.08089000  0.10050000  1.0
  H  H38  1  0.30283000  0.01890000  0.90190000  1.0
  H  H39  1  0.69717000  0.98110000  0.09810000  1.0
  H  H40  1  0.18450000  0.87456000  0.89897000  1.0
  H  H41  1  0.81549000  0.12543000  0.10102000  1.0
  H  H42  1  0.16705000  0.86629000  0.69386000  1.0
  H  H43  1  0.83295000  0.13370000  0.30614000  1.0
  H  H44  1  0.36691000  0.94497000  0.70532000  1.0
  H  H45  1  0.63309000  0.05503000  0.29468000  1.0
  H  H46  1  0.64542000  0.71822000  0.52773000  1.0
  H  H47  1  0.35458000  0.28178000  0.47227000  1.0
  H  H48  1  0.91566000  0.72050000  0.57599000  1.0
  H  H49  1  0.08435000  0.27950000  0.42401000  1.0
  C  C50  1  0.96256000  0.66402000  0.71650000  1.0
  C  C51  1  0.03744000  0.33598000  0.28350000  1.0
  C  C52  1  0.03889000  0.58496000  0.77665000  1.0
  C  C53  1  0.96111000  0.41504000  0.22335000  1.0
  C  C54  1  0.04124000  0.59232000  0.89342000  1.0
  C  C55  1  0.95877000  0.40768000  0.10658000  1.0
  C  C56  1  0.96246000  0.68611000  0.96216000  1.0
  C  C57  1  0.03754000  0.31389000  0.03784000  1.0
  C  C58  1  0.88507000  0.76948000  0.91036000  1.0
  C  C59  1  0.11494000  0.23052000  0.08965000  1.0
  C  C60  1  0.88696000  0.75665000  0.79274000  1.0
  C  C61  1  0.11304000  0.24335000  0.20726000  1.0
  C  C62  1  0.58873000  0.66719000  0.36147000  1.0
  C  C63  1  0.41127000  0.33281000  0.63853000  1.0
  C  C64  1  0.69793000  0.75806000  0.33070000  1.0
  C  C65  1  0.30207000  0.24194000  0.66930000  1.0
  C  C66  1  0.71196000  0.77200000  0.21980000  1.0
  C  C67  1  0.28804000  0.22800000  0.78020000  1.0
  C  C68  1  0.61248000  0.69265000  0.12774000  1.0
  C  C69  1  0.38752000  0.30736000  0.87226000  1.0
  C  C70  1  0.49957000  0.60164000  0.15072000  1.0
  C  C71  1  0.50043000  0.39836000  0.84928000  1.0
  C  C72  1  0.49154000  0.59263000  0.26330000  1.0
  C  C73  1  0.50846000  0.40737000  0.73670000  1.0
  C  C74  1  0.29689000  0.87392000  0.43654000  1.0
  C  C75  1  0.70311000  0.12608000  0.56346000  1.0
  C  C76  1  0.32784000  0.92526000  0.33170000  1.0
  C  C77  1  0.67216000  0.07474000  0.66830000  1.0
  C  C78  1  0.17404000  0.87116000  0.25215000  1.0
  C  C79  1  0.82596000  0.12884000  0.74785000  1.0
  C  C80  1  0.14074000  0.74032000  0.27372000  1.0
  C  C81  1  0.85926000  0.25968000  0.72627000  1.0
  C  C82  1  0.43333000  0.73487000  0.81519000  1.0
  C  C83  1  0.56667000  0.26513000  0.18481000  1.0
  C  C84  1  0.44304000  0.85924000  0.90544000  1.0
  C  C85  1  0.55696000  0.14076000  0.09456000  1.0
  C  C86  1  0.29313000  0.91633000  0.86919000  1.0
  C  C87  1  0.70686000  0.08367000  0.13081000  1.0
  C  C88  1  0.28865000  0.87785000  0.73830000  1.0
  C  C89  1  0.71135000  0.12215000  0.26170000  1.0
  N  N90  1  0.96658000  0.64848000  0.60067000  1.0
  N  N91  1  0.03342000  0.35152000  0.39934000  1.0
  N  N92  1  0.57362000  0.64886000  0.46886000  1.0
  N  N93  1  0.42638000  0.35114000  0.53114000  1.0
  O  O94  1  0.20996000  0.74959000  0.39072000  1.0
  O  O95  1  0.79004000  0.25041000  0.60928000  1.0
  O  O96  1  0.35170000  0.75621000  0.71126000  1.0
  O  O97  1  0.64830000  0.24379000  0.28874000  1.0
  F  F98  1  0.12105000  0.49354000  0.70922000  1.0
  F  F99  1  0.87895000  0.50645000  0.29078000  1.0
  F  F100  1  0.81003000  0.83941000  0.74269000  1.0
  F  F101  1  0.18997000  0.16059000  0.25731000  1.0
  F  F102  1  0.79822000  0.83613000  0.42037000  1.0
  F  F103  1  0.20178000  0.16387000  0.57963000  1.0
  F  F104  1  0.37623000  0.50353000  0.28532000  1.0
  F  F105  1  0.62377000  0.49647000  0.71468000  1.0
