# generated using pymatgen
data_ZnH8C8S4(N3O2)2
_symmetry_space_group_name_H-M   'P 1'
_cell_length_a   8.23722000
_cell_length_b   8.86015000
_cell_length_c   12.17906154
_cell_angle_alpha   78.30191373
_cell_angle_beta   71.17413657
_cell_angle_gamma   66.80710000
_symmetry_Int_Tables_number   1
_chemical_formula_structural   ZnH8C8S4(N3O2)2
_chemical_formula_sum   'Zn2 H16 C16 S8 N12 O8'
_cell_volume   770.39157267
_cell_formula_units_Z   2
loop_
 _symmetry_equiv_pos_site_id
 _symmetry_equiv_pos_as_xyz
  1  'x, y, z'
loop_
 _atom_site_type_symbol
 _atom_site_label
 _atom_site_symmetry_multiplicity
 _atom_site_fract_x
 _atom_site_fract_y
 _atom_site_fract_z
 _atom_site_occupancy
  Zn  Zn0  1  0.68021000  0.80082000  0.21680000  1.0
  Zn  Zn1  1  0.31979000  0.19918000  0.78320000  1.0
  H  H2  1  0.80730000  0.93562000  0.52169000  1.0
  H  H3  1  0.19270000  0.06438000  0.47831000  1.0
  H  H4  1  0.59026000  0.07303000  0.51180000  1.0
  H  H5  1  0.40974000  0.92697000  0.48820000  1.0
  H  H6  1  0.25870000  0.31647000  0.24768000  1.0
  H  H7  1  0.74130000  0.68353000  0.75232000  1.0
  H  H8  1  0.13235000  0.27376000  0.17388000  1.0
  H  H9  1  0.86765000  0.72624000  0.82612000  1.0
  H  H10  1  0.29028000  0.79715000  0.25387000  1.0
  H  H11  1  0.70972000  0.20285000  0.74613000  1.0
  H  H12  1  0.19754000  0.64356000  0.27584000  1.0
  H  H13  1  0.80246000  0.35644000  0.72416000  1.0
  H  H14  1  0.75050000  0.00630000  0.99816000  1.0
  H  H15  1  0.24950000  0.99370000  0.00184000  1.0
  H  H16  1  0.93771000  0.99121000  0.86892000  1.0
  H  H17  1  0.06229000  0.00879000  0.13108000  1.0
  C  C18  1  0.45313000  0.57086000  0.29924000  1.0
  C  C19  1  0.54688000  0.42914000  0.70076000  1.0
  C  C20  1  0.68496000  0.35800000  0.38297000  1.0
  C  C21  1  0.31505000  0.64200000  0.61703000  1.0
  C  C22  1  0.73670000  0.03480000  0.46427000  1.0
  C  C23  1  0.26329000  0.96520000  0.53574000  1.0
  C  C24  1  0.77216000  0.96720000  0.34942000  1.0
  C  C25  1  0.22784000  0.03280000  0.65058000  1.0
  C  C26  1  0.97656000  0.79837000  0.99209000  1.0
  C  C27  1  0.02344000  0.20163000  0.00791000  1.0
  C  C28  1  0.19680000  0.53492000  0.03710000  1.0
  C  C29  1  0.80321000  0.46508000  0.96289000  1.0
  C  C30  1  0.27191000  0.25515000  0.17361000  1.0
  C  C31  1  0.72808000  0.74485000  0.82640000  1.0
  C  C32  1  0.37834000  0.07310000  0.19393000  1.0
  C  C33  1  0.62166000  0.92690000  0.80607000  1.0
  S  S34  1  0.46810000  0.37787000  0.37325000  1.0
  S  S35  1  0.53189000  0.62213000  0.62676000  1.0
  S  S36  1  0.82330000  0.19514000  0.45537000  1.0
  S  S37  1  0.17670000  0.80486000  0.54463000  1.0
  S  S38  1  0.19921000  0.68374000  0.91792000  1.0
  S  S39  1  0.80079000  0.31626000  0.08208000  1.0
  S  S40  1  0.38113000  0.35034000  0.03885000  1.0
  S  S41  1  0.61887000  0.64966000  0.96115000  1.0
  N  N42  1  0.60086000  0.60656000  0.28814000  1.0
  N  N43  1  0.39915000  0.39344000  0.71186000  1.0
  N  N44  1  0.73097000  0.48610000  0.33575000  1.0
  N  N45  1  0.26903000  0.51390000  0.66425000  1.0
  N  N46  1  0.31111000  0.67324000  0.25717000  1.0
  N  N47  1  0.68890000  0.32676000  0.74283000  1.0
  N  N48  1  0.91982000  0.72301000  0.09583000  1.0
  N  N49  1  0.08018000  0.27700000  0.90417000  1.0
  N  N50  1  0.04567000  0.57380000  0.12142000  1.0
  N  N51  1  0.95433000  0.42620000  0.87858000  1.0
  N  N52  1  0.87743000  0.94307000  0.94807000  1.0
  N  N53  1  0.12257000  0.05694000  0.05193000  1.0
  O  O54  1  0.68059000  0.87264000  0.36094000  1.0
  O  O55  1  0.31941000  0.12736000  0.63906000  1.0
  O  O56  1  0.87844000  0.00147000  0.25738000  1.0
  O  O57  1  0.12156000  0.99853000  0.74262000  1.0
  O  O58  1  0.54868000  0.01509000  0.13535000  1.0
  O  O59  1  0.45132000  0.98491000  0.86465000  1.0
  O  O60  1  0.29712000  0.99002000  0.27027000  1.0
  O  O61  1  0.70287000  0.00998000  0.72973000  1.0
