# generated using pymatgen
data_ZnH2(CO2)2
_symmetry_space_group_name_H-M   'P 1'
_cell_length_a   9.99904000
_cell_length_b   11.44400000
_cell_length_c   14.66980000
_cell_angle_alpha   91.39190000
_cell_angle_beta   89.99980000
_cell_angle_gamma   90.00000000
_symmetry_Int_Tables_number   1
_chemical_formula_structural   ZnH2(CO2)2
_chemical_formula_sum   'Zn12 H24 C24 O48'
_cell_volume   1678.15543296
_cell_formula_units_Z   12
loop_
 _symmetry_equiv_pos_site_id
 _symmetry_equiv_pos_as_xyz
  1  'x, y, z'
loop_
 _atom_site_type_symbol
 _atom_site_label
 _atom_site_symmetry_multiplicity
 _atom_site_fract_x
 _atom_site_fract_y
 _atom_site_fract_z
 _atom_site_occupancy
  Zn  Zn0  1  0.88328000  0.75788000  0.68922000  1.0
  Zn  Zn1  1  0.38328000  0.74213000  0.81078000  1.0
  Zn  Zn2  1  0.11672000  0.24212000  0.31078000  1.0
  Zn  Zn3  1  0.61672000  0.25788000  0.18922000  1.0
  Zn  Zn4  1  0.57164000  0.75699000  0.63201000  1.0
  Zn  Zn5  1  0.07164000  0.74301000  0.86799000  1.0
  Zn  Zn6  1  0.42836000  0.24301000  0.36799000  1.0
  Zn  Zn7  1  0.92836000  0.25699000  0.13201000  1.0
  Zn  Zn8  1  0.50001000  0.50000000  0.50000000  1.0
  Zn  Zn9  1  0.00000000  0.00000000  0.00000000  1.0
  Zn  Zn10  1  0.50000000  0.00000000  0.50000000  1.0
  Zn  Zn11  1  0.00000000  0.50000000  1.00000000  1.0
  H  H12  1  0.79125000  0.00863000  0.51451000  1.0
  H  H13  1  0.29125000  0.49137000  0.98548000  1.0
  H  H14  1  0.20875000  0.99136000  0.48548000  1.0
  H  H15  1  0.70875000  0.50863000  0.01452000  1.0
  H  H16  1  0.74574000  0.85998000  0.87532000  1.0
  H  H17  1  0.24575000  0.64003000  0.62468000  1.0
  H  H18  1  0.25425000  0.14003000  0.12468000  1.0
  H  H19  1  0.75425000  0.35997000  0.37532000  1.0
  H  H20  1  0.89350000  0.55801000  0.54648000  1.0
  H  H21  1  0.39350000  0.94199000  0.95353000  1.0
  H  H22  1  0.10650000  0.44199000  0.45353000  1.0
  H  H23  1  0.60650000  0.05801000  0.04648000  1.0
  H  H24  1  0.34021000  0.68758000  0.41642000  1.0
  H  H25  1  0.84021000  0.81242000  0.08358000  1.0
  H  H26  1  0.65979000  0.31241000  0.58358000  1.0
  H  H27  1  0.15978000  0.18758000  0.91642000  1.0
  H  H28  1  0.27657000  0.97721000  0.72987000  1.0
  H  H29  1  0.77657000  0.52279000  0.77013000  1.0
  H  H30  1  0.72343000  0.02279000  0.27013000  1.0
  H  H31  1  0.22343000  0.47721000  0.22987000  1.0
  H  H32  1  0.44252000  0.47409000  0.77233000  1.0
  H  H33  1  0.94251000  0.02592000  0.72767000  1.0
  H  H34  1  0.55749000  0.52592000  0.22767000  1.0
  H  H35  1  0.05748000  0.97408000  0.27233000  1.0
  C  C36  1  0.77437000  0.93305000  0.55825000  1.0
  C  C37  1  0.27436000  0.56695000  0.94174000  1.0
  C  C38  1  0.22563000  0.06695000  0.44174000  1.0
  C  C39  1  0.72563000  0.43305000  0.05826000  1.0
  C  C40  1  0.66304000  0.82769000  0.83163000  1.0
  C  C41  1  0.16305000  0.67232000  0.66837000  1.0
  C  C42  1  0.33696000  0.17232000  0.16836000  1.0
  C  C43  1  0.83696000  0.32768000  0.33164000  1.0
  C  C44  1  0.78453000  0.57354000  0.55184000  1.0
  C  C45  1  0.28452000  0.92646000  0.94816000  1.0
  C  C46  1  0.21548000  0.42646000  0.44816000  1.0
  C  C47  1  0.71548000  0.07353000  0.05184000  1.0
  C  C48  1  0.40018000  0.74314000  0.46339000  1.0
  C  C49  1  0.90018000  0.75686000  0.03661000  1.0
  C  C50  1  0.59982000  0.25686000  0.53661000  1.0
  C  C51  1  0.09981000  0.24314000  0.96339000  1.0
  C  C52  1  0.35527000  0.95122000  0.68011000  1.0
  C  C53  1  0.85526000  0.54877000  0.81989000  1.0
  C  C54  1  0.64473000  0.04877000  0.31989000  1.0
  C  C55  1  0.14473000  0.45123000  0.18011000  1.0
  C  C56  1  0.47286000  0.51869000  0.70951000  1.0
  C  C57  1  0.97285000  0.98130000  0.79049000  1.0
  C  C58  1  0.52715000  0.48131000  0.29049000  1.0
  C  C59  1  0.02715000  0.01869000  0.20951000  1.0
  O  O60  1  0.87433000  0.88936000  0.59629000  1.0
  O  O61  1  0.37433000  0.61064000  0.90371000  1.0
  O  O62  1  0.12567000  0.11064000  0.40371000  1.0
  O  O63  1  0.62567000  0.38936000  0.09629000  1.0
  O  O64  1  0.65200000  0.89922000  0.56520000  1.0
  O  O65  1  0.15200000  0.60078000  0.93479000  1.0
  O  O66  1  0.34800000  0.10078000  0.43480000  1.0
  O  O67  1  0.84800000  0.39922000  0.06521000  1.0
  O  O68  1  0.69125000  0.80423000  0.74789000  1.0
  O  O69  1  0.19125000  0.69577000  0.75212000  1.0
  O  O70  1  0.30875000  0.19577000  0.25211000  1.0
  O  O71  1  0.80875000  0.30423000  0.24789000  1.0
  O  O72  1  0.55007000  0.81835000  0.86857000  1.0
  O  O73  1  0.05008000  0.68166000  0.63142000  1.0
  O  O74  1  0.44992000  0.18166000  0.13142000  1.0
  O  O75  1  0.94993000  0.31834000  0.36858000  1.0
  O  O76  1  0.74870000  0.65191000  0.61139000  1.0
  O  O77  1  0.24869000  0.84809000  0.88861000  1.0
  O  O78  1  0.25131000  0.34809000  0.38861000  1.0
  O  O79  1  0.75130000  0.15191000  0.11139000  1.0
  O  O80  1  0.70851000  0.51415000  0.50108000  1.0
  O  O81  1  0.20850000  0.98585000  0.99892000  1.0
  O  O82  1  0.29150000  0.48585000  0.49892000  1.0
  O  O83  1  0.79149000  0.01414000  0.00108000  1.0
  O  O84  1  0.47263000  0.68709000  0.52072000  1.0
  O  O85  1  0.97263000  0.81290000  0.97929000  1.0
  O  O86  1  0.52737000  0.31290000  0.47928000  1.0
  O  O87  1  0.02736000  0.18709000  0.02072000  1.0
  O  O88  1  0.39137000  0.85146000  0.45713000  1.0
  O  O89  1  0.89137000  0.64854000  0.04287000  1.0
  O  O90  1  0.60863000  0.14854000  0.54287000  1.0
  O  O91  1  0.10863000  0.35146000  0.95713000  1.0
  O  O92  1  0.41077000  0.85192000  0.69372000  1.0
  O  O93  1  0.91077000  0.64808000  0.80628000  1.0
  O  O94  1  0.58922000  0.14808000  0.30628000  1.0
  O  O95  1  0.08923000  0.35192000  0.19372000  1.0
  O  O96  1  0.38039000  0.01975000  0.61726000  1.0
  O  O97  1  0.88038000  0.48026000  0.88274000  1.0
  O  O98  1  0.61961000  0.98025000  0.38274000  1.0
  O  O99  1  0.11961000  0.51975000  0.11726000  1.0
  O  O100  1  0.48241000  0.63056000  0.71637000  1.0
  O  O101  1  0.98241000  0.86944000  0.78363000  1.0
  O  O102  1  0.51759000  0.36945000  0.28363000  1.0
  O  O103  1  0.01759000  0.13056000  0.21637000  1.0
  O  O104  1  0.49492000  0.45764000  0.63924000  1.0
  O  O105  1  0.99489000  0.04235000  0.86076000  1.0
  O  O106  1  0.50511000  0.54236000  0.36076000  1.0
  O  O107  1  0.00509000  0.95764000  0.13924000  1.0
