# generated using pymatgen
data_MnH2(CO2)2
_symmetry_space_group_name_H-M   'P 1'
_cell_length_a   5.74688000
_cell_length_b   7.56091000
_cell_length_c   9.50152000
_cell_angle_alpha   90.00000000
_cell_angle_beta   89.99990000
_cell_angle_gamma   89.99870000
_symmetry_Int_Tables_number   1
_chemical_formula_structural   MnH2(CO2)2
_chemical_formula_sum   'Mn4 H8 C8 O16'
_cell_volume   412.85664977
_cell_formula_units_Z   4
loop_
 _symmetry_equiv_pos_site_id
 _symmetry_equiv_pos_as_xyz
  1  'x, y, z'
loop_
 _atom_site_type_symbol
 _atom_site_label
 _atom_site_symmetry_multiplicity
 _atom_site_fract_x
 _atom_site_fract_y
 _atom_site_fract_z
 _atom_site_occupancy
  Mn  Mn0  1  0.75000000  0.50000000  0.60889000  1.0
  Mn  Mn1  1  0.25000000  0.00000000  0.89111000  1.0
  Mn  Mn2  1  0.25000000  0.50000000  0.39111000  1.0
  Mn  Mn3  1  0.75000000  0.00000000  0.10889000  1.0
  H  H4  1  0.68019000  0.83615000  0.41026000  1.0
  H  H5  1  0.18019000  0.66386000  0.08974000  1.0
  H  H6  1  0.81981000  0.16385000  0.41026000  1.0
  H  H7  1  0.31981000  0.33614000  0.08974000  1.0
  H  H8  1  0.31981000  0.16385000  0.58974000  1.0
  H  H9  1  0.81981000  0.33614000  0.91026000  1.0
  H  H10  1  0.18019000  0.83615000  0.58974000  1.0
  H  H11  1  0.68019000  0.66386000  0.91026000  1.0
  C  C12  1  0.65342000  0.21652000  0.37060000  1.0
  C  C13  1  0.15341000  0.28348000  0.12941000  1.0
  C  C14  1  0.84658000  0.78348000  0.37060000  1.0
  C  C15  1  0.34659000  0.71652000  0.12941000  1.0
  C  C16  1  0.34658000  0.78348000  0.62940000  1.0
  C  C17  1  0.84659000  0.71652000  0.87059000  1.0
  C  C18  1  0.15343000  0.21652000  0.62940000  1.0
  C  C19  1  0.65341000  0.28348000  0.87059000  1.0
  O  O20  1  0.56586000  0.34581000  0.44003000  1.0
  O  O21  1  0.06585000  0.15418000  0.05996000  1.0
  O  O22  1  0.93414000  0.65419000  0.44003000  1.0
  O  O23  1  0.43415000  0.84582000  0.05996000  1.0
  O  O24  1  0.43414000  0.65419000  0.55997000  1.0
  O  O25  1  0.93415000  0.84582000  0.94004000  1.0
  O  O26  1  0.06586000  0.34581000  0.55997000  1.0
  O  O27  1  0.56585000  0.15419000  0.94004000  1.0
  O  O28  1  0.56073000  0.14755000  0.26385000  1.0
  O  O29  1  0.06072000  0.35244000  0.23615000  1.0
  O  O30  1  0.93928000  0.85245000  0.26384000  1.0
  O  O31  1  0.43929000  0.64756000  0.23616000  1.0
  O  O32  1  0.43927000  0.85245000  0.73616000  1.0
  O  O33  1  0.93928000  0.64756000  0.76384000  1.0
  O  O34  1  0.06072000  0.14755000  0.73616000  1.0
  O  O35  1  0.56071000  0.35244000  0.76385000  1.0
