# generated using pymatgen
data_CdH30C26(N2O)4
_symmetry_space_group_name_H-M   'P 1'
_cell_length_a   20.56620000
_cell_length_b   20.56620000
_cell_length_c   20.67540000
_cell_angle_alpha   60.17440000
_cell_angle_beta   60.17440000
_cell_angle_gamma   60.00000000
_symmetry_Int_Tables_number   1
_chemical_formula_structural   CdH30C26(N2O)4
_chemical_formula_sum   'Cd6 H180 C156 N48 O24'
_cell_volume   6199.93078189
_cell_formula_units_Z   6
loop_
 _symmetry_equiv_pos_site_id
 _symmetry_equiv_pos_as_xyz
  1  'x, y, z'
loop_
 _atom_site_type_symbol
 _atom_site_label
 _atom_site_symmetry_multiplicity
 _atom_site_fract_x
 _atom_site_fract_y
 _atom_site_fract_z
 _atom_site_occupancy
  Cd  Cd0  1  0.75000000  0.26794000  0.75000000  1.0
  Cd  Cd1  1  0.26794000  0.23206000  0.75000000  1.0
  Cd  Cd2  1  0.23206000  0.75000000  0.75000000  1.0
  Cd  Cd3  1  0.25000000  0.73206000  0.25000000  1.0
  Cd  Cd4  1  0.73206000  0.76794000  0.25000000  1.0
  Cd  Cd5  1  0.76794000  0.25000000  0.25000000  1.0
  H  H6  1  0.63090000  0.39081000  0.83458000  1.0
  H  H7  1  0.39081000  0.14371000  0.83459000  1.0
  H  H8  1  0.14371000  0.63090000  0.83459000  1.0
  H  H9  1  0.35629000  0.10919000  0.66541000  1.0
  H  H10  1  0.86910000  0.35629000  0.66541000  1.0
  H  H11  1  0.10919000  0.86910000  0.66541000  1.0
  H  H12  1  0.36910000  0.60919000  0.16542000  1.0
  H  H13  1  0.60919000  0.85629000  0.16542000  1.0
  H  H14  1  0.85629000  0.36910000  0.16542000  1.0
  H  H15  1  0.64371000  0.89081000  0.33459000  1.0
  H  H16  1  0.13090000  0.64371000  0.33459000  1.0
  H  H17  1  0.89081000  0.13090000  0.33459000  1.0
  H  H18  1  0.72595000  0.14261000  0.22566000  1.0
  H  H19  1  0.14261000  0.90579000  0.22565000  1.0
  H  H20  1  0.90579000  0.72595000  0.22565000  1.0
  H  H21  1  0.59421000  0.35739000  0.27435000  1.0
  H  H22  1  0.77405000  0.59421000  0.27435000  1.0
  H  H23  1  0.35739000  0.77405000  0.27435000  1.0
  H  H24  1  0.27405000  0.85739000  0.77435000  1.0
  H  H25  1  0.85739000  0.09421000  0.77435000  1.0
  H  H26  1  0.09421000  0.27405000  0.77434000  1.0
  H  H27  1  0.40579000  0.64261000  0.72565000  1.0
  H  H28  1  0.22595000  0.40579000  0.72565000  1.0
  H  H29  1  0.64261000  0.22595000  0.72565000  1.0
  H  H30  1  0.72726000  0.40702000  0.98686000  1.0
  H  H31  1  0.40703000  0.87885000  0.98686000  1.0
  H  H32  1  0.87885000  0.72726000  0.98686000  1.0
  H  H33  1  0.62115000  0.09297000  0.51314000  1.0
  H  H34  1  0.77274000  0.62115000  0.51314000  1.0
  H  H35  1  0.09297000  0.77274000  0.51314000  1.0
  H  H36  1  0.27274000  0.59297000  0.01314000  1.0
  H  H37  1  0.59298000  0.12115000  0.01314000  1.0
  H  H38  1  0.12115000  0.27273000  0.01314000  1.0
  H  H39  1  0.37885000  0.90703000  0.48686000  1.0
  H  H40  1  0.22726000  0.37885000  0.48686000  1.0
  H  H41  1  0.90703000  0.22726000  0.48686000  1.0
  H  H42  1  0.78777000  0.37543000  0.04259000  1.0
  H  H43  1  0.37543000  0.79421000  0.04259000  1.0
  H  H44  1  0.79421000  0.78777000  0.04259000  1.0
  H  H45  1  0.70579000  0.12457000  0.45741000  1.0
  H  H46  1  0.71223000  0.70579000  0.45741000  1.0
  H  H47  1  0.12457000  0.71223000  0.45741000  1.0
  H  H48  1  0.21223000  0.62457000  0.95741000  1.0
  H  H49  1  0.62457000  0.20579000  0.95741000  1.0
  H  H50  1  0.20579000  0.21223000  0.95741000  1.0
  H  H51  1  0.29422000  0.87543000  0.54259000  1.0
  H  H52  1  0.28777000  0.29422000  0.54259000  1.0
  H  H53  1  0.87543000  0.28777000  0.54259000  1.0
  H  H54  1  0.68415000  0.42180000  0.08007000  1.0
  H  H55  1  0.42180000  0.81398000  0.08007000  1.0
  H  H56  1  0.81398000  0.68415000  0.08007000  1.0
  H  H57  1  0.68602000  0.07820000  0.41993000  1.0
  H  H58  1  0.81585000  0.68602000  0.41993000  1.0
  H  H59  1  0.07819000  0.81585000  0.41993000  1.0
  H  H60  1  0.31585000  0.57819000  0.91993000  1.0
  H  H61  1  0.57820000  0.18602000  0.91993000  1.0
  H  H62  1  0.18602000  0.31585000  0.91993000  1.0
  H  H63  1  0.31398000  0.92181000  0.58007000  1.0
  H  H64  1  0.18415000  0.31398000  0.58007000  1.0
  H  H65  1  0.92180000  0.18415000  0.58007000  1.0
  H  H66  1  0.62414000  0.12607000  0.15746000  1.0
  H  H67  1  0.12607000  0.09234000  0.15746000  1.0
  H  H68  1  0.09233000  0.62414000  0.15746000  1.0
  H  H69  1  0.40767000  0.37393000  0.34254000  1.0
  H  H70  1  0.87587000  0.40766000  0.34254000  1.0
  H  H71  1  0.37393000  0.87586000  0.34254000  1.0
  H  H72  1  0.37586000  0.87393000  0.84254000  1.0
  H  H73  1  0.87393000  0.90766000  0.84254000  1.0
  H  H74  1  0.90766000  0.37586000  0.84254000  1.0
  H  H75  1  0.59233000  0.62607000  0.65746000  1.0
  H  H76  1  0.12414000  0.59234000  0.65746000  1.0
  H  H77  1  0.62607000  0.12413000  0.65746000  1.0
  H  H78  1  0.72267000  0.06316000  0.15397000  1.0
  H  H79  1  0.06316000  0.06020000  0.15397000  1.0
  H  H80  1  0.06020000  0.72267000  0.15397000  1.0
  H  H81  1  0.43980000  0.43684000  0.34603000  1.0
  H  H82  1  0.77734000  0.43980000  0.34603000  1.0
  H  H83  1  0.43684000  0.77733000  0.34603000  1.0
  H  H84  1  0.27733000  0.93684000  0.84603000  1.0
  H  H85  1  0.93684000  0.93980000  0.84603000  1.0
  H  H86  1  0.93980000  0.27733000  0.84603000  1.0
  H  H87  1  0.56020000  0.56316000  0.65397000  1.0
  H  H88  1  0.22267000  0.56020000  0.65397000  1.0
  H  H89  1  0.56316000  0.22267000  0.65397000  1.0
  H  H90  1  0.69931000  0.12323000  0.06480000  1.0
  H  H91  1  0.12323000  0.11266000  0.06480000  1.0
  H  H92  1  0.11266000  0.69931000  0.06480000  1.0
  H  H93  1  0.38734000  0.37677000  0.43520000  1.0
  H  H94  1  0.80069000  0.38734000  0.43520000  1.0
  H  H95  1  0.37677000  0.80069000  0.43520000  1.0
  H  H96  1  0.30069000  0.87677000  0.93520000  1.0
  H  H97  1  0.87677000  0.88734000  0.93520000  1.0
  H  H98  1  0.88734000  0.30069000  0.93520000  1.0
  H  H99  1  0.61266000  0.62323000  0.56480000  1.0
  H  H100  1  0.19931000  0.61266000  0.56480000  1.0
  H  H101  1  0.62323000  0.19931000  0.56480000  1.0
  H  H102  1  0.53156000  0.44724000  0.94845000  1.0
  H  H103  1  0.44724000  0.07275000  0.94845000  1.0
  H  H104  1  0.07275000  0.53156000  0.94845000  1.0
  H  H105  1  0.42725000  0.05276000  0.55155000  1.0
  H  H106  1  0.96844000  0.42725000  0.55155000  1.0
  H  H107  1  0.05276000  0.96844000  0.55155000  1.0
  H  H108  1  0.46844000  0.55276000  0.05155000  1.0
  H  H109  1  0.55276000  0.92725000  0.05155000  1.0
  H  H110  1  0.92725000  0.46844000  0.05155000  1.0
  H  H111  1  0.57275000  0.94724000  0.44845000  1.0
  H  H112  1  0.03156000  0.57275000  0.44845000  1.0
  H  H113  1  0.94724000  0.03156000  0.44845000  1.0
  H  H114  1  0.59030000  0.46078000  0.97809000  1.0
  H  H115  1  0.46078000  0.97084000  0.97809000  1.0
  H  H116  1  0.97084000  0.59029000  0.97809000  1.0
  H  H117  1  0.52916000  0.03922000  0.52191000  1.0
  H  H118  1  0.90971000  0.52916000  0.52191000  1.0
  H  H119  1  0.03922000  0.90971000  0.52191000  1.0
  H  H120  1  0.40971000  0.53922000  0.02191000  1.0
  H  H121  1  0.53922000  0.02916000  0.02191000  1.0
  H  H122  1  0.02916000  0.40971000  0.02191000  1.0
  H  H123  1  0.47084000  0.96078000  0.47809000  1.0
  H  H124  1  0.09029000  0.47084000  0.47809000  1.0
  H  H125  1  0.96078000  0.09029000  0.47809000  1.0
  H  H126  1  0.54353000  0.38796000  0.04329000  1.0
  H  H127  1  0.38796000  0.02522000  0.04329000  1.0
  H  H128  1  0.02522000  0.54353000  0.04329000  1.0
  H  H129  1  0.47478000  0.11204000  0.45671000  1.0
  H  H130  1  0.95647000  0.47478000  0.45671000  1.0
  H  H131  1  0.11204000  0.95647000  0.45671000  1.0
  H  H132  1  0.45647000  0.61204000  0.95671000  1.0
  H  H133  1  0.61204000  0.97478000  0.95671000  1.0
  H  H134  1  0.97478000  0.45647000  0.95671000  1.0
  H  H135  1  0.52522000  0.88796000  0.54329000  1.0
  H  H136  1  0.04353000  0.52522000  0.54329000  1.0
  H  H137  1  0.88796000  0.04353000  0.54329000  1.0
  H  H138  1  0.82359000  0.13543000  0.90952000  1.0
  H  H139  1  0.13543000  0.13146000  0.90952000  1.0
  H  H140  1  0.13146000  0.82359000  0.90952000  1.0
  H  H141  1  0.36854000  0.36457000  0.59048000  1.0
  H  H142  1  0.67641000  0.36854000  0.59048000  1.0
  H  H143  1  0.36457000  0.67641000  0.59048000  1.0
  H  H144  1  0.17641000  0.86457000  0.09048000  1.0
  H  H145  1  0.86457000  0.86854000  0.09048000  1.0
  H  H146  1  0.86854000  0.17641000  0.09048000  1.0
  H  H147  1  0.63146000  0.63543000  0.40952000  1.0
  H  H148  1  0.32359000  0.63146000  0.40952000  1.0
  H  H149  1  0.63543000  0.32359000  0.40952000  1.0
  H  H150  1  0.83435000  0.15308000  0.97912000  1.0
  H  H151  1  0.15308000  0.03345000  0.97912000  1.0
  H  H152  1  0.03345000  0.83435000  0.97912000  1.0
  H  H153  1  0.46655000  0.34692000  0.52088000  1.0
  H  H154  1  0.66565000  0.46655000  0.52088000  1.0
  H  H155  1  0.34692000  0.66565000  0.52088000  1.0
  H  H156  1  0.16565000  0.84692000  0.02088000  1.0
  H  H157  1  0.84692000  0.96655000  0.02088000  1.0
  H  H158  1  0.96655000  0.16565000  0.02088000  1.0
  H  H159  1  0.53345000  0.65308000  0.47912000  1.0
  H  H160  1  0.33435000  0.53345000  0.47912000  1.0
  H  H161  1  0.65308000  0.33435000  0.47912000  1.0
  H  H162  1  0.88094000  0.19439000  0.87608000  1.0
  H  H163  1  0.19439000  0.04859000  0.87608000  1.0
  H  H164  1  0.04859000  0.88094000  0.87608000  1.0
  H  H165  1  0.45141000  0.30561000  0.62392000  1.0
  H  H166  1  0.61906000  0.45141000  0.62392000  1.0
  H  H167  1  0.30561000  0.61906000  0.62392000  1.0
  H  H168  1  0.11906000  0.80561000  0.12392000  1.0
  H  H169  1  0.80561000  0.95141000  0.12392000  1.0
  H  H170  1  0.95141000  0.11906000  0.12392000  1.0
  H  H171  1  0.54859000  0.69439000  0.37608000  1.0
  H  H172  1  0.38094000  0.54859000  0.37608000  1.0
  H  H173  1  0.69439000  0.38094000  0.37608000  1.0
  H  H174  1  0.43978000  0.50676000  0.78090000  1.0
  H  H175  1  0.50676000  0.27256000  0.78090000  1.0
  H  H176  1  0.27256000  0.43978000  0.78090000  1.0
  H  H177  1  0.22744000  0.99324000  0.71910000  1.0
  H  H178  1  0.06022000  0.22744000  0.71910000  1.0
  H  H179  1  0.99324000  0.06022000  0.71910000  1.0
  H  H180  1  0.56022000  0.49324000  0.21910000  1.0
  H  H181  1  0.49324000  0.72744000  0.21910000  1.0
  H  H182  1  0.72744000  0.56022000  0.21910000  1.0
  H  H183  1  0.77256000  0.00676000  0.28090000  1.0
  H  H184  1  0.93978000  0.77256000  0.28090000  1.0
  H  H185  1  0.00676000  0.93978000  0.28090000  1.0
  C  C186  1  0.72993000  0.38085000  0.04680000  1.0
  C  C187  1  0.38085000  0.84242000  0.04680000  1.0
  C  C188  1  0.84242000  0.72993000  0.04680000  1.0
  C  C189  1  0.65758000  0.11915000  0.45320000  1.0
  C  C190  1  0.77007000  0.65758000  0.45320000  1.0
  C  C191  1  0.11915000  0.77007000  0.45320000  1.0
  C  C192  1  0.27008000  0.61915000  0.95320000  1.0
  C  C193  1  0.61915000  0.15758000  0.95320000  1.0
  C  C194  1  0.15758000  0.27007000  0.95320000  1.0
  C  C195  1  0.34242000  0.88085000  0.54680000  1.0
  C  C196  1  0.22992000  0.34242000  0.54680000  1.0
  C  C197  1  0.88085000  0.22993000  0.54680000  1.0
  C  C198  1  0.71934000  0.30150000  0.08664000  1.0
  C  C199  1  0.30150000  0.89251000  0.08664000  1.0
  C  C200  1  0.89251000  0.71934000  0.08664000  1.0
  C  C201  1  0.60749000  0.19850000  0.41336000  1.0
  C  C202  1  0.78066000  0.60749000  0.41336000  1.0
  C  C203  1  0.19850000  0.78066000  0.41336000  1.0
  C  C204  1  0.28066000  0.69850000  0.91336000  1.0
  C  C205  1  0.69850000  0.10749000  0.91336000  1.0
  C  C206  1  0.10749000  0.28066000  0.91336000  1.0
  C  C207  1  0.39251000  0.80150000  0.58664000  1.0
  C  C208  1  0.21934000  0.39251000  0.58664000  1.0
  C  C209  1  0.80150000  0.21934000  0.58664000  1.0
  C  C210  1  0.70660000  0.26111000  0.05690000  1.0
  C  C211  1  0.26111000  0.97538000  0.05690000  1.0
  C  C212  1  0.97538000  0.70660000  0.05690000  1.0
  C  C213  1  0.52462000  0.23889000  0.44310000  1.0
  C  C214  1  0.79340000  0.52462000  0.44310000  1.0
  C  C215  1  0.23889000  0.79340000  0.44310000  1.0
  C  C216  1  0.29340000  0.73889000  0.94310000  1.0
  C  C217  1  0.73889000  0.02462000  0.94310000  1.0
  C  C218  1  0.02462000  0.29340000  0.94310000  1.0
  C  C219  1  0.47538000  0.76111000  0.55690000  1.0
  C  C220  1  0.20660000  0.47538000  0.55690000  1.0
  C  C221  1  0.76111000  0.20660000  0.55690000  1.0
  C  C222  1  0.70288000  0.18812000  0.11717000  1.0
  C  C223  1  0.18812000  0.99184000  0.11717000  1.0
  C  C224  1  0.99184000  0.70288000  0.11717000  1.0
  C  C225  1  0.50816000  0.31188000  0.38283000  1.0
  C  C226  1  0.79712000  0.50816000  0.38283000  1.0
  C  C227  1  0.31188000  0.79712000  0.38283000  1.0
  C  C228  1  0.29712000  0.81188000  0.88283000  1.0
  C  C229  1  0.81188000  0.00816000  0.88283000  1.0
  C  C230  1  0.00816000  0.29712000  0.88283000  1.0
  C  C231  1  0.49184000  0.68812000  0.61717000  1.0
  C  C232  1  0.20288000  0.49184000  0.61717000  1.0
  C  C233  1  0.68812000  0.20288000  0.61717000  1.0
  C  C234  1  0.68691000  0.12166000  0.12352000  1.0
  C  C235  1  0.12166000  0.06790000  0.12352000  1.0
  C  C236  1  0.06790000  0.68691000  0.12352000  1.0
  C  C237  1  0.43210000  0.37834000  0.37648000  1.0
  C  C238  1  0.81309000  0.43210000  0.37648000  1.0
  C  C239  1  0.37834000  0.81309000  0.37648000  1.0
  C  C240  1  0.31309000  0.87834000  0.87648000  1.0
  C  C241  1  0.87834000  0.93210000  0.87648000  1.0
  C  C242  1  0.93210000  0.31309000  0.87648000  1.0
  C  C243  1  0.56790000  0.62166000  0.62352000  1.0
  C  C244  1  0.18691000  0.56790000  0.62352000  1.0
  C  C245  1  0.62166000  0.18691000  0.62352000  1.0
  C  C246  1  0.70193000  0.28815000  0.97888000  1.0
  C  C247  1  0.28815000  0.03104000  0.97888000  1.0
  C  C248  1  0.03103000  0.70193000  0.97888000  1.0
  C  C249  1  0.46896000  0.21185000  0.52112000  1.0
  C  C250  1  0.79807000  0.46896000  0.52112000  1.0
  C  C251  1  0.21185000  0.79807000  0.52112000  1.0
  C  C252  1  0.29807000  0.71185000  0.02112000  1.0
  C  C253  1  0.71185000  0.96896000  0.02112000  1.0
  C  C254  1  0.96896000  0.29807000  0.02112000  1.0
  C  C255  1  0.53104000  0.78815000  0.47888000  1.0
  C  C256  1  0.20193000  0.53104000  0.47888000  1.0
  C  C257  1  0.78815000  0.20193000  0.47888000  1.0
  C  C258  1  0.64480000  0.35518000  0.94672000  1.0
  C  C259  1  0.35518000  0.05330000  0.94673000  1.0
  C  C260  1  0.05330000  0.64480000  0.94673000  1.0
  C  C261  1  0.44670000  0.14482000  0.55327000  1.0
  C  C262  1  0.85520000  0.44670000  0.55327000  1.0
  C  C263  1  0.14482000  0.85520000  0.55327000  1.0
  C  C264  1  0.35520000  0.64482000  0.05327000  1.0
  C  C265  1  0.64482000  0.94670000  0.05327000  1.0
  C  C266  1  0.94670000  0.35520000  0.05327000  1.0
  C  C267  1  0.55330000  0.85518000  0.44673000  1.0
  C  C268  1  0.14480000  0.55330000  0.44673000  1.0
  C  C269  1  0.85518000  0.14480000  0.44673000  1.0
  C  C270  1  0.57380000  0.41593000  0.98077000  1.0
  C  C271  1  0.41593000  0.02949000  0.98077000  1.0
  C  C272  1  0.02949000  0.57380000  0.98077000  1.0
  C  C273  1  0.47051000  0.08407000  0.51923000  1.0
  C  C274  1  0.92620000  0.47051000  0.51923000  1.0
  C  C275  1  0.08407000  0.92620000  0.51923000  1.0
  C  C276  1  0.42620000  0.58407000  0.01923000  1.0
  C  C277  1  0.58407000  0.97051000  0.01923000  1.0
  C  C278  1  0.97051000  0.42620000  0.01923000  1.0
  C  C279  1  0.52949000  0.91593000  0.48077000  1.0
  C  C280  1  0.07380000  0.52949000  0.48077000  1.0
  C  C281  1  0.91593000  0.07380000  0.48077000  1.0
  C  C282  1  0.82716000  0.18001000  0.92107000  1.0
  C  C283  1  0.18001000  0.07176000  0.92107000  1.0
  C  C284  1  0.07176000  0.82716000  0.92107000  1.0
  C  C285  1  0.42824000  0.31999000  0.57893000  1.0
  C  C286  1  0.67284000  0.42824000  0.57893000  1.0
  C  C287  1  0.31999000  0.67284000  0.57893000  1.0
  C  C288  1  0.17284000  0.81999000  0.07893000  1.0
  C  C289  1  0.81999000  0.92824000  0.07893000  1.0
  C  C290  1  0.92824000  0.17284000  0.07893000  1.0
  C  C291  1  0.57176000  0.68001000  0.42107000  1.0
  C  C292  1  0.32716000  0.57176000  0.42107000  1.0
  C  C293  1  0.68001000  0.32716000  0.42107000  1.0
  C  C294  1  0.75477000  0.25264000  0.91900000  1.0
  C  C295  1  0.25264000  0.07359000  0.91900000  1.0
  C  C296  1  0.07359000  0.75477000  0.91900000  1.0
  C  C297  1  0.42641000  0.24736000  0.58100000  1.0
  C  C298  1  0.74523000  0.42641000  0.58100000  1.0
  C  C299  1  0.24736000  0.74523000  0.58100000  1.0
  C  C300  1  0.24523000  0.74736000  0.08100000  1.0
  C  C301  1  0.74736000  0.92641000  0.08100000  1.0
  C  C302  1  0.92641000  0.24523000  0.08100000  1.0
  C  C303  1  0.57359000  0.75264000  0.41900000  1.0
  C  C304  1  0.25477000  0.57359000  0.41900000  1.0
  C  C305  1  0.75264000  0.25477000  0.41900000  1.0
  C  C306  1  0.56266000  0.36965000  0.78070000  1.0
  C  C307  1  0.36965000  0.28699000  0.78070000  1.0
  C  C308  1  0.28699000  0.56266000  0.78070000  1.0
  C  C309  1  0.21301000  0.13035000  0.71930000  1.0
  C  C310  1  0.93734000  0.21301000  0.71930000  1.0
  C  C311  1  0.13035000  0.93734000  0.71930000  1.0
  C  C312  1  0.43734000  0.63035000  0.21930000  1.0
  C  C313  1  0.63035000  0.71301000  0.21930000  1.0
  C  C314  1  0.71301000  0.43734000  0.21930000  1.0
  C  C315  1  0.78699000  0.86965000  0.28070000  1.0
  C  C316  1  0.06266000  0.78699000  0.28070000  1.0
  C  C317  1  0.86965000  0.06266000  0.28070000  1.0
  C  C318  1  0.48249000  0.38864000  0.77919000  1.0
  C  C319  1  0.38864000  0.34969000  0.77919000  1.0
  C  C320  1  0.34969000  0.48249000  0.77919000  1.0
  C  C321  1  0.15031000  0.11136000  0.72081000  1.0
  C  C322  1  0.01751000  0.15031000  0.72081000  1.0
  C  C323  1  0.11136000  0.01751000  0.72081000  1.0
  C  C324  1  0.51751000  0.61136000  0.22081000  1.0
  C  C325  1  0.61136000  0.65031000  0.22082000  1.0
  C  C326  1  0.65031000  0.51751000  0.22081000  1.0
  C  C327  1  0.84969000  0.88864000  0.27919000  1.0
  C  C328  1  0.98249000  0.84969000  0.27919000  1.0
  C  C329  1  0.88864000  0.98249000  0.27919000  1.0
  C  C330  1  0.42505000  0.46373000  0.77925000  1.0
  C  C331  1  0.46373000  0.33198000  0.77925000  1.0
  C  C332  1  0.33198000  0.42505000  0.77925000  1.0
  C  C333  1  0.16802000  0.03627000  0.72075000  1.0
  C  C334  1  0.07495000  0.16802000  0.72075000  1.0
  C  C335  1  0.03627000  0.07495000  0.72075000  1.0
  C  C336  1  0.57495000  0.53627000  0.22075000  1.0
  C  C337  1  0.53627000  0.66802000  0.22075000  1.0
  C  C338  1  0.66802000  0.57495000  0.22075000  1.0
  C  C339  1  0.83198000  0.96373000  0.27925000  1.0
  C  C340  1  0.92505000  0.83198000  0.27925000  1.0
  C  C341  1  0.96373000  0.92505000  0.27925000  1.0
  N  N342  1  0.73070000  0.29557000  0.85533000  1.0
  N  N343  1  0.29557000  0.11840000  0.85533000  1.0
  N  N344  1  0.11840000  0.73070000  0.85533000  1.0
  N  N345  1  0.38160000  0.20443000  0.64467000  1.0
  N  N346  1  0.76930000  0.38160000  0.64467000  1.0
  N  N347  1  0.20443000  0.76930000  0.64467000  1.0
  N  N348  1  0.26930000  0.70443000  0.14467000  1.0
  N  N349  1  0.70443000  0.88160000  0.14467000  1.0
  N  N350  1  0.88160000  0.26930000  0.14467000  1.0
  N  N351  1  0.61840000  0.79557000  0.35533000  1.0
  N  N352  1  0.23070000  0.61840000  0.35533000  1.0
  N  N353  1  0.79557000  0.23070000  0.35533000  1.0
  N  N354  1  0.66495000  0.35740000  0.87292000  1.0
  N  N355  1  0.35740000  0.10473000  0.87292000  1.0
  N  N356  1  0.10473000  0.66495000  0.87292000  1.0
  N  N357  1  0.39527000  0.14260000  0.62708000  1.0
  N  N358  1  0.83505000  0.39527000  0.62708000  1.0
  N  N359  1  0.14260000  0.83505000  0.62708000  1.0
  N  N360  1  0.33505000  0.64260000  0.12708000  1.0
  N  N361  1  0.64260000  0.89527000  0.12708000  1.0
  N  N362  1  0.89527000  0.33505000  0.12708000  1.0
  N  N363  1  0.60473000  0.85740000  0.37292000  1.0
  N  N364  1  0.16495000  0.60473000  0.37292000  1.0
  N  N365  1  0.85740000  0.16495000  0.37292000  1.0
  N  N366  1  0.71276000  0.18862000  0.17700000  1.0
  N  N367  1  0.18862000  0.92162000  0.17700000  1.0
  N  N368  1  0.92162000  0.71276000  0.17700000  1.0
  N  N369  1  0.57838000  0.31138000  0.32300000  1.0
  N  N370  1  0.78724000  0.57838000  0.32300000  1.0
  N  N371  1  0.31138000  0.78723000  0.32300000  1.0
  N  N372  1  0.28724000  0.81139000  0.82300000  1.0
  N  N373  1  0.81138000  0.07838000  0.82300000  1.0
  N  N374  1  0.07838000  0.28723000  0.82300000  1.0
  N  N375  1  0.42162000  0.68862000  0.67700000  1.0
  N  N376  1  0.21277000  0.42162000  0.67700000  1.0
  N  N377  1  0.68862000  0.21277000  0.67700000  1.0
  N  N378  1  0.72341000  0.25607000  0.15956000  1.0
  N  N379  1  0.25607000  0.86096000  0.15956000  1.0
  N  N380  1  0.86096000  0.72341000  0.15956000  1.0
  N  N381  1  0.63904000  0.24393000  0.34044000  1.0
  N  N382  1  0.77659000  0.63904000  0.34044000  1.0
  N  N383  1  0.24393000  0.77659000  0.34044000  1.0
  N  N384  1  0.27659000  0.74393000  0.84044000  1.0
  N  N385  1  0.74393000  0.13904000  0.84044000  1.0
  N  N386  1  0.13904000  0.27659000  0.84044000  1.0
  N  N387  1  0.36096000  0.75607000  0.65956000  1.0
  N  N388  1  0.22341000  0.36096000  0.65956000  1.0
  N  N389  1  0.75607000  0.22341000  0.65956000  1.0
  O  O390  1  0.61317000  0.30027000  0.77952000  1.0
  O  O391  1  0.30027000  0.30704000  0.77952000  1.0
  O  O392  1  0.30704000  0.61317000  0.77952000  1.0
  O  O393  1  0.19296000  0.19973000  0.72048000  1.0
  O  O394  1  0.88683000  0.19296000  0.72048000  1.0
  O  O395  1  0.19973000  0.88683000  0.72048000  1.0
  O  O396  1  0.38683000  0.69973000  0.22048000  1.0
  O  O397  1  0.69973000  0.69296000  0.22048000  1.0
  O  O398  1  0.69296000  0.38683000  0.22048000  1.0
  O  O399  1  0.80704000  0.80027000  0.27952000  1.0
  O  O400  1  0.11317000  0.80704000  0.27952000  1.0
  O  O401  1  0.80027000  0.11317000  0.27952000  1.0
  O  O402  1  0.57488000  0.42289000  0.78319000  1.0
  O  O403  1  0.42289000  0.21904000  0.78319000  1.0
  O  O404  1  0.21904000  0.57488000  0.78319000  1.0
  O  O405  1  0.28096000  0.07711000  0.71681000  1.0
  O  O406  1  0.92512000  0.28096000  0.71681000  1.0
  O  O407  1  0.07711000  0.92512000  0.71681000  1.0
  O  O408  1  0.42512000  0.57711000  0.21681000  1.0
  O  O409  1  0.57711000  0.78096000  0.21681000  1.0
  O  O410  1  0.78096000  0.42512000  0.21681000  1.0
  O  O411  1  0.71904000  0.92289000  0.28319000  1.0
  O  O412  1  0.07488000  0.71904000  0.28319000  1.0
  O  O413  1  0.92289000  0.07488000  0.28319000  1.0
