# generated using pymatgen
data_CuH6C3SIN2
_symmetry_space_group_name_H-M   'P 1'
_cell_length_a   9.49309000
_cell_length_b   10.52130000
_cell_length_c   12.55090000
_cell_angle_alpha   107.30800000
_cell_angle_beta   99.50780000
_cell_angle_gamma   114.09800000
_symmetry_Int_Tables_number   1
_chemical_formula_structural   CuH6C3SIN2
_chemical_formula_sum   'Cu6 H36 C18 S6 I6 N12'
_cell_volume   1031.72414886
_cell_formula_units_Z   6
loop_
 _symmetry_equiv_pos_site_id
 _symmetry_equiv_pos_as_xyz
  1  'x, y, z'
loop_
 _atom_site_type_symbol
 _atom_site_label
 _atom_site_symmetry_multiplicity
 _atom_site_fract_x
 _atom_site_fract_y
 _atom_site_fract_z
 _atom_site_occupancy
  Cu  Cu0  1  0.35107000  0.86221000  0.38631000  1.0
  Cu  Cu1  1  0.64894000  0.13779000  0.61369000  1.0
  Cu  Cu2  1  0.24030000  0.99489000  0.69229000  1.0
  Cu  Cu3  1  0.75970000  0.00511000  0.30770000  1.0
  Cu  Cu4  1  0.05159000  0.05817000  0.40972000  1.0
  Cu  Cu5  1  0.94841000  0.94183000  0.59028000  1.0
  H  H6  1  0.44474000  0.67079000  0.47168000  1.0
  H  H7  1  0.55525000  0.32920000  0.52832000  1.0
  H  H8  1  0.47748000  0.89962000  0.80732000  1.0
  H  H9  1  0.52253000  0.10038000  0.19268000  1.0
  H  H10  1  0.30318000  0.29987000  0.85599000  1.0
  H  H11  1  0.69682000  0.70014000  0.14401000  1.0
  H  H12  1  0.09647000  0.35687000  0.57495000  1.0
  H  H13  1  0.90353000  0.64313000  0.42504000  1.0
  H  H14  1  0.93748000  0.93508000  0.13876000  1.0
  H  H15  1  0.06253000  0.06492000  0.86124000  1.0
  H  H16  1  0.23818000  0.75004000  0.13168000  1.0
  H  H17  1  0.76182000  0.24996000  0.86831000  1.0
  H  H18  1  0.62662000  0.61369000  0.61296000  1.0
  H  H19  1  0.37337000  0.38630000  0.38704000  1.0
  H  H20  1  0.41507000  0.50840000  0.59893000  1.0
  H  H21  1  0.58492000  0.49159000  0.40108000  1.0
  H  H22  1  0.50941000  0.66176000  0.80737000  1.0
  H  H23  1  0.49058000  0.33824000  0.19263000  1.0
  H  H24  1  0.68889000  0.80263000  0.80012000  1.0
  H  H25  1  0.31110000  0.19736000  0.19988000  1.0
  H  H26  1  0.34689000  0.57769000  0.92687000  1.0
  H  H27  1  0.65312000  0.42232000  0.07312000  1.0
  H  H28  1  0.14988000  0.45406000  0.92451000  1.0
  H  H29  1  0.85012000  0.54594000  0.07549000  1.0
  H  H30  1  0.01868000  0.46720000  0.75153000  1.0
  H  H31  1  0.98131000  0.53280000  0.24847000  1.0
  H  H32  1  0.21266000  0.61222000  0.76585000  1.0
  H  H33  1  0.78733000  0.38778000  0.23414000  1.0
  H  H34  1  0.96697000  0.87149000  0.92465000  1.0
  H  H35  1  0.03303000  0.12852000  0.07536000  1.0
  H  H36  1  0.83845000  0.70960000  0.94711000  1.0
  H  H37  1  0.16155000  0.29040000  0.05290000  1.0
  H  H38  1  0.03231000  0.62918000  0.91766000  1.0
  H  H39  1  0.96770000  0.37083000  0.08234000  1.0
  H  H40  1  0.18800000  0.81667000  0.94531000  1.0
  H  H41  1  0.81200000  0.18333000  0.05469000  1.0
  C  C42  1  0.44532000  0.80708000  0.62902000  1.0
  C  C43  1  0.55468000  0.19292000  0.37098000  1.0
  C  C44  1  0.51926000  0.62271000  0.62635000  1.0
  C  C45  1  0.48073000  0.37728000  0.37366000  1.0
  C  C46  1  0.55667000  0.72600000  0.75522000  1.0
  C  C47  1  0.44332000  0.27401000  0.24478000  1.0
  C  C48  1  0.20330000  0.29799000  0.69585000  1.0
  C  C49  1  0.79670000  0.70201000  0.30415000  1.0
  C  C50  1  0.22806000  0.47724000  0.86954000  1.0
  C  C51  1  0.77194000  0.52277000  0.13045000  1.0
  C  C52  1  0.14694000  0.49655000  0.76178000  1.0
  C  C53  1  0.85305000  0.50345000  0.23822000  1.0
  C  C54  1  0.11150000  0.86861000  0.16983000  1.0
  C  C55  1  0.88851000  0.13139000  0.83017000  1.0
  C  C56  1  0.96331000  0.80590000  0.97838000  1.0
  C  C57  1  0.03670000  0.19411000  0.02162000  1.0
  C  C58  1  0.09079000  0.75087000  0.97493000  1.0
  C  C59  1  0.90921000  0.24914000  0.02508000  1.0
  S  S60  1  0.38565000  0.92029000  0.58236000  1.0
  S  S61  1  0.61435000  0.07971000  0.41764000  1.0
  S  S62  1  0.21016000  0.14585000  0.60197000  1.0
  S  S63  1  0.78984000  0.85415000  0.39803000  1.0
  S  S64  1  0.17150000  0.93186000  0.31936000  1.0
  S  S65  1  0.82851000  0.06813000  0.68064000  1.0
  I  I66  1  0.32661000  0.61137000  0.24946000  1.0
  I  I67  1  0.67337000  0.38863000  0.75054000  1.0
  I  I68  1  0.38666000  0.11493000  0.91989000  1.0
  I  I69  1  0.61336000  0.88507000  0.08010000  1.0
  I  I70  1  0.97476000  0.73390000  0.64999000  1.0
  I  I71  1  0.02524000  0.26610000  0.35002000  1.0
  N  N72  1  0.47643000  0.70402000  0.56158000  1.0
  N  N73  1  0.52356000  0.29597000  0.43842000  1.0
  N  N74  1  0.47381000  0.81389000  0.73973000  1.0
  N  N75  1  0.52618000  0.18611000  0.26026000  1.0
  N  N76  1  0.24793000  0.34492000  0.81316000  1.0
  N  N77  1  0.75208000  0.65509000  0.18684000  1.0
  N  N78  1  0.15431000  0.38640000  0.66204000  1.0
  N  N79  1  0.84568000  0.61359000  0.33795000  1.0
  N  N80  1  0.01292000  0.90072000  0.10481000  1.0
  N  N81  1  0.98709000  0.09928000  0.89519000  1.0
  N  N82  1  0.15613000  0.78012000  0.09894000  1.0
  N  N83  1  0.84388000  0.21988000  0.90106000  1.0
