# generated using pymatgen
data_CuH5C3SN4
_symmetry_space_group_name_H-M   'P 1'
_cell_length_a   6.47137000
_cell_length_b   8.72939000
_cell_length_c   10.75710000
_cell_angle_alpha   106.00100000
_cell_angle_beta   90.00000000
_cell_angle_gamma   90.00000000
_symmetry_Int_Tables_number   1
_chemical_formula_structural   CuH5C3SN4
_chemical_formula_sum   'Cu4 H20 C12 S4 N16'
_cell_volume   584.13710966
_cell_formula_units_Z   4
loop_
 _symmetry_equiv_pos_site_id
 _symmetry_equiv_pos_as_xyz
  1  'x, y, z'
loop_
 _atom_site_type_symbol
 _atom_site_label
 _atom_site_symmetry_multiplicity
 _atom_site_fract_x
 _atom_site_fract_y
 _atom_site_fract_z
 _atom_site_occupancy
  Cu  Cu0  1  0.08915000  0.49075000  0.15257000  1.0
  Cu  Cu1  1  0.58915000  0.50925000  0.34743000  1.0
  Cu  Cu2  1  0.91085000  0.50925000  0.84743000  1.0
  Cu  Cu3  1  0.41085000  0.49075000  0.65257000  1.0
  H  H4  1  0.71215000  0.22412000  0.49908000  1.0
  H  H5  1  0.21215000  0.77588000  0.00091000  1.0
  H  H6  1  0.28785000  0.77588000  0.50092000  1.0
  H  H7  1  0.78785000  0.22412000  0.99908000  1.0
  H  H8  1  0.51743000  0.13952000  0.38449000  1.0
  H  H9  1  0.01743000  0.86047000  0.11551000  1.0
  H  H10  1  0.48257000  0.86047000  0.61551000  1.0
  H  H11  1  0.98257000  0.13953000  0.88449000  1.0
  H  H12  1  0.72886000  0.92222000  0.44103000  1.0
  H  H13  1  0.22886000  0.07777000  0.05897000  1.0
  H  H14  1  0.27115000  0.07777000  0.55897000  1.0
  H  H15  1  0.77115000  0.92222000  0.94103000  1.0
  H  H16  1  0.95494000  0.99802000  0.38698000  1.0
  H  H17  1  0.45493000  0.00197000  0.11302000  1.0
  H  H18  1  0.04507000  0.00198000  0.61302000  1.0
  H  H19  1  0.54507000  0.99802000  0.88698000  1.0
  H  H20  1  0.75374000  0.91435000  0.27537000  1.0
  H  H21  1  0.25374000  0.08565000  0.22463000  1.0
  H  H22  1  0.24627000  0.08565000  0.72463000  1.0
  H  H23  1  0.74626000  0.91435000  0.77537000  1.0
  C  C24  1  0.01144000  0.32552000  0.35744000  1.0
  C  C25  1  0.51145000  0.67448000  0.14257000  1.0
  C  C26  1  0.98855000  0.67448000  0.64257000  1.0
  C  C27  1  0.48855000  0.32552000  0.85743000  1.0
  C  C28  1  0.68497000  0.14924000  0.40032000  1.0
  C  C29  1  0.18497000  0.85076000  0.09968000  1.0
  C  C30  1  0.31503000  0.85076000  0.59968000  1.0
  C  C31  1  0.81503000  0.14924000  0.90032000  1.0
  C  C32  1  0.78700000  0.98707000  0.37395000  1.0
  C  C33  1  0.28700000  0.01293000  0.12605000  1.0
  C  C34  1  0.21300000  0.01293000  0.62605000  1.0
  C  C35  1  0.71300000  0.98707000  0.87395000  1.0
  S  S36  1  0.77057000  0.26190000  0.28983000  1.0
  S  S37  1  0.27057000  0.73810000  0.21017000  1.0
  S  S38  1  0.22942000  0.73810000  0.71017000  1.0
  S  S39  1  0.72942000  0.26190000  0.78983000  1.0
  N  N40  1  0.14450000  0.40257000  0.29875000  1.0
  N  N41  1  0.64450000  0.59743000  0.20126000  1.0
  N  N42  1  0.85550000  0.59743000  0.70126000  1.0
  N  N43  1  0.35549000  0.40257000  0.79875000  1.0
  N  N44  1  0.30690000  0.44011000  0.38008000  1.0
  N  N45  1  0.80690000  0.55989000  0.11992000  1.0
  N  N46  1  0.69310000  0.55989000  0.61992000  1.0
  N  N47  1  0.19309000  0.44011000  0.88008000  1.0
  N  N48  1  0.26900000  0.38787000  0.48326000  1.0
  N  N49  1  0.76900000  0.61213000  0.01673000  1.0
  N  N50  1  0.73100000  0.61213000  0.51673000  1.0
  N  N51  1  0.23100000  0.38787000  0.98326000  1.0
  N  N52  1  0.08439000  0.31438000  0.47134000  1.0
  N  N53  1  0.58440000  0.68562000  0.02866000  1.0
  N  N54  1  0.91560000  0.68562000  0.52866000  1.0
  N  N55  1  0.41560000  0.31438000  0.97135000  1.0
