# generated using pymatgen
data_MnH12(C2N)8
_symmetry_space_group_name_H-M   'P 1'
_cell_length_a   7.43839000
_cell_length_b   9.05970674
_cell_length_c   13.49690000
_cell_angle_alpha   86.55326245
_cell_angle_beta   81.53960000
_cell_angle_gamma   65.78217720
_symmetry_Int_Tables_number   1
_chemical_formula_structural   MnH12(C2N)8
_chemical_formula_sum   'Mn2 H24 C32 N16'
_cell_volume   820.47699162
_cell_formula_units_Z   2
loop_
 _symmetry_equiv_pos_site_id
 _symmetry_equiv_pos_as_xyz
  1  'x, y, z'
loop_
 _atom_site_type_symbol
 _atom_site_label
 _atom_site_symmetry_multiplicity
 _atom_site_fract_x
 _atom_site_fract_y
 _atom_site_fract_z
 _atom_site_occupancy
  Mn  Mn0  1  0.09372000  0.81299000  0.25012000  1.0
  Mn  Mn1  1  0.90144000  0.19804000  0.75023000  1.0
  H  H2  1  0.50923000  0.18189000  0.29357000  1.0
  H  H3  1  0.30907000  0.18198000  0.20631000  1.0
  H  H4  1  0.49041000  0.81603000  0.70615000  1.0
  H  H5  1  0.69351000  0.81554000  0.79382000  1.0
  H  H6  1  0.48733000  0.71627000  0.35669000  1.0
  H  H7  1  0.79693000  0.71640000  0.14357000  1.0
  H  H8  1  0.51736000  0.27971000  0.64267000  1.0
  H  H9  1  0.20224000  0.27908000  0.85676000  1.0
  H  H10  1  0.79842000  0.59836000  0.42411000  1.0
  H  H11  1  0.60367000  0.59859000  0.07610000  1.0
  H  H12  1  0.22531000  0.39302000  0.56171000  1.0
  H  H13  1  0.38172000  0.39199000  0.93746000  1.0
  H  H14  1  0.95936000  0.39630000  0.38930000  1.0
  H  H15  1  0.64460000  0.39658000  0.11073000  1.0
  H  H16  1  0.04870000  0.58058000  0.61321000  1.0
  H  H17  1  0.37025000  0.58001000  0.88651000  1.0
  H  H18  1  0.80156000  0.43432000  0.50464000  1.0
  H  H19  1  0.76422000  0.43468000  0.99539000  1.0
  H  H20  1  0.19285000  0.57706000  0.49638000  1.0
  H  H21  1  0.23023000  0.57550000  0.00336000  1.0
  H  H22  1  0.77290000  0.19613000  0.37752000  1.0
  H  H23  1  0.03124000  0.19628000  0.12231000  1.0
  H  H24  1  0.22891000  0.79964000  0.62048000  1.0
  H  H25  1  0.97145000  0.79888000  0.87958000  1.0
  C  C26  1  0.35771000  0.44250000  0.27767000  1.0
  C  C27  1  0.20017000  0.44256000  0.22243000  1.0
  C  C28  1  0.64295000  0.55670000  0.72284000  1.0
  C  C29  1  0.79967000  0.55633000  0.77692000  1.0
  C  C30  1  0.65318000  0.45843000  0.37549000  1.0
  C  C31  1  0.88882000  0.45855000  0.12455000  1.0
  C  C32  1  0.35152000  0.53681000  0.62330000  1.0
  C  C33  1  0.11124000  0.53600000  0.87640000  1.0
  C  C34  1  0.50644000  0.29949000  0.30800000  1.0
  C  C35  1  0.19434000  0.29961000  0.19200000  1.0
  C  C36  1  0.49275000  0.69840000  0.69213000  1.0
  C  C37  1  0.80868000  0.69784000  0.80776000  1.0
  C  C38  1  0.49711000  0.59504000  0.34423000  1.0
  C  C39  1  0.90834000  0.59516000  0.15592000  1.0
  C  C40  1  0.50631000  0.40096000  0.65547000  1.0
  C  C41  1  0.09203000  0.40030000  0.84412000  1.0
  C  C42  1  0.21841000  0.03218000  0.38554000  1.0
  C  C43  1  0.74995000  0.03217000  0.11469000  1.0
  C  C44  1  0.79377000  0.98086000  0.62603000  1.0
  C  C45  1  0.22576000  0.98059000  0.87426000  1.0
  C  C46  1  0.81056000  0.47370000  0.42614000  1.0
  C  C47  1  0.71607000  0.47396000  0.07396000  1.0
  C  C48  1  0.19742000  0.52008000  0.57068000  1.0
  C  C49  1  0.28231000  0.51904000  0.92892000  1.0
  C  C50  1  0.15823000  0.14051000  0.54165000  1.0
  C  C51  1  0.70153000  0.14061000  0.95872000  1.0
  C  C52  1  0.82877000  0.86680000  0.47434000  1.0
  C  C53  1  0.30481000  0.86594000  0.02579000  1.0
  C  C54  1  0.65442000  0.30781000  0.35627000  1.0
  C  C55  1  0.03812000  0.30792000  0.14369000  1.0
  C  C56  1  0.34702000  0.68880000  0.64288000  1.0
  C  C57  1  0.96392000  0.68816000  0.85703000  1.0
  N  N58  1  0.35387000  0.58847000  0.29720000  1.0
  N  N59  1  0.05811000  0.58854000  0.20300000  1.0
  N  N60  1  0.64865000  0.40899000  0.70332000  1.0
  N  N61  1  0.94147000  0.40828000  0.79630000  1.0
  N  N62  1  0.19103000  0.97048000  0.31780000  1.0
  N  N63  1  0.83921000  0.97048000  0.18233000  1.0
  N  N64  1  0.82901000  0.04561000  0.68941000  1.0
  N  N65  1  0.12564000  0.04590000  0.81104000  1.0
  N  N66  1  0.26211000  0.10091000  0.45377000  1.0
  N  N67  1  0.63730000  0.10109000  0.04662000  1.0
  N  N68  1  0.73647000  0.91156000  0.56386000  1.0
  N  N69  1  0.35238000  0.91081000  0.93630000  1.0
  N  N70  1  0.07240000  0.18464000  0.62225000  1.0
  N  N71  1  0.74337000  0.18471000  0.87815000  1.0
  N  N72  1  0.90293000  0.82031000  0.39235000  1.0
  N  N73  1  0.27711000  0.81955000  0.10780000  1.0
