# generated using pymatgen
data_CdH11C16N4O7
_symmetry_space_group_name_H-M   'P 1'
_cell_length_a   7.59497000
_cell_length_b   7.62090000
_cell_length_c   14.64600000
_cell_angle_alpha   81.00250000
_cell_angle_beta   82.11240000
_cell_angle_gamma   89.50010000
_symmetry_Int_Tables_number   1
_chemical_formula_structural   CdH11C16N4O7
_chemical_formula_sum   'Cd2 H22 C32 N8 O14'
_cell_volume   829.29517381
_cell_formula_units_Z   2
loop_
 _symmetry_equiv_pos_site_id
 _symmetry_equiv_pos_as_xyz
  1  'x, y, z'
loop_
 _atom_site_type_symbol
 _atom_site_label
 _atom_site_symmetry_multiplicity
 _atom_site_fract_x
 _atom_site_fract_y
 _atom_site_fract_z
 _atom_site_occupancy
  Cd  Cd0  1  0.00000000  0.00000000  0.00000000  1.0
  Cd  Cd1  1  0.50000000  0.50000000  0.00000000  1.0
  H  H2  1  0.75812000  0.76329000  0.72195000  1.0
  H  H3  1  0.24187000  0.23671000  0.27805000  1.0
  H  H4  1  0.59417000  0.44389000  0.22809000  1.0
  H  H5  1  0.40583000  0.55611000  0.77192000  1.0
  H  H6  1  0.86273000  0.28463000  0.15989000  1.0
  H  H7  1  0.13727000  0.71537000  0.84011000  1.0
  H  H8  1  0.70271000  0.75012000  0.18186000  1.0
  H  H9  1  0.29729000  0.24988000  0.81814000  1.0
  H  H10  1  0.96621000  0.26093000  0.56317000  1.0
  H  H11  1  0.03379000  0.73907000  0.43683000  1.0
  H  H12  1  0.56493000  0.20742000  0.56570000  1.0
  H  H13  1  0.43507000  0.79258000  0.43431000  1.0
  H  H14  1  0.50401000  0.64031000  0.34371000  1.0
  H  H15  1  0.49599000  0.35969000  0.65629000  1.0
  H  H16  1  0.66603000  0.01651000  0.44864000  1.0
  H  H17  1  0.33397000  0.98349000  0.55137000  1.0
  H  H18  1  0.89750000  0.93358000  0.57196000  1.0
  H  H19  1  0.10250000  0.06642000  0.42804000  1.0
  H  H20  1  0.80705000  0.62946000  0.01395000  1.0
  H  H21  1  0.19295000  0.37054000  0.98605000  1.0
  H  H22  1  0.83187000  0.42172000  0.00380000  1.0
  H  H23  1  0.16813000  0.57828000  0.99620000  1.0
  C  C24  1  0.69365000  0.85148000  0.88656000  1.0
  C  C25  1  0.30635000  0.14852000  0.11344000  1.0
  C  C26  1  0.80082000  0.16114000  0.79583000  1.0
  C  C27  1  0.19918000  0.83886000  0.20417000  1.0
  C  C28  1  0.63962000  0.22010000  0.33196000  1.0
  C  C29  1  0.36038000  0.77990000  0.66804000  1.0
  C  C30  1  0.75010000  0.25664000  0.87909000  1.0
  C  C31  1  0.24990000  0.74337000  0.12090000  1.0
  C  C32  1  0.52868000  0.44170000  0.46486000  1.0
  C  C33  1  0.47133000  0.55830000  0.53514000  1.0
  C  C34  1  0.76055000  0.97986000  0.79911000  1.0
  C  C35  1  0.23945000  0.02014000  0.20089000  1.0
  C  C36  1  0.79234000  0.90286000  0.71758000  1.0
  C  C37  1  0.20766000  0.09714000  0.28242000  1.0
  C  C38  1  0.59302000  0.39534000  0.30217000  1.0
  C  C39  1  0.40698000  0.60466000  0.69783000  1.0
  C  C40  1  0.87386000  0.25618000  0.70866000  1.0
  C  C41  1  0.12614000  0.74382000  0.29134000  1.0
  C  C42  1  0.80333000  0.15363000  0.18326000  1.0
  C  C43  1  0.19667000  0.84637000  0.81674000  1.0
  C  C44  1  0.72031000  0.88264000  0.19778000  1.0
  C  C45  1  0.27968000  0.11736000  0.80222000  1.0
  C  C46  1  0.90924000  0.17861000  0.62789000  1.0
  C  C47  1  0.09076000  0.82140000  0.37211000  1.0
  C  C48  1  0.57393000  0.26350000  0.49215000  1.0
  C  C49  1  0.42607000  0.73649000  0.50785000  1.0
  C  C50  1  0.53916000  0.50414000  0.36844000  1.0
  C  C51  1  0.46085000  0.49585000  0.63156000  1.0
  C  C52  1  0.63025000  0.15377000  0.42673000  1.0
  C  C53  1  0.36975000  0.84622000  0.57328000  1.0
  C  C54  1  0.86920000  0.99947000  0.63309000  1.0
  C  C55  1  0.13080000  0.00053000  0.36691000  1.0
  N  N56  1  0.69716000  0.10883000  0.26492000  1.0
  N  N57  1  0.30284000  0.89117000  0.73509000  1.0
  N  N58  1  0.92084000  0.44536000  0.69928000  1.0
  N  N59  1  0.07917000  0.55464000  0.30072000  1.0
  N  N60  1  0.64300000  0.93496000  0.27566000  1.0
  N  N61  1  0.35700000  0.06504000  0.72434000  1.0
  N  N62  1  0.82069000  0.01282000  0.13913000  1.0
  N  N63  1  0.17931000  0.98718000  0.86087000  1.0
  O  O64  1  0.78050000  0.50574000  0.04620000  1.0
  O  O65  1  0.21950000  0.49427000  0.95380000  1.0
  O  O66  1  0.78039000  0.84007000  0.95641000  1.0
  O  O67  1  0.21961000  0.15993000  0.04359000  1.0
  O  O68  1  0.56426000  0.75127000  0.88313000  1.0
  O  O69  1  0.43574000  0.24873000  0.11687000  1.0
  O  O70  1  0.85534000  0.25273000  0.94011000  1.0
  O  O71  1  0.14467000  0.74728000  0.05989000  1.0
  O  O72  1  0.94425000  0.50510000  0.77112000  1.0
  O  O73  1  0.05575000  0.49491000  0.22888000  1.0
  O  O74  1  0.93671000  0.53542000  0.62020000  1.0
  O  O75  1  0.06329000  0.46459000  0.37980000  1.0
  O  O76  1  0.60208000  0.33347000  0.88101000  1.0
  O  O77  1  0.39792000  0.66653000  0.11899000  1.0
