# generated using pymatgen
data_ZnH4C6(N3O2)2
_symmetry_space_group_name_H-M   'P 1'
_cell_length_a   9.24037000
_cell_length_b   10.12310000
_cell_length_c   11.48220000
_cell_angle_alpha   79.24250000
_cell_angle_beta   66.58340000
_cell_angle_gamma   87.01810000
_symmetry_Int_Tables_number   1
_chemical_formula_structural   ZnH4C6(N3O2)2
_chemical_formula_sum   'Zn4 H16 C24 N24 O16'
_cell_volume   967.98521359
_cell_formula_units_Z   4
loop_
 _symmetry_equiv_pos_site_id
 _symmetry_equiv_pos_as_xyz
  1  'x, y, z'
loop_
 _atom_site_type_symbol
 _atom_site_label
 _atom_site_symmetry_multiplicity
 _atom_site_fract_x
 _atom_site_fract_y
 _atom_site_fract_z
 _atom_site_occupancy
  Zn  Zn0  1  0.97426000  0.42399000  0.66616000  1.0
  Zn  Zn1  1  0.02574000  0.57601000  0.33384000  1.0
  Zn  Zn2  1  0.91464000  0.14910000  0.94048000  1.0
  Zn  Zn3  1  0.08536000  0.85090000  0.05952000  1.0
  H  H4  1  0.55152000  0.09292000  0.00765000  1.0
  H  H5  1  0.44848000  0.90708000  0.99235000  1.0
  H  H6  1  0.65618000  0.36111000  0.63933000  1.0
  H  H7  1  0.34382000  0.63889000  0.36067000  1.0
  H  H8  1  0.10907000  0.29261000  0.05848000  1.0
  H  H9  1  0.89093000  0.70739000  0.94153000  1.0
  H  H10  1  0.24304000  0.58394000  0.69992000  1.0
  H  H11  1  0.75696000  0.41605000  0.30008000  1.0
  H  H12  1  0.20995000  0.32690000  0.20989000  1.0
  H  H13  1  0.79005000  0.67310000  0.79011000  1.0
  H  H14  1  0.25587000  0.21839000  0.57788000  1.0
  H  H15  1  0.74413000  0.78161000  0.42212000  1.0
  H  H16  1  0.03066000  0.94237000  0.32825000  1.0
  H  H17  1  0.96934000  0.05762000  0.67175000  1.0
  H  H18  1  0.72587000  0.23444000  0.21459000  1.0
  H  H19  1  0.27413000  0.76556000  0.78541000  1.0
  C  C20  1  0.60282000  0.16290000  0.91724000  1.0
  C  C21  1  0.39718000  0.83710000  0.08276000  1.0
  C  C22  1  0.54082000  0.21491000  0.82519000  1.0
  C  C23  1  0.45918000  0.78509000  0.17481000  1.0
  C  C24  1  0.65725000  0.30264000  0.72817000  1.0
  C  C25  1  0.34275000  0.69736000  0.27183000  1.0
  C  C26  1  0.12094000  0.35360000  0.96685000  1.0
  C  C27  1  0.87906000  0.64639000  0.03315000  1.0
  C  C28  1  0.21939000  0.46605000  0.89498000  1.0
  C  C29  1  0.78061000  0.53395000  0.10502000  1.0
  C  C30  1  0.19166000  0.50246000  0.78162000  1.0
  C  C31  1  0.80834000  0.49754000  0.21838000  1.0
  C  C32  1  0.19575000  0.31478000  0.30961000  1.0
  C  C33  1  0.80425000  0.68522000  0.69039000  1.0
  C  C34  1  0.27059000  0.22641000  0.37579000  1.0
  C  C35  1  0.72941000  0.77359000  0.62421000  1.0
  C  C36  1  0.22289000  0.26094000  0.49801000  1.0
  C  C37  1  0.77711000  0.73906000  0.50199000  1.0
  C  C38  1  0.96460000  0.00465000  0.27979000  1.0
  C  C39  1  0.03540000  0.99535000  0.72021000  1.0
  C  C40  1  0.85872000  0.10743000  0.32124000  1.0
  C  C41  1  0.14128000  0.89257000  0.67876000  1.0
  C  C42  1  0.80949000  0.15679000  0.22077000  1.0
  C  C43  1  0.19051000  0.84321000  0.77923000  1.0
  N  N44  1  0.78146000  0.30209000  0.76005000  1.0
  N  N45  1  0.21854000  0.69791000  0.23995000  1.0
  N  N46  1  0.74786000  0.21488000  0.87646000  1.0
  N  N47  1  0.25214000  0.78512000  0.12354000  1.0
  N  N48  1  0.39473000  0.17765000  0.82698000  1.0
  N  N49  1  0.60527000  0.82235000  0.17301000  1.0
  N  N50  1  0.08222000  0.41724000  0.78734000  1.0
  N  N51  1  0.91778000  0.58276000  0.21266000  1.0
  N  N52  1  0.04034000  0.32432000  0.90048000  1.0
  N  N53  1  0.95966000  0.67568000  0.09952000  1.0
  N  N54  1  0.32293000  0.53126000  0.93152000  1.0
  N  N55  1  0.67707000  0.46874000  0.06848000  1.0
  N  N56  1  0.12282000  0.36287000  0.50465000  1.0
  N  N57  1  0.87718000  0.63713000  0.49535000  1.0
  N  N58  1  0.10696000  0.39684000  0.38788000  1.0
  N  N59  1  0.89304000  0.60316000  0.61212000  1.0
  N  N60  1  0.37554000  0.12355000  0.32633000  1.0
  N  N61  1  0.62446000  0.87645000  0.67367000  1.0
  N  N62  1  0.88264000  0.08887000  0.12505000  1.0
  N  N63  1  0.11736000  0.91113000  0.87495000  1.0
  N  N64  1  0.97691000  0.99428000  0.16171000  1.0
  N  N65  1  0.02309000  0.00572000  0.83829000  1.0
  N  N66  1  0.81289000  0.15671000  0.43820000  1.0
  N  N67  1  0.18711000  0.84329000  0.56180000  1.0
  O  O68  1  0.36342000  0.22160000  0.73102000  1.0
  O  O69  1  0.63658000  0.77840000  0.26898000  1.0
  O  O70  1  0.30344000  0.10278000  0.92648000  1.0
  O  O71  1  0.69656000  0.89722000  0.07352000  1.0
  O  O72  1  0.41155000  0.62412000  0.85101000  1.0
  O  O73  1  0.58845000  0.37588000  0.14899000  1.0
  O  O74  1  0.31884000  0.49358000  0.04240000  1.0
  O  O75  1  0.68115000  0.50642000  0.95760000  1.0
  O  O76  1  0.44892000  0.06529000  0.39067000  1.0
  O  O77  1  0.55107000  0.93471000  0.60934000  1.0
  O  O78  1  0.38717000  0.09784000  0.22079000  1.0
  O  O79  1  0.61284000  0.90216000  0.77921000  1.0
  O  O80  1  0.72570000  0.25647000  0.45186000  1.0
  O  O81  1  0.27430000  0.74353000  0.54815000  1.0
  O  O82  1  0.86319000  0.10019000  0.52016000  1.0
  O  O83  1  0.13681000  0.89981000  0.47984000  1.0
