# generated using pymatgen
data_CdH16C24(N2O5)2
_symmetry_space_group_name_H-M   'P 1'
_cell_length_a   6.67434000
_cell_length_b   12.70920000
_cell_length_c   15.03107843
_cell_angle_alpha   65.00133569
_cell_angle_beta   81.44707205
_cell_angle_gamma   89.93050000
_symmetry_Int_Tables_number   1
_chemical_formula_structural   CdH16C24(N2O5)2
_chemical_formula_sum   'Cd2 H32 C48 N8 O20'
_cell_volume   1140.01546903
_cell_formula_units_Z   2
loop_
 _symmetry_equiv_pos_site_id
 _symmetry_equiv_pos_as_xyz
  1  'x, y, z'
loop_
 _atom_site_type_symbol
 _atom_site_label
 _atom_site_symmetry_multiplicity
 _atom_site_fract_x
 _atom_site_fract_y
 _atom_site_fract_z
 _atom_site_occupancy
  Cd  Cd0  1  0.25009000  0.12837000  0.99982000  1.0
  Cd  Cd1  1  0.74991000  0.87163000  0.00018000  1.0
  H  H2  1  0.33072000  0.85752000  0.62516000  1.0
  H  H3  1  0.16857000  0.48308000  0.37459000  1.0
  H  H4  1  0.66926000  0.14248000  0.37484000  1.0
  H  H5  1  0.83144000  0.51692000  0.62541000  1.0
  H  H6  1  0.28312000  0.05275000  0.49553000  1.0
  H  H7  1  0.21587000  0.54841000  0.50442000  1.0
  H  H8  1  0.71688000  0.94724000  0.50447000  1.0
  H  H9  1  0.78414000  0.45160000  0.49557000  1.0
  H  H10  1  0.36908000  0.20572000  0.69528000  1.0
  H  H11  1  0.13130000  0.90138000  0.30471000  1.0
  H  H12  1  0.63093000  0.79429000  0.30471000  1.0
  H  H13  1  0.86872000  0.09861000  0.69529000  1.0
  H  H14  1  0.07196000  0.08163000  0.22614000  1.0
  H  H15  1  0.42758000  0.30789000  0.77380000  1.0
  H  H16  1  0.92804000  0.91838000  0.77385000  1.0
  H  H17  1  0.57243000  0.69212000  0.22620000  1.0
  H  H18  1  0.04620000  0.18452000  0.33851000  1.0
  H  H19  1  0.45403000  0.52313000  0.66173000  1.0
  H  H20  1  0.95381000  0.81548000  0.66149000  1.0
  H  H21  1  0.54597000  0.47688000  0.33827000  1.0
  H  H22  1  0.12847000  0.40076000  0.25949000  1.0
  H  H23  1  0.37146000  0.66022000  0.74095000  1.0
  H  H24  1  0.87152000  0.59924000  0.74051000  1.0
  H  H25  1  0.62854000  0.33978000  0.25906000  1.0
  H  H26  1  0.23962000  0.50287000  0.07797000  1.0
  H  H27  1  0.25959000  0.58079000  0.92244000  1.0
  H  H28  1  0.76038000  0.49713000  0.92204000  1.0
  H  H29  1  0.74040000  0.41922000  0.07756000  1.0
  H  H30  1  0.42538000  0.83067000  0.86363000  1.0
  H  H31  1  0.07540000  0.69514000  0.13597000  1.0
  H  H32  1  0.57459000  0.16933000  0.13637000  1.0
  H  H33  1  0.92460000  0.30485000  0.86404000  1.0
  C  C34  1  0.38593000  0.02045000  0.75454000  1.0
  C  C35  1  0.11454000  0.77555000  0.24527000  1.0
  C  C36  1  0.61406000  0.97955000  0.24546000  1.0
  C  C37  1  0.88547000  0.22445000  0.75473000  1.0
  C  C38  1  0.37704000  0.92103000  0.73404000  1.0
  C  C39  1  0.12327000  0.65567000  0.26565000  1.0
  C  C40  1  0.62295000  0.07897000  0.26596000  1.0
  C  C41  1  0.87673000  0.34432000  0.73436000  1.0
  C  C42  1  0.34032000  0.93404000  0.63997000  1.0
  C  C43  1  0.15927000  0.57441000  0.35981000  1.0
  C  C44  1  0.65966000  0.06595000  0.36004000  1.0
  C  C45  1  0.84074000  0.42559000  0.64019000  1.0
  C  C46  1  0.31435000  0.04281000  0.56751000  1.0
  C  C47  1  0.18502000  0.61055000  0.43239000  1.0
  C  C48  1  0.68564000  0.95719000  0.43249000  1.0
  C  C49  1  0.81499000  0.38944000  0.56761000  1.0
  C  C50  1  0.32892000  0.14060000  0.58774000  1.0
  C  C51  1  0.17087000  0.72859000  0.41220000  1.0
  C  C52  1  0.67108000  0.85939000  0.41226000  1.0
  C  C53  1  0.82914000  0.27141000  0.58780000  1.0
  C  C54  1  0.36242000  0.12938000  0.68049000  1.0
  C  C55  1  0.13780000  0.81026000  0.31943000  1.0
  C  C56  1  0.63758000  0.87062000  0.31951000  1.0
  C  C57  1  0.86222000  0.18973000  0.68057000  1.0
  C  C58  1  0.41757000  0.00836000  0.85446000  1.0
  C  C59  1  0.08310000  0.86352000  0.14539000  1.0
  C  C60  1  0.58243000  0.99163000  0.14555000  1.0
  C  C61  1  0.91690000  0.13648000  0.85461000  1.0
  C  C62  1  0.10814000  0.17502000  0.19700000  1.0
  C  C63  1  0.39137000  0.37208000  0.80305000  1.0
  C  C64  1  0.89185000  0.82498000  0.80300000  1.0
  C  C65  1  0.60863000  0.62792000  0.19695000  1.0
  C  C66  1  0.09308000  0.23235000  0.25852000  1.0
  C  C67  1  0.40674000  0.49090000  0.74170000  1.0
  C  C68  1  0.90692000  0.76764000  0.74148000  1.0
  C  C69  1  0.59326000  0.50911000  0.25830000  1.0
  C  C70  1  0.13938000  0.35203000  0.21468000  1.0
  C  C71  1  0.36031000  0.56669000  0.78565000  1.0
  C  C72  1  0.86061000  0.64797000  0.78532000  1.0
  C  C73  1  0.63969000  0.43332000  0.21435000  1.0
  C  C74  1  0.20055000  0.40959000  0.11208000  1.0
  C  C75  1  0.29864000  0.52165000  0.88822000  1.0
  C  C76  1  0.79944000  0.59041000  0.88792000  1.0
  C  C77  1  0.70136000  0.47836000  0.11178000  1.0
  C  C78  1  0.21495000  0.34611000  0.05490000  1.0
  C  C79  1  0.28403000  0.40097000  0.94528000  1.0
  C  C80  1  0.78504000  0.65389000  0.94510000  1.0
  C  C81  1  0.71597000  0.59903000  0.05472000  1.0
  N  N82  1  0.31013000  0.25570000  0.51184000  1.0
  N  N83  1  0.18975000  0.76768000  0.48816000  1.0
  N  N84  1  0.68988000  0.74430000  0.48815000  1.0
  N  N85  1  0.81026000  0.23232000  0.51184000  1.0
  N  N86  1  0.16736000  0.23010000  0.09836000  1.0
  N  N87  1  0.33168000  0.32849000  0.90167000  1.0
  N  N88  1  0.83263000  0.76990000  0.90164000  1.0
  N  N89  1  0.66832000  0.67153000  0.09832000  1.0
  O  O90  1  0.40855000  0.09823000  0.87086000  1.0
  O  O91  1  0.09223000  0.96972000  0.12908000  1.0
  O  O92  1  0.59145000  0.90178000  0.12913000  1.0
  O  O93  1  0.90777000  0.03027000  0.87092000  1.0
  O  O94  1  0.45480000  0.90672000  0.91733000  1.0
  O  O95  1  0.04599000  0.82490000  0.08240000  1.0
  O  O96  1  0.54519000  0.09328000  0.08267000  1.0
  O  O97  1  0.95401000  0.17510000  0.91760000  1.0
  O  O98  1  0.39787000  0.81507000  0.80406000  1.0
  O  O99  1  0.10265000  0.61987000  0.19553000  1.0
  O  O100  1  0.60211000  0.18492000  0.19595000  1.0
  O  O101  1  0.89735000  0.38013000  0.80447000  1.0
  O  O102  1  0.27483000  0.26553000  0.42943000  1.0
  O  O103  1  0.22511000  0.69503000  0.57053000  1.0
  O  O104  1  0.72518000  0.73447000  0.57056000  1.0
  O  O105  1  0.77491000  0.30497000  0.42947000  1.0
  O  O106  1  0.33065000  0.34086000  0.53156000  1.0
  O  O107  1  0.16930000  0.87258000  0.46851000  1.0
  O  O108  1  0.66938000  0.65914000  0.46843000  1.0
  O  O109  1  0.83070000  0.12742000  0.53149000  1.0
