# generated using pymatgen
data_CdH6C5N2(ClO)2
_symmetry_space_group_name_H-M   'P 1'
_cell_length_a   7.32926000
_cell_length_b   9.56558000
_cell_length_c   12.57500000
_cell_angle_alpha   90.00000000
_cell_angle_beta   90.00010000
_cell_angle_gamma   98.31150000
_symmetry_Int_Tables_number   1
_chemical_formula_structural   CdH6C5N2(ClO)2
_chemical_formula_sum   'Cd4 H24 C20 N8 Cl8 O8'
_cell_volume   872.35613972
_cell_formula_units_Z   4
loop_
 _symmetry_equiv_pos_site_id
 _symmetry_equiv_pos_as_xyz
  1  'x, y, z'
loop_
 _atom_site_type_symbol
 _atom_site_label
 _atom_site_symmetry_multiplicity
 _atom_site_fract_x
 _atom_site_fract_y
 _atom_site_fract_z
 _atom_site_occupancy
  Cd  Cd0  1  0.10593000  0.32622000  0.23225000  1.0
  Cd  Cd1  1  0.39407000  0.67378000  0.73225000  1.0
  Cd  Cd2  1  0.89407000  0.67378000  0.76775000  1.0
  Cd  Cd3  1  0.60593000  0.32622000  0.26775000  1.0
  H  H4  1  0.51531000  0.25534000  0.53540000  1.0
  H  H5  1  0.98470000  0.74466000  0.03540000  1.0
  H  H6  1  0.48470000  0.74466000  0.46460000  1.0
  H  H7  1  0.01530000  0.25534000  0.96460000  1.0
  H  H8  1  0.90264000  0.35896000  0.63666000  1.0
  H  H9  1  0.59736000  0.64105000  0.13666000  1.0
  H  H10  1  0.09736000  0.64105000  0.36334000  1.0
  H  H11  1  0.40264000  0.35895000  0.86334000  1.0
  H  H12  1  0.80952000  0.17847000  0.61691000  1.0
  H  H13  1  0.69048000  0.82153000  0.11691000  1.0
  H  H14  1  0.19048000  0.82153000  0.38309000  1.0
  H  H15  1  0.30952000  0.17847000  0.88309000  1.0
  H  H16  1  0.26351000  0.41112000  0.53247000  1.0
  H  H17  1  0.23649000  0.58888000  0.03247000  1.0
  H  H18  1  0.73649000  0.58888000  0.46753000  1.0
  H  H19  1  0.76351000  0.41112000  0.96753000  1.0
  H  H20  1  0.39865000  0.00885000  0.61570000  1.0
  H  H21  1  0.10135000  0.99115000  0.11570000  1.0
  H  H22  1  0.60136000  0.99115000  0.38430000  1.0
  H  H23  1  0.89865000  0.00885000  0.88430000  1.0
  H  H24  1  0.02106000  0.00940000  0.64766000  1.0
  H  H25  1  0.47894000  0.99060000  0.14766000  1.0
  H  H26  1  0.97894000  0.99060000  0.35234000  1.0
  H  H27  1  0.52106000  0.00940000  0.85234000  1.0
  C  C28  1  0.86217000  0.30356000  0.47119000  1.0
  C  C29  1  0.63782000  0.69643000  0.97119000  1.0
  C  C30  1  0.13783000  0.69643000  0.52881000  1.0
  C  C31  1  0.36218000  0.30357000  0.02881000  1.0
  C  C32  1  0.90880000  0.26583000  0.58605000  1.0
  C  C33  1  0.59120000  0.73417000  0.08605000  1.0
  C  C34  1  0.09121000  0.73416000  0.41395000  1.0
  C  C35  1  0.40880000  0.26583000  0.91395000  1.0
  C  C36  1  0.24863000  0.30324000  0.56040000  1.0
  C  C37  1  0.25137000  0.69676000  0.06040000  1.0
  C  C38  1  0.75137000  0.69676000  0.43960000  1.0
  C  C39  1  0.74863000  0.30324000  0.93961000  1.0
  C  C40  1  0.31309000  0.09061000  0.60266000  1.0
  C  C41  1  0.18691000  0.90939000  0.10265000  1.0
  C  C42  1  0.68691000  0.90939000  0.39735000  1.0
  C  C43  1  0.81309000  0.09061000  0.89735000  1.0
  C  C44  1  0.12824000  0.09031000  0.61865000  1.0
  C  C45  1  0.37176000  0.90969000  0.11865000  1.0
  C  C46  1  0.87176000  0.90969000  0.38135000  1.0
  C  C47  1  0.62824000  0.09031000  0.88135000  1.0
  N  N48  1  0.09132000  0.22386000  0.59190000  1.0
  N  N49  1  0.40868000  0.77613000  0.09190000  1.0
  N  N50  1  0.90868000  0.77613000  0.40810000  1.0
  N  N51  1  0.59132000  0.22387000  0.90810000  1.0
  N  N52  1  0.38337000  0.22369000  0.56687000  1.0
  N  N53  1  0.11663000  0.77631000  0.06687000  1.0
  N  N54  1  0.61664000  0.77631000  0.43313000  1.0
  N  N55  1  0.88337000  0.22369000  0.93313000  1.0
  Cl  Cl56  1  0.38037000  0.51209000  0.30007000  1.0
  Cl  Cl57  1  0.11962000  0.48791000  0.80007000  1.0
  Cl  Cl58  1  0.61963000  0.48791000  0.69993000  1.0
  Cl  Cl59  1  0.88037000  0.51209000  0.19993000  1.0
  Cl  Cl60  1  0.30810000  0.13942000  0.30611000  1.0
  Cl  Cl61  1  0.19190000  0.86058000  0.80611000  1.0
  Cl  Cl62  1  0.69190000  0.86058000  0.69389000  1.0
  Cl  Cl63  1  0.80810000  0.13942000  0.19389000  1.0
  O  O64  1  0.99387000  0.33981000  0.40940000  1.0
  O  O65  1  0.50613000  0.66019000  0.90940000  1.0
  O  O66  1  0.00613000  0.66018000  0.59060000  1.0
  O  O67  1  0.49387000  0.33981000  0.09060000  1.0
  O  O68  1  0.69028000  0.29873000  0.44939000  1.0
  O  O69  1  0.80972000  0.70127000  0.94939000  1.0
  O  O70  1  0.30972000  0.70126000  0.55061000  1.0
  O  O71  1  0.19027000  0.29873000  0.05061000  1.0
