# generated using pymatgen
data_NiH18C20(N4O3)2
_symmetry_space_group_name_H-M   'P 1'
_cell_length_a   8.21528000
_cell_length_b   8.45747000
_cell_length_c   9.68887000
_cell_angle_alpha   85.66120000
_cell_angle_beta   76.22710000
_cell_angle_gamma   61.90260000
_symmetry_Int_Tables_number   1
_chemical_formula_structural   NiH18C20(N4O3)2
_chemical_formula_sum   'Ni1 H18 C20 N8 O6'
_cell_volume   576.25323290
_cell_formula_units_Z   1
loop_
 _symmetry_equiv_pos_site_id
 _symmetry_equiv_pos_as_xyz
  1  'x, y, z'
loop_
 _atom_site_type_symbol
 _atom_site_label
 _atom_site_symmetry_multiplicity
 _atom_site_fract_x
 _atom_site_fract_y
 _atom_site_fract_z
 _atom_site_occupancy
  Ni  Ni0  1  0.00000000  0.00000000  0.00000000  1.0
  H  H1  1  0.07938000  0.57805000  0.81528000  1.0
  H  H2  1  0.92062000  0.42195000  0.18472000  1.0
  H  H3  1  0.10088000  0.36483000  0.77275000  1.0
  H  H4  1  0.89912000  0.63517000  0.22725000  1.0
  H  H5  1  0.23953000  0.37780000  0.52296000  1.0
  H  H6  1  0.76048000  0.62220000  0.47704000  1.0
  H  H7  1  0.33378000  0.60916000  0.43292000  1.0
  H  H8  1  0.66623000  0.39084000  0.56708000  1.0
  H  H9  1  0.37202000  0.40168000  0.63191000  1.0
  H  H10  1  0.62798000  0.59832000  0.36809000  1.0
  H  H11  1  0.08260000  0.70401000  0.48658000  1.0
  H  H12  1  0.91740000  0.29599000  0.51342000  1.0
  H  H13  1  0.98018000  0.11886000  0.25337000  1.0
  H  H14  1  0.01982000  0.88114000  0.74663000  1.0
  H  H15  1  0.19799000  0.96438000  0.18590000  1.0
  H  H16  1  0.80201000  0.03562000  0.81410000  1.0
  H  H17  1  0.24305000  0.85319000  0.56773000  1.0
  H  H18  1  0.75695000  0.14681000  0.43227000  1.0
  C  C19  1  0.40738000  0.90652000  0.81243000  1.0
  C  C20  1  0.59263000  0.09348000  0.18757000  1.0
  C  C21  1  0.65508000  0.91982000  0.62611000  1.0
  C  C22  1  0.34491000  0.08018000  0.37389000  1.0
  C  C23  1  0.73735000  0.67365000  0.78856000  1.0
  C  C24  1  0.26265000  0.32635000  0.21144000  1.0
  C  C25  1  0.59965000  0.83342000  0.74376000  1.0
  C  C26  1  0.40036000  0.16658000  0.25624000  1.0
  C  C27  1  0.08254000  0.49531000  0.73173000  1.0
  C  C28  1  0.91746000  0.50469000  0.26827000  1.0
  C  C29  1  0.23613000  0.46939000  0.59930000  1.0
  C  C30  1  0.76387000  0.53061000  0.40070000  1.0
  C  C31  1  0.21401000  0.64131000  0.52565000  1.0
  C  C32  1  0.78599000  0.35869000  0.47435000  1.0
  C  C33  1  0.70620000  0.59882000  0.92265000  1.0
  C  C34  1  0.29380000  0.40118000  0.07736000  1.0
  C  C35  1  0.80339000  0.41395000  0.94041000  1.0
  C  C36  1  0.19661000  0.58605000  0.05959000  1.0
  C  C37  1  0.56751000  0.70126000  0.04207000  1.0
  C  C38  1  0.43249000  0.29874000  0.95793000  1.0
  N  N39  1  0.24833000  0.96122000  0.87116000  1.0
  N  N40  1  0.75167000  0.03878000  0.12883000  1.0
  N  N41  1  0.70267000  0.98985000  0.52779000  1.0
  N  N42  1  0.29734000  0.01016000  0.47221000  1.0
  N  N43  1  0.87892000  0.26011000  0.95797000  1.0
  N  N44  1  0.12107000  0.73989000  0.04203000  1.0
  N  N45  1  0.45626000  0.78123000  0.14503000  1.0
  N  N46  1  0.54373000  0.21877000  0.85497000  1.0
  O  O47  1  0.08443000  0.06770000  0.16443000  1.0
  O  O48  1  0.91557000  0.93230000  0.83557000  1.0
  O  O49  1  0.90014000  0.59180000  0.69051000  1.0
  O  O50  1  0.09986000  0.40820000  0.30949000  1.0
  O  O51  1  0.21146000  0.76310000  0.62303000  1.0
  O  O52  1  0.78854000  0.23690000  0.37697000  1.0
