# generated using pymatgen
data_SmH7(C3O4)2
_symmetry_space_group_name_H-M   'P 1'
_cell_length_a   6.19639000
_cell_length_b   10.17951927
_cell_length_c   15.47580000
_cell_angle_alpha   76.69541399
_cell_angle_beta   89.99870000
_cell_angle_gamma   72.28623014
_symmetry_Int_Tables_number   1
_chemical_formula_structural   SmH7(C3O4)2
_chemical_formula_sum   'Sm4 H28 C24 O32'
_cell_volume   902.33395114
_cell_formula_units_Z   4
loop_
 _symmetry_equiv_pos_site_id
 _symmetry_equiv_pos_as_xyz
  1  'x, y, z'
loop_
 _atom_site_type_symbol
 _atom_site_label
 _atom_site_symmetry_multiplicity
 _atom_site_fract_x
 _atom_site_fract_y
 _atom_site_fract_z
 _atom_site_occupancy
  Sm  Sm0  1  0.65253000  0.81417000  0.70314000  1.0
  Sm  Sm1  1  0.46626000  0.18608000  0.79679000  1.0
  Sm  Sm2  1  0.34747000  0.18583000  0.29686000  1.0
  Sm  Sm3  1  0.53374000  0.81392000  0.20321000  1.0
  H  H4  1  0.27471000  0.95090000  0.54468000  1.0
  H  H5  1  0.22536000  0.04911000  0.95519000  1.0
  H  H6  1  0.72529000  0.04910000  0.45532000  1.0
  H  H7  1  0.77464000  0.95089000  0.04480000  1.0
  H  H8  1  0.18438000  0.87628000  0.63792000  1.0
  H  H9  1  0.06030000  0.12380000  0.86197000  1.0
  H  H10  1  0.81562000  0.12372000  0.36208000  1.0
  H  H11  1  0.93970000  0.87620000  0.13803000  1.0
  H  H12  1  0.92083000  0.71167000  0.99287000  1.0
  H  H13  1  0.63283000  0.28832000  0.50703000  1.0
  H  H14  1  0.07917000  0.28833000  0.00713000  1.0
  H  H15  1  0.36717000  0.71168000  0.49297000  1.0
  H  H16  1  0.11850000  0.80234000  0.96013000  1.0
  H  H17  1  0.92099000  0.19770000  0.54007000  1.0
  H  H18  1  0.88149000  0.19767000  0.03987000  1.0
  H  H19  1  0.07901000  0.80230000  0.45993000  1.0
  H  H20  1  0.20294000  0.50140000  0.98731000  1.0
  H  H21  1  0.70391000  0.49887000  0.51256000  1.0
  H  H22  1  0.79706000  0.49860000  0.01269000  1.0
  H  H23  1  0.29608000  0.50113000  0.48744000  1.0
  H  H24  1  0.40618000  0.57710000  0.93685000  1.0
  H  H25  1  0.98283000  0.42318000  0.56302000  1.0
  H  H26  1  0.59382000  0.42290000  0.06315000  1.0
  H  H27  1  0.01717000  0.57682000  0.43698000  1.0
  H  H28  1  0.97301000  0.54617000  0.81831000  1.0
  H  H29  1  0.51880000  0.45410000  0.68162000  1.0
  H  H30  1  0.02699000  0.45383000  0.18169000  1.0
  H  H31  1  0.48120000  0.54590000  0.31838000  1.0
  C  C32  1  0.78245000  0.90698000  0.89767000  1.0
  C  C33  1  0.68907000  0.09331000  0.60237000  1.0
  C  C34  1  0.21755000  0.09303000  0.10233000  1.0
  C  C35  1  0.31093000  0.90669000  0.39763000  1.0
  C  C36  1  0.25965000  0.54475000  0.92249000  1.0
  C  C37  1  0.80395000  0.45559000  0.57738000  1.0
  C  C38  1  0.74035000  0.45525000  0.07751000  1.0
  C  C39  1  0.19604000  0.54442000  0.42261000  1.0
  C  C40  1  0.16809000  0.75740000  0.79053000  1.0
  C  C41  1  0.92502000  0.24304000  0.70939000  1.0
  C  C42  1  0.83190000  0.24261000  0.20947000  1.0
  C  C43  1  0.07498000  0.75696000  0.29061000  1.0
  C  C44  1  0.33692000  0.42522000  0.87540000  1.0
  C  C45  1  0.76180000  0.57516000  0.62443000  1.0
  C  C46  1  0.66309000  0.57478000  0.12460000  1.0
  C  C47  1  0.23820000  0.42483000  0.37557000  1.0
  C  C48  1  0.07079000  0.67632000  0.87093000  1.0
  C  C49  1  0.74668000  0.32404000  0.62899000  1.0
  C  C50  1  0.92921000  0.32368000  0.12907000  1.0
  C  C51  1  0.25333000  0.67595000  0.37101000  1.0
  C  C52  1  0.97860000  0.77318000  0.93442000  1.0
  C  C53  1  0.75175000  0.22699000  0.56560000  1.0
  C  C54  1  0.02140000  0.22682000  0.06558000  1.0
  C  C55  1  0.24825000  0.77301000  0.43440000  1.0
  O  O56  1  0.88889000  0.63501000  0.83815000  1.0
  O  O57  1  0.52344000  0.36533000  0.66174000  1.0
  O  O58  1  0.11111000  0.36499000  0.16185000  1.0
  O  O59  1  0.47656000  0.63467000  0.33826000  1.0
  O  O60  1  0.73425000  0.00848000  0.93648000  1.0
  O  O61  1  0.74281000  0.99162000  0.56370000  1.0
  O  O62  1  0.26575000  0.99152000  0.06352000  1.0
  O  O63  1  0.25719000  0.00838000  0.43630000  1.0
  O  O64  1  0.03842000  0.81240000  0.71861000  1.0
  O  O65  1  0.85040000  0.18776000  0.78126000  1.0
  O  O66  1  0.96158000  0.18760000  0.28139000  1.0
  O  O67  1  0.14960000  0.81224000  0.21874000  1.0
  O  O68  1  0.36452000  0.76587000  0.80044000  1.0
  O  O69  1  0.12987000  0.23471000  0.69952000  1.0
  O  O70  1  0.63548000  0.23413000  0.19956000  1.0
  O  O71  1  0.87013000  0.76529000  0.30048000  1.0
  O  O72  1  0.31523000  0.90154000  0.60902000  1.0
  O  O73  1  0.21645000  0.09848000  0.89084000  1.0
  O  O74  1  0.68477000  0.09846000  0.39098000  1.0
  O  O75  1  0.78354000  0.90153000  0.10916000  1.0
  O  O76  1  0.20866000  0.42368000  0.80986000  1.0
  O  O77  1  0.63229000  0.57665000  0.69008000  1.0
  O  O78  1  0.79134000  0.57632000  0.19014000  1.0
  O  O79  1  0.36770000  0.42335000  0.30993000  1.0
  O  O80  1  0.66348000  0.92001000  0.82693000  1.0
  O  O81  1  0.58252000  0.08047000  0.67296000  1.0
  O  O82  1  0.33651000  0.08000000  0.17307000  1.0
  O  O83  1  0.41748000  0.91953000  0.32704000  1.0
  O  O84  1  0.52122000  0.32595000  0.90190000  1.0
  O  O85  1  0.84670000  0.67448000  0.59782000  1.0
  O  O86  1  0.47878000  0.67405000  0.09810000  1.0
  O  O87  1  0.15330000  0.32552000  0.40218000  1.0
