# generated using pymatgen
data_LiH7C4N2O5
_symmetry_space_group_name_H-M   'P 1'
_cell_length_a   6.33402000
_cell_length_b   7.13332000
_cell_length_c   16.54240000
_cell_angle_alpha   89.99970000
_cell_angle_beta   89.99960000
_cell_angle_gamma   107.26100000
_symmetry_Int_Tables_number   1
_chemical_formula_structural   LiH7C4N2O5
_chemical_formula_sum   'Li4 H28 C16 N8 O20'
_cell_volume   713.76656113
_cell_formula_units_Z   4
loop_
 _symmetry_equiv_pos_site_id
 _symmetry_equiv_pos_as_xyz
  1  'x, y, z'
loop_
 _atom_site_type_symbol
 _atom_site_label
 _atom_site_symmetry_multiplicity
 _atom_site_fract_x
 _atom_site_fract_y
 _atom_site_fract_z
 _atom_site_occupancy
  Li  Li0  1  0.26551000  0.48571000  0.58035000  1.0
  Li  Li1  1  0.73450000  0.01428000  0.08035000  1.0
  Li  Li2  1  0.73449000  0.51429000  0.41965000  1.0
  Li  Li3  1  0.26551000  0.98572000  0.91965000  1.0
  H  H4  1  0.21439000  0.97871000  0.76199000  1.0
  H  H5  1  0.78562000  0.52129000  0.26199000  1.0
  H  H6  1  0.78561000  0.02130000  0.23801000  1.0
  H  H7  1  0.21438000  0.47871000  0.73801000  1.0
  H  H8  1  0.76088000  0.75049000  0.58257000  1.0
  H  H9  1  0.23913000  0.74951000  0.08257000  1.0
  H  H10  1  0.23911000  0.24951000  0.41743000  1.0
  H  H11  1  0.76087000  0.25049000  0.91743000  1.0
  H  H12  1  0.56468000  0.65412000  0.82849000  1.0
  H  H13  1  0.43532000  0.84588000  0.32850000  1.0
  H  H14  1  0.43532000  0.34588000  0.17151000  1.0
  H  H15  1  0.56468000  0.15412000  0.67150000  1.0
  H  H16  1  0.47290000  0.26491000  0.51397000  1.0
  H  H17  1  0.52710000  0.23509000  0.01397000  1.0
  H  H18  1  0.52710000  0.73509000  0.48603000  1.0
  H  H19  1  0.47290000  0.76491000  0.98603000  1.0
  H  H20  1  0.24031000  0.14836000  0.55278000  1.0
  H  H21  1  0.75968000  0.35163000  0.05278000  1.0
  H  H22  1  0.75969000  0.85164000  0.44722000  1.0
  H  H23  1  0.24031000  0.64837000  0.94722000  1.0
  H  H24  1  0.22320000  0.79771000  0.54046000  1.0
  H  H25  1  0.77680000  0.70229000  0.04045000  1.0
  H  H26  1  0.77679000  0.20229000  0.45954000  1.0
  H  H27  1  0.22320000  0.29771000  0.95954000  1.0
  H  H28  1  0.17921000  0.68135000  0.45485000  1.0
  H  H29  1  0.82079000  0.81865000  0.95485000  1.0
  H  H30  1  0.82079000  0.31865000  0.54515000  1.0
  H  H31  1  0.17921000  0.18135000  0.04515000  1.0
  C  C32  1  0.00897000  0.87274000  0.66358000  1.0
  C  C33  1  0.99105000  0.62726000  0.16359000  1.0
  C  C34  1  0.99103000  0.12726000  0.33642000  1.0
  C  C35  1  0.00895000  0.37274000  0.83641000  1.0
  C  C36  1  0.63160000  0.68532000  0.70051000  1.0
  C  C37  1  0.36840000  0.81468000  0.20052000  1.0
  C  C38  1  0.36840000  0.31468000  0.29949000  1.0
  C  C39  1  0.63160000  0.18533000  0.79948000  1.0
  C  C40  1  0.68845000  0.71588000  0.78259000  1.0
  C  C41  1  0.31155000  0.78412000  0.28259000  1.0
  C  C42  1  0.31155000  0.28412000  0.21741000  1.0
  C  C43  1  0.68844000  0.21588000  0.71741000  1.0
  C  C44  1  0.90189000  0.82567000  0.80519000  1.0
  C  C45  1  0.09811000  0.67433000  0.30518000  1.0
  C  C46  1  0.09812000  0.17432000  0.19481000  1.0
  C  C47  1  0.90189000  0.32567000  0.69482000  1.0
  N  N48  1  0.05506000  0.89987000  0.74373000  1.0
  N  N49  1  0.94495000  0.60013000  0.24372000  1.0
  N  N50  1  0.94494000  0.10014000  0.25627000  1.0
  N  N51  1  0.05505000  0.39986000  0.75628000  1.0
  N  N52  1  0.79845000  0.76724000  0.64408000  1.0
  N  N53  1  0.20156000  0.73277000  0.14408000  1.0
  N  N54  1  0.20155000  0.23276000  0.35592000  1.0
  N  N55  1  0.79844000  0.26723000  0.85592000  1.0
  O  O56  1  0.15497000  0.94125000  0.61058000  1.0
  O  O57  1  0.84506000  0.55875000  0.11058000  1.0
  O  O58  1  0.84503000  0.05875000  0.38942000  1.0
  O  O59  1  0.15494000  0.44125000  0.88942000  1.0
  O  O60  1  0.44210000  0.59013000  0.67350000  1.0
  O  O61  1  0.55790000  0.90989000  0.17350000  1.0
  O  O62  1  0.55790000  0.40988000  0.32650000  1.0
  O  O63  1  0.44209000  0.09012000  0.82650000  1.0
  O  O64  1  0.97336000  0.86570000  0.87743000  1.0
  O  O65  1  0.02665000  0.63430000  0.37743000  1.0
  O  O66  1  0.02664000  0.13429000  0.12257000  1.0
  O  O67  1  0.97335000  0.36570000  0.62257000  1.0
  O  O68  1  0.31547000  0.26726000  0.52089000  1.0
  O  O69  1  0.68453000  0.23274000  0.02089000  1.0
  O  O70  1  0.68453000  0.73274000  0.47911000  1.0
  O  O71  1  0.31547000  0.76726000  0.97911000  1.0
  O  O72  1  0.26860000  0.70073000  0.50666000  1.0
  O  O73  1  0.73140000  0.79927000  0.00666000  1.0
  O  O74  1  0.73141000  0.29928000  0.49334000  1.0
  O  O75  1  0.26859000  0.20073000  0.99334000  1.0
