# generated using pymatgen
data_ZnSiH12C24(N2F5)2
_symmetry_space_group_name_H-M   'P 1'
_cell_length_a   7.65778000
_cell_length_b   14.04120000
_cell_length_c   14.04110000
_cell_angle_alpha   90.00180000
_cell_angle_beta   89.95400000
_cell_angle_gamma   89.95450000
_symmetry_Int_Tables_number   1
_chemical_formula_structural   ZnSiH12C24(N2F5)2
_chemical_formula_sum   'Zn1 Si1 H12 C24 N4 F10'
_cell_volume   1509.76017779
_cell_formula_units_Z   1
loop_
 _symmetry_equiv_pos_site_id
 _symmetry_equiv_pos_as_xyz
  1  'x, y, z'
loop_
 _atom_site_type_symbol
 _atom_site_label
 _atom_site_symmetry_multiplicity
 _atom_site_fract_x
 _atom_site_fract_y
 _atom_site_fract_z
 _atom_site_occupancy
  Zn  Zn0  1  0.50001000  0.50000000  0.50000000  1.0
  Si  Si1  1  0.00001000  0.50000000  0.50000000  1.0
  H  H2  1  0.23036000  0.66295000  0.50005000  1.0
  H  H3  1  0.21843000  0.83995000  0.50003000  1.0
  H  H4  1  0.77586000  0.66409000  0.49995000  1.0
  H  H5  1  0.22417000  0.33591000  0.50002000  1.0
  H  H6  1  0.76968000  0.33704000  0.50006000  1.0
  H  H7  1  0.78159000  0.16004000  0.50007000  1.0
  H  H8  1  0.23036000  0.50007000  0.66295000  1.0
  H  H9  1  0.21843000  0.50003000  0.83995000  1.0
  H  H10  1  0.77586000  0.49997000  0.66409000  1.0
  H  H11  1  0.22417000  0.50007000  0.33592000  1.0
  H  H12  1  0.76968000  0.49982000  0.33704000  1.0
  H  H13  1  0.78159000  0.49987000  0.16004000  1.0
  C  C14  1  0.35017000  0.70454000  0.50002000  1.0
  C  C15  1  0.34385000  0.80328000  0.50001000  1.0
  C  C16  1  0.50013000  0.85624000  0.50000000  1.0
  C  C17  1  0.65548000  0.80283000  0.49998000  1.0
  C  C18  1  0.65375000  0.70407000  0.49998000  1.0
  C  C19  1  0.50103000  0.95663000  0.50000000  1.0
  C  C20  1  0.49896000  0.04338000  0.50003000  1.0
  C  C21  1  0.49988000  0.14376000  0.50004000  1.0
  C  C22  1  0.34453000  0.19717000  0.50003000  1.0
  C  C23  1  0.34627000  0.29593000  0.50003000  1.0
  C  C24  1  0.64986000  0.29545000  0.50006000  1.0
  C  C25  1  0.65618000  0.19672000  0.50006000  1.0
  C  C26  1  0.35018000  0.50004000  0.70454000  1.0
  C  C27  1  0.34385000  0.50002000  0.80328000  1.0
  C  C28  1  0.50013000  0.50000000  0.85624000  1.0
  C  C29  1  0.65549000  0.49998000  0.80283000  1.0
  C  C30  1  0.65376000  0.49999000  0.70407000  1.0
  C  C31  1  0.50105000  0.49998000  0.95662000  1.0
  C  C32  1  0.49897000  0.49998000  0.04338000  1.0
  C  C33  1  0.49989000  0.49995000  0.14376000  1.0
  C  C34  1  0.34453000  0.50000000  0.19717000  1.0
  C  C35  1  0.34627000  0.50001000  0.29593000  1.0
  C  C36  1  0.64985000  0.49986000  0.29546000  1.0
  C  C37  1  0.65618000  0.49989000  0.19672000  1.0
  N  N38  1  0.50204000  0.65561000  0.50000000  1.0
  N  N39  1  0.49799000  0.34439000  0.50004000  1.0
  N  N40  1  0.50204000  0.50003000  0.65561000  1.0
  N  N41  1  0.49799000  0.49994000  0.34439000  1.0
  F  F42  1  0.22910000  0.50015000  0.50015000  1.0
  F  F43  1  0.77093000  0.49985000  0.49985000  1.0
  F  F44  1  0.00001000  0.58553000  0.41446000  1.0
  F  F45  1  0.00002000  0.41448000  0.58554000  1.0
  F  F46  1  0.99904000  0.58554000  0.58553000  1.0
  F  F47  1  0.00098000  0.41446000  0.41446000  1.0
  F  F48  1  0.81107000  0.84875000  0.49997000  1.0
  F  F49  1  0.18894000  0.15125000  0.50001000  1.0
  F  F50  1  0.81107000  0.49996000  0.84875000  1.0
  F  F51  1  0.18894000  0.50006000  0.15125000  1.0
