# generated using pymatgen
data_TbH10C21NO6
_symmetry_space_group_name_H-M   'P 1'
_cell_length_a   15.42750000
_cell_length_b   15.42750000
_cell_length_c   19.31730000
_cell_angle_alpha   90.00000000
_cell_angle_beta   90.00000000
_cell_angle_gamma   120.00000000
_symmetry_Int_Tables_number   1
_chemical_formula_structural   TbH10C21NO6
_chemical_formula_sum   'Tb6 H60 C126 N6 O36'
_cell_volume   3981.69661916
_cell_formula_units_Z   6
loop_
 _symmetry_equiv_pos_site_id
 _symmetry_equiv_pos_as_xyz
  1  'x, y, z'
loop_
 _atom_site_type_symbol
 _atom_site_label
 _atom_site_symmetry_multiplicity
 _atom_site_fract_x
 _atom_site_fract_y
 _atom_site_fract_z
 _atom_site_occupancy
  Tb  Tb0  1  0.05375000  0.13428000  0.31330000  1.0
  Tb  Tb1  1  0.13428000  0.08053000  0.47997000  1.0
  Tb  Tb2  1  0.08053000  0.94625000  0.64663000  1.0
  Tb  Tb3  1  0.94625000  0.86572000  0.81330000  1.0
  Tb  Tb4  1  0.86572000  0.91947000  0.97997000  1.0
  Tb  Tb5  1  0.91947000  0.05375000  0.14663000  1.0
  H  H6  1  0.91612000  0.06114000  0.56928000  1.0
  H  H7  1  0.06115000  0.14503000  0.73595000  1.0
  H  H8  1  0.14502000  0.08387000  0.90261000  1.0
  H  H9  1  0.08388000  0.93886000  0.06928000  1.0
  H  H10  1  0.93885000  0.85497000  0.23595000  1.0
  H  H11  1  0.85498000  0.91613000  0.40261000  1.0
  H  H12  1  0.78246000  0.14413000  0.40517000  1.0
  H  H13  1  0.14414000  0.36168000  0.57183000  1.0
  H  H14  1  0.36167000  0.21754000  0.73850000  1.0
  H  H15  1  0.21754000  0.85587000  0.90517000  1.0
  H  H16  1  0.85587000  0.63833000  0.07183000  1.0
  H  H17  1  0.63833000  0.78246000  0.23850000  1.0
  H  H18  1  0.65185000  0.13658000  0.48541000  1.0
  H  H19  1  0.13657000  0.48473000  0.65208000  1.0
  H  H20  1  0.48473000  0.34816000  0.81875000  1.0
  H  H21  1  0.34815000  0.86342000  0.98541000  1.0
  H  H22  1  0.86343000  0.51527000  0.15208000  1.0
  H  H23  1  0.51527000  0.65184000  0.31875000  1.0
  H  H24  1  0.88216000  0.02680000  0.71437000  1.0
  H  H25  1  0.02680000  0.14464000  0.88104000  1.0
  H  H26  1  0.14464000  0.11784000  0.04770000  1.0
  H  H27  1  0.11784000  0.97320000  0.21437000  1.0
  H  H28  1  0.97320000  0.85536000  0.38104000  1.0
  H  H29  1  0.85536000  0.88216000  0.54770000  1.0
  H  H30  1  0.66233000  0.01195000  0.85861000  1.0
  H  H31  1  0.01195000  0.34962000  0.02528000  1.0
  H  H32  1  0.34962000  0.33767000  0.19194000  1.0
  H  H33  1  0.33767000  0.98805000  0.35861000  1.0
  H  H34  1  0.98805000  0.65038000  0.52528000  1.0
  H  H35  1  0.65038000  0.66233000  0.69194000  1.0
  H  H36  1  0.57676000  0.05415000  0.76513000  1.0
  H  H37  1  0.05416000  0.47740000  0.93180000  1.0
  H  H38  1  0.47739000  0.42324000  0.09846000  1.0
  H  H39  1  0.42324000  0.94585000  0.26513000  1.0
  H  H40  1  0.94585000  0.52261000  0.43180000  1.0
  H  H41  1  0.52261000  0.57676000  0.59846000  1.0
  H  H42  1  0.46638000  0.94828000  0.66039000  1.0
  H  H43  1  0.94827000  0.48189000  0.82706000  1.0
  H  H44  1  0.48190000  0.53362000  0.99372000  1.0
  H  H45  1  0.53362000  0.05172000  0.16039000  1.0
  H  H46  1  0.05173000  0.51811000  0.32706000  1.0
  H  H47  1  0.51810000  0.46638000  0.49372000  1.0
  H  H48  1  0.30991000  0.95026000  0.63050000  1.0
  H  H49  1  0.95026000  0.64035000  0.79717000  1.0
  H  H50  1  0.64035000  0.69009000  0.96384000  1.0
  H  H51  1  0.69009000  0.04974000  0.13050000  1.0
  H  H52  1  0.04974000  0.35965000  0.29717000  1.0
  H  H53  1  0.35965000  0.30991000  0.46383000  1.0
  H  H54  1  0.48520000  0.24456000  0.54324000  1.0
  H  H55  1  0.24455000  0.75935000  0.70991000  1.0
  H  H56  1  0.75936000  0.51481000  0.87657000  1.0
  H  H57  1  0.51480000  0.75544000  0.04324000  1.0
  H  H58  1  0.75545000  0.24065000  0.20991000  1.0
  H  H59  1  0.24064000  0.48519000  0.37657000  1.0
  H  H60  1  0.64274000  0.24491000  0.57605000  1.0
  H  H61  1  0.24491000  0.60217000  0.74272000  1.0
  H  H62  1  0.60217000  0.35726000  0.90938000  1.0
  H  H63  1  0.35726000  0.75509000  0.07605000  1.0
  H  H64  1  0.75509000  0.39783000  0.24272000  1.0
  H  H65  1  0.39783000  0.64274000  0.40938000  1.0
  C  C66  1  0.85995000  0.07945000  0.55201000  1.0
  C  C67  1  0.07944000  0.21949000  0.71868000  1.0
  C  C68  1  0.21950000  0.14006000  0.88534000  1.0
  C  C69  1  0.14005000  0.92055000  0.05201000  1.0
  C  C70  1  0.92056000  0.78051000  0.21868000  1.0
  C  C71  1  0.78050000  0.85994000  0.38534000  1.0
  C  C72  1  0.85657000  0.10463000  0.48271000  1.0
  C  C73  1  0.10463000  0.24806000  0.64938000  1.0
  C  C74  1  0.24806000  0.14343000  0.81604000  1.0
  C  C75  1  0.14343000  0.89537000  0.98271000  1.0
  C  C76  1  0.89537000  0.75194000  0.14938000  1.0
  C  C77  1  0.75194000  0.85657000  0.31604000  1.0
  C  C78  1  0.78204000  0.12567000  0.45959000  1.0
  C  C79  1  0.12567000  0.34363000  0.62626000  1.0
  C  C80  1  0.34363000  0.21796000  0.79292000  1.0
  C  C81  1  0.21796000  0.87433000  0.95959000  1.0
  C  C82  1  0.87433000  0.65637000  0.12626000  1.0
  C  C83  1  0.65637000  0.78204000  0.29292000  1.0
  C  C84  1  0.71009000  0.12225000  0.50402000  1.0
  C  C85  1  0.12225000  0.41216000  0.67069000  1.0
  C  C86  1  0.41216000  0.28991000  0.83735000  1.0
  C  C87  1  0.28991000  0.87775000  0.00402000  1.0
  C  C88  1  0.87775000  0.58784000  0.17069000  1.0
  C  C89  1  0.58784000  0.71009000  0.33735000  1.0
  C  C90  1  0.71542000  0.09953000  0.57337000  1.0
  C  C91  1  0.09953000  0.38411000  0.74003000  1.0
  C  C92  1  0.38411000  0.28458000  0.90670000  1.0
  C  C93  1  0.28458000  0.90047000  0.07337000  1.0
  C  C94  1  0.90047000  0.61589000  0.24003000  1.0
  C  C95  1  0.61589000  0.71542000  0.40670000  1.0
  C  C96  1  0.78952000  0.07795000  0.59834000  1.0
  C  C97  1  0.07795000  0.28843000  0.76501000  1.0
  C  C98  1  0.28843000  0.21048000  0.93167000  1.0
  C  C99  1  0.21048000  0.92205000  0.09834000  1.0
  C  C100  1  0.92205000  0.71157000  0.26501000  1.0
  C  C101  1  0.71157000  0.78952000  0.43167000  1.0
  C  C102  1  0.76931000  0.05584000  0.67163000  1.0
  C  C103  1  0.05583000  0.28652000  0.83830000  1.0
  C  C104  1  0.28653000  0.23069000  0.00496000  1.0
  C  C105  1  0.23069000  0.94416000  0.17163000  1.0
  C  C106  1  0.94417000  0.71348000  0.33830000  1.0
  C  C107  1  0.71347000  0.76931000  0.50496000  1.0
  C  C108  1  0.81604000  0.03287000  0.72461000  1.0
  C  C109  1  0.03287000  0.21683000  0.89128000  1.0
  C  C110  1  0.21683000  0.18396000  0.05794000  1.0
  C  C111  1  0.18396000  0.96713000  0.22461000  1.0
  C  C112  1  0.96713000  0.78317000  0.39128000  1.0
  C  C113  1  0.78317000  0.81604000  0.55794000  1.0
  C  C114  1  0.77610000  0.01703000  0.79162000  1.0
  C  C115  1  0.01703000  0.24093000  0.95829000  1.0
  C  C116  1  0.24094000  0.22390000  0.12495000  1.0
  C  C117  1  0.22390000  0.98297000  0.29162000  1.0
  C  C118  1  0.98296000  0.75906000  0.45829000  1.0
  C  C119  1  0.75906000  0.77610000  0.62495000  1.0
  C  C120  1  0.69021000  0.02466000  0.80565000  1.0
  C  C121  1  0.02466000  0.33445000  0.97232000  1.0
  C  C122  1  0.33445000  0.30979000  0.13898000  1.0
  C  C123  1  0.30979000  0.97534000  0.30565000  1.0
  C  C124  1  0.97534000  0.66555000  0.47232000  1.0
  C  C125  1  0.66555000  0.69021000  0.63898000  1.0
  C  C126  1  0.64256000  0.04775000  0.75400000  1.0
  C  C127  1  0.04774000  0.40518000  0.92067000  1.0
  C  C128  1  0.40518000  0.35744000  0.08733000  1.0
  C  C129  1  0.35744000  0.95225000  0.25400000  1.0
  C  C130  1  0.95226000  0.59482000  0.42067000  1.0
  C  C131  1  0.59482000  0.64256000  0.58733000  1.0
  C  C132  1  0.68275000  0.06306000  0.68728000  1.0
  C  C133  1  0.06306000  0.38031000  0.85395000  1.0
  C  C134  1  0.38031000  0.31725000  0.02062000  1.0
  C  C135  1  0.31725000  0.93694000  0.18729000  1.0
  C  C136  1  0.93694000  0.61969000  0.35395000  1.0
  C  C137  1  0.61969000  0.68275000  0.52062000  1.0
  C  C138  1  0.56331000  0.09550000  0.61839000  1.0
  C  C139  1  0.09549000  0.53218000  0.78506000  1.0
  C  C140  1  0.53219000  0.43670000  0.95172000  1.0
  C  C141  1  0.43670000  0.90451000  0.11839000  1.0
  C  C142  1  0.90451000  0.46781000  0.28506000  1.0
  C  C143  1  0.46781000  0.56330000  0.45172000  1.0
  C  C144  1  0.47000000  0.01358000  0.63576000  1.0
  C  C145  1  0.01359000  0.54359000  0.80243000  1.0
  C  C146  1  0.54358000  0.52999000  0.96909000  1.0
  C  C147  1  0.53000000  0.98642000  0.13576000  1.0
  C  C148  1  0.98641000  0.45641000  0.30243000  1.0
  C  C149  1  0.45642000  0.47001000  0.46909000  1.0
  C  C150  1  0.38281000  0.01428000  0.61834000  1.0
  C  C151  1  0.01428000  0.63147000  0.78501000  1.0
  C  C152  1  0.63147000  0.61719000  0.95167000  1.0
  C  C153  1  0.61719000  0.98572000  0.11834000  1.0
  C  C154  1  0.98572000  0.36853000  0.28501000  1.0
  C  C155  1  0.36853000  0.38281000  0.45167000  1.0
  C  C156  1  0.38843000  0.09647000  0.58325000  1.0
  C  C157  1  0.09647000  0.70804000  0.74992000  1.0
  C  C158  1  0.70804000  0.61157000  0.91658000  1.0
  C  C159  1  0.61157000  0.90353000  0.08325000  1.0
  C  C160  1  0.90353000  0.29196000  0.24992000  1.0
  C  C161  1  0.29196000  0.38843000  0.41658000  1.0
  C  C162  1  0.48214000  0.18046000  0.56934000  1.0
  C  C163  1  0.18046000  0.69832000  0.73601000  1.0
  C  C164  1  0.69832000  0.51786000  0.90267000  1.0
  C  C165  1  0.51786000  0.81954000  0.06934000  1.0
  C  C166  1  0.81954000  0.30168000  0.23601000  1.0
  C  C167  1  0.30168000  0.48214000  0.40267000  1.0
  C  C168  1  0.56947000  0.18052000  0.58725000  1.0
  C  C169  1  0.18052000  0.61106000  0.75392000  1.0
  C  C170  1  0.61105000  0.43053000  0.92058000  1.0
  C  C171  1  0.43053000  0.81948000  0.08725000  1.0
  C  C172  1  0.81948000  0.38894000  0.25392000  1.0
  C  C173  1  0.38895000  0.56947000  0.42058000  1.0
  C  C174  1  0.92839000  0.11123000  0.42958000  1.0
  C  C175  1  0.11123000  0.18284000  0.59625000  1.0
  C  C176  1  0.18284000  0.07160000  0.76291000  1.0
  C  C177  1  0.07161000  0.88877000  0.92958000  1.0
  C  C178  1  0.88877000  0.81716000  0.09625000  1.0
  C  C179  1  0.81716000  0.92840000  0.26291000  1.0
  C  C180  1  0.82139000  0.99117000  0.84974000  1.0
  C  C181  1  0.99117000  0.16978000  0.01641000  1.0
  C  C182  1  0.16978000  0.17861000  0.18307000  1.0
  C  C183  1  0.17861000  0.00883000  0.34974000  1.0
  C  C184  1  0.00883000  0.83022000  0.51641000  1.0
  C  C185  1  0.83022000  0.82139000  0.68307000  1.0
  C  C186  1  0.29682000  0.09366000  0.55675000  1.0
  C  C187  1  0.09366000  0.79684000  0.72342000  1.0
  C  C188  1  0.79684000  0.70318000  0.89008000  1.0
  C  C189  1  0.70318000  0.90634000  0.05675000  1.0
  C  C190  1  0.90634000  0.20316000  0.22342000  1.0
  C  C191  1  0.20316000  0.29682000  0.39008000  1.0
  N  N192  1  0.65175000  0.09022000  0.62757000  1.0
  N  N193  1  0.09021000  0.43846000  0.79424000  1.0
  N  N194  1  0.43847000  0.34825000  0.96090000  1.0
  N  N195  1  0.34825000  0.90978000  0.12757000  1.0
  N  N196  1  0.90979000  0.56154000  0.29424000  1.0
  N  N197  1  0.56153000  0.65175000  0.46090000  1.0
  O  O198  1  0.92624000  0.14608000  0.37053000  1.0
  O  O199  1  0.14608000  0.21984000  0.53720000  1.0
  O  O200  1  0.21984000  0.07376000  0.70386000  1.0
  O  O201  1  0.07376000  0.85392000  0.87053000  1.0
  O  O202  1  0.85392000  0.78016000  0.03720000  1.0
  O  O203  1  0.78016000  0.92624000  0.20386000  1.0
  O  O204  1  0.99158000  0.08025000  0.44081000  1.0
  O  O205  1  0.08025000  0.08867000  0.60748000  1.0
  O  O206  1  0.08867000  0.00842000  0.77414000  1.0
  O  O207  1  0.00842000  0.91975000  0.94081000  1.0
  O  O208  1  0.91975000  0.91133000  0.10748000  1.0
  O  O209  1  0.91133000  0.99158000  0.27414000  1.0
  O  O210  1  0.89875000  0.98068000  0.83964000  1.0
  O  O211  1  0.98068000  0.08193000  0.00632000  1.0
  O  O212  1  0.08193000  0.10125000  0.17297000  1.0
  O  O213  1  0.10125000  0.01932000  0.33964000  1.0
  O  O214  1  0.01932000  0.91807000  0.50632000  1.0
  O  O215  1  0.91807000  0.89875000  0.67297000  1.0
  O  O216  1  0.78392000  0.97972000  0.90992000  1.0
  O  O217  1  0.97972000  0.19581000  0.07659000  1.0
  O  O218  1  0.19581000  0.21609000  0.24325000  1.0
  O  O219  1  0.21608000  0.02028000  0.40992000  1.0
  O  O220  1  0.02028000  0.80419000  0.57659000  1.0
  O  O221  1  0.80419000  0.78391000  0.74325000  1.0
  O  O222  1  0.21025000  0.01360000  0.56459000  1.0
  O  O223  1  0.01360000  0.80335000  0.73126000  1.0
  O  O224  1  0.80335000  0.78975000  0.89793000  1.0
  O  O225  1  0.78975000  0.98640000  0.06459000  1.0
  O  O226  1  0.98640000  0.19665000  0.23126000  1.0
  O  O227  1  0.19665000  0.21025000  0.39793000  1.0
  O  O228  1  0.30310000  0.16712000  0.52317000  1.0
  O  O229  1  0.16712000  0.86402000  0.68984000  1.0
  O  O230  1  0.86402000  0.69690000  0.85650000  1.0
  O  O231  1  0.69690000  0.83288000  0.02317000  1.0
  O  O232  1  0.83288000  0.13598000  0.18984000  1.0
  O  O233  1  0.13598000  0.30310000  0.35650000  1.0
