# generated using pymatgen
data_Zr3H38C63N3O16
_symmetry_space_group_name_H-M   'P 1'
_cell_length_a   17.23050000
_cell_length_b   17.25570000
_cell_length_c   17.26260000
_cell_angle_alpha   91.76870000
_cell_angle_beta   91.76400000
_cell_angle_gamma   91.94240000
_symmetry_Int_Tables_number   1
_chemical_formula_structural   Zr3H38C63N3O16
_chemical_formula_sum   'Zr6 H76 C126 N6 O32'
_cell_volume   5124.59481229
_cell_formula_units_Z   2
loop_
 _symmetry_equiv_pos_site_id
 _symmetry_equiv_pos_as_xyz
  1  'x, y, z'
loop_
 _atom_site_type_symbol
 _atom_site_label
 _atom_site_symmetry_multiplicity
 _atom_site_fract_x
 _atom_site_fract_y
 _atom_site_fract_z
 _atom_site_occupancy
  Zr  Zr0  1  0.84449000  0.80775000  0.95304000  1.0
  Zr  Zr1  1  0.00660000  0.75491000  0.84467000  1.0
  Zr  Zr2  1  0.92594000  0.99794000  0.98088000  1.0
  Zr  Zr3  1  0.89749000  0.91602000  0.79080000  1.0
  Zr  Zr4  1  0.03544000  0.83751000  0.03389000  1.0
  Zr  Zr5  1  0.08757000  0.94590000  0.87215000  1.0
  H  H6  1  0.58995000  0.14627000  0.25601000  1.0
  H  H7  1  0.43804000  0.15953000  0.23346000  1.0
  H  H8  1  0.34204000  0.61294000  0.56785000  1.0
  H  H9  1  0.49359000  0.60062000  0.59372000  1.0
  H  H10  1  0.23862000  0.21874000  0.53289000  1.0
  H  H11  1  0.25280000  0.19984000  0.38074000  1.0
  H  H12  1  0.70474000  0.52712000  0.29095000  1.0
  H  H13  1  0.69119000  0.55033000  0.44266000  1.0
  H  H14  1  0.30991000  0.49789000  0.18457000  1.0
  H  H15  1  0.28977000  0.34565000  0.19844000  1.0
  H  H16  1  0.61595000  0.25453000  0.64970000  1.0
  H  H17  1  0.63939000  0.40636000  0.63609000  1.0
  H  H18  1  0.84865000  0.75838000  0.79546000  1.0
  H  H19  1  0.89882000  0.88589000  0.09568000  1.0
  H  H20  1  0.97488000  0.05960000  0.84423000  1.0
  H  H21  1  0.14981000  0.80978000  0.92128000  1.0
  H  H22  1  0.59050000  0.13270000  0.71751000  1.0
  H  H23  1  0.66838000  0.28475000  0.90988000  1.0
  H  H24  1  0.76832000  0.19114000  0.94616000  1.0
  H  H25  1  0.69730000  0.04397000  0.75010000  1.0
  H  H26  1  0.71256000  0.49751000  0.67532000  1.0
  H  H27  1  0.63034000  0.48194000  0.90897000  1.0
  H  H28  1  0.73513000  0.57475000  0.95385000  1.0
  H  H29  1  0.82193000  0.58161000  0.72319000  1.0
  H  H30  1  0.20688000  0.17249000  0.87916000  1.0
  H  H31  1  0.10943000  0.16948000  0.10521000  1.0
  H  H32  1  0.21569000  0.25602000  0.15631000  1.0
  H  H33  1  0.30871000  0.26731000  0.92662000  1.0
  H  H34  1  0.33280000  0.61997000  0.11668000  1.0
  H  H35  1  0.26248000  0.46525000  0.92380000  1.0
  H  H36  1  0.16041000  0.55578000  0.88513000  1.0
  H  H37  1  0.22419000  0.70546000  0.08166000  1.0
  H  H38  1  0.43007000  0.27164000  0.00595000  1.0
  H  H39  1  0.39682000  0.50030000  0.91922000  1.0
  H  H40  1  0.50293000  0.48235000  0.83122000  1.0
  H  H41  1  0.53578000  0.25351000  0.91780000  1.0
  H  H42  1  0.96501000  0.57945000  0.32118000  1.0
  H  H43  1  0.77264000  0.50084000  0.16901000  1.0
  H  H44  1  0.80523000  0.60780000  0.08009000  1.0
  H  H45  1  0.00113000  0.67971000  0.22754000  1.0
  H  H46  1  0.96539000  0.54487000  0.51392000  1.0
  H  H47  1  0.72903000  0.61686000  0.53923000  1.0
  H  H48  1  0.77606000  0.72681000  0.62269000  1.0
  H  H49  1  0.00984000  0.64944000  0.60688000  1.0
  H  H50  1  0.93308000  0.11757000  0.20764000  1.0
  H  H51  1  0.15978000  0.02159000  0.20375000  1.0
  H  H52  1  0.21106000  0.12759000  0.29011000  1.0
  H  H53  1  0.98060000  0.21880000  0.30276000  1.0
  H  H54  1  0.97748000  0.17202000  0.49950000  1.0
  H  H55  1  0.17022000  0.24204000  0.65489000  1.0
  H  H56  1  0.13422000  0.13363000  0.74052000  1.0
  H  H57  1  0.93795000  0.06993000  0.58992000  1.0
  H  H58  1  0.97471000  0.30745000  0.53618000  1.0
  H  H59  1  0.05955000  0.34055000  0.30665000  1.0
  H  H60  1  0.97180000  0.44641000  0.28928000  1.0
  H  H61  1  0.88718000  0.41381000  0.51902000  1.0
  H  H62  1  0.27846000  0.91303000  0.70988000  1.0
  H  H63  1  0.13259000  0.71324000  0.64677000  1.0
  H  H64  1  0.22070000  0.67849000  0.53997000  1.0
  H  H65  1  0.37117000  0.87543000  0.60934000  1.0
  H  H66  1  0.59723000  0.63754000  0.65037000  1.0
  H  H67  1  0.55854000  0.87467000  0.58858000  1.0
  H  H68  1  0.65199000  0.91955000  0.69255000  1.0
  H  H69  1  0.68034000  0.68421000  0.76067000  1.0
  H  H70  1  0.25334000  0.07276000  0.06343000  1.0
  H  H71  1  0.27197000  0.84028000  0.14266000  1.0
  H  H72  1  0.36788000  0.88573000  0.24405000  1.0
  H  H73  1  0.33918000  0.12118000  0.17106000  1.0
  H  H74  1  0.71149000  0.07979000  0.27906000  1.0
  H  H75  1  0.55815000  0.88368000  0.21408000  1.0
  H  H76  1  0.64735000  0.84559000  0.11053000  1.0
  H  H77  1  0.79581000  0.04487000  0.16941000  1.0
  H  H78  1  0.59483000  0.89089000  0.35326000  1.0
  H  H79  1  0.35672000  0.95820000  0.36818000  1.0
  H  H80  1  0.33778000  0.86941000  0.47274000  1.0
  H  H81  1  0.57605000  0.80245000  0.45849000  1.0
  C  C82  1  0.56040000  0.02577000  0.28419000  1.0
  C  C83  1  0.54595000  0.10292000  0.27015000  1.0
  C  C84  1  0.46512000  0.10935000  0.25746000  1.0
  C  C85  1  0.42936000  0.03639000  0.26387000  1.0
  C  C86  1  0.37169000  0.73341000  0.53974000  1.0
  C  C87  1  0.38614000  0.65640000  0.55435000  1.0
  C  C88  1  0.46679000  0.65041000  0.56861000  1.0
  C  C89  1  0.50248000  0.72344000  0.56246000  1.0
  C  C90  1  0.11776000  0.24590000  0.50379000  1.0
  C  C91  1  0.19520000  0.23306000  0.48922000  1.0
  C  C92  1  0.20210000  0.22228000  0.40829000  1.0
  C  C93  1  0.12911000  0.22868000  0.37271000  1.0
  C  C94  1  0.82628000  0.50319000  0.32021000  1.0
  C  C95  1  0.74866000  0.51482000  0.33486000  1.0
  C  C96  1  0.74209000  0.52781000  0.41553000  1.0
  C  C97  1  0.81541000  0.52385000  0.45098000  1.0
  C  C98  1  0.33642000  0.46895000  0.06364000  1.0
  C  C99  1  0.32371000  0.45421000  0.14100000  1.0
  C  C100  1  0.31216000  0.37330000  0.14771000  1.0
  C  C101  1  0.31797000  0.33786000  0.07470000  1.0
  C  C102  1  0.59242000  0.28377000  0.77129000  1.0
  C  C103  1  0.60398000  0.29840000  0.69373000  1.0
  C  C104  1  0.61715000  0.37913000  0.68710000  1.0
  C  C105  1  0.61345000  0.41460000  0.76030000  1.0
  C  C106  1  0.76737000  0.93415000  0.05872000  1.0
  C  C107  1  0.84864000  0.64018000  0.87150000  1.0
  C  C108  1  0.72942000  0.83394000  0.79600000  1.0
  C  C109  1  0.91204000  0.72386000  0.10630000  1.0
  C  C110  1  0.15949000  0.82247000  0.75931000  1.0
  C  C111  1  0.08919000  0.10906000  0.95743000  1.0
  C  C112  1  0.92502000  0.75811000  0.67709000  1.0
  C  C113  1  0.11260000  0.67842000  0.97156000  1.0
  C  C114  1  0.01175000  0.00068000  0.14381000  1.0
  C  C115  1  0.81275000  0.06965000  0.85727000  1.0
  C  C116  1  0.02419000  0.02195000  0.71296000  1.0
  C  C117  1  0.19925000  0.92330000  0.03475000  1.0
  C  C118  1  0.62935000  0.14561000  0.76766000  1.0
  C  C119  1  0.62432000  0.21699000  0.80907000  1.0
  C  C120  1  0.67157000  0.23006000  0.87704000  1.0
  C  C121  1  0.72887000  0.17889000  0.89641000  1.0
  C  C122  1  0.74136000  0.11437000  0.84763000  1.0
  C  C123  1  0.68860000  0.09609000  0.78556000  1.0
  C  C124  1  0.71646000  0.51363000  0.73686000  1.0
  C  C125  1  0.66222000  0.48154000  0.78814000  1.0
  C  C126  1  0.67042000  0.50498000  0.86712000  1.0
  C  C127  1  0.73065000  0.55574000  0.89305000  1.0
  C  C128  1  0.78734000  0.58231000  0.84250000  1.0
  C  C129  1  0.77919000  0.56072000  0.76365000  1.0
  C  C130  1  0.20854000  0.19265000  0.93965000  1.0
  C  C131  1  0.14991000  0.16646000  0.98819000  1.0
  C  C132  1  0.15398000  0.19003000  0.06664000  1.0
  C  C133  1  0.21488000  0.23842000  0.09518000  1.0
  C  C134  1  0.27129000  0.26989000  0.04578000  1.0
  C  C135  1  0.26701000  0.24470000  0.96712000  1.0
  C  C136  1  0.29504000  0.60570000  0.06603000  1.0
  C  C137  1  0.30286000  0.53446000  0.02504000  1.0
  C  C138  1  0.25703000  0.51979000  0.95636000  1.0
  C  C139  1  0.19856000  0.56920000  0.93564000  1.0
  C  C140  1  0.18353000  0.63352000  0.98373000  1.0
  C  C141  1  0.23472000  0.65336000  0.04679000  1.0
  C  C142  1  0.44491000  0.31797000  0.96694000  1.0
  C  C143  1  0.40296000  0.38634000  0.96884000  1.0
  C  C144  1  0.42632000  0.44557000  0.91964000  1.0
  C  C145  1  0.48788000  0.43591000  0.87003000  1.0
  C  C146  1  0.52937000  0.36726000  0.86763000  1.0
  C  C147  1  0.50632000  0.30822000  0.91725000  1.0
  C  C148  1  0.93214000  0.58258000  0.26648000  1.0
  C  C149  1  0.86413000  0.53515000  0.25338000  1.0
  C  C150  1  0.82271000  0.53999000  0.18194000  1.0
  C  C151  1  0.84057000  0.59929000  0.13237000  1.0
  C  C152  1  0.90258000  0.65230000  0.15079000  1.0
  C  C153  1  0.95144000  0.64000000  0.21531000  1.0
  C  C154  1  0.92290000  0.58270000  0.53916000  1.0
  C  C155  1  0.84331000  0.57191000  0.51819000  1.0
  C  C156  1  0.79111000  0.62324000  0.55294000  1.0
  C  C157  1  0.81735000  0.68614000  0.59983000  1.0
  C  C158  1  0.89670000  0.69697000  0.61892000  1.0
  C  C159  1  0.94845000  0.64285000  0.59000000  1.0
  C  C160  1  0.99376000  0.11950000  0.22752000  1.0
  C  C161  1  0.04248000  0.06139000  0.20102000  1.0
  C  C162  1  0.12112000  0.06582000  0.22439000  1.0
  C  C163  1  0.14972000  0.12657000  0.27274000  1.0
  C  C164  1  0.10017000  0.18237000  0.30459000  1.0
  C  C165  1  0.02130000  0.17773000  0.27970000  1.0
  C  C166  1  0.00978000  0.16655000  0.55422000  1.0
  C  C167  1  0.07868000  0.21226000  0.56914000  1.0
  C  C168  1  0.11937000  0.20439000  0.64051000  1.0
  C  C169  1  0.09960000  0.14414000  0.68822000  1.0
  C  C170  1  0.03640000  0.09298000  0.66815000  1.0
  C  C171  1  0.98857000  0.10809000  0.60359000  1.0
  C  C172  1  0.97484000  0.33697000  0.48144000  1.0
  C  C173  1  0.02337000  0.31344000  0.42172000  1.0
  C  C174  1  0.02108000  0.35546000  0.35337000  1.0
  C  C175  1  0.97165000  0.41699000  0.34407000  1.0
  C  C176  1  0.92267000  0.44012000  0.40351000  1.0
  C  C177  1  0.92549000  0.39870000  0.47221000  1.0
  C  C178  1  0.26634000  0.86202000  0.67208000  1.0
  C  C179  1  0.20270000  0.81260000  0.68709000  1.0
  C  C180  1  0.18428000  0.74903000  0.63623000  1.0
  C  C181  1  0.23341000  0.72996000  0.57703000  1.0
  C  C182  1  0.30454000  0.77189000  0.57016000  1.0
  C  C183  1  0.31708000  0.84170000  0.61464000  1.0
  C  C184  1  0.60768000  0.69988000  0.65917000  1.0
  C  C185  1  0.56945000  0.75218000  0.61056000  1.0
  C  C186  1  0.58684000  0.83212000  0.62409000  1.0
  C  C187  1  0.63788000  0.85778000  0.68407000  1.0
  C  C188  1  0.67037000  0.80551000  0.73560000  1.0
  C  C189  1  0.65458000  0.72591000  0.72220000  1.0
  C  C190  1  0.27743000  0.03216000  0.10400000  1.0
  C  C191  1  0.25792000  0.95288000  0.09476000  1.0
  C  C192  1  0.28867000  0.90170000  0.14840000  1.0
  C  C193  1  0.34113000  0.92790000  0.20692000  1.0
  C  C194  1  0.36167000  0.00758000  0.21682000  1.0
  C  C195  1  0.32574000  0.05908000  0.16556000  1.0
  C  C196  1  0.69717000  0.02862000  0.24206000  1.0
  C  C197  1  0.62623000  0.98700000  0.25128000  1.0
  C  C198  1  0.61200000  0.91728000  0.20697000  1.0
  C  C199  1  0.66069000  0.89679000  0.14776000  1.0
  C  C200  1  0.72396000  0.94587000  0.13071000  1.0
  C  C201  1  0.74414000  0.00947000  0.18108000  1.0
  C  C202  1  0.53782000  0.88681000  0.37845000  1.0
  C  C203  1  0.47659000  0.93094000  0.35013000  1.0
  C  C204  1  0.40521000  0.92356000  0.38674000  1.0
  C  C205  1  0.39483000  0.87348000  0.44767000  1.0
  C  C206  1  0.45596000  0.82916000  0.47588000  1.0
  C  C207  1  0.52752000  0.83690000  0.43961000  1.0
  N  N208  1  0.48756000  0.98642000  0.29102000  1.0
  N  N209  1  0.44450000  0.77318000  0.53444000  1.0
  N  N210  1  0.07854000  0.25387000  0.43137000  1.0
  N  N211  1  0.86629000  0.49843000  0.39275000  1.0
  N  N212  1  0.34358000  0.39648000  0.02423000  1.0
  N  N213  1  0.58773000  0.35635000  0.81121000  1.0
  O  O214  1  0.81062000  0.99072000  0.03836000  1.0
  O  O215  1  0.91512000  0.64501000  0.84184000  1.0
  O  O216  1  0.73480000  0.80415000  0.86221000  1.0
  O  O217  1  0.85489000  0.74157000  0.06262000  1.0
  O  O218  1  0.97588000  0.76434000  0.11661000  1.0
  O  O219  1  0.77556000  0.88722000  0.77131000  1.0
  O  O220  1  0.82487000  0.68607000  0.92527000  1.0
  O  O221  1  0.75945000  0.86809000  0.02198000  1.0
  O  O222  1  0.96169000  0.78196000  0.95116000  1.0
  O  O223  1  0.87110000  0.91441000  0.90762000  1.0
  O  O224  1  0.88212000  0.79197000  0.82894000  1.0
  O  O225  1  0.91534000  0.88359000  0.04247000  1.0
  O  O226  1  0.11635000  0.76525000  0.77843000  1.0
  O  O227  1  0.02304000  0.10319000  0.98735000  1.0
  O  O228  1  0.89481000  0.82414000  0.68194000  1.0
  O  O229  1  0.09349000  0.72275000  0.02755000  1.0
  O  O230  1  0.04195000  0.93480000  0.13812000  1.0
  O  O231  1  0.83051000  0.02555000  0.80051000  1.0
  O  O232  1  0.08055000  0.00277000  0.75687000  1.0
  O  O233  1  0.19297000  0.95348000  0.96893000  1.0
  O  O234  1  0.95810000  0.98486000  0.70545000  1.0
  O  O235  1  0.15621000  0.86652000  0.05818000  1.0
  O  O236  1  0.97869000  0.73444000  0.72318000  1.0
  O  O237  1  0.85304000  0.08019000  0.92103000  1.0
  O  O238  1  0.95424000  0.02303000  0.10133000  1.0
  O  O239  1  0.07558000  0.67048000  0.90567000  1.0
  O  O240  1  0.17025000  0.88650000  0.79911000  1.0
  O  O241  1  0.11189000  0.06658000  0.90009000  1.0
  O  O242  1  0.03013000  0.94106000  0.97602000  1.0
  O  O243  1  0.00442000  0.87168000  0.81765000  1.0
  O  O244  1  0.97270000  0.00646000  0.86101000  1.0
  O  O245  1  0.09658000  0.82641000  0.91941000  1.0
