# generated using pymatgen
data_CdH10C13S(NO)4
_symmetry_space_group_name_H-M   'P 1'
_cell_length_a   10.85510000
_cell_length_b   15.29170000
_cell_length_c   19.75920000
_cell_angle_alpha   89.99990000
_cell_angle_beta   94.22840000
_cell_angle_gamma   90.00000000
_symmetry_Int_Tables_number   1
_chemical_formula_structural   CdH10C13S(NO)4
_chemical_formula_sum   'Cd8 H80 C104 S8 N32 O32'
_cell_volume   3270.95987340
_cell_formula_units_Z   8
loop_
 _symmetry_equiv_pos_site_id
 _symmetry_equiv_pos_as_xyz
  1  'x, y, z'
loop_
 _atom_site_type_symbol
 _atom_site_label
 _atom_site_symmetry_multiplicity
 _atom_site_fract_x
 _atom_site_fract_y
 _atom_site_fract_z
 _atom_site_occupancy
  Cd  Cd0  1  0.17507000  0.41555000  0.70230000  1.0
  Cd  Cd1  1  0.82492000  0.91555000  0.79770000  1.0
  Cd  Cd2  1  0.82493000  0.58445000  0.29770000  1.0
  Cd  Cd3  1  0.17508000  0.08445000  0.20230000  1.0
  Cd  Cd4  1  0.17790000  0.58645000  0.84024000  1.0
  Cd  Cd5  1  0.82209000  0.08646000  0.65976000  1.0
  Cd  Cd6  1  0.82210000  0.41354000  0.15976000  1.0
  Cd  Cd7  1  0.17791000  0.91354000  0.34024000  1.0
  H  H8  1  0.15792000  0.54518000  0.57489000  1.0
  H  H9  1  0.84208000  0.04518000  0.92511000  1.0
  H  H10  1  0.84208000  0.45482000  0.42511000  1.0
  H  H11  1  0.15793000  0.95482000  0.07488000  1.0
  H  H12  1  0.13407000  0.63243000  0.45971000  1.0
  H  H13  1  0.86592000  0.13242000  0.04029000  1.0
  H  H14  1  0.86592000  0.36758000  0.54029000  1.0
  H  H15  1  0.13408000  0.86757000  0.95971000  1.0
  H  H16  1  0.13907000  0.45093000  0.96304000  1.0
  H  H17  1  0.86093000  0.95093000  0.53696000  1.0
  H  H18  1  0.86093000  0.54907000  0.03696000  1.0
  H  H19  1  0.13907000  0.04907000  0.46304000  1.0
  H  H20  1  0.13361000  0.35981000  0.07614000  1.0
  H  H21  1  0.86639000  0.85981000  0.42386000  1.0
  H  H22  1  0.86639000  0.64019000  0.92386000  1.0
  H  H23  1  0.13361000  0.14019000  0.57614000  1.0
  H  H24  1  0.95320000  0.57185000  0.63884000  1.0
  H  H25  1  0.04680000  0.07185000  0.86116000  1.0
  H  H26  1  0.04680000  0.42815000  0.36115000  1.0
  H  H27  1  0.95320000  0.92815000  0.13885000  1.0
  H  H28  1  0.71089000  0.52183000  0.60499000  1.0
  H  H29  1  0.28911000  0.02183000  0.89501000  1.0
  H  H30  1  0.28911000  0.47817000  0.39501000  1.0
  H  H31  1  0.71089000  0.97817000  0.10499000  1.0
  H  H32  1  0.90536000  0.31048000  0.70187000  1.0
  H  H33  1  0.09464000  0.81048000  0.79813000  1.0
  H  H34  1  0.09464000  0.68952000  0.29813000  1.0
  H  H35  1  0.90537000  0.18953000  0.20187000  1.0
  H  H36  1  0.63440000  0.34864000  0.58842000  1.0
  H  H37  1  0.36561000  0.84864000  0.91158000  1.0
  H  H38  1  0.36560000  0.65136000  0.41158000  1.0
  H  H39  1  0.63440000  0.15136000  0.08842000  1.0
  H  H40  1  0.70337000  0.27703000  0.65137000  1.0
  H  H41  1  0.29663000  0.77703000  0.84863000  1.0
  H  H42  1  0.29663000  0.72297000  0.34864000  1.0
  H  H43  1  0.70337000  0.22297000  0.15137000  1.0
  H  H44  1  0.65170000  0.31818000  0.78048000  1.0
  H  H45  1  0.34830000  0.81818000  0.71952000  1.0
  H  H46  1  0.34830000  0.68182000  0.21952000  1.0
  H  H47  1  0.65170000  0.18182000  0.28048000  1.0
  H  H48  1  0.42124000  0.37319000  0.82119000  1.0
  H  H49  1  0.57876000  0.87319000  0.67881000  1.0
  H  H50  1  0.57876000  0.62681000  0.17881000  1.0
  H  H51  1  0.42124000  0.12681000  0.32119000  1.0
  H  H52  1  0.43030000  0.41401000  0.61074000  1.0
  H  H53  1  0.56971000  0.91401000  0.88925000  1.0
  H  H54  1  0.56971000  0.58599000  0.38926000  1.0
  H  H55  1  0.43029000  0.08599000  0.11074000  1.0
  H  H56  1  0.91829000  0.69061000  0.77279000  1.0
  H  H57  1  0.08171000  0.19061000  0.72721000  1.0
  H  H58  1  0.08171000  0.30938000  0.22721000  1.0
  H  H59  1  0.91830000  0.80938000  0.27279000  1.0
  H  H60  1  0.93725000  0.44163000  0.86621000  1.0
  H  H61  1  0.06275000  0.94163000  0.63379000  1.0
  H  H62  1  0.06275000  0.55837000  0.13379000  1.0
  H  H63  1  0.93725000  0.05837000  0.36621000  1.0
  H  H64  1  0.69220000  0.47974000  0.82681000  1.0
  H  H65  1  0.30780000  0.97974000  0.67319000  1.0
  H  H66  1  0.30780000  0.52025000  0.17319000  1.0
  H  H67  1  0.69220000  0.02026000  0.32681000  1.0
  H  H68  1  0.69593000  0.71378000  0.75544000  1.0
  H  H69  1  0.30407000  0.21378000  0.74456000  1.0
  H  H70  1  0.30407000  0.28622000  0.24456000  1.0
  H  H71  1  0.69593000  0.78622000  0.25544000  1.0
  H  H72  1  0.63386000  0.61776000  0.71403000  1.0
  H  H73  1  0.36614000  0.11776000  0.78597000  1.0
  H  H74  1  0.36614000  0.38224000  0.28597000  1.0
  H  H75  1  0.63386000  0.88224000  0.21403000  1.0
  H  H76  1  0.42832000  0.57189000  0.74458000  1.0
  H  H77  1  0.57168000  0.07189000  0.75542000  1.0
  H  H78  1  0.57168000  0.42811000  0.25542000  1.0
  H  H79  1  0.42832000  0.92811000  0.24458000  1.0
  H  H80  1  0.42654000  0.65510000  0.94771000  1.0
  H  H81  1  0.57346000  0.15510000  0.55229000  1.0
  H  H82  1  0.57346000  0.34490000  0.05229000  1.0
  H  H83  1  0.42654000  0.84490000  0.44771000  1.0
  H  H84  1  0.65253000  0.70203000  0.89775000  1.0
  H  H85  1  0.34748000  0.20203000  0.60225000  1.0
  H  H86  1  0.34747000  0.29796000  0.10225000  1.0
  H  H87  1  0.65253000  0.79797000  0.39775000  1.0
  C  C88  1  0.18864000  0.65040000  0.69965000  1.0
  C  C89  1  0.81136000  0.15040000  0.80035000  1.0
  C  C90  1  0.81136000  0.34960000  0.30034000  1.0
  C  C91  1  0.18864000  0.84960000  0.19965000  1.0
  C  C92  1  0.17874000  0.67177000  0.62668000  1.0
  C  C93  1  0.82126000  0.17176000  0.87332000  1.0
  C  C94  1  0.82126000  0.32824000  0.37332000  1.0
  C  C95  1  0.17874000  0.82823000  0.12668000  1.0
  C  C96  1  0.16206000  0.61625000  0.57119000  1.0
  C  C97  1  0.83794000  0.11625000  0.92881000  1.0
  C  C98  1  0.83794000  0.38375000  0.42881000  1.0
  C  C99  1  0.16206000  0.88375000  0.07119000  1.0
  C  C100  1  0.15170000  0.66250000  0.50928000  1.0
  C  C101  1  0.84830000  0.16250000  0.99072000  1.0
  C  C102  1  0.84829000  0.33750000  0.49072000  1.0
  C  C103  1  0.15170000  0.83750000  0.00928000  1.0
  C  C104  1  0.16333000  0.75233000  0.51750000  1.0
  C  C105  1  0.83666000  0.25233000  0.98250000  1.0
  C  C106  1  0.83666000  0.24767000  0.48250000  1.0
  C  C107  1  0.16333000  0.74767000  0.01750000  1.0
  C  C108  1  0.16450000  0.81917000  0.46292000  1.0
  C  C109  1  0.83550000  0.31917000  0.03708000  1.0
  C  C110  1  0.83549000  0.18084000  0.53708000  1.0
  C  C111  1  0.16451000  0.68083000  0.96292000  1.0
  C  C112  1  0.17079000  0.35195000  0.83910000  1.0
  C  C113  1  0.82921000  0.85196000  0.66090000  1.0
  C  C114  1  0.82921000  0.64804000  0.16090000  1.0
  C  C115  1  0.17080000  0.14804000  0.33911000  1.0
  C  C116  1  0.16677000  0.32695000  0.91079000  1.0
  C  C117  1  0.83323000  0.82695000  0.58921000  1.0
  C  C118  1  0.83323000  0.67305000  0.08921000  1.0
  C  C119  1  0.16677000  0.17305000  0.41079000  1.0
  C  C120  1  0.14960000  0.38014000  0.96618000  1.0
  C  C121  1  0.85040000  0.88014000  0.53382000  1.0
  C  C122  1  0.85040000  0.61986000  0.03382000  1.0
  C  C123  1  0.14960000  0.11986000  0.46618000  1.0
  C  C124  1  0.14849000  0.33190000  0.02690000  1.0
  C  C125  1  0.85150000  0.83190000  0.47310000  1.0
  C  C126  1  0.85150000  0.66811000  0.97310000  1.0
  C  C127  1  0.14849000  0.16810000  0.52690000  1.0
  C  C128  1  0.16752000  0.24300000  0.01807000  1.0
  C  C129  1  0.83247000  0.74301000  0.48193000  1.0
  C  C130  1  0.83248000  0.75700000  0.98193000  1.0
  C  C131  1  0.16753000  0.25700000  0.51807000  1.0
  C  C132  1  0.18018000  0.17509000  0.07217000  1.0
  C  C133  1  0.81982000  0.67509000  0.42784000  1.0
  C  C134  1  0.81982000  0.82491000  0.92783000  1.0
  C  C135  1  0.18018000  0.32491000  0.57216000  1.0
  C  C136  1  0.90740000  0.51050000  0.64795000  1.0
  C  C137  1  0.09260000  0.01050000  0.85204000  1.0
  C  C138  1  0.09261000  0.48949000  0.35204000  1.0
  C  C139  1  0.90740000  0.98950000  0.14796000  1.0
  C  C140  1  0.78691000  0.48714000  0.63154000  1.0
  C  C141  1  0.21309000  0.98714000  0.86846000  1.0
  C  C142  1  0.21309000  0.51286000  0.36846000  1.0
  C  C143  1  0.78691000  0.01286000  0.13154000  1.0
  C  C144  1  0.88871000  0.37537000  0.68117000  1.0
  C  C145  1  0.11129000  0.87537000  0.81883000  1.0
  C  C146  1  0.11129000  0.62464000  0.31883000  1.0
  C  C147  1  0.88871000  0.12464000  0.18118000  1.0
  C  C148  1  0.67086000  0.34379000  0.64154000  1.0
  C  C149  1  0.32914000  0.84379000  0.85846000  1.0
  C  C150  1  0.32914000  0.65621000  0.35846000  1.0
  C  C151  1  0.67086000  0.15621000  0.14154000  1.0
  C  C152  1  0.57191000  0.34783000  0.75317000  1.0
  C  C153  1  0.42810000  0.84784000  0.74683000  1.0
  C  C154  1  0.42809000  0.65217000  0.24683000  1.0
  C  C155  1  0.57191000  0.15217000  0.25317000  1.0
  C  C156  1  0.45805000  0.37406000  0.77168000  1.0
  C  C157  1  0.54196000  0.87406000  0.72832000  1.0
  C  C158  1  0.54195000  0.62594000  0.22833000  1.0
  C  C159  1  0.45805000  0.12594000  0.27167000  1.0
  C  C160  1  0.45919000  0.39820000  0.66315000  1.0
  C  C161  1  0.54081000  0.89819000  0.83685000  1.0
  C  C162  1  0.54081000  0.60181000  0.33685000  1.0
  C  C163  1  0.45919000  0.10181000  0.16315000  1.0
  C  C164  1  0.89391000  0.62765000  0.79307000  1.0
  C  C165  1  0.10608000  0.12765000  0.70693000  1.0
  C  C166  1  0.10608000  0.37235000  0.20693000  1.0
  C  C167  1  0.89391000  0.87235000  0.29307000  1.0
  C  C168  1  0.89774000  0.49852000  0.84021000  1.0
  C  C169  1  0.10225000  0.99852000  0.65979000  1.0
  C  C170  1  0.10226000  0.50148000  0.15979000  1.0
  C  C171  1  0.89775000  0.00148000  0.34021000  1.0
  C  C172  1  0.77632000  0.51610000  0.82099000  1.0
  C  C173  1  0.22367000  0.01610000  0.67901000  1.0
  C  C174  1  0.22368000  0.48390000  0.17900000  1.0
  C  C175  1  0.77633000  0.98390000  0.32099000  1.0
  C  C176  1  0.66778000  0.64585000  0.76313000  1.0
  C  C177  1  0.33222000  0.14584000  0.73687000  1.0
  C  C178  1  0.33222000  0.35415000  0.23687000  1.0
  C  C179  1  0.66778000  0.85415000  0.26313000  1.0
  C  C180  1  0.45695000  0.60060000  0.79341000  1.0
  C  C181  1  0.54306000  0.10060000  0.70658000  1.0
  C  C182  1  0.54305000  0.39939000  0.20658000  1.0
  C  C183  1  0.45694000  0.89940000  0.29342000  1.0
  C  C184  1  0.46059000  0.64552000  0.89802000  1.0
  C  C185  1  0.53941000  0.14553000  0.60198000  1.0
  C  C186  1  0.53941000  0.35447000  0.10198000  1.0
  C  C187  1  0.46059000  0.85447000  0.39802000  1.0
  C  C188  1  0.57160000  0.66943000  0.87452000  1.0
  C  C189  1  0.42840000  0.16943000  0.62548000  1.0
  C  C190  1  0.42840000  0.33056000  0.12548000  1.0
  C  C191  1  0.57160000  0.83057000  0.37452000  1.0
  S  S192  1  0.18269000  0.78004000  0.60192000  1.0
  S  S193  1  0.81731000  0.28003000  0.89808000  1.0
  S  S194  1  0.81732000  0.21997000  0.39808000  1.0
  S  S195  1  0.18269000  0.71997000  0.10192000  1.0
  S  S196  1  0.18224000  0.21830000  0.93410000  1.0
  S  S197  1  0.81775000  0.71831000  0.56590000  1.0
  S  S198  1  0.81775000  0.78170000  0.06590000  1.0
  S  S199  1  0.18226000  0.28169000  0.43410000  1.0
  N  N200  1  0.96938000  0.44021000  0.67868000  1.0
  N  N201  1  0.03062000  0.94021000  0.82132000  1.0
  N  N202  1  0.03062000  0.55979000  0.32131000  1.0
  N  N203  1  0.96938000  0.05979000  0.17869000  1.0
  N  N204  1  0.77638000  0.40120000  0.65315000  1.0
  N  N205  1  0.22362000  0.90120000  0.84685000  1.0
  N  N206  1  0.22362000  0.59881000  0.34685000  1.0
  N  N207  1  0.77638000  0.09881000  0.15315000  1.0
  N  N208  1  0.57127000  0.36407000  0.68425000  1.0
  N  N209  1  0.42873000  0.86407000  0.81575000  1.0
  N  N210  1  0.42873000  0.63593000  0.31575000  1.0
  N  N211  1  0.57127000  0.13593000  0.18425000  1.0
  N  N212  1  0.38874000  0.40491000  0.71505000  1.0
  N  N213  1  0.61126000  0.90491000  0.78495000  1.0
  N  N214  1  0.61126000  0.59509000  0.28495000  1.0
  N  N215  1  0.38874000  0.09509000  0.21505000  1.0
  N  N216  1  0.96955000  0.56826000  0.82230000  1.0
  N  N217  1  0.03044000  0.06826000  0.67769000  1.0
  N  N218  1  0.03045000  0.43174000  0.17769000  1.0
  N  N219  1  0.96955000  0.93174000  0.32230000  1.0
  N  N220  1  0.77546000  0.59829000  0.79131000  1.0
  N  N221  1  0.22454000  0.09829000  0.70869000  1.0
  N  N222  1  0.22454000  0.40170000  0.20869000  1.0
  N  N223  1  0.77546000  0.90170000  0.29131000  1.0
  N  N224  1  0.56788000  0.64046000  0.80799000  1.0
  N  N225  1  0.43212000  0.14046000  0.69201000  1.0
  N  N226  1  0.43212000  0.35954000  0.19201000  1.0
  N  N227  1  0.56788000  0.85955000  0.30799000  1.0
  N  N228  1  0.38975000  0.60329000  0.84685000  1.0
  N  N229  1  0.61025000  0.10329000  0.65315000  1.0
  N  N230  1  0.61025000  0.39671000  0.15315000  1.0
  N  N231  1  0.38975000  0.89671000  0.34685000  1.0
  O  O232  1  0.19371000  0.56933000  0.71772000  1.0
  O  O233  1  0.80629000  0.06933000  0.78228000  1.0
  O  O234  1  0.80629000  0.43067000  0.28228000  1.0
  O  O235  1  0.19371000  0.93067000  0.21772000  1.0
  O  O236  1  0.19179000  0.71207000  0.74253000  1.0
  O  O237  1  0.80821000  0.21207000  0.75746000  1.0
  O  O238  1  0.80821000  0.28793000  0.25746000  1.0
  O  O239  1  0.19178000  0.78793000  0.24253000  1.0
  O  O240  1  0.15039000  0.78882000  0.40215000  1.0
  O  O241  1  0.84961000  0.28882000  0.09785000  1.0
  O  O242  1  0.84960000  0.21118000  0.59786000  1.0
  O  O243  1  0.15040000  0.71118000  0.90215000  1.0
  O  O244  1  0.18264000  0.89900000  0.47719000  1.0
  O  O245  1  0.81736000  0.39899000  0.02281000  1.0
  O  O246  1  0.81735000  0.10101000  0.52281000  1.0
  O  O247  1  0.18265000  0.60100000  0.97719000  1.0
  O  O248  1  0.18164000  0.43352000  0.82408000  1.0
  O  O249  1  0.81835000  0.93353000  0.67592000  1.0
  O  O250  1  0.81836000  0.56647000  0.17592000  1.0
  O  O251  1  0.18165000  0.06647000  0.32409000  1.0
  O  O252  1  0.16500000  0.29336000  0.79356000  1.0
  O  O253  1  0.83500000  0.79336000  0.70644000  1.0
  O  O254  1  0.83500000  0.70664000  0.20644000  1.0
  O  O255  1  0.16501000  0.20664000  0.29356000  1.0
  O  O256  1  0.16983000  0.20408000  0.13270000  1.0
  O  O257  1  0.83016000  0.70408000  0.36730000  1.0
  O  O258  1  0.83017000  0.79592000  0.86730000  1.0
  O  O259  1  0.16983000  0.29592000  0.63270000  1.0
  O  O260  1  0.20291000  0.09659000  0.05748000  1.0
  O  O261  1  0.79709000  0.59659000  0.44252000  1.0
  O  O262  1  0.79709000  0.90341000  0.94251000  1.0
  O  O263  1  0.20291000  0.40341000  0.55748000  1.0
