# generated using pymatgen
data_CuH10C7N3O2
_symmetry_space_group_name_H-M   'P 1'
_cell_length_a   12.20480000
_cell_length_b   12.20800000
_cell_length_c   12.27910000
_cell_angle_alpha   106.16300000
_cell_angle_beta   106.16700000
_cell_angle_gamma   105.98600000
_symmetry_Int_Tables_number   1
_chemical_formula_structural   CuH10C7N3O2
_chemical_formula_sum   'Cu6 H60 C42 N18 O12'
_cell_volume   1559.34607386
_cell_formula_units_Z   6
loop_
 _symmetry_equiv_pos_site_id
 _symmetry_equiv_pos_as_xyz
  1  'x, y, z'
loop_
 _atom_site_type_symbol
 _atom_site_label
 _atom_site_symmetry_multiplicity
 _atom_site_fract_x
 _atom_site_fract_y
 _atom_site_fract_z
 _atom_site_occupancy
  Cu  Cu0  1  0.97754000  0.60050000  0.11313000  1.0
  Cu  Cu1  1  0.11263000  0.97631000  0.59988000  1.0
  Cu  Cu2  1  0.60051000  0.11261000  0.97745000  1.0
  Cu  Cu3  1  0.02246000  0.39950000  0.88687000  1.0
  Cu  Cu4  1  0.88737000  0.02369000  0.40012000  1.0
  Cu  Cu5  1  0.39949000  0.88739000  0.02255000  1.0
  H  H6  1  0.16388000  0.85441000  0.24685000  1.0
  H  H7  1  0.24720000  0.16322000  0.85411000  1.0
  H  H8  1  0.85466000  0.24791000  0.16434000  1.0
  H  H9  1  0.83612000  0.14559000  0.75316000  1.0
  H  H10  1  0.75280000  0.83678000  0.14589000  1.0
  H  H11  1  0.14534000  0.75209000  0.83566000  1.0
  H  H12  1  0.32274000  0.91234000  0.27323000  1.0
  H  H13  1  0.27364000  0.32210000  0.91171000  1.0
  H  H14  1  0.91270000  0.27417000  0.32236000  1.0
  H  H15  1  0.67726000  0.08766000  0.72677000  1.0
  H  H16  1  0.72636000  0.67790000  0.08829000  1.0
  H  H17  1  0.08730000  0.72583000  0.67763000  1.0
  H  H18  1  0.23135000  0.06226000  0.23171000  1.0
  H  H19  1  0.23161000  0.23137000  0.06069000  1.0
  H  H20  1  0.06243000  0.23183000  0.23158000  1.0
  H  H21  1  0.76865000  0.93774000  0.76830000  1.0
  H  H22  1  0.76838000  0.76863000  0.93931000  1.0
  H  H23  1  0.93757000  0.76817000  0.76842000  1.0
  H  H24  1  0.11862000  0.94754000  0.08906000  1.0
  H  H25  1  0.08842000  0.11856000  0.94638000  1.0
  H  H26  1  0.94736000  0.08890000  0.11901000  1.0
  H  H27  1  0.88139000  0.05246000  0.91095000  1.0
  H  H28  1  0.91158000  0.88144000  0.05362000  1.0
  H  H29  1  0.05264000  0.91110000  0.88098000  1.0
  H  H30  1  0.27650000  0.00084000  0.10941000  1.0
  H  H31  1  0.10854000  0.27644000  0.99935000  1.0
  H  H32  1  0.00075000  0.10875000  0.27596000  1.0
  H  H33  1  0.72350000  0.99916000  0.89059000  1.0
  H  H34  1  0.89146000  0.72356000  0.00065000  1.0
  H  H35  1  0.99925000  0.89125000  0.72404000  1.0
  H  H36  1  0.28206000  0.63070000  0.80744000  1.0
  H  H37  1  0.80634000  0.28270000  0.63029000  1.0
  H  H38  1  0.63041000  0.80702000  0.28184000  1.0
  H  H39  1  0.71793000  0.36930000  0.19256000  1.0
  H  H40  1  0.19367000  0.71730000  0.36971000  1.0
  H  H41  1  0.36959000  0.19298000  0.71816000  1.0
  H  H42  1  0.22089000  0.48450000  0.81407000  1.0
  H  H43  1  0.81356000  0.22121000  0.48505000  1.0
  H  H44  1  0.48434000  0.81427000  0.22080000  1.0
  H  H45  1  0.77910000  0.51550000  0.18593000  1.0
  H  H46  1  0.18644000  0.77879000  0.51495000  1.0
  H  H47  1  0.51566000  0.18573000  0.77921000  1.0
  H  H48  1  0.44943000  0.54978000  0.86401000  1.0
  H  H49  1  0.86353000  0.44975000  0.55010000  1.0
  H  H50  1  0.54961000  0.86372000  0.44798000  1.0
  H  H51  1  0.55056000  0.45022000  0.13598000  1.0
  H  H52  1  0.13646000  0.55025000  0.44990000  1.0
  H  H53  1  0.45040000  0.13628000  0.55202000  1.0
  H  H54  1  0.41865000  0.54241000  0.99593000  1.0
  H  H55  1  0.99620000  0.41860000  0.54293000  1.0
  H  H56  1  0.54218000  0.99660000  0.41782000  1.0
  H  H57  1  0.58134000  0.45759000  0.00406000  1.0
  H  H58  1  0.00380000  0.58140000  0.45706000  1.0
  H  H59  1  0.45783000  0.00340000  0.58218000  1.0
  H  H60  1  0.47859000  0.68750000  0.98547000  1.0
  H  H61  1  0.98549000  0.47891000  0.68723000  1.0
  H  H62  1  0.68732000  0.98577000  0.47760000  1.0
  H  H63  1  0.52141000  0.31250000  0.01452000  1.0
  H  H64  1  0.01451000  0.52109000  0.31277000  1.0
  H  H65  1  0.31268000  0.01423000  0.52240000  1.0
  C  C66  1  0.20970000  0.76120000  0.10458000  1.0
  C  C67  1  0.10442000  0.20926000  0.76089000  1.0
  C  C68  1  0.76133000  0.10508000  0.20972000  1.0
  C  C69  1  0.79030000  0.23880000  0.89543000  1.0
  C  C70  1  0.89558000  0.79074000  0.23911000  1.0
  C  C71  1  0.23866000  0.89492000  0.79027000  1.0
  C  C72  1  0.22888000  0.87723000  0.20271000  1.0
  C  C73  1  0.20273000  0.22837000  0.87659000  1.0
  C  C74  1  0.87745000  0.20338000  0.22893000  1.0
  C  C75  1  0.77112000  0.12277000  0.79730000  1.0
  C  C76  1  0.79727000  0.77163000  0.12341000  1.0
  C  C77  1  0.12256000  0.79662000  0.77106000  1.0
  C  C78  1  0.21306000  0.97796000  0.15556000  1.0
  C  C79  1  0.15511000  0.21294000  0.97668000  1.0
  C  C80  1  0.97798000  0.15550000  0.21311000  1.0
  C  C81  1  0.78694000  0.02204000  0.84444000  1.0
  C  C82  1  0.84488000  0.78706000  0.02331000  1.0
  C  C83  1  0.02202000  0.84449000  0.78689000  1.0
  C  C84  1  0.23310000  0.63342000  0.96039000  1.0
  C  C85  1  0.96016000  0.23332000  0.63352000  1.0
  C  C86  1  0.63339000  0.96087000  0.23319000  1.0
  C  C87  1  0.76690000  0.36658000  0.03961000  1.0
  C  C88  1  0.03984000  0.76668000  0.36648000  1.0
  C  C89  1  0.36661000  0.03913000  0.76681000  1.0
  C  C90  1  0.28336000  0.58105000  0.87003000  1.0
  C  C91  1  0.86952000  0.28377000  0.58118000  1.0
  C  C92  1  0.58091000  0.87024000  0.28315000  1.0
  C  C93  1  0.71663000  0.41895000  0.12997000  1.0
  C  C94  1  0.13048000  0.71623000  0.41882000  1.0
  C  C95  1  0.41909000  0.12976000  0.71685000  1.0
  C  C96  1  0.41524000  0.59058000  0.93249000  1.0
  C  C97  1  0.93234000  0.41549000  0.59078000  1.0
  C  C98  1  0.59041000  0.93272000  0.41432000  1.0
  C  C99  1  0.58475000  0.40942000  0.06751000  1.0
  C  C100  1  0.06765000  0.58451000  0.40922000  1.0
  C  C101  1  0.40959000  0.06728000  0.58568000  1.0
  C  C102  1  0.27877000  0.52103000  0.22738000  1.0
  C  C103  1  0.22764000  0.27886000  0.52136000  1.0
  C  C104  1  0.52100000  0.22768000  0.27830000  1.0
  C  C105  1  0.72125000  0.47898000  0.77262000  1.0
  C  C106  1  0.77236000  0.72115000  0.47864000  1.0
  C  C107  1  0.47900000  0.77232000  0.72171000  1.0
  N  N108  1  0.12340000  0.64991000  0.07350000  1.0
  N  N109  1  0.07345000  0.12295000  0.65007000  1.0
  N  N110  1  0.65013000  0.07359000  0.12323000  1.0
  N  N111  1  0.87660000  0.35009000  0.92650000  1.0
  N  N112  1  0.92655000  0.87706000  0.34993000  1.0
  N  N113  1  0.34987000  0.92642000  0.87677000  1.0
  N  N114  1  0.13893000  0.56758000  0.98089000  1.0
  N  N115  1  0.98084000  0.13895000  0.56802000  1.0
  N  N116  1  0.56770000  0.98101000  0.13884000  1.0
  N  N117  1  0.86106000  0.43242000  0.01911000  1.0
  N  N118  1  0.01916000  0.86106000  0.43198000  1.0
  N  N119  1  0.43230000  0.01899000  0.86117000  1.0
  N  N120  1  0.27918000  0.75472000  0.03523000  1.0
  N  N121  1  0.03495000  0.27917000  0.75435000  1.0
  N  N122  1  0.75472000  0.03605000  0.27944000  1.0
  N  N123  1  0.72082000  0.24527000  0.96477000  1.0
  N  N124  1  0.96505000  0.72084000  0.24565000  1.0
  N  N125  1  0.24528000  0.96394000  0.72056000  1.0
  O  O126  1  0.19034000  0.45492000  0.23081000  1.0
  O  O127  1  0.23134000  0.19051000  0.45539000  1.0
  O  O128  1  0.45528000  0.23174000  0.19031000  1.0
  O  O129  1  0.80968000  0.54510000  0.76919000  1.0
  O  O130  1  0.76865000  0.80949000  0.54462000  1.0
  O  O131  1  0.54472000  0.76825000  0.80969000  1.0
  O  O132  1  0.36885000  0.58668000  0.22592000  1.0
  O  O133  1  0.22590000  0.36886000  0.58690000  1.0
  O  O134  1  0.58627000  0.22562000  0.36794000  1.0
  O  O135  1  0.63117000  0.41332000  0.77408000  1.0
  O  O136  1  0.77411000  0.63115000  0.41310000  1.0
  O  O137  1  0.41373000  0.77438000  0.63207000  1.0
