# generated using pymatgen
data_CoH10C11N7O2
_symmetry_space_group_name_H-M   'P 1'
_cell_length_a   9.46427000
_cell_length_b   11.37070000
_cell_length_c   12.72980000
_cell_angle_alpha   89.99970000
_cell_angle_beta   94.81860000
_cell_angle_gamma   89.99840000
_symmetry_Int_Tables_number   1
_chemical_formula_structural   CoH10C11N7O2
_chemical_formula_sum   'Co4 H40 C44 N28 O8'
_cell_volume   1365.08040362
_cell_formula_units_Z   4
loop_
 _symmetry_equiv_pos_site_id
 _symmetry_equiv_pos_as_xyz
  1  'x, y, z'
loop_
 _atom_site_type_symbol
 _atom_site_label
 _atom_site_symmetry_multiplicity
 _atom_site_fract_x
 _atom_site_fract_y
 _atom_site_fract_z
 _atom_site_occupancy
  Co  Co0  1  0.93762000  0.41650000  0.07317000  1.0
  Co  Co1  1  0.56239000  0.91650000  0.42685000  1.0
  Co  Co2  1  0.06229000  0.58348000  0.92683000  1.0
  Co  Co3  1  0.43771000  0.08348000  0.57318000  1.0
  H  H4  1  0.83330000  0.02453000  0.34048000  1.0
  H  H5  1  0.66671000  0.52457000  0.15949000  1.0
  H  H6  1  0.16682000  0.97545000  0.65952000  1.0
  H  H7  1  0.33319000  0.47545000  0.84048000  1.0
  H  H8  1  0.96723000  0.92763000  0.30345000  1.0
  H  H9  1  0.53280000  0.42766000  0.19651000  1.0
  H  H10  1  0.03291000  0.07237000  0.69653000  1.0
  H  H11  1  0.46709000  0.57236000  0.80346000  1.0
  H  H12  1  0.07716000  0.15844000  0.99876000  1.0
  H  H13  1  0.42290000  0.65842000  0.50124000  1.0
  H  H14  1  0.92278000  0.84154000  0.00116000  1.0
  H  H15  1  0.57719000  0.34153000  0.49882000  1.0
  H  H16  1  0.20937000  0.53613000  0.39950000  1.0
  H  H17  1  0.29061000  0.03613000  0.10053000  1.0
  H  H18  1  0.79055000  0.46390000  0.60051000  1.0
  H  H19  1  0.70943000  0.96390000  0.89951000  1.0
  H  H20  1  0.83922000  0.24379000  0.25385000  1.0
  H  H21  1  0.66081000  0.74380000  0.24614000  1.0
  H  H22  1  0.16082000  0.75619000  0.74614000  1.0
  H  H23  1  0.33919000  0.25619000  0.75387000  1.0
  H  H24  1  0.23158000  0.97258000  0.37584000  1.0
  H  H25  1  0.26844000  0.47263000  0.12417000  1.0
  H  H26  1  0.76851000  0.02736000  0.62417000  1.0
  H  H27  1  0.73149000  0.52738000  0.87584000  1.0
  H  H28  1  0.77345000  0.43585000  0.40377000  1.0
  H  H29  1  0.72654000  0.93585000  0.09626000  1.0
  H  H30  1  0.22647000  0.56418000  0.59624000  1.0
  H  H31  1  0.27350000  0.06415000  0.90377000  1.0
  H  H32  1  0.07515000  0.96556000  0.13299000  1.0
  H  H33  1  0.42484000  0.46558000  0.36697000  1.0
  H  H34  1  0.92484000  0.03443000  0.86694000  1.0
  H  H35  1  0.57511000  0.53443000  0.63303000  1.0
  H  H36  1  0.90828000  0.20427000  0.46053000  1.0
  H  H37  1  0.59169000  0.70431000  0.03942000  1.0
  H  H38  1  0.09187000  0.79579000  0.53939000  1.0
  H  H39  1  0.40816000  0.29579000  0.96060000  1.0
  H  H40  1  0.15923000  0.25431000  0.58075000  1.0
  H  H41  1  0.34073000  0.75431000  0.91920000  1.0
  H  H42  1  0.84092000  0.74571000  0.41919000  1.0
  H  H43  1  0.65912000  0.24572000  0.08081000  1.0
  C  C44  1  0.98301000  0.46296000  0.27327000  1.0
  C  C45  1  0.51698000  0.96297000  0.22676000  1.0
  C  C46  1  0.01691000  0.53701000  0.72674000  1.0
  C  C47  1  0.48308000  0.03702000  0.77328000  1.0
  C  C48  1  0.99111000  0.48384000  0.38997000  1.0
  C  C49  1  0.50888000  0.98384000  0.11005000  1.0
  C  C50  1  0.00882000  0.51617000  0.61004000  1.0
  C  C51  1  0.49116000  0.01616000  0.88999000  1.0
  C  C52  1  0.94130000  0.02002000  0.31629000  1.0
  C  C53  1  0.55871000  0.52005000  0.18368000  1.0
  C  C54  1  0.05880000  0.97997000  0.68369000  1.0
  C  C55  1  0.44120000  0.47997000  0.81630000  1.0
  C  C56  1  0.02793000  0.14857000  0.07188000  1.0
  C  C57  1  0.47210000  0.64857000  0.42811000  1.0
  C  C58  1  0.97203000  0.85141000  0.92805000  1.0
  C  C59  1  0.52794000  0.35141000  0.57193000  1.0
  C  C60  1  0.11855000  0.52003000  0.44449000  1.0
  C  C61  1  0.38143000  0.02002000  0.05553000  1.0
  C  C62  1  0.88136000  0.47999000  0.55551000  1.0
  C  C63  1  0.61862000  0.97998000  0.94451000  1.0
  C  C64  1  0.90406000  0.19621000  0.20185000  1.0
  C  C65  1  0.59598000  0.69622000  0.29814000  1.0
  C  C66  1  0.09596000  0.80377000  0.79812000  1.0
  C  C67  1  0.40404000  0.30376000  0.70188000  1.0
  C  C68  1  0.17887000  0.04049000  0.41790000  1.0
  C  C69  1  0.32114000  0.54053000  0.08210000  1.0
  C  C70  1  0.82123000  0.95948000  0.58209000  1.0
  C  C71  1  0.67878000  0.45948000  0.91791000  1.0
  C  C72  1  0.87219000  0.46424000  0.44661000  1.0
  C  C73  1  0.62779000  0.96424000  0.05342000  1.0
  C  C74  1  0.12773000  0.53577000  0.55340000  1.0
  C  C75  1  0.37225000  0.03576000  0.94662000  1.0
  C  C76  1  0.02794000  0.05206000  0.13661000  1.0
  C  C77  1  0.47207000  0.55207000  0.36336000  1.0
  C  C78  1  0.97206000  0.94793000  0.86334000  1.0
  C  C79  1  0.52792000  0.44792000  0.63665000  1.0
  C  C80  1  0.01237000  0.16439000  0.46196000  1.0
  C  C81  1  0.48762000  0.66442000  0.03801000  1.0
  C  C82  1  0.98777000  0.83566000  0.53797000  1.0
  C  C83  1  0.51226000  0.33565000  0.96202000  1.0
  C  C84  1  0.13732000  0.18803000  0.52049000  1.0
  C  C85  1  0.36263000  0.68806000  0.97948000  1.0
  C  C86  1  0.86281000  0.81199000  0.47945000  1.0
  C  C87  1  0.63722000  0.31200000  0.02054000  1.0
  N  N88  1  0.94848000  0.08356000  0.21818000  1.0
  N  N89  1  0.55154000  0.58358000  0.28180000  1.0
  N  N90  1  0.05157000  0.91643000  0.78179000  1.0
  N  N91  1  0.44843000  0.41642000  0.71820000  1.0
  N  N92  1  0.93172000  0.59760000  0.04472000  1.0
  N  N93  1  0.56830000  0.09761000  0.45531000  1.0
  N  N94  1  0.06819000  0.40237000  0.95529000  1.0
  N  N95  1  0.43182000  0.90237000  0.54473000  1.0
  N  N96  1  0.04010000  0.07019000  0.39773000  1.0
  N  N97  1  0.45991000  0.57023000  0.10225000  1.0
  N  N98  1  0.96003000  0.92982000  0.60222000  1.0
  N  N99  1  0.53999000  0.42982000  0.89777000  1.0
  N  N100  1  0.95159000  0.23835000  0.11402000  1.0
  N  N101  1  0.54846000  0.73835000  0.38598000  1.0
  N  N102  1  0.04839000  0.76163000  0.88594000  1.0
  N  N103  1  0.45160000  0.26162000  0.61406000  1.0
  N  N104  1  0.24022000  0.10959000  0.49283000  1.0
  N  N105  1  0.25977000  0.60962000  0.00716000  1.0
  N  N106  1  0.75990000  0.89038000  0.50715000  1.0
  N  N107  1  0.74013000  0.39039000  0.99285000  1.0
  N  N108  1  0.92242000  0.67133000  0.11214000  1.0
  N  N109  1  0.57761000  0.17132000  0.38787000  1.0
  N  N110  1  0.07754000  0.32866000  0.88785000  1.0
  N  N111  1  0.42245000  0.82865000  0.61215000  1.0
  N  N112  1  0.90863000  0.74246000  0.17679000  1.0
  N  N113  1  0.59141000  0.24243000  0.32321000  1.0
  N  N114  1  0.09138000  0.25756000  0.82320000  1.0
  N  N115  1  0.40858000  0.75753000  0.67679000  1.0
  O  O116  1  0.86020000  0.44433000  0.22451000  1.0
  O  O117  1  0.63979000  0.94435000  0.27552000  1.0
  O  O118  1  0.13972000  0.55563000  0.77551000  1.0
  O  O119  1  0.36027000  0.05565000  0.72452000  1.0
  O  O120  1  0.09402000  0.46101000  0.22401000  1.0
  O  O121  1  0.40597000  0.96101000  0.27602000  1.0
  O  O122  1  0.90590000  0.53897000  0.77600000  1.0
  O  O123  1  0.59410000  0.03897000  0.72404000  1.0
