# generated using pymatgen
data_Zn2H24C38N2O8F3
_symmetry_space_group_name_H-M   'P 1'
_cell_length_a   10.96370000
_cell_length_b   14.01980000
_cell_length_c   26.37880000
_cell_angle_alpha   87.39540000
_cell_angle_beta   89.63260000
_cell_angle_gamma   89.35650000
_symmetry_Int_Tables_number   1
_chemical_formula_structural   Zn2H24C38N2O8F3
_chemical_formula_sum   'Zn4 H48 C76 N4 O16 F6'
_cell_volume   4050.14091663
_cell_formula_units_Z   2
loop_
 _symmetry_equiv_pos_site_id
 _symmetry_equiv_pos_as_xyz
  1  'x, y, z'
loop_
 _atom_site_type_symbol
 _atom_site_label
 _atom_site_symmetry_multiplicity
 _atom_site_fract_x
 _atom_site_fract_y
 _atom_site_fract_z
 _atom_site_occupancy
  Zn  Zn0  1  0.49825000  0.38200000  0.50222000  1.0
  Zn  Zn1  1  0.49656000  0.58002000  0.49342000  1.0
  Zn  Zn2  1  0.50263000  0.61333000  0.90947000  1.0
  Zn  Zn3  1  0.50630000  0.41477000  0.91943000  1.0
  H  H4  1  0.33701000  0.04202000  0.54794000  1.0
  H  H5  1  0.57079000  0.92540000  0.41890000  1.0
  H  H6  1  0.43018000  0.72310000  0.56460000  1.0
  H  H7  1  0.42719000  0.90051000  0.57266000  1.0
  H  H8  1  0.64855000  0.23545000  0.45759000  1.0
  H  H9  1  0.65845000  0.05772000  0.45101000  1.0
  H  H10  1  0.33623000  0.40634000  0.80885000  1.0
  H  H11  1  0.31998000  0.38538000  0.62177000  1.0
  H  H12  1  0.65894000  0.58932000  0.65146000  1.0
  H  H13  1  0.66777000  0.59866000  0.74590000  1.0
  H  H14  1  0.48181000  0.33884000  0.23914000  1.0
  H  H15  1  0.47294000  0.66005000  0.17239000  1.0
  H  H16  1  0.48203000  0.37058000  0.07219000  1.0
  H  H17  1  0.48757000  0.35180000  0.16534000  1.0
  H  H18  1  0.48351000  0.62774000  0.33970000  1.0
  H  H19  1  0.48558000  0.64711000  0.24647000  1.0
  H  H20  1  0.23118000  0.60810000  0.42474000  1.0
  H  H21  1  0.78131000  0.59326000  0.40770000  1.0
  H  H22  1  0.87915000  0.37315000  0.54693000  1.0
  H  H23  1  0.10711000  0.37723000  0.55301000  1.0
  H  H24  1  0.35160000  0.95695000  0.86021000  1.0
  H  H25  1  0.56065000  0.06814000  0.99511000  1.0
  H  H26  1  0.45780000  0.27317000  0.84461000  1.0
  H  H27  1  0.45150000  0.09595000  0.83713000  1.0
  H  H28  1  0.64172000  0.75593000  0.96002000  1.0
  H  H29  1  0.65342000  0.93350000  0.96599000  1.0
  H  H30  1  0.24218000  0.37940000  0.98470000  1.0
  H  H31  1  0.79274000  0.39685000  0.00635000  1.0
  H  H32  1  0.88202000  0.61773000  0.86691000  1.0
  H  H33  1  0.11006000  0.61366000  0.85872000  1.0
  H  H34  1  0.14221000  0.22600000  0.77499000  1.0
  H  H35  1  0.16352000  0.31496000  0.82034000  1.0
  H  H36  1  0.05401000  0.33198000  0.77126000  1.0
  H  H37  1  0.04522000  0.32467000  0.67624000  1.0
  H  H38  1  0.14741000  0.29175000  0.62721000  1.0
  H  H39  1  0.13028000  0.21729000  0.68313000  1.0
  H  H40  1  0.12151000  0.79530000  0.34659000  1.0
  H  H41  1  0.24735000  0.71501000  0.35606000  1.0
  H  H42  1  0.14059000  0.69802000  0.30692000  1.0
  H  H43  1  0.91772000  0.68741000  0.29755000  1.0
  H  H44  1  0.78403000  0.69474000  0.33585000  1.0
  H  H45  1  0.89667000  0.78527000  0.33656000  1.0
  H  H46  1  0.13666000  0.19184000  0.06366000  1.0
  H  H47  1  0.26200000  0.26981000  0.05192000  1.0
  H  H48  1  0.15874000  0.28909000  0.10276000  1.0
  H  H49  1  0.93516000  0.30083000  0.11490000  1.0
  H  H50  1  0.79962000  0.29551000  0.07846000  1.0
  H  H51  1  0.91274000  0.20360000  0.07597000  1.0
  C  C52  1  0.48260000  0.47135000  0.39935000  1.0
  C  C53  1  0.73349000  0.47666000  0.48844000  1.0
  C  C54  1  0.51008000  0.48986000  0.59639000  1.0
  C  C55  1  0.26141000  0.48764000  0.50022000  1.0
  C  C56  1  0.47810000  0.52647000  0.01236000  1.0
  C  C57  1  0.74013000  0.51397000  0.92628000  1.0
  C  C58  1  0.52466000  0.51100000  0.81595000  1.0
  C  C59  1  0.26849000  0.50277000  0.90982000  1.0
  C  C60  1  0.41518000  0.17888000  0.52922000  1.0
  C  C61  1  0.40980000  0.08013000  0.52775000  1.0
  C  C62  1  0.53755000  0.78602000  0.45294000  1.0
  C  C63  1  0.53969000  0.88509000  0.45267000  1.0
  C  C64  1  0.45892000  0.77192000  0.53358000  1.0
  C  C65  1  0.45745000  0.87017000  0.53740000  1.0
  C  C66  1  0.58263000  0.18853000  0.47680000  1.0
  C  C67  1  0.58620000  0.09022000  0.47310000  1.0
  C  C68  1  0.49814000  0.03393000  0.49891000  1.0
  C  C69  1  0.49831000  0.92897000  0.49626000  1.0
  C  C70  1  0.51775000  0.50413000  0.75949000  1.0
  C  C71  1  0.42542000  0.44806000  0.73774000  1.0
  C  C72  1  0.59924000  0.55478000  0.72868000  1.0
  C  C73  1  0.33429000  0.40092000  0.76776000  1.0
  C  C74  1  0.24132000  0.35043000  0.74666000  1.0
  C  C75  1  0.50823000  0.49389000  0.65304000  1.0
  C  C76  1  0.59425000  0.54968000  0.67561000  1.0
  C  C77  1  0.42039000  0.44258000  0.68358000  1.0
  C  C78  1  0.32415000  0.39001000  0.66281000  1.0
  C  C79  1  0.23621000  0.34493000  0.69270000  1.0
  C  C80  1  0.48325000  0.47558000  0.34246000  1.0
  C  C81  1  0.47654000  0.52274000  0.06921000  1.0
  C  C82  1  0.48379000  0.39628000  0.31204000  1.0
  C  C83  1  0.48308000  0.40470000  0.25942000  1.0
  C  C84  1  0.47424000  0.60225000  0.09951000  1.0
  C  C85  1  0.47603000  0.59415000  0.15214000  1.0
  C  C86  1  0.48052000  0.43310000  0.09524000  1.0
  C  C87  1  0.48340000  0.42345000  0.14774000  1.0
  C  C88  1  0.48369000  0.56537000  0.31654000  1.0
  C  C89  1  0.48438000  0.57536000  0.26401000  1.0
  C  C90  1  0.48316000  0.49488000  0.23390000  1.0
  C  C91  1  0.48116000  0.50408000  0.17775000  1.0
  C  C92  1  0.12566000  0.48669000  0.49441000  1.0
  C  C93  1  0.06613000  0.54590000  0.45652000  1.0
  C  C94  1  0.05929000  0.42389000  0.52540000  1.0
  C  C95  1  0.13226000  0.60539000  0.42138000  1.0
  C  C96  1  0.07570000  0.65834000  0.38270000  1.0
  C  C97  1  0.86970000  0.47962000  0.48662000  1.0
  C  C98  1  0.93177000  0.42096000  0.52173000  1.0
  C  C99  1  0.93578000  0.54175000  0.45200000  1.0
  C  C100  1  0.87992000  0.59647000  0.41170000  1.0
  C  C101  1  0.94619000  0.65307000  0.37749000  1.0
  C  C102  1  0.42332000  0.81798000  0.88180000  1.0
  C  C103  1  0.41965000  0.91702000  0.88254000  1.0
  C  C104  1  0.53919000  0.20814000  0.95965000  1.0
  C  C105  1  0.53827000  0.10909000  0.96032000  1.0
  C  C106  1  0.47865000  0.22396000  0.87669000  1.0
  C  C107  1  0.47507000  0.12571000  0.87314000  1.0
  C  C108  1  0.58058000  0.80443000  0.93870000  1.0
  C  C109  1  0.58510000  0.90270000  0.94204000  1.0
  C  C110  1  0.50329000  0.96108000  0.91347000  1.0
  C  C111  1  0.50526000  0.06609000  0.91565000  1.0
  C  C112  1  0.13278000  0.50345000  0.91675000  1.0
  C  C113  1  0.07545000  0.44346000  0.95488000  1.0
  C  C114  1  0.06400000  0.56669000  0.88659000  1.0
  C  C115  1  0.14336000  0.38273000  0.98903000  1.0
  C  C116  1  0.08884000  0.32946000  0.02802000  1.0
  C  C117  1  0.87659000  0.51076000  0.92700000  1.0
  C  C118  1  0.93649000  0.56961000  0.89148000  1.0
  C  C119  1  0.94507000  0.44800000  0.96071000  1.0
  C  C120  1  0.89132000  0.39303000  0.00135000  1.0
  C  C121  1  0.95948000  0.33564000  0.03473000  1.0
  C  C122  1  0.14577000  0.30348000  0.78019000  1.0
  C  C123  1  0.13489000  0.29200000  0.66850000  1.0
  C  C124  1  0.15026000  0.71977000  0.34628000  1.0
  C  C125  1  0.88255000  0.70780000  0.33479000  1.0
  C  C126  1  0.16559000  0.26686000  0.06332000  1.0
  C  C127  1  0.89825000  0.28121000  0.07810000  1.0
  N  N128  1  0.49727000  0.23273000  0.50483000  1.0
  N  N129  1  0.49872000  0.72986000  0.49133000  1.0
  N  N130  1  0.50008000  0.76229000  0.90853000  1.0
  N  N131  1  0.51040000  0.26512000  0.91998000  1.0
  O  O132  1  0.50829000  0.39277000  0.42284000  1.0
  O  O133  1  0.45671000  0.55006000  0.41970000  1.0
  O  O134  1  0.67573000  0.55508000  0.47937000  1.0
  O  O135  1  0.68464000  0.39656000  0.50054000  1.0
  O  O136  1  0.52685000  0.56827000  0.57090000  1.0
  O  O137  1  0.49607000  0.40852000  0.57774000  1.0
  O  O138  1  0.31511000  0.40712000  0.49702000  1.0
  O  O139  1  0.31236000  0.56688000  0.50786000  1.0
  O  O140  1  0.50082000  0.60522000  0.98880000  1.0
  O  O141  1  0.45805000  0.44720000  0.99204000  1.0
  O  O142  1  0.68436000  0.43542000  0.93516000  1.0
  O  O143  1  0.68919000  0.59435000  0.91505000  1.0
  O  O144  1  0.53921000  0.43332000  0.84242000  1.0
  O  O145  1  0.51450000  0.59409000  0.83306000  1.0
  O  O146  1  0.32024000  0.58341000  0.91118000  1.0
  O  O147  1  0.32184000  0.42292000  0.90318000  1.0
  F  F148  1  0.33215000  0.22448000  0.55713000  1.0
  F  F149  1  0.57697000  0.74229000  0.41147000  1.0
  F  F150  1  0.48298000  0.30590000  0.33319000  1.0
  F  F151  1  0.46859000  0.69247000  0.07822000  1.0
  F  F152  1  0.34431000  0.77398000  0.85239000  1.0
  F  F153  1  0.57091000  0.25111000  0.00214000  1.0
