# generated using pymatgen
data_U2H12C16O15
_symmetry_space_group_name_H-M   'P 1'
_cell_length_a   8.67582000
_cell_length_b   10.48470105
_cell_length_c   14.18870000
_cell_angle_alpha   94.49615001
_cell_angle_beta   107.45310000
_cell_angle_gamma   113.65695021
_symmetry_Int_Tables_number   1
_chemical_formula_structural   U2H12C16O15
_chemical_formula_sum   'U4 H24 C32 O30'
_cell_volume   1098.20895659
_cell_formula_units_Z   2
loop_
 _symmetry_equiv_pos_site_id
 _symmetry_equiv_pos_as_xyz
  1  'x, y, z'
loop_
 _atom_site_type_symbol
 _atom_site_label
 _atom_site_symmetry_multiplicity
 _atom_site_fract_x
 _atom_site_fract_y
 _atom_site_fract_z
 _atom_site_occupancy
  U  U0  1  0.32564000  0.72650000  0.04289000  1.0
  U  U1  1  0.67438000  0.27350000  0.95711000  1.0
  U  U2  1  0.64496000  0.78520000  0.50209000  1.0
  U  U3  1  0.35502000  0.21480000  0.49790000  1.0
  H  H4  1  0.69041000  0.77854000  0.22509000  1.0
  H  H5  1  0.30960000  0.22146000  0.77491000  1.0
  H  H6  1  0.53444000  0.61848000  0.20289000  1.0
  H  H7  1  0.46558000  0.38153000  0.79711000  1.0
  H  H8  1  0.48680000  0.78803000  0.28507000  1.0
  H  H9  1  0.51322000  0.21198000  0.71493000  1.0
  H  H10  1  0.33437000  0.79380000  0.32205000  1.0
  H  H11  1  0.66564000  0.20620000  0.67794000  1.0
  H  H12  1  0.89079000  0.04788000  0.43590000  1.0
  H  H13  1  0.10920000  0.95212000  0.56411000  1.0
  H  H14  1  0.69783000  0.04348000  0.41423000  1.0
  H  H15  1  0.30217000  0.95653000  0.58578000  1.0
  H  H16  1  0.72942000  0.72243000  0.96827000  1.0
  H  H17  1  0.27060000  0.27757000  0.03174000  1.0
  H  H18  1  0.73005000  0.95562000  0.94646000  1.0
  H  H19  1  0.26995000  0.04437000  0.05354000  1.0
  H  H20  1  0.86722000  0.08159000  0.82899000  1.0
  H  H21  1  0.13277000  0.91841000  0.17101000  1.0
  H  H22  1  0.45780000  0.80744000  0.75040000  1.0
  H  H23  1  0.54218000  0.19254000  0.24959000  1.0
  H  H24  1  0.28755000  0.57688000  0.62030000  1.0
  H  H25  1  0.71241000  0.42310000  0.37969000  1.0
  H  H26  1  0.95175000  0.44808000  0.56651000  1.0
  H  H27  1  0.04822000  0.55192000  0.43349000  1.0
  C  C28  1  0.94043000  0.78719000  0.79637000  1.0
  C  C29  1  0.05961000  0.21283000  0.20364000  1.0
  C  C30  1  0.86887000  0.72027000  0.86607000  1.0
  C  C31  1  0.13114000  0.27974000  0.13392000  1.0
  C  C32  1  0.78722000  0.77815000  0.91654000  1.0
  C  C33  1  0.21280000  0.22185000  0.08347000  1.0
  C  C34  1  0.78700000  0.90825000  0.90382000  1.0
  C  C35  1  0.21299000  0.09173000  0.09618000  1.0
  C  C36  1  0.86411000  0.97875000  0.83848000  1.0
  C  C37  1  0.13589000  0.02124000  0.16153000  1.0
  C  C38  1  0.93507000  0.91692000  0.78275000  1.0
  C  C39  1  0.06493000  0.08308000  0.21725000  1.0
  C  C40  1  0.89066000  0.59485000  0.89841000  1.0
  C  C41  1  0.10937000  0.40516000  0.10160000  1.0
  C  C42  1  0.00128000  0.99200000  0.70726000  1.0
  C  C43  1  0.99873000  0.00798000  0.29274000  1.0
  C  C44  1  0.03091000  0.72887000  0.74362000  1.0
  C  C45  1  0.96909000  0.27113000  0.25638000  1.0
  C  C46  1  0.22012000  0.79895000  0.77452000  1.0
  C  C47  1  0.77987000  0.20105000  0.22547000  1.0
  C  C48  1  0.31163000  0.74851000  0.72720000  1.0
  C  C49  1  0.68836000  0.25148000  0.27280000  1.0
  C  C50  1  0.21614000  0.62004000  0.65413000  1.0
  C  C51  1  0.78385000  0.37996000  0.34586000  1.0
  C  C52  1  0.02895000  0.54775000  0.62420000  1.0
  C  C53  1  0.97105000  0.45225000  0.37580000  1.0
  C  C54  1  0.93516000  0.60543000  0.66429000  1.0
  C  C55  1  0.06483000  0.39457000  0.33571000  1.0
  C  C56  1  0.32673000  0.92259000  0.86501000  1.0
  C  C57  1  0.67328000  0.07740000  0.13499000  1.0
  C  C58  1  0.73488000  0.53985000  0.61290000  1.0
  C  C59  1  0.26510000  0.46016000  0.38711000  1.0
  O  O60  1  0.43871000  0.68146000  0.96758000  1.0
  O  O61  1  0.56129000  0.31853000  0.03242000  1.0
  O  O62  1  0.21035000  0.76425000  0.12020000  1.0
  O  O63  1  0.78967000  0.23576000  0.87980000  1.0
  O  O64  1  0.72546000  0.70456000  0.42325000  1.0
  O  O65  1  0.27453000  0.29544000  0.57675000  1.0
  O  O66  1  0.56179000  0.86630000  0.57934000  1.0
  O  O67  1  0.43820000  0.13371000  0.42065000  1.0
  O  O68  1  0.04336000  0.59298000  0.91679000  1.0
  O  O69  1  0.95667000  0.40702000  0.08321000  1.0
  O  O70  1  0.75643000  0.49795000  0.91066000  1.0
  O  O71  1  0.24359000  0.50205000  0.08934000  1.0
  O  O72  1  0.94420000  0.91205000  0.61614000  1.0
  O  O73  1  0.05579000  0.08796000  0.38386000  1.0
  O  O74  1  0.10190000  0.12261000  0.73062000  1.0
  O  O75  1  0.89813000  0.87740000  0.26938000  1.0
  O  O76  1  0.30988000  0.89765000  0.94932000  1.0
  O  O77  1  0.69014000  0.10236000  0.05068000  1.0
  O  O78  1  0.42694000  0.04295000  0.85464000  1.0
  O  O79  1  0.57307000  0.95705000  0.14536000  1.0
  O  O80  1  0.65696000  0.62197000  0.60311000  1.0
  O  O81  1  0.34302000  0.37804000  0.39690000  1.0
  O  O82  1  0.65139000  0.40566000  0.57687000  1.0
  O  O83  1  0.34859000  0.59434000  0.42313000  1.0
  O  O84  1  0.55528000  0.71662000  0.20095000  1.0
  O  O85  1  0.44474000  0.28339000  0.79905000  1.0
  O  O86  1  0.46453000  0.82911000  0.34266000  1.0
  O  O87  1  0.53546000  0.17088000  0.65734000  1.0
  O  O88  1  0.79028000  0.02559000  0.46216000  1.0
  O  O89  1  0.20972000  0.97442000  0.53784000  1.0
