# generated using pymatgen
data_AgH6C8SN7O3
_symmetry_space_group_name_H-M   'P 1'
_cell_length_a   7.40749000
_cell_length_b   8.17450000
_cell_length_c   10.47660000
_cell_angle_alpha   90.56260000
_cell_angle_beta   107.90700000
_cell_angle_gamma   96.53230000
_symmetry_Int_Tables_number   1
_chemical_formula_structural   AgH6C8SN7O3
_chemical_formula_sum   'Ag2 H12 C16 S2 N14 O6'
_cell_volume   599.06030241
_cell_formula_units_Z   2
loop_
 _symmetry_equiv_pos_site_id
 _symmetry_equiv_pos_as_xyz
  1  'x, y, z'
loop_
 _atom_site_type_symbol
 _atom_site_label
 _atom_site_symmetry_multiplicity
 _atom_site_fract_x
 _atom_site_fract_y
 _atom_site_fract_z
 _atom_site_occupancy
  Ag  Ag0  1  0.76977000  0.17408000  0.25196000  1.0
  Ag  Ag1  1  0.23024000  0.82591000  0.74804000  1.0
  H  H2  1  0.57280000  0.24985000  0.92361000  1.0
  H  H3  1  0.42720000  0.75015000  0.07639000  1.0
  H  H4  1  0.89054000  0.86423000  0.08724000  1.0
  H  H5  1  0.10946000  0.13577000  0.91276000  1.0
  H  H6  1  0.70195000  0.57489000  0.94579000  1.0
  H  H7  1  0.29805000  0.42511000  0.05421000  1.0
  H  H8  1  0.76685000  0.59193000  0.52436000  1.0
  H  H9  1  0.23315000  0.40807000  0.47564000  1.0
  H  H10  1  0.97530000  0.28019000  0.58748000  1.0
  H  H11  1  0.02470000  0.71981000  0.41251000  1.0
  H  H12  1  0.60001000  0.85934000  0.40083000  1.0
  H  H13  1  0.39999000  0.14065000  0.59917000  1.0
  C  C14  1  0.64277000  0.13898000  0.93260000  1.0
  C  C15  1  0.35723000  0.86103000  0.06740000  1.0
  C  C16  1  0.80319000  0.94357000  0.01856000  1.0
  C  C17  1  0.19681000  0.05643000  0.98144000  1.0
  C  C18  1  0.72047000  0.61503000  0.85107000  1.0
  C  C19  1  0.27952000  0.38497000  0.14893000  1.0
  C  C20  1  0.73082000  0.77286000  0.80702000  1.0
  C  C21  1  0.26917000  0.22714000  0.19298000  1.0
  C  C22  1  0.74895000  0.77822000  0.67483000  1.0
  C  C23  1  0.25105000  0.22178000  0.32518000  1.0
  C  C24  1  0.74982000  0.62399000  0.62101000  1.0
  C  C25  1  0.25019000  0.37601000  0.37899000  1.0
  C  C26  1  0.89027000  0.16001000  0.57253000  1.0
  C  C27  1  0.10973000  0.83998000  0.42747000  1.0
  C  C28  1  0.69892000  0.94801000  0.47431000  1.0
  C  C29  1  0.30108000  0.05199000  0.52568000  1.0
  S  S30  1  0.73098000  0.47590000  0.73149000  1.0
  S  S31  1  0.26902000  0.52410000  0.26851000  1.0
  N  N32  1  0.75502000  0.08686000  0.05134000  1.0
  N  N33  1  0.24499000  0.91314000  0.94866000  1.0
  N  N34  1  0.61866000  0.03603000  0.82850000  1.0
  N  N35  1  0.38133000  0.96397000  0.17150000  1.0
  N  N36  1  0.72278000  0.91208000  0.88480000  1.0
  N  N37  1  0.27722000  0.08792000  0.11520000  1.0
  N  N38  1  0.77145000  0.92370000  0.60680000  1.0
  N  N39  1  0.22855000  0.07630000  0.39320000  1.0
  N  N40  1  0.89501000  0.05840000  0.67104000  1.0
  N  N41  1  0.10498000  0.94161000  0.32896000  1.0
  N  N42  1  0.77190000  0.09700000  0.44988000  1.0
  N  N43  1  0.22810000  0.90300000  0.55012000  1.0
  N  N44  1  0.73970000  0.54443000  0.23401000  1.0
  N  N45  1  0.26030000  0.45557000  0.76599000  1.0
  O  O46  1  0.80624000  0.48638000  0.34956000  1.0
  O  O47  1  0.19376000  0.51362000  0.65044000  1.0
  O  O48  1  0.70715000  0.45101000  0.12956000  1.0
  O  O49  1  0.29285000  0.54899000  0.87044000  1.0
  O  O50  1  0.70717000  0.69262000  0.22402000  1.0
  O  O51  1  0.29283000  0.30738000  0.77598000  1.0
