# generated using pymatgen
data_SrPH7(CO4)2
_symmetry_space_group_name_H-M   'P 1'
_cell_length_a   6.38801000
_cell_length_b   8.01743000
_cell_length_c   15.94680000
_cell_angle_alpha   90.00000000
_cell_angle_beta   89.99990000
_cell_angle_gamma   108.11900000
_symmetry_Int_Tables_number   1
_chemical_formula_structural   SrPH7(CO4)2
_chemical_formula_sum   'Sr4 P4 H28 C8 O32'
_cell_volume   776.22302693
_cell_formula_units_Z   4
loop_
 _symmetry_equiv_pos_site_id
 _symmetry_equiv_pos_as_xyz
  1  'x, y, z'
loop_
 _atom_site_type_symbol
 _atom_site_label
 _atom_site_symmetry_multiplicity
 _atom_site_fract_x
 _atom_site_fract_y
 _atom_site_fract_z
 _atom_site_occupancy
  Sr  Sr0  1  0.74848000  0.50988000  0.14098000  1.0
  Sr  Sr1  1  0.25152000  0.99011000  0.64097000  1.0
  Sr  Sr2  1  0.25152000  0.49012000  0.85902000  1.0
  Sr  Sr3  1  0.74847000  0.00988000  0.35903000  1.0
  P  P4  1  0.46326000  0.83216000  0.17442000  1.0
  P  P5  1  0.53675000  0.66784000  0.67442000  1.0
  P  P6  1  0.53674000  0.16785000  0.82558000  1.0
  P  P7  1  0.46325000  0.33216000  0.32558000  1.0
  H  H8  1  0.69907000  0.00609000  0.08013000  1.0
  H  H9  1  0.30094000  0.49391000  0.58012000  1.0
  H  H10  1  0.30094000  0.99391000  0.91987000  1.0
  H  H11  1  0.69905000  0.50609000  0.41988000  1.0
  H  H12  1  0.07053000  0.80000000  0.26711000  1.0
  H  H13  1  0.92947000  0.70000000  0.76711000  1.0
  H  H14  1  0.92947000  0.20000000  0.73290000  1.0
  H  H15  1  0.07053000  0.30000000  0.23290000  1.0
  H  H16  1  0.05980000  0.31804000  0.07355000  1.0
  H  H17  1  0.94021000  0.18196000  0.57355000  1.0
  H  H18  1  0.94021000  0.68197000  0.92645000  1.0
  H  H19  1  0.05979000  0.81803000  0.42645000  1.0
  H  H20  1  0.21720000  0.47553000  0.12649000  1.0
  H  H21  1  0.78280000  0.02447000  0.62649000  1.0
  H  H22  1  0.78280000  0.52447000  0.87351000  1.0
  H  H23  1  0.21719000  0.97553000  0.37351000  1.0
  H  H24  1  0.53776000  0.33113000  0.97641000  1.0
  H  H25  1  0.46224000  0.16888000  0.47641000  1.0
  H  H26  1  0.46225000  0.66888000  0.02359000  1.0
  H  H27  1  0.53775000  0.83112000  0.52359000  1.0
  H  H28  1  0.42117000  0.19357000  0.04381000  1.0
  H  H29  1  0.57883000  0.30643000  0.54382000  1.0
  H  H30  1  0.57884000  0.80643000  0.95619000  1.0
  H  H31  1  0.42116000  0.69357000  0.45619000  1.0
  H  H32  1  0.23952000  0.02641000  0.17342000  1.0
  H  H33  1  0.76048000  0.47360000  0.67342000  1.0
  H  H34  1  0.76048000  0.97360000  0.82658000  1.0
  H  H35  1  0.23952000  0.52640000  0.32658000  1.0
  C  C36  1  0.20509000  0.88759000  0.15538000  1.0
  C  C37  1  0.79491000  0.61241000  0.65538000  1.0
  C  C38  1  0.79491000  0.11241000  0.84462000  1.0
  C  C39  1  0.20508000  0.38759000  0.34462000  1.0
  C  C40  1  0.14346000  0.86709000  0.06228000  1.0
  C  C41  1  0.85654000  0.63290000  0.56228000  1.0
  C  C42  1  0.85655000  0.13292000  0.93772000  1.0
  C  C43  1  0.14345000  0.36708000  0.43772000  1.0
  O  O44  1  0.48124000  0.81566000  0.26803000  1.0
  O  O45  1  0.51875000  0.68434000  0.76803000  1.0
  O  O46  1  0.51876000  0.18434000  0.73197000  1.0
  O  O47  1  0.48124000  0.31566000  0.23197000  1.0
  O  O48  1  0.45136000  0.66314000  0.12640000  1.0
  O  O49  1  0.54865000  0.83686000  0.62639000  1.0
  O  O50  1  0.54864000  0.33686000  0.87360000  1.0
  O  O51  1  0.45135000  0.16314000  0.37360000  1.0
  O  O52  1  0.66286000  0.99296000  0.14334000  1.0
  O  O53  1  0.33715000  0.50704000  0.64333000  1.0
  O  O54  1  0.33715000  0.00704000  0.85667000  1.0
  O  O55  1  0.66284000  0.49296000  0.35667000  1.0
  O  O56  1  0.03429000  0.77451000  0.20656000  1.0
  O  O57  1  0.96572000  0.72549000  0.70656000  1.0
  O  O58  1  0.96572000  0.22549000  0.79344000  1.0
  O  O59  1  0.03427000  0.27451000  0.29345000  1.0
  O  O60  1  0.99175000  0.73244000  0.03780000  1.0
  O  O61  1  0.00826000  0.76755000  0.53779000  1.0
  O  O62  1  0.00825000  0.26756000  0.96220000  1.0
  O  O63  1  0.99174000  0.23244000  0.46221000  1.0
  O  O64  1  0.26124000  0.98795000  0.01522000  1.0
  O  O65  1  0.73877000  0.51205000  0.51523000  1.0
  O  O66  1  0.73877000  0.01206000  0.98477000  1.0
  O  O67  1  0.26122000  0.48794000  0.48478000  1.0
  O  O68  1  0.07327000  0.38020000  0.12845000  1.0
  O  O69  1  0.92673000  0.11980000  0.62845000  1.0
  O  O70  1  0.92673000  0.61980000  0.87155000  1.0
  O  O71  1  0.07326000  0.88020000  0.37155000  1.0
  O  O72  1  0.51515000  0.31780000  0.03812000  1.0
  O  O73  1  0.48486000  0.18219000  0.53812000  1.0
  O  O74  1  0.48487000  0.68220000  0.96188000  1.0
  O  O75  1  0.51514000  0.81780000  0.46188000  1.0
