# generated using pymatgen
data_AlH15(C11O3)3
_symmetry_space_group_name_H-M   'P 1'
_cell_length_a   3.96488000
_cell_length_b   20.44140000
_cell_length_c   20.47107224
_cell_angle_alpha   119.92706270
_cell_angle_beta   90.07710557
_cell_angle_gamma   92.71680000
_symmetry_Int_Tables_number   1
_chemical_formula_structural   AlH15(C11O3)3
_chemical_formula_sum   'Al1 H15 C33 O9'
_cell_volume   1435.69154361
_cell_formula_units_Z   1
loop_
 _symmetry_equiv_pos_site_id
 _symmetry_equiv_pos_as_xyz
  1  'x, y, z'
loop_
 _atom_site_type_symbol
 _atom_site_label
 _atom_site_symmetry_multiplicity
 _atom_site_fract_x
 _atom_site_fract_y
 _atom_site_fract_z
 _atom_site_occupancy
  Al  Al0  1  0.03060000  0.00069000  0.50015000  1.0
  H  H1  1  0.81967000  0.98578000  0.29325000  1.0
  H  H2  1  0.80657000  0.91705000  0.15255000  1.0
  H  H3  1  0.23208000  0.98398000  0.69261000  1.0
  H  H4  1  0.23257000  0.91499000  0.76471000  1.0
  H  H5  1  0.26904000  0.20696000  0.51536000  1.0
  H  H6  1  0.28672000  0.34811000  0.58425000  1.0
  H  H7  1  0.78493000  0.80924000  0.51666000  1.0
  H  H8  1  0.76709000  0.73706000  0.58534000  1.0
  H  H9  1  0.20071000  0.80610000  0.29042000  1.0
  H  H10  1  0.20601000  0.73389000  0.14956000  1.0
  H  H11  1  0.87002000  0.21203000  0.69274000  1.0
  H  H12  1  0.86983000  0.35287000  0.76485000  1.0
  H  H13  1  0.52882000  0.63609000  0.66517000  1.0
  H  H14  1  0.56088000  0.53036000  0.86568000  1.0
  H  H15  1  0.47320000  0.83519000  0.97070000  1.0
  C  C16  1  0.51684000  0.94204000  0.38384000  1.0
  C  C17  1  0.55728000  0.11723000  0.55811000  1.0
  C  C18  1  0.51720000  0.94274000  0.55862000  1.0
  C  C19  1  0.68113000  0.93128000  0.26112000  1.0
  C  C20  1  0.67416000  0.89290000  0.18290000  1.0
  C  C21  1  0.35279000  0.93045000  0.67031000  1.0
  C  C22  1  0.35198000  0.89205000  0.71026000  1.0
  C  C23  1  0.40504000  0.23964000  0.56934000  1.0
  C  C24  1  0.41394000  0.31799000  0.60769000  1.0
  C  C25  1  0.65913000  0.83107000  0.57028000  1.0
  C  C26  1  0.64940000  0.79107000  0.60863000  1.0
  C  C27  1  0.33675000  0.82918000  0.25957000  1.0
  C  C28  1  0.33846000  0.78921000  0.18137000  1.0
  C  C29  1  0.73844000  0.24238000  0.67017000  1.0
  C  C30  1  0.73883000  0.32073000  0.71014000  1.0
  C  C31  1  0.51060000  0.90007000  0.30008000  1.0
  C  C32  1  0.50573000  0.82078000  0.14176000  1.0
  C  C33  1  0.50655000  0.78000000  0.06204000  1.0
  C  C34  1  0.50839000  0.74174000  0.99323000  1.0
  C  C35  1  0.51301000  0.70316000  0.91390000  1.0
  C  C36  1  0.50896000  0.90074000  0.60043000  1.0
  C  C37  1  0.49856000  0.82133000  0.67968000  1.0
  C  C38  1  0.49713000  0.78230000  0.72044000  1.0
  C  C39  1  0.49870000  0.75177000  0.75885000  1.0
  C  C40  1  0.50738000  0.71113000  0.79761000  1.0
  C  C41  1  0.56851000  0.20115000  0.59992000  1.0
  C  C42  1  0.57779000  0.35983000  0.67933000  1.0
  C  C43  1  0.57508000  0.43959000  0.71892000  1.0
  C  C44  1  0.56087000  0.50828000  0.74949000  1.0
  C  C45  1  0.54265000  0.58740000  0.79003000  1.0
  C  C46  1  0.49833000  0.74578000  0.87675000  1.0
  C  C47  1  0.53033000  0.63164000  0.75504000  1.0
  C  C48  1  0.53390000  0.62425000  0.86975000  1.0
  O  O49  1  0.29353000  0.99083000  0.57320000  1.0
  O  O50  1  0.27709000  0.92724000  0.41691000  1.0
  O  O51  1  0.31601000  0.08292000  0.50951000  1.0
  O  O52  1  0.74809000  0.92808000  0.51044000  1.0
  O  O53  1  0.78724000  0.08458000  0.57308000  1.0
  O  O54  1  0.76290000  0.99051000  0.41751000  1.0
  O  O55  1  0.54110000  0.59659000  0.67911000  1.0
  O  O56  1  0.54553000  0.58356000  0.90516000  1.0
  O  O57  1  0.47624000  0.82150000  0.91728000  1.0
