# generated using pymatgen
data_MgH16C16(NO5)2
_symmetry_space_group_name_H-M   'P 1'
_cell_length_a   7.05964000
_cell_length_b   9.97563000
_cell_length_c   11.08770000
_cell_angle_alpha   89.99950000
_cell_angle_beta   87.16230000
_cell_angle_gamma   89.99920000
_symmetry_Int_Tables_number   1
_chemical_formula_structural   MgH16C16(NO5)2
_chemical_formula_sum   'Mg2 H32 C32 N4 O20'
_cell_volume   779.88665041
_cell_formula_units_Z   2
loop_
 _symmetry_equiv_pos_site_id
 _symmetry_equiv_pos_as_xyz
  1  'x, y, z'
loop_
 _atom_site_type_symbol
 _atom_site_label
 _atom_site_symmetry_multiplicity
 _atom_site_fract_x
 _atom_site_fract_y
 _atom_site_fract_z
 _atom_site_occupancy
  Mg  Mg0  1  0.74999000  0.27893000  0.75000000  1.0
  Mg  Mg1  1  0.25000000  0.72107000  0.25000000  1.0
  H  H2  1  0.83424000  0.96659000  0.96905000  1.0
  H  H3  1  0.66576000  0.96659000  0.53095000  1.0
  H  H4  1  0.16576000  0.03341000  0.03095000  1.0
  H  H5  1  0.33424000  0.03341000  0.46905000  1.0
  H  H6  1  0.86693000  0.53673000  0.93845000  1.0
  H  H7  1  0.63307000  0.53673000  0.56154000  1.0
  H  H8  1  0.13307000  0.46327000  0.06154000  1.0
  H  H9  1  0.36694000  0.46327000  0.43846000  1.0
  H  H10  1  0.08054000  0.78749000  0.64619000  1.0
  H  H11  1  0.41946000  0.78749000  0.85381000  1.0
  H  H12  1  0.91947000  0.21251000  0.35381000  1.0
  H  H13  1  0.58054000  0.21251000  0.14619000  1.0
  H  H14  1  0.83522000  0.35010000  0.49433000  1.0
  H  H15  1  0.66477000  0.35010000  0.00566000  1.0
  H  H16  1  0.16478000  0.64990000  0.50567000  1.0
  H  H17  1  0.33522000  0.64990000  0.99433000  1.0
  H  H18  1  0.73540000  0.20989000  0.52237000  1.0
  H  H19  1  0.76458000  0.20988000  0.97763000  1.0
  H  H20  1  0.26459000  0.79011000  0.47763000  1.0
  H  H21  1  0.23541000  0.79012000  0.02237000  1.0
  H  H22  1  0.67129000  0.82094000  0.11018000  1.0
  H  H23  1  0.82872000  0.82094000  0.38982000  1.0
  H  H24  1  0.32871000  0.17906000  0.88982000  1.0
  H  H25  1  0.17128000  0.17906000  0.61018000  1.0
  H  H26  1  0.86799000  0.73597000  0.14868000  1.0
  H  H27  1  0.63201000  0.73599000  0.35132000  1.0
  H  H28  1  0.13201000  0.26402000  0.85132000  1.0
  H  H29  1  0.36799000  0.26400000  0.64868000  1.0
  H  H30  1  0.68800000  0.64476000  0.09657000  1.0
  H  H31  1  0.81200000  0.64476000  0.40343000  1.0
  H  H32  1  0.31200000  0.35525000  0.90343000  1.0
  H  H33  1  0.18800000  0.35524000  0.59657000  1.0
  C  C34  1  0.99950000  0.02586000  0.74528000  1.0
  C  C35  1  0.50050000  0.02586000  0.75471000  1.0
  C  C36  1  0.00050000  0.97414000  0.25472000  1.0
  C  C37  1  0.49950000  0.97414000  0.24529000  1.0
  C  C38  1  0.96649000  0.89044000  0.80241000  1.0
  C  C39  1  0.53350000  0.89044000  0.69759000  1.0
  C  C40  1  0.03352000  0.10956000  0.19759000  1.0
  C  C41  1  0.46650000  0.10956000  0.30241000  1.0
  C  C42  1  0.87961000  0.87807000  0.91813000  1.0
  C  C43  1  0.62040000  0.87808000  0.58187000  1.0
  C  C44  1  0.12039000  0.12193000  0.08187000  1.0
  C  C45  1  0.37961000  0.12192000  0.41813000  1.0
  C  C46  1  0.84728000  0.75058000  0.96614000  1.0
  C  C47  1  0.65272000  0.75057000  0.53386000  1.0
  C  C48  1  0.15272000  0.24942000  0.03386000  1.0
  C  C49  1  0.34728000  0.24942000  0.46615000  1.0
  C  C50  1  0.89568000  0.63584000  0.90086000  1.0
  C  C51  1  0.60433000  0.63584000  0.59913000  1.0
  C  C52  1  0.10432000  0.36416000  0.09914000  1.0
  C  C53  1  0.39568000  0.36416000  0.40087000  1.0
  C  C54  1  0.98019000  0.64796000  0.78450000  1.0
  C  C55  1  0.51980000  0.64797000  0.71550000  1.0
  C  C56  1  0.01981000  0.35204000  0.21550000  1.0
  C  C57  1  0.48020000  0.35203000  0.28451000  1.0
  C  C58  1  0.01716000  0.77521000  0.73671000  1.0
  C  C59  1  0.48283000  0.77520000  0.76329000  1.0
  C  C60  1  0.98284000  0.22479000  0.26329000  1.0
  C  C61  1  0.51717000  0.22480000  0.23671000  1.0
  C  C62  1  0.02525000  0.52265000  0.71410000  1.0
  C  C63  1  0.47474000  0.52266000  0.78590000  1.0
  C  C64  1  0.97475000  0.47734000  0.28591000  1.0
  C  C65  1  0.52526000  0.47734000  0.21410000  1.0
  N  N66  1  0.76116000  0.73632000  0.08745000  1.0
  N  N67  1  0.73884000  0.73632000  0.41255000  1.0
  N  N68  1  0.23884000  0.26368000  0.91254000  1.0
  N  N69  1  0.26116000  0.26367000  0.58746000  1.0
  O  O70  1  0.09139000  0.03118000  0.64490000  1.0
  O  O71  1  0.40861000  0.03118000  0.85510000  1.0
  O  O72  1  0.90862000  0.96882000  0.35509000  1.0
  O  O73  1  0.59139000  0.96882000  0.14490000  1.0
  O  O74  1  0.93094000  0.12821000  0.80284000  1.0
  O  O75  1  0.56906000  0.12821000  0.69715000  1.0
  O  O76  1  0.06906000  0.87179000  0.19715000  1.0
  O  O77  1  0.43094000  0.87178000  0.30285000  1.0
  O  O78  1  0.11919000  0.52893000  0.61354000  1.0
  O  O79  1  0.38081000  0.52895000  0.88646000  1.0
  O  O80  1  0.88082000  0.47106000  0.38646000  1.0
  O  O81  1  0.61918000  0.47106000  0.11354000  1.0
  O  O82  1  0.96764000  0.41208000  0.76130000  1.0
  O  O83  1  0.53234000  0.41208000  0.73870000  1.0
  O  O84  1  0.03235000  0.58793000  0.23870000  1.0
  O  O85  1  0.46765000  0.58792000  0.26130000  1.0
  O  O86  1  0.80933000  0.28064000  0.55803000  1.0
  O  O87  1  0.69066000  0.28064000  0.94197000  1.0
  O  O88  1  0.19067000  0.71936000  0.44197000  1.0
  O  O89  1  0.30934000  0.71936000  0.05803000  1.0
