# generated using pymatgen
data_Ba2CoH14(C3O8)2
_symmetry_space_group_name_H-M   'P 1'
_cell_length_a   6.90041000
_cell_length_b   7.14144000
_cell_length_c   8.73846000
_cell_angle_alpha   82.39130000
_cell_angle_beta   71.24910000
_cell_angle_gamma   81.33880000
_symmetry_Int_Tables_number   1
_chemical_formula_structural   Ba2CoH14(C3O8)2
_chemical_formula_sum   'Ba2 Co1 H14 C6 O16'
_cell_volume   401.48993902
_cell_formula_units_Z   1
loop_
 _symmetry_equiv_pos_site_id
 _symmetry_equiv_pos_as_xyz
  1  'x, y, z'
loop_
 _atom_site_type_symbol
 _atom_site_label
 _atom_site_symmetry_multiplicity
 _atom_site_fract_x
 _atom_site_fract_y
 _atom_site_fract_z
 _atom_site_occupancy
  Ba  Ba0  1  0.09735000  0.73499000  0.35211000  1.0
  Ba  Ba1  1  0.90265000  0.26501000  0.64789000  1.0
  Co  Co2  1  0.00000000  0.00000000  0.00000000  1.0
  H  H3  1  0.59496000  0.89981000  0.06478000  1.0
  H  H4  1  0.40504000  0.10019000  0.93522000  1.0
  H  H5  1  0.01229000  0.37076000  0.08564000  1.0
  H  H6  1  0.98771000  0.62924000  0.91436000  1.0
  H  H7  1  0.46735000  0.38732000  0.11418000  1.0
  H  H8  1  0.53265000  0.61268000  0.88581000  1.0
  H  H9  1  0.34894000  0.05723000  0.42405000  1.0
  H  H10  1  0.65106000  0.94277000  0.57595000  1.0
  H  H11  1  0.30124000  0.92684000  0.59133000  1.0
  H  H12  1  0.69876000  0.07316000  0.40867000  1.0
  H  H13  1  0.38538000  0.34989000  0.42070000  1.0
  H  H14  1  0.61463000  0.65011000  0.57930000  1.0
  H  H15  1  0.35010000  0.40519000  0.59678000  1.0
  H  H16  1  0.64990000  0.59480000  0.40321000  1.0
  C  C17  1  0.65279000  0.80559000  0.15557000  1.0
  C  C18  1  0.34721000  0.19441000  0.84443000  1.0
  C  C19  1  0.04728000  0.27597000  0.18661000  1.0
  C  C20  1  0.95272000  0.72403000  0.81339000  1.0
  C  C21  1  0.58606000  0.27197000  0.13476000  1.0
  C  C22  1  0.41394000  0.72803000  0.86524000  1.0
  O  O23  1  0.83606000  0.82224000  0.15502000  1.0
  O  O24  1  0.16394000  0.17777000  0.84498000  1.0
  O  O25  1  0.54004000  0.68982000  0.25087000  1.0
  O  O26  1  0.45995000  0.31019000  0.74913000  1.0
  O  O27  1  0.07098000  0.34681000  0.30226000  1.0
  O  O28  1  0.92902000  0.65319000  0.69775000  1.0
  O  O29  1  0.06231000  0.09591000  0.17487000  1.0
  O  O30  1  0.93769000  0.90409000  0.82513000  1.0
  O  O31  1  0.73379000  0.22625000  0.01081000  1.0
  O  O32  1  0.26621000  0.77376000  0.98918000  1.0
  O  O33  1  0.55819000  0.19970000  0.28083000  1.0
  O  O34  1  0.44180000  0.80030000  0.71917000  1.0
  O  O35  1  0.24301000  0.98606000  0.50373000  1.0
  O  O36  1  0.75699000  0.01394000  0.49626000  1.0
  O  O37  1  0.28623000  0.42394000  0.50779000  1.0
  O  O38  1  0.71377000  0.57606000  0.49221000  1.0
