# generated using pymatgen
data_Zn2CoH32C32(NO5)4
_symmetry_space_group_name_H-M   'P 1'
_cell_length_a   6.87005000
_cell_length_b   10.06740000
_cell_length_c   13.31080000
_cell_angle_alpha   84.10390000
_cell_angle_beta   79.67670000
_cell_angle_gamma   78.72660000
_symmetry_Int_Tables_number   1
_chemical_formula_structural   Zn2CoH32C32(NO5)4
_chemical_formula_sum   'Zn2 Co1 H32 C32 N4 O20'
_cell_volume   886.05503161
_cell_formula_units_Z   1
loop_
 _symmetry_equiv_pos_site_id
 _symmetry_equiv_pos_as_xyz
  1  'x, y, z'
loop_
 _atom_site_type_symbol
 _atom_site_label
 _atom_site_symmetry_multiplicity
 _atom_site_fract_x
 _atom_site_fract_y
 _atom_site_fract_z
 _atom_site_occupancy
  Zn  Zn0  1  0.66924000  0.53119000  0.61439000  1.0
  Zn  Zn1  1  0.33076000  0.46881000  0.38562000  1.0
  Co  Co2  1  0.50001000  0.50000000  0.00000000  1.0
  H  H3  1  0.94339000  0.54687000  0.72759000  1.0
  H  H4  1  0.05662000  0.45313000  0.27241000  1.0
  H  H5  1  0.72225000  0.62560000  0.77303000  1.0
  H  H6  1  0.27775000  0.37440000  0.22697000  1.0
  H  H7  1  0.56559000  0.72765000  0.91773000  1.0
  H  H8  1  0.43442000  0.27236000  0.08227000  1.0
  H  H9  1  0.42119000  0.68990000  0.84017000  1.0
  H  H10  1  0.57882000  0.31010000  0.15983000  1.0
  H  H11  1  0.15058000  0.64656000  0.04892000  1.0
  H  H12  1  0.84943000  0.35344000  0.95107000  1.0
  H  H13  1  0.14514000  0.55683000  0.95681000  1.0
  H  H14  1  0.85487000  0.44317000  0.04319000  1.0
  H  H15  1  0.12739000  0.96804000  0.75562000  1.0
  H  H16  1  0.87260000  0.03196000  0.24438000  1.0
  H  H17  1  0.56719000  0.01149000  0.56867000  1.0
  H  H18  1  0.43280000  0.98851000  0.43133000  1.0
  H  H19  1  0.61896000  0.88129000  0.73317000  1.0
  H  H20  1  0.38104000  0.11871000  0.26683000  1.0
  H  H21  1  0.54486000  0.00599000  0.89428000  1.0
  H  H22  1  0.45514000  0.99401000  0.10572000  1.0
  H  H23  1  0.82212000  0.31670000  0.75380000  1.0
  H  H24  1  0.17789000  0.68330000  0.24620000  1.0
  H  H25  1  0.18169000  0.99186000  0.57763000  1.0
  H  H26  1  0.81831000  0.00813000  0.42237000  1.0
  H  H27  1  0.10410000  0.13459000  0.41957000  1.0
  H  H28  1  0.89588000  0.86541000  0.58043000  1.0
  H  H29  1  0.87463000  0.36087000  0.43707000  1.0
  H  H30  1  0.12536000  0.63913000  0.56293000  1.0
  H  H31  1  0.19261000  0.93459000  0.93134000  1.0
  H  H32  1  0.80738000  0.06541000  0.06867000  1.0
  H  H33  1  0.94995000  0.89550000  0.93678000  1.0
  H  H34  1  0.05002000  0.10451000  0.06322000  1.0
  C  C35  1  0.41422000  0.27423000  0.72395000  1.0
  C  C36  1  0.58577000  0.72577000  0.27605000  1.0
  C  C37  1  0.46124000  0.20377000  0.63389000  1.0
  C  C38  1  0.53876000  0.79623000  0.36611000  1.0
  C  C39  1  0.53600000  0.06360000  0.63900000  1.0
  C  C40  1  0.46400000  0.93640000  0.36100000  1.0
  C  C41  1  0.56314000  0.99049000  0.73144000  1.0
  C  C42  1  0.43685000  0.00951000  0.26857000  1.0
  C  C43  1  0.52062000  0.05919000  0.82069000  1.0
  C  C44  1  0.47938000  0.94082000  0.17931000  1.0
  C  C45  1  0.44966000  0.19951000  0.81702000  1.0
  C  C46  1  0.55035000  0.80049000  0.18298000  1.0
  C  C47  1  0.31100000  0.42277000  0.72750000  1.0
  C  C48  1  0.68900000  0.57724000  0.27250000  1.0
  C  C49  1  0.43261000  0.26665000  0.91386000  1.0
  C  C50  1  0.56740000  0.73335000  0.08614000  1.0
  C  C51  1  0.43669000  0.27039000  0.52928000  1.0
  C  C52  1  0.56330000  0.72961000  0.47072000  1.0
  C  C53  1  0.88449000  0.27186000  0.68176000  1.0
  C  C54  1  0.11552000  0.72815000  0.31824000  1.0
  C  C55  1  0.00226000  0.14194000  0.67889000  1.0
  C  C56  1  0.99773000  0.85806000  0.32111000  1.0
  C  C57  1  0.08345000  0.09125000  0.58302000  1.0
  C  C58  1  0.91654000  0.90875000  0.41698000  1.0
  C  C59  1  0.04038000  0.16997000  0.49499000  1.0
  C  C60  1  0.95962000  0.83002000  0.50501000  1.0
  C  C61  1  0.91718000  0.29677000  0.50344000  1.0
  C  C62  1  0.08282000  0.70322000  0.49655000  1.0
  C  C63  1  0.98156000  0.09266000  0.86746000  1.0
  C  C64  1  0.01842000  0.90734000  0.13254000  1.0
  C  C65  1  0.03063000  0.97690000  0.94590000  1.0
  C  C66  1  0.96936000  0.02311000  0.05410000  1.0
  N  N67  1  0.84363000  0.34541000  0.59556000  1.0
  N  N68  1  0.15637000  0.65458000  0.40443000  1.0
  N  N69  1  0.04123000  0.06109000  0.76772000  1.0
  N  N70  1  0.95876000  0.93891000  0.23228000  1.0
  O  O71  1  0.40491000  0.52141000  0.69687000  1.0
  O  O72  1  0.59509000  0.47859000  0.30312000  1.0
  O  O73  1  0.12783000  0.43983000  0.76715000  1.0
  O  O74  1  0.87217000  0.56017000  0.23285000  1.0
  O  O75  1  0.47649000  0.38634000  0.90078000  1.0
  O  O76  1  0.52352000  0.61366000  0.09922000  1.0
  O  O77  1  0.38981000  0.20162000  0.99950000  1.0
  O  O78  1  0.61020000  0.79839000  0.00050000  1.0
  O  O79  1  0.32877000  0.39163000  0.52720000  1.0
  O  O80  1  0.67122000  0.60837000  0.47279000  1.0
  O  O81  1  0.51762000  0.20944000  0.45078000  1.0
  O  O82  1  0.48240000  0.79056000  0.54922000  1.0
  O  O83  1  0.81821000  0.60699000  0.70727000  1.0
  O  O84  1  0.18179000  0.39301000  0.29273000  1.0
  O  O85  1  0.54397000  0.65862000  0.86909000  1.0
  O  O86  1  0.45604000  0.34139000  0.13091000  1.0
  O  O87  1  0.19920000  0.55648000  0.01986000  1.0
  O  O88  1  0.80081000  0.44352000  0.98014000  1.0
  O  O89  1  0.88843000  0.20600000  0.89219000  1.0
  O  O90  1  0.11156000  0.79400000  0.10781000  1.0
