# generated using pymatgen
data_Zn2H26C45I8N2O11
_symmetry_space_group_name_H-M   'P 1'
_cell_length_a   12.50660000
_cell_length_b   13.28830000
_cell_length_c   15.97410000
_cell_angle_alpha   89.30520000
_cell_angle_beta   75.28550000
_cell_angle_gamma   80.17010000
_symmetry_Int_Tables_number   1
_chemical_formula_structural   Zn2H26C45I8N2O11
_chemical_formula_sum   'Zn2 H26 C45 I8 N2 O11'
_cell_volume   2528.63613408
_cell_formula_units_Z   1
loop_
 _symmetry_equiv_pos_site_id
 _symmetry_equiv_pos_as_xyz
  1  'x, y, z'
loop_
 _atom_site_type_symbol
 _atom_site_label
 _atom_site_symmetry_multiplicity
 _atom_site_fract_x
 _atom_site_fract_y
 _atom_site_fract_z
 _atom_site_occupancy
  Zn  Zn0  1  0.61572000  0.51813000  0.48567000  1.0
  Zn  Zn1  1  0.38197000  0.48179000  0.52340000  1.0
  H  H2  1  0.66527000  0.54294000  0.03227000  1.0
  H  H3  1  0.53002000  0.65136000  0.92051000  1.0
  H  H4  1  0.18334000  0.00762000  0.49423000  1.0
  H  H5  1  0.54759000  0.81353000  0.51255000  1.0
  H  H6  1  0.76441000  0.20506000  0.51322000  1.0
  H  H7  1  0.80475000  0.02149000  0.54700000  1.0
  H  H8  1  0.65265000  0.55634000  0.88936000  1.0
  H  H9  1  0.14586000  0.64096000  0.32211000  1.0
  H  H10  1  0.95244000  0.69533000  0.31180000  1.0
  H  H11  1  0.27084000  0.32794000  0.61954000  1.0
  H  H12  1  0.93448000  0.36062000  0.58528000  1.0
  H  H13  1  0.27828000  0.55198000  0.40105000  1.0
  H  H14  1  0.48884000  0.33651000  0.94426000  1.0
  H  H15  1  0.64280000  0.38252000  0.04696000  1.0
  H  H16  1  0.51284000  0.34017000  0.08380000  1.0
  H  H17  1  0.34217000  0.60481000  0.96409000  1.0
  H  H18  1  0.32226000  0.47666000  0.97211000  1.0
  H  H19  1  0.68206000  0.73976000  0.98201000  1.0
  H  H20  1  0.71558000  0.68411000  0.07756000  1.0
  H  H21  1  0.61904000  0.80232000  0.08578000  1.0
  H  H22  1  0.50538000  0.30675000  0.26962000  1.0
  H  H23  1  0.48489000  0.17641000  0.26644000  1.0
  H  H24  1  0.60363000  0.20651000  0.29976000  1.0
  H  H25  1  0.73710000  0.46822000  0.69475000  1.0
  H  H26  1  0.71655000  0.59150000  0.64966000  1.0
  H  H27  1  0.85521000  0.53359000  0.65829000  1.0
  C  C28  1  0.57417000  0.30811000  0.49068000  1.0
  C  C29  1  0.57931000  0.57720000  0.02951000  1.0
  C  C30  1  0.50290000  0.50618000  0.08581000  1.0
  C  C31  1  0.37944000  0.53194000  0.07904000  1.0
  C  C32  1  0.37641000  0.52907000  0.98326000  1.0
  C  C33  1  0.51288000  0.50763000  0.17405000  1.0
  C  C34  1  0.48628000  0.49451000  0.83408000  1.0
  C  C35  1  0.47310000  0.49552000  0.76126000  1.0
  C  C36  1  0.26356000  0.96505000  0.49999000  1.0
  C  C37  1  0.37994000  0.80592000  0.51862000  1.0
  C  C38  1  0.70732000  0.15386000  0.50678000  1.0
  C  C39  1  0.47006000  0.49660000  0.67095000  1.0
  C  C40  1  0.72865000  0.05112000  0.52699000  1.0
  C  C41  1  0.64970000  0.98827000  0.52860000  1.0
  C  C42  1  0.54984000  0.02274000  0.50099000  1.0
  C  C43  1  0.53479000  0.12717000  0.47449000  1.0
  C  C44  1  0.45969000  0.96575000  0.50080000  1.0
  C  C45  1  0.35597000  0.01673000  0.48516000  1.0
  C  C46  1  0.35315000  0.11508000  0.44716000  1.0
  C  C47  1  0.44293000  0.16478000  0.43599000  1.0
  C  C48  1  0.46785000  0.86014000  0.51183000  1.0
  C  C49  1  0.27305000  0.86248000  0.51925000  1.0
  C  C50  1  0.41170000  0.69170000  0.51803000  1.0
  C  C51  1  0.60853000  0.19375000  0.48489000  1.0
  C  C52  1  0.92365000  0.64350000  0.36254000  1.0
  C  C53  1  0.20530000  0.36202000  0.58884000  1.0
  C  C54  1  0.09963000  0.33193000  0.60730000  1.0
  C  C55  1  0.01703000  0.38225000  0.57068000  1.0
  C  C56  1  0.04150000  0.46057000  0.51195000  1.0
  C  C57  1  0.15409000  0.47937000  0.48922000  1.0
  C  C58  1  0.96167000  0.52049000  0.47091000  1.0
  C  C59  1  0.00095000  0.58545000  0.40233000  1.0
  C  C60  1  0.11689000  0.59361000  0.37658000  1.0
  C  C61  1  0.52827000  0.50206000  0.33705000  1.0
  C  C62  1  0.19016000  0.54483000  0.42003000  1.0
  C  C63  1  0.84451000  0.52181000  0.49505000  1.0
  C  C64  1  0.81136000  0.63584000  0.38938000  1.0
  C  C65  1  0.56961000  0.57519000  0.93508000  1.0
  C  C66  1  0.54361000  0.39038000  0.95095000  1.0
  C  C67  1  0.55480000  0.39713000  0.04425000  1.0
  C  C68  1  0.52493000  0.50508000  0.24713000  1.0
  C  C69  1  0.49668000  0.49664000  0.92243000  1.0
  C  C70  1  0.64826000  0.72774000  0.05161000  1.0
  C  C71  1  0.51496000  0.23297000  0.30057000  1.0
  C  C72  1  0.77572000  0.51958000  0.64692000  1.0
  I  I73  1  0.28367000  0.41829000  0.15157000  1.0
  I  I74  1  0.12108000  0.80463000  0.54886000  1.0
  I  I75  1  0.22092000  0.17881000  0.39250000  1.0
  I  I76  1  0.69400000  0.84671000  0.58597000  1.0
  I  I77  1  0.70213000  0.73339000  0.33129000  1.0
  I  I78  1  0.06935000  0.20959000  0.68882000  1.0
  I  I79  1  0.70413000  0.32221000  0.86311000  1.0
  I  I80  1  0.29201000  0.68019000  0.14026000  1.0
  N  N81  1  0.77220000  0.57415000  0.45424000  1.0
  N  N82  1  0.23072000  0.43334000  0.53144000  1.0
  O  O83  1  0.65014000  0.36181000  0.46293000  1.0
  O  O84  1  0.47245000  0.34080000  0.53035000  1.0
  O  O85  1  0.56535000  0.49381000  0.61778000  1.0
  O  O86  1  0.37561000  0.50011000  0.65402000  1.0
  O  O87  1  0.51436000  0.65751000  0.51469000  1.0
  O  O88  1  0.33749000  0.63716000  0.51796000  1.0
  O  O89  1  0.61460000  0.52335000  0.35572000  1.0
  O  O90  1  0.44187000  0.47768000  0.38901000  1.0
  O  O91  1  0.55356000  0.67729000  0.06704000  1.0
  O  O92  1  0.44641000  0.25082000  0.38816000  1.0
  O  O93  1  0.79634000  0.46801000  0.56302000  1.0
