# generated using pymatgen
data_Mn3H46(C25O12)2
_symmetry_space_group_name_H-M   'P 1'
_cell_length_a   9.74519000
_cell_length_b   12.22300000
_cell_length_c   13.52860000
_cell_angle_alpha   107.56200000
_cell_angle_beta   105.53000000
_cell_angle_gamma   107.47200000
_symmetry_Int_Tables_number   1
_chemical_formula_structural   Mn3H46(C25O12)2
_chemical_formula_sum   'Mn3 H46 C50 O24'
_cell_volume   1346.91195555
_cell_formula_units_Z   1
loop_
 _symmetry_equiv_pos_site_id
 _symmetry_equiv_pos_as_xyz
  1  'x, y, z'
loop_
 _atom_site_type_symbol
 _atom_site_label
 _atom_site_symmetry_multiplicity
 _atom_site_fract_x
 _atom_site_fract_y
 _atom_site_fract_z
 _atom_site_occupancy
  Mn  Mn0  1  0.21585000  0.65170000  0.46410000  1.0
  Mn  Mn1  1  0.78415000  0.34830000  0.53590000  1.0
  Mn  Mn2  1  0.49999000  0.49999000  0.49999000  1.0
  H  H3  1  0.85603000  0.48404000  0.88379000  1.0
  H  H4  1  0.14397000  0.51596000  0.11621000  1.0
  H  H5  1  0.80898000  0.61719000  0.89599000  1.0
  H  H6  1  0.19102000  0.38281000  0.10402000  1.0
  H  H7  1  0.92184000  0.57571000  0.77231000  1.0
  H  H8  1  0.07815000  0.42430000  0.22770000  1.0
  H  H9  1  0.69121000  0.46572000  0.97930000  1.0
  H  H10  1  0.30880000  0.53428000  0.02071000  1.0
  H  H11  1  0.88140000  0.53767000  0.09032000  1.0
  H  H12  1  0.11861000  0.46234000  0.90969000  1.0
  H  H13  1  0.32906000  0.79281000  0.08796000  1.0
  H  H14  1  0.67094000  0.20719000  0.91205000  1.0
  H  H15  1  0.03414000  0.84075000  0.17566000  1.0
  H  H16  1  0.96588000  0.15925000  0.82433000  1.0
  H  H17  1  0.36652000  0.76949000  0.77050000  1.0
  H  H18  1  0.63346000  0.23050000  0.22949000  1.0
  H  H19  1  0.31490000  0.96596000  0.31612000  1.0
  H  H20  1  0.68510000  0.03405000  0.68387000  1.0
  H  H21  1  0.57197000  0.94397000  0.89169000  1.0
  H  H22  1  0.42802000  0.05602000  0.10830000  1.0
  H  H23  1  0.62341000  0.81416000  0.88734000  1.0
  H  H24  1  0.37658000  0.18582000  0.11264000  1.0
  H  H25  1  0.51848000  0.43982000  0.24724000  1.0
  H  H26  1  0.48152000  0.56017000  0.75275000  1.0
  H  H27  1  0.29687000  0.29990000  0.27965000  1.0
  H  H28  1  0.70312000  0.70010000  0.72035000  1.0
  H  H29  1  0.84422000  0.03657000  0.98507000  1.0
  H  H30  1  0.15577000  0.96341000  0.01492000  1.0
  H  H31  1  0.77251000  0.06562000  0.09474000  1.0
  H  H32  1  0.22748000  0.93437000  0.90524000  1.0
  H  H33  1  0.48804000  0.78836000  0.26562000  1.0
  H  H34  1  0.51197000  0.21164000  0.73440000  1.0
  H  H35  1  0.06894000  0.76679000  0.33946000  1.0
  H  H36  1  0.93108000  0.23322000  0.66055000  1.0
  H  H37  1  0.95201000  0.70712000  0.38815000  1.0
  H  H38  1  0.04800000  0.29289000  0.61186000  1.0
  H  H39  1  0.02412000  0.18036000  0.14679000  1.0
  H  H40  1  0.97588000  0.81963000  0.85320000  1.0
  H  H41  1  0.65888000  0.81295000  0.15656000  1.0
  H  H42  1  0.34113000  0.18705000  0.84345000  1.0
  H  H43  1  0.68407000  0.46122000  0.13934000  1.0
  H  H44  1  0.31593000  0.53878000  0.86066000  1.0
  H  H45  1  0.80183000  0.59722000  0.52519000  1.0
  H  H46  1  0.19818000  0.40278000  0.47481000  1.0
  H  H47  1  0.75717000  0.71247000  0.55817000  1.0
  H  H48  1  0.24284000  0.28753000  0.44183000  1.0
  C  C49  1  0.48847000  0.61047000  0.26063000  1.0
  C  C50  1  0.51153000  0.38954000  0.73937000  1.0
  C  C51  1  0.87028000  0.57505000  0.94339000  1.0
  C  C52  1  0.12971000  0.42496000  0.05661000  1.0
  C  C53  1  0.04629000  0.63399000  0.82035000  1.0
  C  C54  1  0.95370000  0.36602000  0.17965000  1.0
  C  C55  1  0.80107000  0.55177000  0.02572000  1.0
  C  C56  1  0.19893000  0.44823000  0.97428000  1.0
  C  C57  1  0.32392000  0.14163000  0.30884000  1.0
  C  C58  1  0.67608000  0.85838000  0.69115000  1.0
  C  C59  1  0.06215000  0.63028000  0.63829000  1.0
  C  C60  1  0.93786000  0.36972000  0.36172000  1.0
  C  C61  1  0.01070000  0.00225000  0.15413000  1.0
  C  C62  1  0.98930000  0.99775000  0.84586000  1.0
  C  C63  1  0.13934000  0.66777000  0.76235000  1.0
  C  C64  1  0.86065000  0.33223000  0.23765000  1.0
  C  C65  1  0.11545000  0.68113000  0.93823000  1.0
  C  C66  1  0.88455000  0.31888000  0.06178000  1.0
  C  C67  1  0.36772000  0.78772000  0.93688000  1.0
  C  C68  1  0.63228000  0.21228000  0.06312000  1.0
  C  C69  1  0.27590000  0.75696000  0.99649000  1.0
  C  C70  1  0.72409000  0.24305000  0.00351000  1.0
  C  C71  1  0.09373000  0.94210000  0.20253000  1.0
  C  C72  1  0.90628000  0.05790000  0.79746000  1.0
  C  C73  1  0.38331000  0.58976000  0.32095000  1.0
  C  C74  1  0.61668000  0.41025000  0.67905000  1.0
  C  C75  1  0.30014000  0.74419000  0.81925000  1.0
  C  C76  1  0.69985000  0.25581000  0.18075000  1.0
  C  C77  1  0.24850000  0.01132000  0.27883000  1.0
  C  C78  1  0.75151000  0.98868000  0.72117000  1.0
  C  C79  1  0.61930000  0.89877000  0.94309000  1.0
  C  C80  1  0.38070000  0.10121000  0.05691000  1.0
  C  C81  1  0.54702000  0.52051000  0.22571000  1.0
  C  C82  1  0.45297000  0.47949000  0.77429000  1.0
  C  C83  1  0.23993000  0.19981000  0.25951000  1.0
  C  C84  1  0.76007000  0.80019000  0.74048000  1.0
  C  C85  1  0.49052000  0.21606000  0.38807000  1.0
  C  C86  1  0.50948000  0.78395000  0.61193000  1.0
  C  C87  1  0.78015000  0.99210000  0.02830000  1.0
  C  C88  1  0.21984000  0.00789000  0.97169000  1.0
  C  C89  1  0.53118000  0.71712000  0.23672000  1.0
  C  C90  1  0.46883000  0.28288000  0.76328000  1.0
  C  C91  1  0.08479000  0.13175000  0.18331000  1.0
  C  C92  1  0.91521000  0.86825000  0.81668000  1.0
  C  C93  1  0.62700000  0.73209000  0.17757000  1.0
  C  C94  1  0.37300000  0.26792000  0.82244000  1.0
  C  C95  1  0.64123000  0.53303000  0.16532000  1.0
  C  C96  1  0.35876000  0.46697000  0.83468000  1.0
  C  C97  1  0.68013000  0.63862000  0.13982000  1.0
  C  C98  1  0.31987000  0.36138000  0.86018000  1.0
  O  O99  1  0.13473000  0.69184000  0.59403000  1.0
  O  O100  1  0.86528000  0.30815000  0.40598000  1.0
  O  O101  1  0.55139000  0.33833000  0.42109000  1.0
  O  O102  1  0.44861000  0.66168000  0.57891000  1.0
  O  O103  1  0.03428000  0.65761000  0.00331000  1.0
  O  O104  1  0.96572000  0.34239000  0.99670000  1.0
  O  O105  1  0.31023000  0.65982000  0.33905000  1.0
  O  O106  1  0.68978000  0.34018000  0.66095000  1.0
  O  O107  1  0.92175000  0.54295000  0.58388000  1.0
  O  O108  1  0.07826000  0.45705000  0.41611000  1.0
  O  O109  1  0.57344000  0.16255000  0.42239000  1.0
  O  O110  1  0.42656000  0.83746000  0.57761000  1.0
  O  O111  1  0.52217000  0.86493000  0.00160000  1.0
  O  O112  1  0.47783000  0.13505000  0.99839000  1.0
  O  O113  1  0.36614000  0.49785000  0.35111000  1.0
  O  O114  1  0.63386000  0.50216000  0.64890000  1.0
  O  O115  1  0.86102000  0.92857000  0.07778000  1.0
  O  O116  1  0.13898000  0.07142000  0.92221000  1.0
  O  O117  1  0.76865000  0.65669000  0.07850000  1.0
  O  O118  1  0.23134000  0.34331000  0.92151000  1.0
  O  O119  1  0.03534000  0.69943000  0.36350000  1.0
  O  O120  1  0.96467000  0.30057000  0.63650000  1.0
  O  O121  1  0.72171000  0.62914000  0.49820000  1.0
  O  O122  1  0.27830000  0.37086000  0.50180000  1.0
