# generated using pymatgen
data_AgH8C12S2N6ClO4
_symmetry_space_group_name_H-M   'P 1'
_cell_length_a   8.42488000
_cell_length_b   13.14050000
_cell_length_c   14.42700000
_cell_angle_alpha   90.00000000
_cell_angle_beta   90.00000000
_cell_angle_gamma   90.00000000
_symmetry_Int_Tables_number   1
_chemical_formula_structural   AgH8C12S2N6ClO4
_chemical_formula_sum   'Ag4 H32 C48 S8 N24 Cl4 O16'
_cell_volume   1597.17184588
_cell_formula_units_Z   4
loop_
 _symmetry_equiv_pos_site_id
 _symmetry_equiv_pos_as_xyz
  1  'x, y, z'
loop_
 _atom_site_type_symbol
 _atom_site_label
 _atom_site_symmetry_multiplicity
 _atom_site_fract_x
 _atom_site_fract_y
 _atom_site_fract_z
 _atom_site_occupancy
  Ag  Ag0  1  0.58605000  0.82431000  0.77764000  1.0
  Ag  Ag1  1  0.91395000  0.17569000  0.27764000  1.0
  Ag  Ag2  1  0.08605000  0.67569000  0.22236000  1.0
  Ag  Ag3  1  0.41395000  0.32431000  0.72236000  1.0
  H  H4  1  0.89546000  0.73816000  0.88663000  1.0
  H  H5  1  0.60453000  0.26184000  0.38663000  1.0
  H  H6  1  0.39546000  0.76183000  0.11337000  1.0
  H  H7  1  0.10454000  0.23816000  0.61337000  1.0
  H  H8  1  0.19038000  0.77800000  0.89323000  1.0
  H  H9  1  0.30961000  0.22200000  0.39322000  1.0
  H  H10  1  0.69038000  0.72200000  0.10677000  1.0
  H  H11  1  0.80961000  0.27800000  0.60677000  1.0
  H  H12  1  0.13722000  0.99138000  0.68402000  1.0
  H  H13  1  0.36279000  0.00861000  0.18402000  1.0
  H  H14  1  0.63721000  0.50862000  0.31597000  1.0
  H  H15  1  0.86278000  0.49138000  0.81598000  1.0
  H  H16  1  0.78504000  0.11195000  0.48889000  1.0
  H  H17  1  0.71497000  0.88805000  0.98890000  1.0
  H  H18  1  0.28504000  0.38805000  0.51111000  1.0
  H  H19  1  0.21497000  0.61195000  0.01110000  1.0
  H  H20  1  0.12704000  0.98900000  0.31342000  1.0
  H  H21  1  0.37297000  0.01100000  0.81342000  1.0
  H  H22  1  0.62703000  0.51100000  0.68658000  1.0
  H  H23  1  0.87297000  0.48900000  0.18658000  1.0
  H  H24  1  0.12628000  0.58454000  0.65223000  1.0
  H  H25  1  0.37373000  0.41546000  0.15223000  1.0
  H  H26  1  0.62627000  0.91546000  0.34778000  1.0
  H  H27  1  0.87372000  0.08454000  0.84777000  1.0
  H  H28  1  0.33836000  0.64382000  0.76479000  1.0
  H  H29  1  0.16164000  0.35618000  0.26480000  1.0
  H  H30  1  0.83836000  0.85618000  0.23521000  1.0
  H  H31  1  0.66163000  0.14382000  0.73521000  1.0
  H  H32  1  0.47189000  0.86973000  0.57734000  1.0
  H  H33  1  0.02811000  0.13027000  0.07734000  1.0
  H  H34  1  0.97189000  0.63027000  0.42266000  1.0
  H  H35  1  0.52811000  0.36973000  0.92266000  1.0
  C  C36  1  0.95083000  0.79296000  0.83990000  1.0
  C  C37  1  0.54917000  0.20703000  0.33990000  1.0
  C  C38  1  0.45083000  0.70703000  0.16010000  1.0
  C  C39  1  0.04916000  0.29296000  0.66010000  1.0
  C  C40  1  0.11208000  0.81530000  0.84354000  1.0
  C  C41  1  0.38792000  0.18470000  0.34354000  1.0
  C  C42  1  0.61207000  0.68470000  0.15646000  1.0
  C  C43  1  0.88792000  0.31530000  0.65646000  1.0
  C  C44  1  0.08337000  0.93295000  0.72763000  1.0
  C  C45  1  0.41663000  0.06705000  0.22763000  1.0
  C  C46  1  0.58336000  0.56705000  0.27237000  1.0
  C  C47  1  0.91663000  0.43294000  0.77237000  1.0
  C  C48  1  0.92168000  0.90815000  0.72052000  1.0
  C  C49  1  0.57832000  0.09185000  0.22052000  1.0
  C  C50  1  0.42168000  0.59185000  0.27948000  1.0
  C  C51  1  0.07832000  0.40815000  0.77948000  1.0
  C  C52  1  0.91053000  0.97833000  0.54158000  1.0
  C  C53  1  0.58947000  0.02167000  0.04158000  1.0
  C  C54  1  0.41053000  0.52167000  0.45842000  1.0
  C  C55  1  0.08947000  0.47833000  0.95842000  1.0
  C  C56  1  0.87550000  0.05429000  0.47656000  1.0
  C  C57  1  0.62451000  0.94571000  0.97656000  1.0
  C  C58  1  0.37550000  0.44570000  0.52344000  1.0
  C  C59  1  0.12451000  0.55429000  0.02344000  1.0
  C  C60  1  0.06557000  0.98639000  0.37948000  1.0
  C  C61  1  0.43444000  0.01361000  0.87948000  1.0
  C  C62  1  0.56557000  0.51361000  0.62052000  1.0
  C  C63  1  0.93443000  0.48639000  0.12052000  1.0
  C  C64  1  0.10460000  0.91451000  0.44816000  1.0
  C  C65  1  0.39540000  0.08549000  0.94816000  1.0
  C  C66  1  0.60460000  0.58549000  0.55184000  1.0
  C  C67  1  0.89540000  0.41451000  0.05184000  1.0
  C  C68  1  0.27922000  0.77102000  0.53403000  1.0
  C  C69  1  0.22078000  0.22899000  0.03403000  1.0
  C  C70  1  0.77922000  0.72898000  0.46597000  1.0
  C  C71  1  0.72078000  0.27102000  0.96597000  1.0
  C  C72  1  0.20399000  0.64859000  0.63594000  1.0
  C  C73  1  0.29601000  0.35141000  0.13594000  1.0
  C  C74  1  0.70399000  0.85141000  0.36406000  1.0
  C  C75  1  0.79601000  0.14859000  0.86406000  1.0
  C  C76  1  0.32029000  0.68112000  0.69822000  1.0
  C  C77  1  0.17972000  0.31889000  0.19822000  1.0
  C  C78  1  0.82028000  0.81889000  0.30178000  1.0
  C  C79  1  0.67971000  0.18111000  0.80178000  1.0
  C  C80  1  0.39537000  0.80608000  0.59547000  1.0
  C  C81  1  0.10463000  0.19392000  0.09547000  1.0
  C  C82  1  0.89537000  0.69393000  0.40453000  1.0
  C  C83  1  0.60463000  0.30608000  0.90453000  1.0
  S  S84  1  0.26193000  0.83088000  0.42389000  1.0
  S  S85  1  0.23807000  0.16912000  0.92389000  1.0
  S  S86  1  0.76193000  0.66912000  0.57611000  1.0
  S  S87  1  0.73808000  0.33088000  0.07611000  1.0
  S  S88  1  0.79041000  0.96821000  0.64250000  1.0
  S  S89  1  0.70959000  0.03180000  0.14250000  1.0
  S  S90  1  0.29041000  0.53180000  0.35750000  1.0
  S  S91  1  0.20959000  0.46821000  0.85750000  1.0
  N  N92  1  0.85562000  0.83917000  0.77770000  1.0
  N  N93  1  0.64438000  0.16083000  0.27770000  1.0
  N  N94  1  0.35562000  0.66083000  0.22230000  1.0
  N  N95  1  0.14438000  0.33917000  0.72230000  1.0
  N  N96  1  0.17732000  0.88616000  0.78839000  1.0
  N  N97  1  0.32268000  0.11384000  0.28839000  1.0
  N  N98  1  0.67732000  0.61384000  0.21161000  1.0
  N  N99  1  0.82268000  0.38616000  0.71161000  1.0
  N  N100  1  0.02450000  0.90923000  0.52771000  1.0
  N  N101  1  0.47551000  0.09076000  0.02771000  1.0
  N  N102  1  0.52450000  0.59076000  0.47229000  1.0
  N  N103  1  0.97550000  0.40924000  0.97229000  1.0
  N  N104  1  0.95345000  0.05594000  0.39513000  1.0
  N  N105  1  0.54655000  0.94406000  0.89513000  1.0
  N  N106  1  0.45346000  0.44406000  0.60487000  1.0
  N  N107  1  0.04655000  0.55594000  0.10487000  1.0
  N  N108  1  0.41478000  0.76083000  0.67827000  1.0
  N  N109  1  0.08522000  0.23917000  0.17827000  1.0
  N  N110  1  0.91478000  0.73917000  0.32173000  1.0
  N  N111  1  0.58522000  0.26083000  0.82173000  1.0
  N  N112  1  0.18271000  0.69343000  0.55356000  1.0
  N  N113  1  0.31729000  0.30658000  0.05356000  1.0
  N  N114  1  0.68271000  0.80658000  0.44644000  1.0
  N  N115  1  0.81729000  0.19343000  0.94644000  1.0
  Cl  Cl116  1  0.58677000  0.60241000  0.92424000  1.0
  Cl  Cl117  1  0.91323000  0.39759000  0.42424000  1.0
  Cl  Cl118  1  0.08677000  0.89759000  0.07576000  1.0
  Cl  Cl119  1  0.41323000  0.10241000  0.57576000  1.0
  O  O120  1  0.50029000  0.69976000  0.91922000  1.0
  O  O121  1  0.99971000  0.30024000  0.41922000  1.0
  O  O122  1  0.00029000  0.80024000  0.08078000  1.0
  O  O123  1  0.49971000  0.19976000  0.58078000  1.0
  O  O124  1  0.50610000  0.53517000  0.98952000  1.0
  O  O125  1  0.99390000  0.46483000  0.48952000  1.0
  O  O126  1  0.00610000  0.96483000  0.01048000  1.0
  O  O127  1  0.49390000  0.03517000  0.51048000  1.0
  O  O128  1  0.58918000  0.55555000  0.83212000  1.0
  O  O129  1  0.91082000  0.44445000  0.33212000  1.0
  O  O130  1  0.08918000  0.94445000  0.16788000  1.0
  O  O131  1  0.41082000  0.05555000  0.66788000  1.0
  O  O132  1  0.74962000  0.62098000  0.95485000  1.0
  O  O133  1  0.75038000  0.37902000  0.45485000  1.0
  O  O134  1  0.24962000  0.87902000  0.04515000  1.0
  O  O135  1  0.25038000  0.12098000  0.54515000  1.0
