# generated using pymatgen
data_Zn4H9C24O13F3
_symmetry_space_group_name_H-M   'P 1'
_cell_length_a   14.32970000
_cell_length_b   15.65665377
_cell_length_c   16.46307053
_cell_angle_alpha   67.69384071
_cell_angle_beta   66.22112775
_cell_angle_gamma   64.25254506
_symmetry_Int_Tables_number   1
_chemical_formula_structural   Zn4H9C24O13F3
_chemical_formula_sum   'Zn8 H18 C48 O26 F6'
_cell_volume   2949.35030303
_cell_formula_units_Z   2
loop_
 _symmetry_equiv_pos_site_id
 _symmetry_equiv_pos_as_xyz
  1  'x, y, z'
loop_
 _atom_site_type_symbol
 _atom_site_label
 _atom_site_symmetry_multiplicity
 _atom_site_fract_x
 _atom_site_fract_y
 _atom_site_fract_z
 _atom_site_occupancy
  Zn  Zn0  1  0.86465000  0.15453000  0.99631000  1.0
  Zn  Zn1  1  0.03727000  0.94967000  0.08267000  1.0
  Zn  Zn2  1  0.90840000  0.94136000  0.97341000  1.0
  Zn  Zn3  1  0.79108000  0.98461000  0.16894000  1.0
  Zn  Zn4  1  0.47179000  0.37124000  0.53994000  1.0
  Zn  Zn5  1  0.25936000  0.54258000  0.63970000  1.0
  Zn  Zn6  1  0.37130000  0.57085000  0.42665000  1.0
  Zn  Zn7  1  0.50556000  0.54588000  0.55779000  1.0
  H  H8  1  0.45925000  0.20587000  0.80314000  1.0
  H  H9  1  0.12077000  0.28566000  0.82872000  1.0
  H  H10  1  0.26418000  0.04816000  0.03144000  1.0
  H  H11  1  0.80792000  0.22485000  0.49949000  1.0
  H  H12  1  0.69742000  0.30282000  0.75624000  1.0
  H  H13  1  0.96051000  0.03473000  0.71183000  1.0
  H  H14  1  0.27891000  0.43269000  0.30039000  1.0
  H  H15  1  0.61671000  0.27277000  0.28164000  1.0
  H  H16  1  0.47109000  0.25552000  0.10574000  1.0
  H  H17  1  0.50999000  0.60417000  0.76259000  1.0
  H  H18  1  0.16370000  0.74524000  0.81898000  1.0
  H  H19  1  0.33555000  0.76644000  0.97019000  1.0
  H  H20  1  0.98262000  0.79542000  0.61743000  1.0
  H  H21  1  0.10975000  0.77724000  0.33557000  1.0
  H  H22  1  0.79742000  0.98740000  0.42626000  1.0
  H  H23  1  0.71064000  0.47981000  0.24390000  1.0
  H  H24  1  0.65779000  0.75366000  0.29045000  1.0
  H  H25  1  0.89867000  0.66324000  0.04942000  1.0
  C  C26  1  0.36788000  0.12532000  0.92251000  1.0
  C  C27  1  0.38080000  0.19610000  0.84062000  1.0
  C  C28  1  0.29072000  0.25478000  0.80737000  1.0
  C  C29  1  0.19066000  0.24036000  0.85466000  1.0
  C  C30  1  0.18215000  0.16399000  0.93414000  1.0
  C  C31  1  0.27114000  0.10677000  0.96927000  1.0
  C  C32  1  0.08193000  0.13590000  0.98172000  1.0
  C  C33  1  0.30834000  0.33103000  0.71911000  1.0
  C  C34  1  0.89561000  0.12806000  0.59836000  1.0
  C  C35  1  0.81582000  0.20993000  0.56698000  1.0
  C  C36  1  0.74393000  0.27267000  0.62465000  1.0
  C  C37  1  0.75295000  0.25322000  0.71218000  1.0
  C  C38  1  0.82943000  0.16600000  0.74405000  1.0
  C  C39  1  0.90173000  0.10292000  0.68675000  1.0
  C  C40  1  0.83491000  0.13024000  0.84099000  1.0
  C  C41  1  0.65324000  0.35529000  0.59162000  1.0
  C  C42  1  0.36803000  0.34654000  0.20023000  1.0
  C  C43  1  0.35642000  0.38376000  0.26915000  1.0
  C  C44  1  0.44681000  0.35539000  0.29893000  1.0
  C  C45  1  0.54722000  0.29398000  0.25768000  1.0
  C  C46  1  0.55641000  0.25986000  0.18680000  1.0
  C  C47  1  0.46599000  0.28448000  0.15856000  1.0
  C  C48  1  0.66090000  0.18920000  0.14445000  1.0
  C  C49  1  0.43292000  0.39272000  0.37541000  1.0
  C  C50  1  0.43074000  0.68090000  0.86979000  1.0
  C  C51  1  0.43382000  0.64729000  0.80172000  1.0
  C  C52  1  0.33650000  0.66971000  0.78446000  1.0
  C  C53  1  0.23908000  0.72713000  0.83298000  1.0
  C  C54  1  0.23956000  0.76373000  0.89836000  1.0
  C  C55  1  0.33570000  0.73922000  0.91836000  1.0
  C  C56  1  0.13825000  0.83175000  0.94602000  1.0
  C  C57  1  0.34276000  0.63190000  0.71091000  1.0
  C  C58  1  0.88505000  0.89736000  0.52675000  1.0
  C  C59  1  0.97505000  0.82070000  0.54827000  1.0
  C  C60  1  0.05629000  0.77730000  0.47846000  1.0
  C  C61  1  0.04604000  0.81055000  0.38972000  1.0
  C  C62  1  0.95225000  0.88482000  0.37138000  1.0
  C  C63  1  0.87044000  0.92928000  0.44034000  1.0
  C  C64  1  0.93796000  0.91585000  0.27834000  1.0
  C  C65  1  0.15435000  0.69430000  0.49828000  1.0
  C  C66  1  0.81360000  0.56314000  0.14524000  1.0
  C  C67  1  0.73089000  0.54583000  0.22390000  1.0
  C  C68  1  0.67492000  0.61520000  0.27622000  1.0
  C  C69  1  0.70084000  0.69999000  0.24949000  1.0
  C  C70  1  0.77907000  0.71838000  0.16638000  1.0
  C  C71  1  0.83716000  0.64926000  0.11370000  1.0
  C  C72  1  0.79836000  0.81394000  0.13123000  1.0
  C  C73  1  0.58183000  0.60085000  0.35830000  1.0
  O  O74  1  0.89973000  0.01264000  0.05234000  1.0
  O  O75  1  0.08909000  0.05936000  0.04815000  1.0
  O  O76  1  0.99868000  0.18800000  0.95265000  1.0
  O  O77  1  0.23596000  0.41551000  0.71242000  1.0
  O  O78  1  0.39767000  0.30260000  0.65897000  1.0
  O  O79  1  0.85394000  0.03806000  0.87274000  1.0
  O  O80  1  0.82180000  0.19044000  0.88254000  1.0
  O  O81  1  0.61134000  0.43316000  0.61982000  1.0
  O  O82  1  0.62305000  0.34122000  0.53575000  1.0
  O  O83  1  0.66177000  0.10109000  0.17116000  1.0
  O  O84  1  0.73682000  0.22162000  0.08691000  1.0
  O  O85  1  0.35858000  0.47452000  0.38436000  1.0
  O  O86  1  0.49512000  0.34007000  0.42715000  1.0
  O  O87  1  0.05682000  0.86467000  0.91582000  1.0
  O  O88  1  0.14192000  0.85249000  0.01250000  1.0
  O  O89  1  0.42862000  0.62843000  0.64384000  1.0
  O  O90  1  0.26484000  0.60611000  0.72107000  1.0
  O  O91  1  0.84274000  0.96692000  0.27077000  1.0
  O  O92  1  0.02192000  0.88826000  0.21352000  1.0
  O  O93  1  0.23723000  0.67955000  0.42887000  1.0
  O  O94  1  0.14732000  0.64535000  0.58132000  1.0
  O  O95  1  0.76488000  0.86467000  0.18879000  1.0
  O  O96  1  0.84575000  0.83729000  0.04584000  1.0
  O  O97  1  0.51052000  0.58507000  0.34363000  1.0
  O  O98  1  0.58118000  0.60679000  0.43366000  1.0
  O  O99  1  0.39794000  0.50854000  0.54667000  1.0
  F  F100  1  0.45418000  0.07073000  0.95693000  1.0
  F  F101  1  0.96781000  0.06820000  0.54184000  1.0
  F  F102  1  0.27995000  0.37115000  0.17257000  1.0
  F  F103  1  0.52460000  0.65695000  0.88856000  1.0
  F  F104  1  0.80732000  0.94221000  0.59335000  1.0
  F  F105  1  0.87156000  0.49410000  0.09612000  1.0
