# generated using pymatgen
data_Zn4H4C24S4Br4O13
_symmetry_space_group_name_H-M   'P 1'
_cell_length_a   19.66210000
_cell_length_b   19.71700000
_cell_length_c   33.35860000
_cell_angle_alpha   79.06710000
_cell_angle_beta   79.22390000
_cell_angle_gamma   63.97640000
_symmetry_Int_Tables_number   1
_chemical_formula_structural   Zn4H4C24S4Br4O13
_chemical_formula_sum   'Zn16 H16 C96 S16 Br16 O52'
_cell_volume   11331.10978008
_cell_formula_units_Z   4
loop_
 _symmetry_equiv_pos_site_id
 _symmetry_equiv_pos_as_xyz
  1  'x, y, z'
loop_
 _atom_site_type_symbol
 _atom_site_label
 _atom_site_symmetry_multiplicity
 _atom_site_fract_x
 _atom_site_fract_y
 _atom_site_fract_z
 _atom_site_occupancy
  Zn  Zn0  1  0.05616000  0.40034000  0.47805000  1.0
  Zn  Zn1  1  0.98478000  0.48396000  0.55976000  1.0
  Zn  Zn2  1  0.05880000  0.56181000  0.48339000  1.0
  Zn  Zn3  1  0.90057000  0.55352000  0.47871000  1.0
  Zn  Zn4  1  0.69361000  0.34982000  0.27179000  1.0
  Zn  Zn5  1  0.69094000  0.18844000  0.26645000  1.0
  Zn  Zn6  1  0.76773000  0.26508000  0.18960000  1.0
  Zn  Zn7  1  0.84718000  0.19720000  0.27228000  1.0
  Zn  Zn8  1  0.26519000  0.76598000  0.69029000  1.0
  Zn  Zn9  1  0.34936000  0.69653000  0.77135000  1.0
  Zn  Zn10  1  0.19377000  0.84966000  0.77203000  1.0
  Zn  Zn11  1  0.19110000  0.68827000  0.76664000  1.0
  Zn  Zn12  1  0.55897000  0.06164000  0.98358000  1.0
  Zn  Zn13  1  0.40282000  0.05279000  0.97774000  1.0
  Zn  Zn14  1  0.55636000  0.90011000  0.97827000  1.0
  Zn  Zn15  1  0.48240000  0.98483000  0.06040000  1.0
  H  H16  1  0.79616000  0.50208000  0.39902000  1.0
  H  H17  1  0.95364000  0.24849000  0.35090000  1.0
  H  H18  1  0.74762000  0.45453000  0.35089000  1.0
  H  H19  1  0.00220000  0.29602000  0.39901000  1.0
  H  H20  1  0.15266000  0.65270000  0.54931000  1.0
  H  H21  1  0.09737000  0.59729000  0.70070000  1.0
  H  H22  1  0.20075000  0.70054000  0.59757000  1.0
  H  H23  1  0.04928000  0.54946000  0.65244000  1.0
  H  H24  1  0.70075000  0.20049000  0.09742000  1.0
  H  H25  1  0.54928000  0.04950000  0.15259000  1.0
  H  H26  1  0.65244000  0.15266000  0.04930000  1.0
  H  H27  1  0.59758000  0.09734000  0.20071000  1.0
  H  H28  1  0.24791000  0.95412000  0.85090000  1.0
  H  H29  1  0.50246000  0.79559000  0.89903000  1.0
  H  H30  1  0.29644000  0.00166000  0.89903000  1.0
  H  H31  1  0.45393000  0.74808000  0.85088000  1.0
  C  C32  1  0.06155000  0.31641000  0.56143000  1.0
  C  C33  1  0.06945000  0.57001000  0.56946000  1.0
  C  C34  1  0.18360000  0.43950000  0.43879000  1.0
  C  C35  1  0.93756000  0.68380000  0.43890000  1.0
  C  C36  1  0.93055000  0.43009000  0.43061000  1.0
  C  C37  1  0.81663000  0.56097000  0.56164000  1.0
  C  C38  1  0.56629000  0.31051000  0.31126000  1.0
  C  C39  1  0.68119000  0.17967000  0.18044000  1.0
  C  C40  1  0.68922000  0.43324000  0.18841000  1.0
  C  C41  1  0.93412000  0.18847000  0.18914000  1.0
  C  C42  1  0.81895000  0.32030000  0.31957000  1.0
  C  C43  1  0.81190000  0.06630000  0.31130000  1.0
  C  C44  1  0.43329000  0.68917000  0.68840000  1.0
  C  C45  1  0.31948000  0.82006000  0.81935000  1.0
  C  C46  1  0.18867000  0.93347000  0.68858000  1.0
  C  C47  1  0.06622000  0.81054000  0.81123000  1.0
  C  C48  1  0.18065000  0.67992000  0.68053000  1.0
  C  C49  1  0.31237000  0.56619000  0.81107000  1.0
  C  C50  1  0.43794000  0.18371000  0.93872000  1.0
  C  C51  1  0.43104000  0.92985000  0.93039000  1.0
  C  C52  1  0.68353000  0.93953000  0.93875000  1.0
  C  C53  1  0.56101000  0.81664000  0.06161000  1.0
  C  C54  1  0.56894000  0.07024000  0.06956000  1.0
  C  C55  1  0.31605000  0.06153000  0.06093000  1.0
  C  C56  1  0.90193000  0.40180000  0.40176000  1.0
  C  C57  1  0.84787000  0.34884000  0.34813000  1.0
  C  C58  1  0.83016000  0.44670000  0.38826000  1.0
  C  C59  1  0.91970000  0.30393000  0.36160000  1.0
  C  C60  1  0.80326000  0.42037000  0.36159000  1.0
  C  C61  1  0.94660000  0.33028000  0.38827000  1.0
  C  C62  1  0.09822000  0.59842000  0.59815000  1.0
  C  C63  1  0.15184000  0.65154000  0.65186000  1.0
  C  C64  1  0.14090000  0.64095000  0.58249000  1.0
  C  C65  1  0.10913000  0.60903000  0.66752000  1.0
  C  C66  1  0.16756000  0.66740000  0.60922000  1.0
  C  C67  1  0.08248000  0.58258000  0.64079000  1.0
  C  C68  1  0.30489000  0.45435000  0.40071000  1.0
  C  C69  1  0.44495000  0.29568000  0.34928000  1.0
  C  C70  1  0.25847000  0.41582000  0.41389000  1.0
  C  C71  1  0.49138000  0.33422000  0.33612000  1.0
  C  C72  1  0.37694000  0.33943000  0.37279000  1.0
  C  C73  1  0.37284000  0.41065000  0.37715000  1.0
  C  C74  1  0.72558000  0.57609000  0.62975000  1.0
  C  C75  1  0.52431000  0.67393000  0.62029000  1.0
  C  C76  1  0.74247000  0.58539000  0.58722000  1.0
  C  C77  1  0.50743000  0.66471000  0.66283000  1.0
  C  C78  1  0.60378000  0.64168000  0.60819000  1.0
  C  C79  1  0.64609000  0.60835000  0.64184000  1.0
  C  C80  1  0.07623000  0.22532000  0.62960000  1.0
  C  C81  1  0.17379000  0.02452000  0.62041000  1.0
  C  C82  1  0.08556000  0.24228000  0.58706000  1.0
  C  C83  1  0.16457000  0.00757000  0.66296000  1.0
  C  C84  1  0.14163000  0.10386000  0.60822000  1.0
  C  C85  1  0.10840000  0.14598000  0.64179000  1.0
  C  C86  1  0.84322000  0.80128000  0.39707000  1.0
  C  C87  1  0.90652000  0.94861000  0.35284000  1.0
  C  C88  1  0.91159000  0.75838000  0.41374000  1.0
  C  C89  1  0.83807000  0.99153000  0.33624000  1.0
  C  C90  1  0.90852000  0.87923000  0.37500000  1.0
  C  C91  1  0.84134000  0.87059000  0.37487000  1.0
  C  C92  1  0.65204000  0.15151000  0.15180000  1.0
  C  C93  1  0.59805000  0.09842000  0.09821000  1.0
  C  C94  1  0.66759000  0.16735000  0.10915000  1.0
  C  C95  1  0.58247000  0.08261000  0.14087000  1.0
  C  C96  1  0.64076000  0.14091000  0.08249000  1.0
  C  C97  1  0.60928000  0.10906000  0.16752000  1.0
  C  C98  1  0.67380000  0.52456000  0.12028000  1.0
  C  C99  1  0.57622000  0.72528000  0.12974000  1.0
  C  C100  1  0.66474000  0.50740000  0.16282000  1.0
  C  C101  1  0.58536000  0.74246000  0.08721000  1.0
  C  C102  1  0.60846000  0.64590000  0.14183000  1.0
  C  C103  1  0.64159000  0.60394000  0.10819000  1.0
  C  C104  1  0.08180000  0.12385000  0.17771000  1.0
  C  C105  1  0.16840000  0.12604000  0.07236000  1.0
  C  C106  1  0.00958000  0.16293000  0.16486000  1.0
  C  C107  1  0.24061000  0.08700000  0.08522000  1.0
  C  C108  1  0.11046000  0.13940000  0.10603000  1.0
  C  C109  1  0.13971000  0.11027000  0.14402000  1.0
  C  C110  1  0.34824000  0.84844000  0.84808000  1.0
  C  C111  1  0.40225000  0.90137000  0.90173000  1.0
  C  C112  1  0.30356000  0.91994000  0.86159000  1.0
  C  C113  1  0.44688000  0.82983000  0.88828000  1.0
  C  C114  1  0.33043000  0.94627000  0.88828000  1.0
  C  C115  1  0.42000000  0.80351000  0.86159000  1.0
  C  C116  1  0.40670000  0.44867000  0.85289000  1.0
  C  C117  1  0.34335000  0.30137000  0.89712000  1.0
  C  C118  1  0.33833000  0.49160000  0.83622000  1.0
  C  C119  1  0.41178000  0.25847000  0.91375000  1.0
  C  C120  1  0.34142000  0.37072000  0.87493000  1.0
  C  C121  1  0.40861000  0.37935000  0.87507000  1.0
  C  C122  1  0.94492000  0.79568000  0.84929000  1.0
  C  C123  1  0.80486000  0.95435000  0.90071000  1.0
  C  C124  1  0.99134000  0.83423000  0.83612000  1.0
  C  C125  1  0.75843000  0.91583000  0.91387000  1.0
  C  C126  1  0.87282000  0.91064000  0.87716000  1.0
  C  C127  1  0.87692000  0.83942000  0.87281000  1.0
  S  S128  1  0.29808000  0.32594000  0.39741000  1.0
  S  S129  1  0.45172000  0.42413000  0.35255000  1.0
  S  S130  1  0.66094000  0.63367000  0.56198000  1.0
  S  S131  1  0.58897000  0.61641000  0.68806000  1.0
  S  S132  1  0.13369000  0.16102000  0.56195000  1.0
  S  S133  1  0.11644000  0.08884000  0.68806000  1.0
  S  S134  1  0.97372000  0.80289000  0.40215000  1.0
  S  S135  1  0.77606000  0.94690000  0.34777000  1.0
  S  S136  1  0.61661000  0.58855000  0.18804000  1.0
  S  S137  1  0.63349000  0.66131000  0.06199000  1.0
  S  S138  1  0.01258000  0.18314000  0.11147000  1.0
  S  S139  1  0.23760000  0.06665000  0.13860000  1.0
  S  S140  1  0.27621000  0.44706000  0.84779000  1.0
  S  S141  1  0.47384000  0.30304000  0.90221000  1.0
  S  S142  1  0.95169000  0.92413000  0.85256000  1.0
  S  S143  1  0.79805000  0.82594000  0.89742000  1.0
  Br  Br144  1  0.28551000  0.55190000  0.41111000  1.0
  Br  Br145  1  0.46452000  0.19803000  0.33897000  1.0
  Br  Br146  1  0.79485000  0.52786000  0.66894000  1.0
  Br  Br147  1  0.45504000  0.72202000  0.58110000  1.0
  Br  Br148  1  0.02813000  0.29433000  0.66867000  1.0
  Br  Br149  1  0.22171000  0.95553000  0.58132000  1.0
  Br  Br150  1  0.76045000  0.77574000  0.40154000  1.0
  Br  Br151  1  0.98937000  0.97412000  0.34826000  1.0
  Br  Br152  1  0.72151000  0.45567000  0.08115000  1.0
  Br  Br153  1  0.52829000  0.79419000  0.16886000  1.0
  Br  Br154  1  0.10584000  0.09073000  0.23195000  1.0
  Br  Br155  1  0.14442000  0.15961000  0.01812000  1.0
  Br  Br156  1  0.48951000  0.47415000  0.84841000  1.0
  Br  Br157  1  0.26055000  0.27583000  0.90165000  1.0
  Br  Br158  1  0.96450000  0.69802000  0.83898000  1.0
  Br  Br159  1  0.78549000  0.05189000  0.91113000  1.0
  O  O160  1  0.00054000  0.49940000  0.49945000  1.0
  O  O161  1  0.07870000  0.31453000  0.52252000  1.0
  O  O162  1  0.03147000  0.53119000  0.58581000  1.0
  O  O163  1  0.15468000  0.50538000  0.45040000  1.0
  O  O164  1  0.02622000  0.37534000  0.58001000  1.0
  O  O165  1  0.15450000  0.39092000  0.44644000  1.0
  O  O166  1  0.08501000  0.58677000  0.53100000  1.0
  O  O167  1  0.00441000  0.65825000  0.44989000  1.0
  O  O168  1  0.88658000  0.49536000  0.44193000  1.0
  O  O169  1  0.89205000  0.65159000  0.44756000  1.0
  O  O170  1  0.99642000  0.38678000  0.44162000  1.0
  O  O171  1  0.87594000  0.52589000  0.58017000  1.0
  O  O172  1  0.81437000  0.57753000  0.52270000  1.0
  O  O173  1  0.74887000  0.25111000  0.24999000  1.0
  O  O174  1  0.59539000  0.35909000  0.30360000  1.0
  O  O175  1  0.66521000  0.16317000  0.21889000  1.0
  O  O176  1  0.72516000  0.37426000  0.16991000  1.0
  O  O177  1  0.59526000  0.24459000  0.29970000  1.0
  O  O178  1  0.67181000  0.43531000  0.22731000  1.0
  O  O179  1  0.71983000  0.21784000  0.16414000  1.0
  O  O180  1  0.87686000  0.22344000  0.16854000  1.0
  O  O181  1  0.86265000  0.25462000  0.30868000  1.0
  O  O182  1  0.93225000  0.17376000  0.22807000  1.0
  O  O183  1  0.75321000  0.36353000  0.30838000  1.0
  O  O184  1  0.74530000  0.09182000  0.30002000  1.0
  O  O185  1  0.85712000  0.09885000  0.30315000  1.0
  O  O186  1  0.24939000  0.75064000  0.75060000  1.0
  O  O187  1  0.37400000  0.72421000  0.66985000  1.0
  O  O188  1  0.36337000  0.75475000  0.80808000  1.0
  O  O189  1  0.17170000  0.93534000  0.72750000  1.0
  O  O190  1  0.43551000  0.67270000  0.72734000  1.0
  O  O191  1  0.22388000  0.87455000  0.66998000  1.0
  O  O192  1  0.25353000  0.86332000  0.80840000  1.0
  O  O193  1  0.09535000  0.85912000  0.80360000  1.0
  O  O194  1  0.16514000  0.66316000  0.71899000  1.0
  O  O195  1  0.09514000  0.74469000  0.79961000  1.0
  O  O196  1  0.21860000  0.71876000  0.66416000  1.0
  O  O197  1  0.35782000  0.59846000  0.80249000  1.0
  O  O198  1  0.24556000  0.59171000  0.80003000  1.0
  O  O199  1  0.50113000  0.99887000  0.00001000  1.0
  O  O200  1  0.50460000  0.15815000  0.94992000  1.0
  O  O201  1  0.38731000  0.99551000  0.94128000  1.0
  O  O202  1  0.65446000  0.89092000  0.94641000  1.0
  O  O203  1  0.39265000  0.15125000  0.94696000  1.0
  O  O204  1  0.65456000  0.00544000  0.95030000  1.0
  O  O205  1  0.49670000  0.88656000  0.94166000  1.0
  O  O206  1  0.57853000  0.81454000  0.02272000  1.0
  O  O207  1  0.53022000  0.03215000  0.08585000  1.0
  O  O208  1  0.52508000  0.87564000  0.08009000  1.0
  O  O209  1  0.58501000  0.08669000  0.03111000  1.0
  O  O210  1  0.31789000  0.07623000  0.02201000  1.0
  O  O211  1  0.37333000  0.02658000  0.08152000  1.0
