# generated using pymatgen
data_Zn4H10C28S2O13F4
_symmetry_space_group_name_H-M   'P 1'
_cell_length_a   18.53770000
_cell_length_b   19.73480000
_cell_length_c   32.81290000
_cell_angle_alpha   85.94450000
_cell_angle_beta   73.58850000
_cell_angle_gamma   61.97760000
_symmetry_Int_Tables_number   1
_chemical_formula_structural   Zn4H10C28S2O13F4
_chemical_formula_sum   'Zn16 H40 C112 S8 O52 F16'
_cell_volume   10137.83190203
_cell_formula_units_Z   4
loop_
 _symmetry_equiv_pos_site_id
 _symmetry_equiv_pos_as_xyz
  1  'x, y, z'
loop_
 _atom_site_type_symbol
 _atom_site_label
 _atom_site_symmetry_multiplicity
 _atom_site_fract_x
 _atom_site_fract_y
 _atom_site_fract_z
 _atom_site_occupancy
  Zn  Zn0  1  0.87377000  0.55644000  0.51883000  1.0
  Zn  Zn1  1  0.03842000  0.48491000  0.43813000  1.0
  Zn  Zn2  1  0.04107000  0.39882000  0.52393000  1.0
  Zn  Zn3  1  0.04755000  0.55935000  0.51816000  1.0
  Zn  Zn4  1  0.62552000  0.19226000  0.73186000  1.0
  Zn  Zn5  1  0.46302000  0.35064000  0.72549000  1.0
  Zn  Zn6  1  0.45895000  0.26478000  0.81248000  1.0
  Zn  Zn7  1  0.45307000  0.19269000  0.72975000  1.0
  Zn  Zn8  1  0.46237000  0.76295000  0.31254000  1.0
  Zn  Zn9  1  0.45264000  0.69195000  0.23115000  1.0
  Zn  Zn10  1  0.62578000  0.69292000  0.22986000  1.0
  Zn  Zn11  1  0.45899000  0.85104000  0.22612000  1.0
  Zn  Zn12  1  0.03697000  0.89951000  0.02449000  1.0
  Zn  Zn13  1  0.04954000  0.05661000  0.01885000  1.0
  Zn  Zn14  1  0.87504000  0.05838000  0.01952000  1.0
  Zn  Zn15  1  0.03764000  0.98526000  0.93746000  1.0
  H  H16  1  0.81368000  0.24352000  0.65205000  1.0
  H  H17  1  0.54174000  0.48463000  0.62114000  1.0
  H  H18  1  0.54696000  0.52474000  0.66657000  1.0
  H  H19  1  0.64453000  0.57156000  0.61849000  1.0
  H  H20  1  0.63922000  0.53146000  0.57310000  1.0
  H  H21  1  0.29092000  0.60034000  0.29583000  1.0
  H  H22  1  0.35267000  0.67416000  0.43194000  1.0
  H  H23  1  0.26187000  0.76243000  0.42930000  1.0
  H  H24  1  0.16545000  0.71379000  0.47668000  1.0
  H  H25  1  0.25613000  0.62556000  0.47937000  1.0
  H  H26  1  0.81330000  0.60016000  0.29579000  1.0
  H  H27  1  0.54639000  0.76255000  0.42918000  1.0
  H  H28  1  0.54115000  0.67433000  0.43180000  1.0
  H  H29  1  0.63883000  0.62554000  0.47915000  1.0
  H  H30  1  0.64406000  0.71371000  0.47660000  1.0
  H  H31  1  0.30430000  0.45901000  0.64539000  1.0
  H  H32  1  0.33315000  0.17792000  0.63081000  1.0
  H  H33  1  0.24242000  0.21786000  0.67627000  1.0
  H  H34  1  0.14618000  0.26739000  0.62811000  1.0
  H  H35  1  0.23697000  0.22741000  0.58273000  1.0
  H  H36  1  0.68657000  0.14994000  0.95435000  1.0
  H  H37  1  0.95826000  0.07600000  0.81822000  1.0
  H  H38  1  0.95305000  0.98777000  0.82087000  1.0
  H  H39  1  0.85545000  0.03647000  0.77347000  1.0
  H  H40  1  0.86072000  0.12462000  0.77084000  1.0
  H  H41  1  0.19559000  0.05244000  0.84327000  1.0
  H  H42  1  0.16680000  0.21475000  0.97656000  1.0
  H  H43  1  0.25768000  0.12659000  0.97920000  1.0
  H  H44  1  0.35373000  0.17415000  0.93038000  1.0
  H  H45  1  0.26291000  0.26225000  0.92777000  1.0
  H  H46  1  0.19560000  0.79133000  0.10451000  1.0
  H  H47  1  0.25775000  0.03233000  0.07366000  1.0
  H  H48  1  0.16679000  0.07246000  0.11904000  1.0
  H  H49  1  0.26278000  0.02296000  0.16725000  1.0
  H  H50  1  0.35368000  0.98287000  0.12192000  1.0
  H  H51  1  0.68629000  0.00646000  0.09789000  1.0
  H  H52  1  0.95307000  0.72522000  0.08342000  1.0
  H  H53  1  0.95829000  0.76535000  0.12884000  1.0
  H  H54  1  0.86086000  0.71860000  0.17687000  1.0
  H  H55  1  0.85556000  0.67840000  0.13150000  1.0
  C  C56  1  0.86219000  0.56842000  0.43091000  1.0
  C  C57  1  0.12309000  0.31609000  0.43855000  1.0
  C  C58  1  0.86316000  0.43028000  0.56874000  1.0
  C  C59  1  0.13827000  0.43188000  0.56864000  1.0
  C  C60  1  0.87627000  0.68366000  0.56092000  1.0
  C  C61  1  0.13782000  0.56904000  0.43081000  1.0
  C  C62  1  0.63957000  0.31772000  0.68109000  1.0
  C  C63  1  0.37737000  0.43426000  0.81066000  1.0
  C  C64  1  0.63673000  0.18153000  0.81945000  1.0
  C  C65  1  0.36165000  0.18112000  0.81840000  1.0
  C  C66  1  0.62354000  0.06639000  0.68869000  1.0
  C  C67  1  0.36274000  0.32026000  0.68064000  1.0
  C  C68  1  0.36248000  0.68015000  0.31861000  1.0
  C  C69  1  0.62228000  0.56611000  0.18865000  1.0
  C  C70  1  0.63913000  0.68028000  0.31824000  1.0
  C  C71  1  0.63686000  0.81948000  0.18094000  1.0
  C  C72  1  0.37734000  0.93260000  0.31183000  1.0
  C  C73  1  0.36165000  0.81852000  0.18115000  1.0
  C  C74  1  0.13787000  0.92992000  0.06892000  1.0
  C  C75  1  0.87917000  0.18360000  0.06114000  1.0
  C  C76  1  0.86044000  0.93242000  0.06906000  1.0
  C  C77  1  0.86075000  0.06962000  0.93167000  1.0
  C  C78  1  0.12176000  0.81595000  0.93928000  1.0
  C  C79  1  0.13790000  0.06811000  0.93035000  1.0
  C  C80  1  0.73889000  0.80294000  0.60100000  1.0
  C  C81  1  0.76092000  0.94691000  0.64902000  1.0
  C  C82  1  0.82655000  0.75817000  0.58605000  1.0
  C  C83  1  0.67320000  0.99171000  0.66390000  1.0
  C  C84  1  0.78565000  0.87803000  0.62602000  1.0
  C  C85  1  0.71424000  0.87186000  0.62395000  1.0
  C  C86  1  0.20201000  0.22606000  0.36975000  1.0
  C  C87  1  0.29834000  0.02298000  0.38047000  1.0
  C  C88  1  0.17236000  0.24152000  0.41364000  1.0
  C  C89  1  0.32807000  0.00729000  0.33661000  1.0
  C  C90  1  0.25237000  0.10244000  0.39290000  1.0
  C  C91  1  0.24807000  0.14655000  0.35727000  1.0
  C  C92  1  0.69599000  0.34626000  0.65256000  1.0
  C  C93  1  0.80761000  0.40073000  0.59726000  1.0
  C  C94  1  0.66465000  0.41859000  0.63643000  1.0
  C  C95  1  0.83795000  0.32746000  0.61409000  1.0
  C  C96  1  0.71878000  0.44434000  0.60983000  1.0
  C  C97  1  0.78509000  0.30068000  0.64058000  1.0
  C  C98  1  0.58459000  0.49181000  0.63564000  1.0
  C  C99  1  0.64571000  0.52114000  0.60552000  1.0
  C  C100  1  0.30542000  0.65224000  0.34706000  1.0
  C  C101  1  0.19453000  0.59673000  0.40180000  1.0
  C  C102  1  0.28044000  0.66427000  0.39128000  1.0
  C  C103  1  0.22076000  0.58515000  0.35674000  1.0
  C  C104  1  0.22705000  0.63737000  0.41740000  1.0
  C  C105  1  0.27387000  0.61160000  0.33015000  1.0
  C  C106  1  0.28810000  0.69957000  0.42830000  1.0
  C  C107  1  0.22768000  0.66908000  0.45799000  1.0
  C  C108  1  0.69546000  0.65226000  0.34685000  1.0
  C  C109  1  0.80691000  0.59657000  0.40181000  1.0
  C  C110  1  0.66403000  0.66431000  0.39110000  1.0
  C  C111  1  0.83745000  0.58508000  0.35675000  1.0
  C  C112  1  0.71814000  0.63733000  0.41726000  1.0
  C  C113  1  0.78457000  0.61156000  0.33010000  1.0
  C  C114  1  0.58401000  0.69968000  0.42815000  1.0
  C  C115  1  0.64519000  0.66913000  0.45783000  1.0
  C  C116  1  0.30537000  0.34850000  0.65257000  1.0
  C  C117  1  0.19461000  0.40490000  0.59726000  1.0
  C  C118  1  0.27289000  0.30483000  0.64023000  1.0
  C  C119  1  0.22819000  0.44829000  0.61036000  1.0
  C  C120  1  0.21967000  0.33238000  0.61359000  1.0
  C  C121  1  0.28130000  0.42190000  0.63686000  1.0
  C  C122  1  0.27127000  0.22861000  0.64401000  1.0
  C  C123  1  0.21101000  0.25964000  0.61386000  1.0
  C  C124  1  0.29815000  0.58249000  0.82152000  1.0
  C  C125  1  0.20184000  0.66776000  0.92847000  1.0
  C  C126  1  0.32782000  0.50886000  0.83560000  1.0
  C  C127  1  0.17198000  0.74139000  0.91437000  1.0
  C  C128  1  0.24790000  0.60938000  0.89494000  1.0
  C  C129  1  0.25213000  0.64084000  0.85508000  1.0
  C  C130  1  0.80425000  0.09787000  0.90316000  1.0
  C  C131  1  0.69238000  0.15366000  0.84839000  1.0
  C  C132  1  0.83543000  0.08595000  0.85892000  1.0
  C  C133  1  0.66219000  0.16503000  0.89344000  1.0
  C  C134  1  0.78123000  0.11298000  0.83278000  1.0
  C  C135  1  0.71514000  0.13861000  0.92003000  1.0
  C  C136  1  0.91543000  0.05063000  0.82189000  1.0
  C  C137  1  0.85425000  0.08114000  0.79220000  1.0
  C  C138  1  0.19462000  0.09677000  0.90213000  1.0
  C  C139  1  0.30515000  0.15185000  0.84623000  1.0
  C  C140  1  0.22699000  0.13727000  0.91775000  1.0
  C  C141  1  0.27157000  0.11045000  0.83112000  1.0
  C  C142  1  0.28011000  0.16359000  0.89066000  1.0
  C  C143  1  0.21855000  0.08379000  0.85757000  1.0
  C  C144  1  0.22866000  0.16967000  0.95776000  1.0
  C  C145  1  0.28886000  0.19944000  0.92718000  1.0
  C  C146  1  0.64362000  0.44688000  0.14899000  1.0
  C  C147  1  0.85754000  0.30279000  0.10090000  1.0
  C  C148  1  0.67199000  0.49144000  0.16383000  1.0
  C  C149  1  0.82940000  0.25813000  0.08600000  1.0
  C  C150  1  0.79045000  0.37163000  0.12388000  1.0
  C  C151  1  0.71072000  0.37793000  0.12599000  1.0
  C  C152  1  0.19473000  0.90180000  0.09723000  1.0
  C  C153  1  0.30514000  0.84554000  0.15267000  1.0
  C  C154  1  0.22704000  0.94552000  0.10966000  1.0
  C  C155  1  0.27162000  0.80206000  0.13957000  1.0
  C  C156  1  0.28008000  0.91803000  0.13637000  1.0
  C  C157  1  0.21861000  0.82846000  0.11300000  1.0
  C  C158  1  0.22866000  0.02173000  0.10591000  1.0
  C  C159  1  0.28881000  0.99071000  0.13612000  1.0
  C  C160  1  0.80403000  0.90369000  0.09738000  1.0
  C  C161  1  0.69239000  0.84923000  0.15264000  1.0
  C  C162  1  0.83539000  0.83135000  0.11352000  1.0
  C  C163  1  0.66205000  0.92255000  0.13587000  1.0
  C  C164  1  0.78124000  0.80559000  0.14009000  1.0
  C  C165  1  0.71492000  0.94929000  0.10935000  1.0
  C  C166  1  0.91544000  0.75818000  0.11434000  1.0
  C  C167  1  0.85433000  0.72886000  0.14446000  1.0
  S  S168  1  0.88072000  0.80070000  0.60024000  1.0
  S  S169  1  0.61912000  0.94915000  0.64965000  1.0
  S  S170  1  0.20094000  0.15757000  0.44054000  1.0
  S  S171  1  0.29955000  0.09125000  0.30966000  1.0
  S  S172  1  0.29931000  0.51033000  0.89104000  1.0
  S  S173  1  0.20062000  0.73988000  0.85893000  1.0
  S  S174  1  0.78283000  0.44878000  0.14956000  1.0
  S  S175  1  0.71849000  0.30077000  0.10025000  1.0
  O  O176  1  0.99898000  0.50042000  0.50063000  1.0
  O  O177  1  0.82353000  0.58439000  0.47079000  1.0
  O  O178  1  0.10304000  0.37595000  0.41767000  1.0
  O  O179  1  0.94328000  0.38686000  0.55874000  1.0
  O  O180  1  0.94221000  0.53114000  0.41416000  1.0
  O  O181  1  0.82420000  0.49792000  0.55671000  1.0
  O  O182  1  0.10520000  0.31336000  0.47911000  1.0
  O  O183  1  0.11573000  0.38395000  0.55956000  1.0
  O  O184  1  0.95728000  0.65621000  0.55111000  1.0
  O  O185  1  0.11734000  0.49901000  0.55564000  1.0
  O  O186  1  0.83474000  0.65394000  0.55136000  1.0
  O  O187  1  0.11268000  0.53086000  0.41414000  1.0
  O  O188  1  0.11917000  0.58637000  0.47064000  1.0
  O  O189  1  0.50042000  0.25015000  0.74993000  1.0
  O  O190  1  0.67522000  0.25060000  0.69402000  1.0
  O  O191  1  0.39802000  0.43562000  0.77025000  1.0
  O  O192  1  0.55654000  0.21853000  0.83603000  1.0
  O  O193  1  0.55966000  0.36372000  0.69015000  1.0
  O  O194  1  0.67570000  0.16531000  0.77963000  1.0
  O  O195  1  0.39488000  0.37487000  0.83233000  1.0
  O  O196  1  0.38442000  0.21861000  0.83775000  1.0
  O  O197  1  0.54243000  0.09518000  0.69747000  1.0
  O  O198  1  0.38258000  0.16700000  0.77834000  1.0
  O  O199  1  0.66504000  0.09534000  0.69907000  1.0
  O  O200  1  0.38799000  0.36558000  0.69009000  1.0
  O  O201  1  0.38178000  0.25251000  0.69279000  1.0
  O  O202  1  0.50083000  0.74983000  0.25001000  1.0
  O  O203  1  0.38755000  0.71675000  0.33694000  1.0
  O  O204  1  0.54154000  0.59497000  0.19870000  1.0
  O  O205  1  0.67491000  0.66595000  0.27822000  1.0
  O  O206  1  0.38150000  0.66525000  0.27865000  1.0
  O  O207  1  0.55919000  0.71649000  0.33669000  1.0
  O  O208  1  0.66560000  0.59485000  0.19770000  1.0
  O  O209  1  0.67580000  0.75143000  0.19252000  1.0
  O  O210  1  0.39512000  0.93548000  0.27130000  1.0
  O  O211  1  0.55672000  0.86297000  0.19122000  1.0
  O  O212  1  0.39744000  0.87257000  0.33267000  1.0
  O  O213  1  0.38267000  0.75129000  0.19397000  1.0
  O  O214  1  0.38435000  0.86625000  0.19035000  1.0
  O  O215  1  0.99991000  0.00002000  0.99992000  1.0
  O  O216  1  0.11171000  0.88506000  0.05988000  1.0
  O  O217  1  0.96009000  0.15398000  0.05124000  1.0
  O  O218  1  0.82476000  0.99998000  0.05661000  1.0
  O  O219  1  0.12018000  0.99711000  0.05611000  1.0
  O  O220  1  0.94033000  0.88630000  0.05970000  1.0
  O  O221  1  0.83552000  0.15550000  0.05181000  1.0
  O  O222  1  0.82505000  0.08503000  0.97164000  1.0
  O  O223  1  0.10273000  0.87535000  0.91754000  1.0
  O  O224  1  0.94066000  0.03212000  0.91331000  1.0
  O  O225  1  0.10191000  0.81472000  0.97969000  1.0
  O  O226  1  0.12010000  0.08272000  0.97032000  1.0
  O  O227  1  0.11211000  0.03173000  0.91245000  1.0
  F  F228  1  0.68160000  0.78430000  0.59477000  1.0
  F  F229  1  0.81803000  0.96568000  0.65532000  1.0
  F  F230  1  0.18943000  0.27973000  0.34131000  1.0
  F  F231  1  0.31088000  0.96931000  0.40902000  1.0
  F  F232  1  0.31073000  0.59850000  0.78043000  1.0
  F  F233  1  0.18913000  0.65182000  0.96956000  1.0
  F  F234  1  0.56151000  0.46574000  0.15530000  1.0
  F  F235  1  0.93976000  0.28394000  0.09460000  1.0
  F  F236  1  0.92293000  0.27875000  0.60471000  1.0
  F  F237  1  0.19405000  0.54662000  0.33715000  1.0
  F  F238  1  0.92231000  0.54647000  0.33718000  1.0
  F  F239  1  0.20936000  0.51984000  0.59692000  1.0
  F  F240  1  0.57721000  0.20352000  0.91309000  1.0
  F  F241  1  0.29042000  0.09475000  0.78863000  1.0
  F  F242  1  0.29044000  0.73059000  0.15297000  1.0
  F  F243  1  0.57708000  0.97127000  0.14534000  1.0
