# generated using pymatgen
data_ZnH12C15(NO3)4
_symmetry_space_group_name_H-M   'P 1'
_cell_length_a   10.04760000
_cell_length_b   10.70980000
_cell_length_c   11.22770000
_cell_angle_alpha   101.87800000
_cell_angle_beta   96.13710000
_cell_angle_gamma   96.79070000
_symmetry_Int_Tables_number   1
_chemical_formula_structural   ZnH12C15(NO3)4
_chemical_formula_sum   'Zn2 H24 C30 N8 O24'
_cell_volume   1163.26616652
_cell_formula_units_Z   2
loop_
 _symmetry_equiv_pos_site_id
 _symmetry_equiv_pos_as_xyz
  1  'x, y, z'
loop_
 _atom_site_type_symbol
 _atom_site_label
 _atom_site_symmetry_multiplicity
 _atom_site_fract_x
 _atom_site_fract_y
 _atom_site_fract_z
 _atom_site_occupancy
  Zn  Zn0  1  0.66832000  0.53011000  0.60793000  1.0
  Zn  Zn1  1  0.35799000  0.46341000  0.48801000  1.0
  H  H2  1  0.33674000  0.83387000  0.42745000  1.0
  H  H3  1  0.34080000  0.06546000  0.41938000  1.0
  H  H4  1  0.20600000  0.41649000  0.82042000  1.0
  H  H5  1  0.13523000  0.44788000  0.02971000  1.0
  H  H6  1  0.56533000  0.13081000  0.78842000  1.0
  H  H7  1  0.62652000  0.29975000  0.81232000  1.0
  H  H8  1  0.74659000  0.29382000  0.01960000  1.0
  H  H9  1  0.57070000  0.24345000  0.00883000  1.0
  H  H10  1  0.68275000  0.12577000  0.99426000  1.0
  H  H11  1  0.81468000  0.94501000  0.40321000  1.0
  H  H12  1  0.79191000  0.78630000  0.43269000  1.0
  H  H13  1  0.04229000  0.78049000  0.43806000  1.0
  H  H14  1  0.97327000  0.81342000  0.29817000  1.0
  H  H15  1  0.06541000  0.94171000  0.41598000  1.0
  H  H16  1  0.16370000  0.30664000  0.19304000  1.0
  H  H17  1  0.98878000  0.32601000  0.19102000  1.0
  H  H18  1  0.94007000  0.10056000  0.22958000  1.0
  H  H19  1  0.01838000  0.09732000  0.09423000  1.0
  H  H20  1  0.11608000  0.08665000  0.23240000  1.0
  H  H21  1  0.36144000  0.78686000  0.79362000  1.0
  H  H22  1  0.20394000  0.75804000  0.85152000  1.0
  H  H23  1  0.08570000  0.84241000  0.67884000  1.0
  H  H24  1  0.21875000  0.95708000  0.76500000  1.0
  H  H25  1  0.24375000  0.86452000  0.62029000  1.0
  C  C26  1  0.44764000  0.49222000  0.75654000  1.0
  C  C27  1  0.29142000  0.53383000  0.24951000  1.0
  C  C28  1  0.53649000  0.72278000  0.53260000  1.0
  C  C29  1  0.53856000  0.26663000  0.52063000  1.0
  C  C30  1  0.64828000  0.95319000  0.57701000  1.0
  C  C31  1  0.64497000  0.08364000  0.58385000  1.0
  C  C32  1  0.53738000  0.85995000  0.52526000  1.0
  C  C33  1  0.53682000  0.12858000  0.52497000  1.0
  C  C34  1  0.42493000  0.90430000  0.47089000  1.0
  C  C35  1  0.42682000  0.03424000  0.46708000  1.0
  C  C36  1  0.77554000  0.12698000  0.67139000  1.0
  C  C37  1  0.79145000  0.97081000  0.64065000  1.0
  C  C38  1  0.27927000  0.45921000  0.90151000  1.0
  C  C39  1  0.24015000  0.47596000  0.01833000  1.0
  C  C40  1  0.33390000  0.53020000  0.12289000  1.0
  C  C41  1  0.41258000  0.49845000  0.88411000  1.0
  C  C42  1  0.46729000  0.56870000  0.10529000  1.0
  C  C43  1  0.50690000  0.55293000  0.98845000  1.0
  C  C44  1  0.05477000  0.41291000  0.43517000  1.0
  C  C45  1  0.12818000  0.56757000  0.62139000  1.0
  C  C46  1  0.91865000  0.43921000  0.44630000  1.0
  C  C47  1  0.98961000  0.56862000  0.63840000  1.0
  C  C48  1  0.64687000  0.20857000  0.83567000  1.0
  C  C49  1  0.66367000  0.21799000  0.97261000  1.0
  C  C50  1  0.86279000  0.87568000  0.44658000  1.0
  C  C51  1  0.99405000  0.85183000  0.39790000  1.0
  C  C52  1  0.06841000  0.27624000  0.22535000  1.0
  C  C53  1  0.03327000  0.13149000  0.19466000  1.0
  C  C54  1  0.25125000  0.76563000  0.76933000  1.0
  C  C55  1  0.19588000  0.86121000  0.70302000  1.0
  N  N56  1  0.89240000  0.51171000  0.54839000  1.0
  N  N57  1  0.15283000  0.48500000  0.52125000  1.0
  N  N58  1  0.88681000  0.20891000  0.62353000  1.0
  N  N59  1  0.80341000  0.92840000  0.76599000  1.0
  N  N60  1  0.56739000  0.63455000  0.21105000  1.0
  N  N61  1  0.65023000  0.59825000  0.97938000  1.0
  N  N62  1  0.79670000  0.37954000  0.35807000  1.0
  N  N63  1  0.94522000  0.61391000  0.75687000  1.0
  O  O64  1  0.55520000  0.56389000  0.74817000  1.0
  O  O65  1  0.36314000  0.46945000  0.31049000  1.0
  O  O66  1  0.36696000  0.42046000  0.66798000  1.0
  O  O67  1  0.19238000  0.58679000  0.27817000  1.0
  O  O68  1  0.65249000  0.68481000  0.54576000  1.0
  O  O69  1  0.64240000  0.34244000  0.58468000  1.0
  O  O70  1  0.42319000  0.65669000  0.52944000  1.0
  O  O71  1  0.44346000  0.29778000  0.45547000  1.0
  O  O72  1  0.96171000  0.29719000  0.69716000  1.0
  O  O73  1  0.89411000  0.17710000  0.51231000  1.0
  O  O74  1  0.91760000  0.92200000  0.81425000  1.0
  O  O75  1  0.69718000  0.90986000  0.80937000  1.0
  O  O76  1  0.77438000  0.17871000  0.79282000  1.0
  O  O77  1  0.89461000  0.93082000  0.57949000  1.0
  O  O78  1  0.53103000  0.72441000  0.28274000  1.0
  O  O79  1  0.68047000  0.60024000  0.21977000  1.0
  O  O80  1  0.72276000  0.51414000  0.95313000  1.0
  O  O81  1  0.68558000  0.71583000  0.00462000  1.0
  O  O82  1  0.10139000  0.32272000  0.35997000  1.0
  O  O83  1  0.23678000  0.63596000  0.68905000  1.0
  O  O84  1  0.69273000  0.42903000  0.37066000  1.0
  O  O85  1  0.80638000  0.28283000  0.27934000  1.0
  O  O86  1  0.02899000  0.63379000  0.84957000  1.0
  O  O87  1  0.82282000  0.62488000  0.75948000  1.0
