# generated using pymatgen
data_CuH28Pd2C16N4(Cl3O2)2
_symmetry_space_group_name_H-M   'P 1'
_cell_length_a   10.36040000
_cell_length_b   10.72450000
_cell_length_c   13.14250000
_cell_angle_alpha   89.99980000
_cell_angle_beta   89.99980000
_cell_angle_gamma   115.30000000
_symmetry_Int_Tables_number   1
_chemical_formula_structural   CuH28Pd2C16N4(Cl3O2)2
_chemical_formula_sum   'Cu2 H56 Pd4 C32 N8 Cl12 O8'
_cell_volume   1320.19975903
_cell_formula_units_Z   2
loop_
 _symmetry_equiv_pos_site_id
 _symmetry_equiv_pos_as_xyz
  1  'x, y, z'
loop_
 _atom_site_type_symbol
 _atom_site_label
 _atom_site_symmetry_multiplicity
 _atom_site_fract_x
 _atom_site_fract_y
 _atom_site_fract_z
 _atom_site_occupancy
  Cu  Cu0  1  0.00000000  0.50000000  0.50000000  1.0
  Cu  Cu1  1  0.50000000  0.50000000  0.00000000  1.0
  H  H2  1  0.85426000  0.22079000  0.59740000  1.0
  H  H3  1  0.64575000  0.77922000  0.09740000  1.0
  H  H4  1  0.14574000  0.77922000  0.40259000  1.0
  H  H5  1  0.35426000  0.22079000  0.90259000  1.0
  H  H6  1  0.69019000  0.48700000  0.45578000  1.0
  H  H7  1  0.80981000  0.51300000  0.95578000  1.0
  H  H8  1  0.30981000  0.51300000  0.54422000  1.0
  H  H9  1  0.19019000  0.48701000  0.04422000  1.0
  H  H10  1  0.08916000  0.39488000  0.83675000  1.0
  H  H11  1  0.41084000  0.60512000  0.33675000  1.0
  H  H12  1  0.91083000  0.60512000  0.16325000  1.0
  H  H13  1  0.58916000  0.39488000  0.66325000  1.0
  H  H14  1  0.21989000  0.38357000  0.75550000  1.0
  H  H15  1  0.28011000  0.61643000  0.25550000  1.0
  H  H16  1  0.78011000  0.61643000  0.24451000  1.0
  H  H17  1  0.71989000  0.38357000  0.74450000  1.0
  H  H18  1  0.11831000  0.14029000  0.76578000  1.0
  H  H19  1  0.38169000  0.85971000  0.26578000  1.0
  H  H20  1  0.88169000  0.85971000  0.23421000  1.0
  H  H21  1  0.61831000  0.14029000  0.73422000  1.0
  H  H22  1  0.01935000  0.15562000  0.87236000  1.0
  H  H23  1  0.48065000  0.84438000  0.37236000  1.0
  H  H24  1  0.98065000  0.84438000  0.12763000  1.0
  H  H25  1  0.51935000  0.15562000  0.62764000  1.0
  H  H26  1  0.89754000  0.02739000  0.68288000  1.0
  H  H27  1  0.60247000  0.97262000  0.18289000  1.0
  H  H28  1  0.10246000  0.97262000  0.31711000  1.0
  H  H29  1  0.39754000  0.02738000  0.81712000  1.0
  H  H30  1  0.80894000  0.08763000  0.77412000  1.0
  H  H31  1  0.69106000  0.91237000  0.27412000  1.0
  H  H32  1  0.19105000  0.91237000  0.22588000  1.0
  H  H33  1  0.30895000  0.08763000  0.72589000  1.0
  H  H34  1  0.60436000  0.07851000  0.43729000  1.0
  H  H35  1  0.89563000  0.92149000  0.93728000  1.0
  H  H36  1  0.39564000  0.92148000  0.56271000  1.0
  H  H37  1  0.10437000  0.07852000  0.06272000  1.0
  H  H38  1  0.68808000  0.16507000  0.32467000  1.0
  H  H39  1  0.81192000  0.83492000  0.82466000  1.0
  H  H40  1  0.31192000  0.83493000  0.67533000  1.0
  H  H41  1  0.18808000  0.16508000  0.17534000  1.0
  H  H42  1  0.39807000  0.12655000  0.40976000  1.0
  H  H43  1  0.10193000  0.87345000  0.90976000  1.0
  H  H44  1  0.60193000  0.87345000  0.59024000  1.0
  H  H45  1  0.89808000  0.12655000  0.09024000  1.0
  H  H46  1  0.44992000  0.13729000  0.27946000  1.0
  H  H47  1  0.05008000  0.86271000  0.77946000  1.0
  H  H48  1  0.55007000  0.86270000  0.72054000  1.0
  H  H49  1  0.94992000  0.13729000  0.22054000  1.0
  H  H50  1  0.43982000  0.35979000  0.38710000  1.0
  H  H51  1  0.06018000  0.64021000  0.88710000  1.0
  H  H52  1  0.56018000  0.64020000  0.61290000  1.0
  H  H53  1  0.93982000  0.35980000  0.11290000  1.0
  H  H54  1  0.56115000  0.38422000  0.28386000  1.0
  H  H55  1  0.93885000  0.61578000  0.78386000  1.0
  H  H56  1  0.43884000  0.61577000  0.71614000  1.0
  H  H57  1  0.06115000  0.38423000  0.21614000  1.0
  Pd  Pd58  1  0.87734000  0.83157000  0.50566000  1.0
  Pd  Pd59  1  0.62266000  0.16843000  0.00566000  1.0
  Pd  Pd60  1  0.12266000  0.16843000  0.49435000  1.0
  Pd  Pd61  1  0.37734000  0.83157000  0.99435000  1.0
  C  C62  1  0.02414000  0.35065000  0.68192000  1.0
  C  C63  1  0.47586000  0.64935000  0.18192000  1.0
  C  C64  1  0.97586000  0.64934000  0.31808000  1.0
  C  C65  1  0.52414000  0.35065000  0.81808000  1.0
  C  C66  1  0.10542000  0.33704000  0.77291000  1.0
  C  C67  1  0.39459000  0.66296000  0.27291000  1.0
  C  C68  1  0.89458000  0.66296000  0.22709000  1.0
  C  C69  1  0.60542000  0.33703000  0.72709000  1.0
  C  C70  1  0.04302000  0.18068000  0.79173000  1.0
  C  C71  1  0.45698000  0.81932000  0.29173000  1.0
  C  C72  1  0.95698000  0.81932000  0.20827000  1.0
  C  C73  1  0.54302000  0.18067000  0.70827000  1.0
  C  C74  1  0.90529000  0.11726000  0.72708000  1.0
  C  C75  1  0.59472000  0.88274000  0.22707000  1.0
  C  C76  1  0.09471000  0.88274000  0.27292000  1.0
  C  C77  1  0.40529000  0.11726000  0.77293000  1.0
  C  C78  1  0.70548000  0.30122000  0.44543000  1.0
  C  C79  1  0.79451000  0.69878000  0.94542000  1.0
  C  C80  1  0.29451000  0.69878000  0.55457000  1.0
  C  C81  1  0.20549000  0.30123000  0.05457000  1.0
  C  C82  1  0.62154000  0.16789000  0.38924000  1.0
  C  C83  1  0.87846000  0.83210000  0.88924000  1.0
  C  C84  1  0.37846000  0.83210000  0.61076000  1.0
  C  C85  1  0.12154000  0.16790000  0.11076000  1.0
  C  C86  1  0.48522000  0.17989000  0.35557000  1.0
  C  C87  1  0.01478000  0.82011000  0.85557000  1.0
  C  C88  1  0.51478000  0.82011000  0.64443000  1.0
  C  C89  1  0.98522000  0.17989000  0.14443000  1.0
  C  C90  1  0.52618000  0.33590000  0.35882000  1.0
  C  C91  1  0.97382000  0.66410000  0.85882000  1.0
  C  C92  1  0.47382000  0.66410000  0.64118000  1.0
  C  C93  1  0.02618000  0.33590000  0.14118000  1.0
  N  N94  1  0.91874000  0.22925000  0.65870000  1.0
  N  N95  1  0.58126000  0.77075000  0.15870000  1.0
  N  N96  1  0.08126000  0.77076000  0.34130000  1.0
  N  N97  1  0.41874000  0.22925000  0.84130000  1.0
  N  N98  1  0.64654000  0.38733000  0.42974000  1.0
  N  N99  1  0.85346000  0.61267000  0.92974000  1.0
  N  N100  1  0.35346000  0.61266000  0.57026000  1.0
  N  N101  1  0.14654000  0.38734000  0.07026000  1.0
  Cl  Cl102  1  0.85646000  0.64199000  0.59577000  1.0
  Cl  Cl103  1  0.64354000  0.35801000  0.09577000  1.0
  Cl  Cl104  1  0.14354000  0.35801000  0.40423000  1.0
  Cl  Cl105  1  0.35646000  0.64199000  0.90423000  1.0
  Cl  Cl106  1  0.66990000  0.70343000  0.42211000  1.0
  Cl  Cl107  1  0.83009000  0.29658000  0.92211000  1.0
  Cl  Cl108  1  0.33009000  0.29657000  0.57790000  1.0
  Cl  Cl109  1  0.16990000  0.70342000  0.07790000  1.0
  Cl  Cl110  1  0.90022000  0.03236000  0.42105000  1.0
  Cl  Cl111  1  0.59978000  0.96764000  0.92105000  1.0
  Cl  Cl112  1  0.09978000  0.96764000  0.57895000  1.0
  Cl  Cl113  1  0.40022000  0.03236000  0.07896000  1.0
  O  O114  1  0.05550000  0.46359000  0.63564000  1.0
  O  O115  1  0.44450000  0.53642000  0.13563000  1.0
  O  O116  1  0.94450000  0.53642000  0.36436000  1.0
  O  O117  1  0.55550000  0.46358000  0.86436000  1.0
  O  O118  1  0.81694000  0.32421000  0.49739000  1.0
  O  O119  1  0.68306000  0.67579000  0.99738000  1.0
  O  O120  1  0.18306000  0.67579000  0.50261000  1.0
  O  O121  1  0.31694000  0.32421000  0.00261000  1.0
