# generated using pymatgen
data_NiH12C12(NCl)2
_symmetry_space_group_name_H-M   'P 1'
_cell_length_a   5.22390000
_cell_length_b   8.82040000
_cell_length_c   13.68420000
_cell_angle_alpha   88.11390000
_cell_angle_beta   82.32220000
_cell_angle_gamma   83.30070000
_symmetry_Int_Tables_number   1
_chemical_formula_structural   NiH12C12(NCl)2
_chemical_formula_sum   'Ni2 H24 C24 N4 Cl4'
_cell_volume   620.50995774
_cell_formula_units_Z   2
loop_
 _symmetry_equiv_pos_site_id
 _symmetry_equiv_pos_as_xyz
  1  'x, y, z'
loop_
 _atom_site_type_symbol
 _atom_site_label
 _atom_site_symmetry_multiplicity
 _atom_site_fract_x
 _atom_site_fract_y
 _atom_site_fract_z
 _atom_site_occupancy
  Ni  Ni0  1  0.90934000  0.53655000  0.74055000  1.0
  Ni  Ni1  1  0.09065000  0.46345000  0.25945000  1.0
  H  H2  1  0.48986000  0.53363000  0.61563000  1.0
  H  H3  1  0.51012000  0.46637000  0.38437000  1.0
  H  H4  1  0.28225000  0.33823000  0.53734000  1.0
  H  H5  1  0.71775000  0.66177000  0.46265000  1.0
  H  H6  1  0.78632000  0.99186000  0.67064000  1.0
  H  H7  1  0.21365000  0.00815000  0.32936000  1.0
  H  H8  1  0.97270000  0.20389000  0.74640000  1.0
  H  H9  1  0.02730000  0.79612000  0.25362000  1.0
  H  H10  1  0.21625000  0.06913000  0.52697000  1.0
  H  H11  1  0.78375000  0.93087000  0.47302000  1.0
  H  H12  1  0.38456000  0.92631000  0.59643000  1.0
  H  H13  1  0.61544000  0.07370000  0.40357000  1.0
  H  H14  1  0.44011000  0.74210000  0.70773000  1.0
  H  H15  1  0.55988000  0.25790000  0.29227000  1.0
  H  H16  1  0.07922000  0.89220000  0.80986000  1.0
  H  H17  1  0.92078000  0.10780000  0.19014000  1.0
  H  H18  1  0.42708000  0.71900000  0.06692000  1.0
  H  H19  1  0.57294000  0.28100000  0.93308000  1.0
  H  H20  1  0.77386000  0.57394000  0.95370000  1.0
  H  H21  1  0.22615000  0.42606000  0.04630000  1.0
  H  H22  1  0.82836000  0.86874000  0.01272000  1.0
  H  H23  1  0.17165000  0.13125000  0.98729000  1.0
  H  H24  1  0.05607000  0.89957000  0.09101000  1.0
  H  H25  1  0.94395000  0.10043000  0.90899000  1.0
  C  C26  1  0.55038000  0.41269000  0.62686000  1.0
  C  C27  1  0.44961000  0.58731000  0.37313000  1.0
  C  C28  1  0.43476000  0.30279000  0.58332000  1.0
  C  C29  1  0.56524000  0.69720000  0.41667000  1.0
  C  C30  1  0.51693000  0.14790000  0.59771000  1.0
  C  C31  1  0.48305000  0.85211000  0.40229000  1.0
  C  C32  1  0.71306000  0.11112000  0.65797000  1.0
  C  C33  1  0.28696000  0.88889000  0.34203000  1.0
  C  C34  1  0.81894000  0.22692000  0.69951000  1.0
  C  C35  1  0.18105000  0.77309000  0.30049000  1.0
  C  C36  1  0.40844000  0.02608000  0.54717000  1.0
  C  C37  1  0.59156000  0.97392000  0.45283000  1.0
  C  C38  1  0.43107000  0.74078000  0.78764000  1.0
  C  C39  1  0.56892000  0.25920000  0.21238000  1.0
  C  C40  1  0.23032000  0.82546000  0.84583000  1.0
  C  C41  1  0.76967000  0.17454000  0.15418000  1.0
  C  C42  1  0.22365000  0.82267000  0.94865000  1.0
  C  C43  1  0.77639000  0.17732000  0.05135000  1.0
  C  C44  1  0.42186000  0.72917000  0.98755000  1.0
  C  C45  1  0.57815000  0.27083000  0.01245000  1.0
  C  C46  1  0.61667000  0.64672000  0.92508000  1.0
  C  C47  1  0.38332000  0.35328000  0.07492000  1.0
  C  C48  1  0.01436000  0.91500000  0.01464000  1.0
  C  C49  1  0.98566000  0.08499000  0.98537000  1.0
  N  N50  1  0.74072000  0.37618000  0.68377000  1.0
  N  N51  1  0.25928000  0.62382000  0.31623000  1.0
  N  N52  1  0.62359000  0.65343000  0.82620000  1.0
  N  N53  1  0.37641000  0.34658000  0.17380000  1.0
  Cl  Cl54  1  0.98055000  0.70064000  0.61497000  1.0
  Cl  Cl55  1  0.01944000  0.29937000  0.38502000  1.0
  Cl  Cl56  1  0.13963000  0.40516000  0.84658000  1.0
  Cl  Cl57  1  0.86037000  0.59483000  0.15342000  1.0
