# generated using pymatgen
data_Ag2H6C8O5
_symmetry_space_group_name_H-M   'P 1'
_cell_length_a   6.49359000
_cell_length_b   11.54640000
_cell_length_c   12.23660000
_cell_angle_alpha   74.69300000
_cell_angle_beta   89.99930000
_cell_angle_gamma   89.99920000
_symmetry_Int_Tables_number   1
_chemical_formula_structural   Ag2H6C8O5
_chemical_formula_sum   'Ag8 H24 C32 O20'
_cell_volume   884.92363202
_cell_formula_units_Z   4
loop_
 _symmetry_equiv_pos_site_id
 _symmetry_equiv_pos_as_xyz
  1  'x, y, z'
loop_
 _atom_site_type_symbol
 _atom_site_label
 _atom_site_symmetry_multiplicity
 _atom_site_fract_x
 _atom_site_fract_y
 _atom_site_fract_z
 _atom_site_occupancy
  Ag  Ag0  1  0.89416000  0.43575000  0.20576000  1.0
  Ag  Ag1  1  0.39417000  0.56425000  0.29424000  1.0
  Ag  Ag2  1  0.10584000  0.56425000  0.79424000  1.0
  Ag  Ag3  1  0.60584000  0.43575000  0.70576000  1.0
  Ag  Ag4  1  0.16648000  0.45347000  0.59610000  1.0
  Ag  Ag5  1  0.66647000  0.54653000  0.90390000  1.0
  Ag  Ag6  1  0.83354000  0.54653000  0.40391000  1.0
  Ag  Ag7  1  0.33353000  0.45347000  0.09609000  1.0
  H  H8  1  0.71411000  0.14108000  0.63254000  1.0
  H  H9  1  0.21412000  0.85891000  0.86746000  1.0
  H  H10  1  0.28588000  0.85891000  0.36746000  1.0
  H  H11  1  0.78588000  0.14109000  0.13254000  1.0
  H  H12  1  0.52336000  0.94995000  0.71633000  1.0
  H  H13  1  0.02338000  0.05005000  0.78367000  1.0
  H  H14  1  0.47663000  0.05005000  0.28367000  1.0
  H  H15  1  0.97663000  0.94995000  0.21633000  1.0
  H  H16  1  0.16830000  0.92330000  0.65070000  1.0
  H  H17  1  0.66832000  0.07670000  0.84929000  1.0
  H  H18  1  0.83168000  0.07670000  0.34930000  1.0
  H  H19  1  0.33169000  0.92330000  0.15071000  1.0
  H  H20  1  0.00025000  0.09113000  0.50748000  1.0
  H  H21  1  0.50025000  0.90888000  0.99252000  1.0
  H  H22  1  0.99975000  0.90888000  0.49251000  1.0
  H  H23  1  0.49975000  0.09112000  0.00748000  1.0
  H  H24  1  0.22077000  0.24174000  0.73243000  1.0
  H  H25  1  0.72075000  0.75826000  0.76757000  1.0
  H  H26  1  0.77925000  0.75825000  0.26758000  1.0
  H  H27  1  0.27925000  0.24174000  0.23242000  1.0
  H  H28  1  0.01028000  0.28992000  0.76588000  1.0
  H  H29  1  0.51027000  0.71008000  0.73412000  1.0
  H  H30  1  0.98973000  0.71007000  0.23412000  1.0
  H  H31  1  0.48973000  0.28992000  0.26588000  1.0
  C  C32  1  0.26506000  0.20514000  0.48368000  1.0
  C  C33  1  0.76507000  0.79487000  0.01632000  1.0
  C  C34  1  0.73493000  0.79487000  0.51631000  1.0
  C  C35  1  0.23494000  0.20513000  0.98369000  1.0
  C  C36  1  0.46792000  0.21905000  0.51946000  1.0
  C  C37  1  0.96793000  0.78095000  0.98054000  1.0
  C  C38  1  0.53207000  0.78095000  0.48054000  1.0
  C  C39  1  0.03207000  0.21905000  0.01946000  1.0
  C  C40  1  0.55809000  0.12816000  0.60488000  1.0
  C  C41  1  0.05811000  0.87184000  0.89512000  1.0
  C  C42  1  0.44190000  0.87184000  0.39512000  1.0
  C  C43  1  0.94190000  0.12816000  0.10488000  1.0
  C  C44  1  0.45153000  0.02155000  0.65135000  1.0
  C  C45  1  0.95155000  0.97845000  0.84865000  1.0
  C  C46  1  0.54845000  0.97845000  0.34865000  1.0
  C  C47  1  0.04845000  0.02155000  0.15135000  1.0
  C  C48  1  0.25215000  0.00661000  0.61480000  1.0
  C  C49  1  0.75217000  0.99339000  0.88520000  1.0
  C  C50  1  0.74783000  0.99339000  0.38520000  1.0
  C  C51  1  0.24784000  0.00661000  0.11481000  1.0
  C  C52  1  0.15890000  0.09908000  0.53298000  1.0
  C  C53  1  0.65892000  0.90093000  0.96702000  1.0
  C  C54  1  0.84109000  0.90093000  0.46702000  1.0
  C  C55  1  0.34109000  0.09907000  0.03299000  1.0
  C  C56  1  0.59275000  0.32603000  0.46131000  1.0
  C  C57  1  0.09276000  0.67397000  0.03868000  1.0
  C  C58  1  0.40724000  0.67397000  0.53869000  1.0
  C  C59  1  0.90724000  0.32603000  0.96131000  1.0
  C  C60  1  0.15621000  0.30247000  0.39728000  1.0
  C  C61  1  0.65622000  0.69754000  0.10272000  1.0
  C  C62  1  0.84378000  0.69753000  0.60272000  1.0
  C  C63  1  0.34379000  0.30246000  0.89728000  1.0
  O  O64  1  0.05094000  0.27065000  0.32194000  1.0
  O  O65  1  0.55095000  0.72936000  0.17806000  1.0
  O  O66  1  0.94905000  0.72936000  0.67806000  1.0
  O  O67  1  0.44906000  0.27064000  0.82194000  1.0
  O  O68  1  0.17354000  0.41105000  0.40299000  1.0
  O  O69  1  0.67353000  0.58895000  0.09702000  1.0
  O  O70  1  0.82647000  0.58895000  0.59701000  1.0
  O  O71  1  0.32647000  0.41105000  0.90299000  1.0
  O  O72  1  0.59881000  0.35510000  0.35319000  1.0
  O  O73  1  0.09881000  0.64490000  0.14681000  1.0
  O  O74  1  0.40118000  0.64490000  0.64681000  1.0
  O  O75  1  0.90119000  0.35510000  0.85319000  1.0
  O  O76  1  0.68908000  0.38368000  0.52111000  1.0
  O  O77  1  0.18908000  0.61631000  0.97888000  1.0
  O  O78  1  0.31091000  0.61631000  0.47889000  1.0
  O  O79  1  0.81090000  0.38368000  0.02111000  1.0
  O  O80  1  0.08464000  0.27004000  0.70070000  1.0
  O  O81  1  0.58463000  0.72996000  0.79930000  1.0
  O  O82  1  0.91538000  0.72996000  0.29930000  1.0
  O  O83  1  0.41538000  0.27004000  0.20070000  1.0
