# generated using pymatgen
data_ZnP2H6(C3O4)2
_symmetry_space_group_name_H-M   'P 1'
_cell_length_a   9.21595000
_cell_length_b   10.50690000
_cell_length_c   10.50690000
_cell_angle_alpha   83.85780000
_cell_angle_beta   79.12890000
_cell_angle_gamma   79.12870000
_symmetry_Int_Tables_number   1
_chemical_formula_structural   ZnP2H6(C3O4)2
_chemical_formula_sum   'Zn2 P4 H12 C12 O16'
_cell_volume   978.51033299
_cell_formula_units_Z   2
loop_
 _symmetry_equiv_pos_site_id
 _symmetry_equiv_pos_as_xyz
  1  'x, y, z'
loop_
 _atom_site_type_symbol
 _atom_site_label
 _atom_site_symmetry_multiplicity
 _atom_site_fract_x
 _atom_site_fract_y
 _atom_site_fract_z
 _atom_site_occupancy
  Zn  Zn0  1  0.25000000  0.02625000  0.97375000  1.0
  Zn  Zn1  1  0.75000000  0.97375000  0.02625000  1.0
  P  P2  1  0.01242000  0.04971000  0.79111000  1.0
  P  P3  1  0.48758000  0.20889000  0.95029000  1.0
  P  P4  1  0.98758000  0.95029000  0.20889000  1.0
  P  P5  1  0.51242000  0.79111000  0.04971000  1.0
  H  H6  1  0.99404000  0.26186000  0.76967000  1.0
  H  H7  1  0.50596000  0.23033000  0.73814000  1.0
  H  H8  1  0.00596000  0.73814000  0.23033000  1.0
  H  H9  1  0.49404000  0.76967000  0.26186000  1.0
  H  H10  1  0.27482000  0.96401000  0.66247000  1.0
  H  H11  1  0.22517000  0.33753000  0.03599000  1.0
  H  H12  1  0.72518000  0.03599000  0.33753000  1.0
  H  H13  1  0.77482000  0.66247000  0.96401000  1.0
  H  H14  1  0.77125000  0.08878000  0.65158000  1.0
  H  H15  1  0.72875000  0.34842000  0.91122000  1.0
  H  H16  1  0.22875000  0.91122000  0.34842000  1.0
  H  H17  1  0.27125000  0.65158000  0.08878000  1.0
  C  C18  1  0.14243000  0.97160000  0.54042000  1.0
  C  C19  1  0.35757000  0.45958000  0.02840000  1.0
  C  C20  1  0.85757000  0.02840000  0.45958000  1.0
  C  C21  1  0.64243000  0.54042000  0.97160000  1.0
  C  C22  1  0.01147000  0.02304000  0.62616000  1.0
  C  C23  1  0.48853000  0.37384000  0.97696000  1.0
  C  C24  1  0.98853000  0.97696000  0.37384000  1.0
  C  C25  1  0.51147000  0.62616000  0.02304000  1.0
  C  C26  1  0.87204000  0.05033000  0.58498000  1.0
  C  C27  1  0.62796000  0.41502000  0.94967000  1.0
  C  C28  1  0.12796000  0.94967000  0.41502000  1.0
  C  C29  1  0.37204000  0.58498000  0.05033000  1.0
  O  O30  1  0.93466000  0.19813000  0.81559000  1.0
  O  O31  1  0.56534000  0.18441000  0.80187000  1.0
  O  O32  1  0.06534000  0.80187000  0.18442000  1.0
  O  O33  1  0.43466000  0.81559000  0.19813000  1.0
  O  O34  1  0.17755000  0.02952000  0.80742000  1.0
  O  O35  1  0.32245000  0.19258000  0.97048000  1.0
  O  O36  1  0.82245000  0.97048000  0.19258000  1.0
  O  O37  1  0.67755000  0.80742000  0.02952000  1.0
  O  O38  1  0.91444000  0.96719000  0.88229000  1.0
  O  O39  1  0.58556000  0.11771000  0.03281000  1.0
  O  O40  1  0.08556000  0.03281000  0.11771000  1.0
  O  O41  1  0.41444000  0.88229000  0.96719000  1.0
  O  O42  1  0.28194000  0.94131000  0.57205000  1.0
  O  O43  1  0.21806000  0.42795000  0.05869000  1.0
  O  O44  1  0.71806000  0.05869000  0.42795000  1.0
  O  O45  1  0.78194000  0.57205000  0.94131000  1.0
