# generated using pymatgen
data_CuH6C10IN3O
_symmetry_space_group_name_H-M   'P 1'
_cell_length_a   7.06717000
_cell_length_b   12.92130000
_cell_length_c   13.30800955
_cell_angle_alpha   119.03069036
_cell_angle_beta   91.47430026
_cell_angle_gamma   90.00430000
_symmetry_Int_Tables_number   1
_chemical_formula_structural   CuH6C10IN3O
_chemical_formula_sum   'Cu4 H24 C40 I4 N12 O4'
_cell_volume   1062.10253372
_cell_formula_units_Z   4
loop_
 _symmetry_equiv_pos_site_id
 _symmetry_equiv_pos_as_xyz
  1  'x, y, z'
loop_
 _atom_site_type_symbol
 _atom_site_label
 _atom_site_symmetry_multiplicity
 _atom_site_fract_x
 _atom_site_fract_y
 _atom_site_fract_z
 _atom_site_occupancy
  Cu  Cu0  1  0.34884000  0.37414000  0.90725000  1.0
  Cu  Cu1  1  0.15132000  0.46693000  0.09289000  1.0
  Cu  Cu2  1  0.65117000  0.62586000  0.09275000  1.0
  Cu  Cu3  1  0.84869000  0.53308000  0.90711000  1.0
  H  H4  1  0.75013000  0.80519000  0.00037000  1.0
  H  H5  1  0.24986000  0.19480000  0.99962000  1.0
  H  H6  1  0.76314000  0.81011000  0.81584000  1.0
  H  H7  1  0.73700000  0.99465000  0.18489000  1.0
  H  H8  1  0.23686000  0.18989000  0.18416000  1.0
  H  H9  1  0.26300000  0.00535000  0.81511000  1.0
  H  H10  1  0.74995000  0.19073000  0.00023000  1.0
  H  H11  1  0.25006000  0.80927000  0.99977000  1.0
  H  H12  1  0.58808000  0.20802000  0.45130000  1.0
  H  H13  1  0.91213000  0.75705000  0.54867000  1.0
  H  H14  1  0.41192000  0.79199000  0.54871000  1.0
  H  H15  1  0.08787000  0.24295000  0.45133000  1.0
  H  H16  1  0.79794000  0.03972000  0.40397000  1.0
  H  H17  1  0.70195000  0.63629000  0.59611000  1.0
  H  H18  1  0.20205000  0.96029000  0.59603000  1.0
  H  H19  1  0.29806000  0.36369000  0.40388000  1.0
  H  H20  1  0.85198000  0.95970000  0.53959000  1.0
  H  H21  1  0.64776000  0.42068000  0.46076000  1.0
  H  H22  1  0.14801000  0.04031000  0.46041000  1.0
  H  H23  1  0.35226000  0.57931000  0.53924000  1.0
  H  H24  1  0.42665000  0.30931000  0.64118000  1.0
  H  H25  1  0.07379000  0.66815000  0.35877000  1.0
  H  H26  1  0.57334000  0.69070000  0.35883000  1.0
  H  H27  1  0.92620000  0.33185000  0.64123000  1.0
  C  C28  1  0.75005000  0.88948000  0.00037000  1.0
  C  C29  1  0.24995000  0.11051000  0.99962000  1.0
  C  C30  1  0.75720000  0.89203000  0.89724000  1.0
  C  C31  1  0.74286000  0.99513000  0.10346000  1.0
  C  C32  1  0.24280000  0.10797000  0.10276000  1.0
  C  C33  1  0.25715000  0.00486000  0.89653000  1.0
  C  C34  1  0.75362000  0.00033000  0.89657000  1.0
  C  C35  1  0.74629000  0.10407000  0.10401000  1.0
  C  C36  1  0.24639000  0.99967000  0.10343000  1.0
  C  C37  1  0.25372000  0.89593000  0.89599000  1.0
  C  C38  1  0.74993000  0.10687000  0.00028000  1.0
  C  C39  1  0.25008000  0.89313000  0.99972000  1.0
  C  C40  1  0.76914000  0.99455000  0.78322000  1.0
  C  C41  1  0.73086000  0.21166000  0.21727000  1.0
  C  C42  1  0.23087000  0.00545000  0.21678000  1.0
  C  C43  1  0.26915000  0.78833000  0.78272000  1.0
  C  C44  1  0.67174000  0.09273000  0.66645000  1.0
  C  C45  1  0.82824000  0.42663000  0.33381000  1.0
  C  C46  1  0.32826000  0.90727000  0.33355000  1.0
  C  C47  1  0.17176000  0.57337000  0.66618000  1.0
  C  C48  1  0.60927000  0.17779000  0.51412000  1.0
  C  C49  1  0.89091000  0.66399000  0.48592000  1.0
  C  C50  1  0.39073000  0.82222000  0.48589000  1.0
  C  C51  1  0.10909000  0.33600000  0.51408000  1.0
  C  C52  1  0.72924000  0.08076000  0.48673000  1.0
  C  C53  1  0.77079000  0.59449000  0.51342000  1.0
  C  C54  1  0.27075000  0.91925000  0.51328000  1.0
  C  C55  1  0.22921000  0.40551000  0.48658000  1.0
  C  C56  1  0.76241000  0.03545000  0.56142000  1.0
  C  C57  1  0.73742000  0.47452000  0.43882000  1.0
  C  C58  1  0.23758000  0.96455000  0.43858000  1.0
  C  C59  1  0.26259000  0.52548000  0.56118000  1.0
  C  C60  1  0.51913000  0.23428000  0.61852000  1.0
  C  C61  1  0.98113000  0.61593000  0.38153000  1.0
  C  C62  1  0.48087000  0.76573000  0.38149000  1.0
  C  C63  1  0.01886000  0.38407000  0.61847000  1.0
  C  C64  1  0.55337000  0.19026000  0.69460000  1.0
  C  C65  1  0.94685000  0.49585000  0.30556000  1.0
  C  C66  1  0.44663000  0.80975000  0.30541000  1.0
  C  C67  1  0.05314000  0.50414000  0.69443000  1.0
  I  I68  1  0.98934000  0.33043000  0.87884000  1.0
  I  I69  1  0.51077000  0.45158000  0.12128000  1.0
  I  I70  1  0.01066000  0.66958000  0.12116000  1.0
  I  I71  1  0.48924000  0.54842000  0.87872000  1.0
  N  N72  1  0.66742000  0.07693000  0.76231000  1.0
  N  N73  1  0.83255000  0.31492000  0.23808000  1.0
  N  N74  1  0.33258000  0.92307000  0.23769000  1.0
  N  N75  1  0.16745000  0.68508000  0.76192000  1.0
  N  N76  1  0.55225000  0.15961000  0.84349000  1.0
  N  N77  1  0.94786000  0.31626000  0.15685000  1.0
  N  N78  1  0.44775000  0.84040000  0.15652000  1.0
  N  N79  1  0.05215000  0.68373000  0.84314000  1.0
  N  N80  1  0.48674000  0.22715000  0.80418000  1.0
  N  N81  1  0.01346000  0.42307000  0.19603000  1.0
  N  N82  1  0.51326000  0.77284000  0.19582000  1.0
  N  N83  1  0.98654000  0.57693000  0.80397000  1.0
  O  O84  1  0.86550000  0.92103000  0.70596000  1.0
  O  O85  1  0.63444000  0.21555000  0.29464000  1.0
  O  O86  1  0.13450000  0.07899000  0.29405000  1.0
  O  O87  1  0.36555000  0.78446000  0.70537000  1.0
