# generated using pymatgen
data_Hg2H27C15S2NCl2
_symmetry_space_group_name_H-M   'P 1'
_cell_length_a   9.95616000
_cell_length_b   9.95613000
_cell_length_c   11.91440000
_cell_angle_alpha   78.45980000
_cell_angle_beta   78.46000000
_cell_angle_gamma   68.51240000
_symmetry_Int_Tables_number   1
_chemical_formula_structural   Hg2H27C15S2NCl2
_chemical_formula_sum   'Hg4 H54 C30 S4 N2 Cl4'
_cell_volume   1066.25323237
_cell_formula_units_Z   2
loop_
 _symmetry_equiv_pos_site_id
 _symmetry_equiv_pos_as_xyz
  1  'x, y, z'
loop_
 _atom_site_type_symbol
 _atom_site_label
 _atom_site_symmetry_multiplicity
 _atom_site_fract_x
 _atom_site_fract_y
 _atom_site_fract_z
 _atom_site_occupancy
  Hg  Hg0  1  0.00262000  0.99738000  0.00000000  1.0
  Hg  Hg1  1  0.79947000  0.03517000  0.28081000  1.0
  Hg  Hg2  1  0.96483000  0.20053000  0.71919000  1.0
  Hg  Hg3  1  0.02338000  0.97663000  0.50000000  1.0
  H  H4  1  0.18074000  0.73359000  0.17810000  1.0
  H  H5  1  0.26640000  0.81926000  0.82190000  1.0
  H  H6  1  0.40166000  0.50429000  0.18540000  1.0
  H  H7  1  0.49570000  0.59834000  0.81460000  1.0
  H  H8  1  0.56225000  0.43775000  0.00000000  1.0
  H  H9  1  0.29689000  0.82010000  0.32543000  1.0
  H  H10  1  0.17990000  0.70312000  0.67457000  1.0
  H  H11  1  0.52381000  0.59706000  0.31782000  1.0
  H  H12  1  0.40294000  0.47619000  0.68218000  1.0
  H  H13  1  0.57741000  0.42259000  0.50000000  1.0
  H  H14  1  0.63872000  0.17624000  0.05905000  1.0
  H  H15  1  0.82376000  0.36128000  0.94095000  1.0
  H  H16  1  0.66202000  0.06520000  0.95150000  1.0
  H  H17  1  0.93480000  0.33798000  0.04850000  1.0
  H  H18  1  0.70035000  0.11769000  0.61424000  1.0
  H  H19  1  0.88231000  0.29965000  0.38576000  1.0
  H  H20  1  0.60918000  0.16685000  0.48989000  1.0
  H  H21  1  0.83315000  0.39082000  0.51011000  1.0
  H  H22  1  0.34703000  0.05711000  0.25888000  1.0
  H  H23  1  0.94289000  0.65297000  0.74112000  1.0
  H  H24  1  0.46496000  0.15949000  0.24566000  1.0
  H  H25  1  0.84051000  0.53504000  0.75433000  1.0
  H  H26  1  0.53336000  0.96544000  0.27633000  1.0
  H  H27  1  0.03456000  0.46664000  0.72367000  1.0
  H  H28  1  0.26910000  0.16270000  0.06676000  1.0
  H  H29  1  0.83730000  0.73090000  0.93324000  1.0
  H  H30  1  0.39807000  0.16926000  0.94069000  1.0
  H  H31  1  0.83074000  0.60194000  0.05931000  1.0
  H  H32  1  0.37319000  0.27933000  0.04900000  1.0
  H  H33  1  0.72067000  0.62682000  0.95100000  1.0
  H  H34  1  0.38619000  0.89120000  0.10841000  1.0
  H  H35  1  0.10880000  0.61382000  0.89159000  1.0
  H  H36  1  0.57526000  0.80976000  0.12097000  1.0
  H  H37  1  0.19024000  0.42474000  0.87903000  1.0
  H  H38  1  0.51869000  0.89020000  0.98363000  1.0
  H  H39  1  0.10980000  0.48131000  0.01637000  1.0
  H  H40  1  0.64649000  0.94796000  0.78167000  1.0
  H  H41  1  0.05204000  0.35351000  0.21833000  1.0
  H  H42  1  0.67242000  0.80964000  0.69807000  1.0
  H  H43  1  0.19036000  0.32758000  0.30194000  1.0
  H  H44  1  0.50447000  0.87646000  0.78883000  1.0
  H  H45  1  0.12354000  0.49553000  0.21117000  1.0
  H  H46  1  0.37099000  0.93221000  0.61040000  1.0
  H  H47  1  0.06779000  0.62901000  0.38960000  1.0
  H  H48  1  0.54024000  0.86965000  0.52047000  1.0
  H  H49  1  0.13034000  0.45976000  0.47953000  1.0
  H  H50  1  0.41529000  0.04853000  0.48622000  1.0
  H  H51  1  0.95147000  0.58471000  0.51378000  1.0
  H  H52  1  0.46273000  0.20642000  0.73123000  1.0
  H  H53  1  0.79358000  0.53727000  0.26876000  1.0
  H  H54  1  0.32672000  0.12745000  0.73879000  1.0
  H  H55  1  0.87255000  0.67328000  0.26121000  1.0
  H  H56  1  0.36525000  0.24291000  0.61185000  1.0
  H  H57  1  0.75709000  0.63475000  0.38815000  1.0
  C  C58  1  0.63986000  0.07017000  0.04502000  1.0
  C  C59  1  0.92983000  0.36014000  0.95498000  1.0
  C  C60  1  0.65162000  0.07790000  0.55860000  1.0
  C  C61  1  0.92210000  0.34838000  0.44140000  1.0
  C  C62  1  0.25266000  0.69746000  0.09975000  1.0
  C  C63  1  0.30254000  0.74734000  0.90025000  1.0
  C  C64  1  0.37559000  0.57204000  0.10332000  1.0
  C  C65  1  0.42796000  0.62441000  0.89668000  1.0
  C  C66  1  0.46496000  0.53504000  0.00000000  1.0
  C  C67  1  0.32593000  0.74033000  0.40191000  1.0
  C  C68  1  0.25966000  0.67407000  0.59809000  1.0
  C  C69  1  0.45081000  0.61700000  0.39863000  1.0
  C  C70  1  0.38300000  0.54919000  0.60137000  1.0
  C  C71  1  0.48018000  0.51982000  0.50000000  1.0
  C  C72  1  0.49341000  0.04842000  0.09704000  1.0
  C  C73  1  0.95158000  0.50659000  0.90296000  1.0
  C  C74  1  0.45817000  0.05841000  0.22714000  1.0
  C  C75  1  0.94159000  0.54184000  0.77286000  1.0
  C  C76  1  0.37684000  0.17249000  0.03438000  1.0
  C  C77  1  0.82751000  0.62316000  0.96562000  1.0
  C  C78  1  0.49384000  0.90122000  0.07613000  1.0
  C  C79  1  0.09878000  0.50616000  0.92387000  1.0
  C  C80  1  0.52973000  0.02510000  0.63165000  1.0
  C  C81  1  0.97490000  0.47027000  0.36835000  1.0
  C  C82  1  0.59177000  0.90804000  0.73083000  1.0
  C  C83  1  0.09196000  0.40823000  0.26917000  1.0
  C  C84  1  0.46055000  0.96555000  0.55760000  1.0
  C  C85  1  0.03444000  0.53945000  0.44240000  1.0
  C  C86  1  0.41450000  0.15865000  0.68113000  1.0
  C  C87  1  0.84135000  0.58550000  0.31887000  1.0
  S  S88  1  0.79491000  0.92836000  0.10804000  1.0
  S  S89  1  0.07164000  0.20509000  0.89196000  1.0
  S  S90  1  0.79736000  0.92942000  0.48958000  1.0
  S  S91  1  0.07058000  0.20264000  0.51042000  1.0
  N  N92  1  0.21688000  0.78312000  0.00000000  1.0
  N  N93  1  0.23250000  0.76750000  0.50000000  1.0
  Cl  Cl94  1  0.08412000  0.01834000  0.23379000  1.0
  Cl  Cl95  1  0.98166000  0.91588000  0.76621000  1.0
  Cl  Cl96  1  0.66845000  0.30804000  0.25009000  1.0
  Cl  Cl97  1  0.69196000  0.33155000  0.74991000  1.0
