# generated using pymatgen
data_Al2H12C22BrO10F
_symmetry_space_group_name_H-M   'P 1'
_cell_length_a   6.63986000
_cell_length_b   15.85710000
_cell_length_c   17.26720000
_cell_angle_alpha   78.52700000
_cell_angle_beta   86.69870000
_cell_angle_gamma   86.32840000
_symmetry_Int_Tables_number   1
_chemical_formula_structural   Al2H12C22BrO10F
_chemical_formula_sum   'Al4 H24 C44 Br2 O20 F2'
_cell_volume   1776.19016601
_cell_formula_units_Z   2
loop_
 _symmetry_equiv_pos_site_id
 _symmetry_equiv_pos_as_xyz
  1  'x, y, z'
loop_
 _atom_site_type_symbol
 _atom_site_label
 _atom_site_symmetry_multiplicity
 _atom_site_fract_x
 _atom_site_fract_y
 _atom_site_fract_z
 _atom_site_occupancy
  Al  Al0  1  0.88960000  0.49951000  0.49806000  1.0
  Al  Al1  1  0.38933000  0.49764000  0.49794000  1.0
  Al  Al2  1  0.33716000  0.00335000  0.00047000  1.0
  Al  Al3  1  0.83948000  0.99699000  0.99919000  1.0
  H  H4  1  0.87645000  0.80108000  0.86721000  1.0
  H  H5  1  0.43605000  0.91955000  0.78955000  1.0
  H  H6  1  0.76341000  0.68780000  0.80363000  1.0
  H  H7  1  0.48287000  0.83656000  0.68214000  1.0
  H  H8  1  0.81638000  0.59777000  0.70045000  1.0
  H  H9  1  0.94464000  0.79101000  0.36524000  1.0
  H  H10  1  0.26920000  0.87641000  0.27247000  1.0
  H  H11  1  0.47603000  0.71254000  0.27538000  1.0
  H  H12  1  0.28937000  0.70406000  0.13256000  1.0
  H  H13  1  0.96485000  0.61858000  0.22549000  1.0
  H  H14  1  0.75772000  0.78219000  0.22303000  1.0
  H  H15  1  0.26187000  0.22397000  0.79211000  1.0
  H  H16  1  0.46235000  0.38053000  0.78089000  1.0
  H  H17  1  0.79770000  0.28112000  0.85683000  1.0
  H  H18  1  0.97328000  0.26805000  0.70394000  1.0
  H  H19  1  0.25108000  0.11680000  0.19880000  1.0
  H  H20  1  0.01278000  0.29410000  0.19755000  1.0
  H  H21  1  0.22923000  0.20645000  0.30268000  1.0
  H  H22  1  0.99231000  0.38480000  0.30080000  1.0
  H  H23  1  0.38645000  0.31125000  0.36930000  1.0
  H  H24  1  0.61600000  0.60110000  0.52048000  1.0
  H  H25  1  0.14880000  0.38731000  0.53725000  1.0
  H  H26  1  0.58850000  0.89239000  0.04379000  1.0
  H  H27  1  0.05630000  0.09943000  0.02899000  1.0
  C  C28  1  0.63416000  0.38286000  0.61378000  1.0
  C  C29  1  0.67396000  0.40812000  0.40124000  1.0
  C  C30  1  0.14678000  0.61234000  0.38333000  1.0
  C  C31  1  0.10675000  0.59447000  0.59303000  1.0
  C  C32  1  0.15197000  0.86511000  0.83465000  1.0
  C  C33  1  0.09311000  0.65377000  0.65098000  1.0
  C  C34  1  0.89504000  0.69484000  0.76247000  1.0
  C  C35  1  0.92361000  0.64518000  0.70583000  1.0
  C  C36  1  0.23115000  0.71525000  0.65481000  1.0
  C  C37  1  0.20974000  0.76708000  0.71399000  1.0
  C  C38  1  0.03630000  0.75639000  0.76841000  1.0
  C  C39  1  0.00985000  0.80767000  0.82698000  1.0
  C  C40  1  0.32499000  0.87442000  0.78218000  1.0
  C  C41  1  0.35105000  0.82782000  0.72279000  1.0
  C  C42  1  0.20221000  0.81824000  0.26294000  1.0
  C  C43  1  0.02067000  0.77267000  0.31267000  1.0
  C  C44  1  0.13793000  0.68302000  0.31306000  1.0
  C  C45  1  0.31716000  0.72876000  0.26291000  1.0
  C  C46  1  0.21345000  0.72234000  0.18520000  1.0
  C  C47  1  0.03188000  0.67679000  0.23490000  1.0
  C  C48  1  0.91695000  0.76618000  0.23503000  1.0
  C  C49  1  0.09586000  0.81204000  0.18477000  1.0
  C  C50  1  0.51577000  0.22684000  0.68971000  1.0
  C  C51  1  0.70369000  0.17407000  0.72980000  1.0
  C  C52  1  0.60298000  0.18168000  0.81318000  1.0
  C  C53  1  0.41893000  0.23528000  0.77261000  1.0
  C  C54  1  0.53111000  0.32025000  0.76762000  1.0
  C  C55  1  0.71782000  0.26712000  0.80761000  1.0
  C  C56  1  0.81625000  0.25846000  0.72461000  1.0
  C  C57  1  0.63160000  0.31198000  0.68432000  1.0
  C  C58  1  0.55414000  0.14858000  0.15782000  1.0
  C  C59  1  0.68622000  0.35303000  0.34019000  1.0
  C  C60  1  0.87638000  0.29788000  0.23509000  1.0
  C  C61  1  0.86524000  0.34802000  0.29194000  1.0
  C  C62  1  0.52229000  0.30650000  0.33146000  1.0
  C  C63  1  0.52992000  0.25301000  0.27475000  1.0
  C  C64  1  0.71029000  0.24934000  0.22544000  1.0
  C  C65  1  0.71531000  0.19616000  0.16841000  1.0
  C  C66  1  0.37723000  0.15394000  0.20770000  1.0
  C  C67  1  0.36551000  0.20363000  0.26469000  1.0
  C  C68  1  0.55863000  0.09299000  0.09731000  1.0
  C  C69  1  0.59884000  0.11245000  0.88501000  1.0
  C  C70  1  0.12801000  0.91562000  0.89903000  1.0
  C  C71  1  0.08444000  0.88237000  0.11428000  1.0
  Br  Br72  1  0.37401000  0.19845000  0.60554000  1.0
  Br  Br73  1  0.45053000  0.73937000  0.57806000  1.0
  O  O74  1  0.50100000  0.41982000  0.43428000  1.0
  O  O75  1  0.80485000  0.40343000  0.58027000  1.0
  O  O76  1  0.94109000  0.56540000  0.57852000  1.0
  O  O77  1  0.83687000  0.43838000  0.41641000  1.0
  O  O78  1  0.97720000  0.59205000  0.41833000  1.0
  O  O79  1  0.46098000  0.41574000  0.59289000  1.0
  O  O80  1  0.63116000  0.55058000  0.49625000  1.0
  O  O81  1  0.31864000  0.57781000  0.40406000  1.0
  O  O82  1  0.27990000  0.57631000  0.56375000  1.0
  O  O83  1  0.14536000  0.44504000  0.50521000  1.0
  O  O84  1  0.76879000  0.07500000  0.90428000  1.0
  O  O85  1  0.39041000  0.06547000  0.08338000  1.0
  O  O86  1  0.25321000  0.90554000  0.07967000  1.0
  O  O87  1  0.42969000  0.09814000  0.92218000  1.0
  O  O88  1  0.28505000  0.94979000  0.91461000  1.0
  O  O89  1  0.72874000  0.07723000  0.06399000  1.0
  O  O90  1  0.59241000  0.94672000  0.00629000  1.0
  O  O91  1  0.95541000  0.91987000  0.93476000  1.0
  O  O92  1  0.90984000  0.91386000  0.09315000  1.0
  O  O93  1  0.07778000  0.05364000  0.99903000  1.0
  F  F94  1  0.78778000  0.09988000  0.71041000  1.0
  F  F95  1  0.88949000  0.19548000  0.12276000  1.0
