# generated using pymatgen
data_CuH20C17S2Br2O
_symmetry_space_group_name_H-M   'P 1'
_cell_length_a   7.31504000
_cell_length_b   11.62220000
_cell_length_c   11.82700000
_cell_angle_alpha   62.16310000
_cell_angle_beta   87.91290000
_cell_angle_gamma   81.26380000
_symmetry_Int_Tables_number   1
_chemical_formula_structural   CuH20C17S2Br2O
_chemical_formula_sum   'Cu2 H40 C34 S4 Br4 O2'
_cell_volume   878.13820013
_cell_formula_units_Z   2
loop_
 _symmetry_equiv_pos_site_id
 _symmetry_equiv_pos_as_xyz
  1  'x, y, z'
loop_
 _atom_site_type_symbol
 _atom_site_label
 _atom_site_symmetry_multiplicity
 _atom_site_fract_x
 _atom_site_fract_y
 _atom_site_fract_z
 _atom_site_occupancy
  Cu  Cu0  1  0.77242000  0.74344000  0.99138000  1.0
  Cu  Cu1  1  0.22757000  0.25657000  0.00862000  1.0
  H  H2  1  0.56832000  0.59794000  0.26470000  1.0
  H  H3  1  0.43168000  0.40206000  0.73530000  1.0
  H  H4  1  0.47691000  0.76454000  0.22616000  1.0
  H  H5  1  0.52308000  0.23545000  0.77384000  1.0
  H  H6  1  0.38017000  0.79975000  0.40025000  1.0
  H  H7  1  0.61983000  0.20025000  0.59975000  1.0
  H  H8  1  0.42715000  0.76492000  0.62068000  1.0
  H  H9  1  0.57285000  0.23509000  0.37932000  1.0
  H  H10  1  0.88828000  0.46159000  0.68212000  1.0
  H  H11  1  0.11171000  0.53841000  0.31789000  1.0
  H  H12  1  0.83288000  0.49036000  0.46459000  1.0
  H  H13  1  0.16711000  0.50964000  0.53541000  1.0
  H  H14  1  0.61408000  0.55903000  0.86455000  1.0
  H  H15  1  0.38590000  0.44098000  0.13545000  1.0
  H  H16  1  0.85274000  0.54789000  0.82788000  1.0
  H  H17  1  0.14725000  0.45211000  0.17212000  1.0
  H  H18  1  0.92501000  0.92551000  0.12105000  1.0
  H  H19  1  0.07500000  0.07448000  0.87895000  1.0
  H  H20  1  0.68223000  0.95332000  0.13974000  1.0
  H  H21  1  0.31778000  0.04668000  0.86026000  1.0
  H  H22  1  0.09367000  0.73576000  0.36392000  1.0
  H  H23  1  0.90634000  0.26424000  0.63608000  1.0
  H  H24  1  0.61594000  0.03037000  0.29234000  1.0
  H  H25  1  0.38408000  0.96963000  0.70766000  1.0
  H  H26  1  0.13026000  0.70824000  0.58270000  1.0
  H  H27  1  0.86975000  0.29175000  0.41730000  1.0
  H  H28  1  0.66144000  0.00957000  0.50796000  1.0
  H  H29  1  0.33857000  0.99043000  0.49204000  1.0
  H  H30  1  0.03249000  0.75536000  0.74863000  1.0
  H  H31  1  0.96751000  0.24463000  0.25137000  1.0
  H  H32  1  0.91479000  0.91647000  0.70840000  1.0
  H  H33  1  0.08522000  0.08352000  0.29160000  1.0
  H  H34  1  0.13158000  0.62470000  0.96798000  1.0
  H  H35  1  0.86842000  0.37530000  0.03202000  1.0
  H  H36  1  0.30131000  0.80126000  0.90735000  1.0
  H  H37  1  0.69869000  0.19875000  0.09265000  1.0
  H  H38  1  0.17250000  0.83754000  0.02095000  1.0
  H  H39  1  0.82750000  0.16247000  0.97905000  1.0
  H  H40  1  0.33421000  0.68886000  0.07492000  1.0
  H  H41  1  0.66579000  0.31114000  0.92507000  1.0
  C  C42  1  0.58912000  0.68276000  0.27766000  1.0
  C  C43  1  0.41088000  0.31723000  0.72235000  1.0
  C  C44  1  0.60493000  0.64913000  0.41633000  1.0
  C  C45  1  0.39507000  0.35086000  0.58368000  1.0
  C  C46  1  0.48799000  0.72232000  0.46348000  1.0
  C  C47  1  0.51200000  0.27768000  0.53652000  1.0
  C  C48  1  0.51528000  0.70319000  0.58741000  1.0
  C  C49  1  0.48471000  0.29681000  0.41258000  1.0
  C  C50  1  0.66443000  0.61380000  0.66539000  1.0
  C  C51  1  0.33556000  0.38620000  0.33461000  1.0
  C  C52  1  0.77273000  0.53333000  0.62170000  1.0
  C  C53  1  0.22726000  0.46667000  0.37831000  1.0
  C  C54  1  0.74189000  0.54979000  0.49910000  1.0
  C  C55  1  0.25810000  0.45021000  0.50090000  1.0
  C  C56  1  0.71486000  0.60511000  0.79185000  1.0
  C  C57  1  0.28513000  0.39489000  0.20815000  1.0
  C  C58  1  0.81218000  0.88918000  0.18648000  1.0
  C  C59  1  0.18783000  0.11081000  0.81352000  1.0
  C  C60  1  0.85000000  0.88303000  0.31363000  1.0
  C  C61  1  0.15001000  0.11697000  0.68637000  1.0
  C  C62  1  0.73305000  0.96276000  0.35425000  1.0
  C  C63  1  0.26697000  0.03724000  0.64575000  1.0
  C  C64  1  0.75779000  0.95029000  0.47599000  1.0
  C  C65  1  0.24222000  0.04970000  0.52401000  1.0
  C  C66  1  0.89671000  0.85553000  0.56116000  1.0
  C  C67  1  0.10330000  0.14447000  0.43884000  1.0
  C  C68  1  0.02021000  0.78179000  0.51770000  1.0
  C  C69  1  0.97979000  0.21821000  0.48230000  1.0
  C  C70  1  0.99889000  0.79682000  0.39471000  1.0
  C  C71  1  0.00112000  0.20318000  0.60529000  1.0
  C  C72  1  0.91046000  0.82768000  0.69814000  1.0
  C  C73  1  0.08955000  0.17232000  0.30186000  1.0
  C  C74  1  0.23161000  0.75823000  0.99878000  1.0
  C  C75  1  0.76839000  0.24177000  0.00122000  1.0
  S  S76  1  0.80402000  0.72859000  0.19547000  1.0
  S  S77  1  0.19598000  0.27140000  0.80453000  1.0
  S  S78  1  0.70678000  0.76468000  0.78830000  1.0
  S  S79  1  0.29322000  0.23532000  0.21170000  1.0
  Br  Br80  1  0.74229000  0.50792000  0.11235000  1.0
  Br  Br81  1  0.25766000  0.49208000  0.88764000  1.0
  Br  Br82  1  0.71554000  0.98178000  0.88005000  1.0
  Br  Br83  1  0.28447000  0.01822000  0.11996000  1.0
  O  O84  1  0.08296000  0.69458000  0.99150000  1.0
  O  O85  1  0.91704000  0.30542000  0.00850000  1.0
