# generated using pymatgen
data_ZnH5C7NO3
_symmetry_space_group_name_H-M   'P 1'
_cell_length_a   6.19395000
_cell_length_b   16.15430000
_cell_length_c   16.37000000
_cell_angle_alpha   90.00070000
_cell_angle_beta   90.00050000
_cell_angle_gamma   89.99910000
_symmetry_Int_Tables_number   1
_chemical_formula_structural   ZnH5C7NO3
_chemical_formula_sum   'Zn8 H40 C56 N8 O24'
_cell_volume   1637.96462617
_cell_formula_units_Z   8
loop_
 _symmetry_equiv_pos_site_id
 _symmetry_equiv_pos_as_xyz
  1  'x, y, z'
loop_
 _atom_site_type_symbol
 _atom_site_label
 _atom_site_symmetry_multiplicity
 _atom_site_fract_x
 _atom_site_fract_y
 _atom_site_fract_z
 _atom_site_occupancy
  Zn  Zn0  1  0.95094000  0.90087000  0.65030000  1.0
  Zn  Zn1  1  0.45168000  0.84774000  0.59571000  1.0
  Zn  Zn2  1  0.95097000  0.09912000  0.34970000  1.0
  Zn  Zn3  1  0.45171000  0.15226000  0.40429000  1.0
  Zn  Zn4  1  0.95095000  0.40088000  0.84970000  1.0
  Zn  Zn5  1  0.45170000  0.34774000  0.90429000  1.0
  Zn  Zn6  1  0.95096000  0.59912000  0.15030000  1.0
  Zn  Zn7  1  0.45170000  0.65226000  0.09571000  1.0
  H  H8  1  0.29400000  0.05653000  0.57043000  1.0
  H  H9  1  0.47400000  0.01357000  0.64346000  1.0
  H  H10  1  0.40308000  0.14615000  0.72685000  1.0
  H  H11  1  0.79811000  0.14461000  0.85650000  1.0
  H  H12  1  0.69386000  0.01803000  0.77374000  1.0
  H  H13  1  0.97462000  0.85844000  0.48470000  1.0
  H  H14  1  0.79580000  0.93432000  0.44481000  1.0
  H  H15  1  0.90129000  0.77936000  0.35019000  1.0
  H  H16  1  0.29654000  0.64784000  0.34877000  1.0
  H  H17  1  0.19388000  0.72755000  0.47666000  1.0
  H  H18  1  0.29407000  0.94346000  0.42955000  1.0
  H  H19  1  0.47403000  0.98644000  0.35652000  1.0
  H  H20  1  0.40310000  0.85384000  0.27314000  1.0
  H  H21  1  0.79809000  0.85539000  0.14350000  1.0
  H  H22  1  0.69388000  0.98197000  0.22627000  1.0
  H  H23  1  0.97464000  0.14156000  0.51530000  1.0
  H  H24  1  0.79585000  0.06569000  0.55520000  1.0
  H  H25  1  0.90133000  0.22066000  0.64980000  1.0
  H  H26  1  0.29651000  0.35214000  0.65123000  1.0
  H  H27  1  0.19386000  0.27243000  0.52335000  1.0
  H  H28  1  0.29405000  0.55654000  0.92956000  1.0
  H  H29  1  0.47401000  0.51356000  0.85652000  1.0
  H  H30  1  0.40308000  0.64616000  0.77315000  1.0
  H  H31  1  0.79808000  0.64462000  0.64351000  1.0
  H  H32  1  0.69385000  0.51804000  0.72628000  1.0
  H  H33  1  0.97463000  0.35844000  0.01530000  1.0
  H  H34  1  0.79584000  0.43432000  0.05519000  1.0
  H  H35  1  0.90131000  0.27936000  0.14980000  1.0
  H  H36  1  0.29653000  0.14786000  0.15124000  1.0
  H  H37  1  0.19388000  0.22757000  0.02335000  1.0
  H  H38  1  0.29407000  0.44345000  0.07045000  1.0
  H  H39  1  0.47403000  0.48644000  0.14348000  1.0
  H  H40  1  0.40310000  0.35384000  0.22686000  1.0
  H  H41  1  0.79809000  0.35540000  0.35649000  1.0
  H  H42  1  0.69387000  0.48198000  0.27373000  1.0
  H  H43  1  0.97462000  0.64157000  0.98470000  1.0
  H  H44  1  0.79584000  0.56568000  0.94480000  1.0
  H  H45  1  0.90129000  0.72064000  0.85020000  1.0
  H  H46  1  0.29651000  0.85215000  0.84877000  1.0
  H  H47  1  0.19385000  0.77243000  0.97665000  1.0
  C  C48  1  0.30356000  0.01457000  0.62394000  1.0
  C  C49  1  0.17103000  0.05219000  0.69205000  1.0
  C  C50  1  0.24376000  0.11973000  0.73758000  1.0
  C  C51  1  0.11160000  0.15279000  0.79840000  1.0
  C  C52  1  0.90689000  0.11814000  0.81121000  1.0
  C  C53  1  0.84789000  0.04967000  0.76516000  1.0
  C  C54  1  0.18761000  0.22482000  0.84902000  1.0
  C  C55  1  0.80443000  0.87860000  0.48429000  1.0
  C  C56  1  0.67093000  0.81125000  0.44474000  1.0
  C  C57  1  0.74243000  0.76760000  0.37630000  1.0
  C  C58  1  0.60984000  0.70701000  0.34210000  1.0
  C  C59  1  0.40544000  0.69294000  0.37616000  1.0
  C  C60  1  0.34740000  0.73728000  0.44534000  1.0
  C  C61  1  0.68565000  0.65712000  0.27008000  1.0
  C  C62  1  0.30360000  0.98543000  0.37605000  1.0
  C  C63  1  0.17106000  0.94781000  0.30795000  1.0
  C  C64  1  0.24379000  0.88026000  0.26241000  1.0
  C  C65  1  0.11160000  0.84721000  0.20160000  1.0
  C  C66  1  0.90689000  0.88186000  0.18879000  1.0
  C  C67  1  0.84789000  0.95033000  0.23484000  1.0
  C  C68  1  0.18761000  0.77518000  0.15097000  1.0
  C  C69  1  0.80446000  0.12140000  0.51572000  1.0
  C  C70  1  0.67095000  0.18875000  0.55526000  1.0
  C  C71  1  0.74245000  0.23241000  0.62370000  1.0
  C  C72  1  0.60984000  0.29299000  0.65790000  1.0
  C  C73  1  0.40543000  0.30705000  0.62385000  1.0
  C  C74  1  0.34739000  0.26271000  0.55467000  1.0
  C  C75  1  0.68565000  0.34288000  0.72992000  1.0
  C  C76  1  0.30358000  0.51457000  0.87605000  1.0
  C  C77  1  0.17104000  0.55220000  0.80795000  1.0
  C  C78  1  0.24377000  0.61973000  0.76242000  1.0
  C  C79  1  0.11159000  0.65279000  0.70161000  1.0
  C  C80  1  0.90687000  0.61814000  0.68880000  1.0
  C  C81  1  0.84787000  0.54968000  0.73485000  1.0
  C  C82  1  0.18760000  0.72482000  0.65098000  1.0
  C  C83  1  0.80446000  0.37860000  0.01571000  1.0
  C  C84  1  0.67094000  0.31125000  0.05526000  1.0
  C  C85  1  0.74245000  0.26760000  0.12370000  1.0
  C  C86  1  0.60984000  0.20701000  0.15790000  1.0
  C  C87  1  0.40545000  0.19296000  0.12385000  1.0
  C  C88  1  0.34740000  0.23729000  0.05467000  1.0
  C  C89  1  0.68567000  0.15713000  0.22992000  1.0
  C  C90  1  0.30359000  0.48543000  0.12395000  1.0
  C  C91  1  0.17105000  0.44781000  0.19205000  1.0
  C  C92  1  0.24378000  0.38027000  0.23759000  1.0
  C  C93  1  0.11159000  0.34721000  0.29840000  1.0
  C  C94  1  0.90689000  0.38186000  0.31121000  1.0
  C  C95  1  0.84789000  0.45033000  0.26516000  1.0
  C  C96  1  0.18760000  0.27518000  0.34903000  1.0
  C  C97  1  0.80445000  0.62140000  0.98428000  1.0
  C  C98  1  0.67093000  0.68874000  0.94474000  1.0
  C  C99  1  0.74243000  0.73240000  0.87630000  1.0
  C  C100  1  0.60983000  0.79298000  0.84211000  1.0
  C  C101  1  0.40542000  0.80705000  0.87616000  1.0
  C  C102  1  0.34737000  0.76271000  0.94533000  1.0
  C  C103  1  0.68564000  0.84288000  0.77008000  1.0
  N  N104  1  0.97798000  0.01735000  0.70721000  1.0
  N  N105  1  0.47841000  0.79465000  0.47898000  1.0
  N  N106  1  0.97801000  0.98264000  0.29278000  1.0
  N  N107  1  0.47841000  0.20534000  0.52103000  1.0
  N  N108  1  0.97798000  0.51736000  0.79279000  1.0
  N  N109  1  0.47842000  0.29466000  0.02102000  1.0
  N  N110  1  0.97800000  0.48264000  0.20722000  1.0
  N  N111  1  0.47840000  0.70534000  0.97897000  1.0
  O  O112  1  0.23195000  0.93485000  0.60145000  1.0
  O  O113  1  0.38919000  0.24274000  0.84266000  1.0
  O  O114  1  0.05436000  0.26290000  0.89363000  1.0
  O  O115  1  0.73269000  0.89861000  0.56369000  1.0
  O  O116  1  0.88670000  0.66442000  0.25197000  1.0
  O  O117  1  0.55290000  0.61161000  0.23263000  1.0
  O  O118  1  0.23199000  0.06514000  0.39854000  1.0
  O  O119  1  0.38918000  0.75725000  0.15733000  1.0
  O  O120  1  0.05434000  0.73709000  0.10637000  1.0
  O  O121  1  0.73273000  0.10139000  0.43631000  1.0
  O  O122  1  0.88671000  0.33558000  0.74803000  1.0
  O  O123  1  0.55289000  0.38839000  0.76738000  1.0
  O  O124  1  0.23197000  0.43486000  0.89854000  1.0
  O  O125  1  0.38917000  0.74274000  0.65734000  1.0
  O  O126  1  0.05433000  0.76290000  0.60637000  1.0
  O  O127  1  0.73271000  0.39861000  0.93631000  1.0
  O  O128  1  0.88673000  0.16443000  0.24803000  1.0
  O  O129  1  0.55292000  0.11161000  0.26737000  1.0
  O  O130  1  0.23197000  0.56513000  0.10145000  1.0
  O  O131  1  0.38917000  0.25725000  0.34266000  1.0
  O  O132  1  0.05434000  0.23710000  0.39363000  1.0
  O  O133  1  0.73271000  0.60139000  0.06369000  1.0
  O  O134  1  0.88670000  0.83557000  0.75196000  1.0
  O  O135  1  0.55288000  0.88839000  0.73263000  1.0
