# generated using pymatgen
data_CuH12C16NO4
_symmetry_space_group_name_H-M   'P 1'
_cell_length_a   9.69603000
_cell_length_b   10.15081360
_cell_length_c   18.84600000
_cell_angle_alpha   83.45061823
_cell_angle_beta   89.95660000
_cell_angle_gamma   61.47189713
_symmetry_Int_Tables_number   1
_chemical_formula_structural   CuH12C16NO4
_chemical_formula_sum   'Cu4 H48 C64 N4 O16'
_cell_volume   1615.95503899
_cell_formula_units_Z   4
loop_
 _symmetry_equiv_pos_site_id
 _symmetry_equiv_pos_as_xyz
  1  'x, y, z'
loop_
 _atom_site_type_symbol
 _atom_site_label
 _atom_site_symmetry_multiplicity
 _atom_site_fract_x
 _atom_site_fract_y
 _atom_site_fract_z
 _atom_site_occupancy
  Cu  Cu0  1  0.35726000  0.99980000  0.74985000  1.0
  Cu  Cu1  1  0.64273000  0.00021000  0.25015000  1.0
  Cu  Cu2  1  0.09321000  0.99963000  0.74998000  1.0
  Cu  Cu3  1  0.90679000  0.00037000  0.25001000  1.0
  H  H4  1  0.23948000  0.40709000  0.83931000  1.0
  H  H5  1  0.64708000  0.59304000  0.66081000  1.0
  H  H6  1  0.76052000  0.59289000  0.16070000  1.0
  H  H7  1  0.35292000  0.40696000  0.33917000  1.0
  H  H8  1  0.11354000  0.65413000  0.88978000  1.0
  H  H9  1  0.76925000  0.34608000  0.61023000  1.0
  H  H10  1  0.88645000  0.34586000  0.11023000  1.0
  H  H11  1  0.23073000  0.65391000  0.38977000  1.0
  H  H12  1  0.82241000  0.79789000  0.89119000  1.0
  H  H13  1  0.62262000  0.20175000  0.60844000  1.0
  H  H14  1  0.17757000  0.20210000  0.10880000  1.0
  H  H15  1  0.37735000  0.79825000  0.39158000  1.0
  H  H16  1  0.65632000  0.70737000  0.83494000  1.0
  H  H17  1  0.36562000  0.29143000  0.66448000  1.0
  H  H18  1  0.34368000  0.29261000  0.16505000  1.0
  H  H19  1  0.63435000  0.70860000  0.33552000  1.0
  H  H20  1  0.78462000  0.46215000  0.78395000  1.0
  H  H21  1  0.24766000  0.53654000  0.71553000  1.0
  H  H22  1  0.21540000  0.53783000  0.21605000  1.0
  H  H23  1  0.75231000  0.46352000  0.28445000  1.0
  H  H24  1  0.29246000  0.27007000  0.54472000  1.0
  H  H25  1  0.56344000  0.72888000  0.95496000  1.0
  H  H26  1  0.70754000  0.72993000  0.45528000  1.0
  H  H27  1  0.43659000  0.27110000  0.04504000  1.0
  H  H28  1  0.20276000  0.42270000  0.42480000  1.0
  H  H29  1  0.62590000  0.57679000  0.07501000  1.0
  H  H30  1  0.79725000  0.57730000  0.57519000  1.0
  H  H31  1  0.37412000  0.42319000  0.92499000  1.0
  H  H32  1  0.97649000  0.43542000  0.35604000  1.0
  H  H33  1  0.41210000  0.56481000  0.14401000  1.0
  H  H34  1  0.02349000  0.56460000  0.64396000  1.0
  H  H35  1  0.58792000  0.43519000  0.85600000  1.0
  H  H36  1  0.84019000  0.29491000  0.40790000  1.0
  H  H37  1  0.13535000  0.70552000  0.09223000  1.0
  H  H38  1  0.15981000  0.70510000  0.59210000  1.0
  H  H39  1  0.86466000  0.29448000  0.90778000  1.0
  H  H40  1  0.92930000  0.14481000  0.52903000  1.0
  H  H41  1  0.07481000  0.85509000  0.97098000  1.0
  H  H42  1  0.07069000  0.85521000  0.47097000  1.0
  H  H43  1  0.92522000  0.14488000  0.02902000  1.0
  H  H44  1  0.53137000  0.12549000  0.83530000  1.0
  H  H45  1  0.65762000  0.87442000  0.66452000  1.0
  H  H46  1  0.46863000  0.87450000  0.16470000  1.0
  H  H47  1  0.34238000  0.12559000  0.33549000  1.0
  H  H48  1  0.79526000  0.12141000  0.83688000  1.0
  H  H49  1  0.91753000  0.87827000  0.66339000  1.0
  H  H50  1  0.20475000  0.87858000  0.16313000  1.0
  H  H51  1  0.08246000  0.12176000  0.33661000  1.0
  C  C52  1  0.09574000  0.26645000  0.78584000  1.0
  C  C53  1  0.36215000  0.73298000  0.71394000  1.0
  C  C54  1  0.90426000  0.73354000  0.21417000  1.0
  C  C55  1  0.63784000  0.26705000  0.28604000  1.0
  C  C56  1  0.01936000  0.41931000  0.81036000  1.0
  C  C57  1  0.43925000  0.58012000  0.68941000  1.0
  C  C58  1  0.98065000  0.58067000  0.18964000  1.0
  C  C59  1  0.56074000  0.41990000  0.31058000  1.0
  C  C60  1  0.11217000  0.47430000  0.83917000  1.0
  C  C61  1  0.58729000  0.52555000  0.66078000  1.0
  C  C62  1  0.88783000  0.52567000  0.16084000  1.0
  C  C63  1  0.41269000  0.47447000  0.33921000  1.0
  C  C64  1  0.04154000  0.61093000  0.86758000  1.0
  C  C65  1  0.65390000  0.38902000  0.63232000  1.0
  C  C66  1  0.95845000  0.38906000  0.13243000  1.0
  C  C67  1  0.34610000  0.61098000  0.36768000  1.0
  C  C68  1  0.87765000  0.69270000  0.86752000  1.0
  C  C69  1  0.57220000  0.30688000  0.63217000  1.0
  C  C70  1  0.12235000  0.30729000  0.13248000  1.0
  C  C71  1  0.42778000  0.69313000  0.36783000  1.0
  C  C72  1  0.78418000  0.64128000  0.83663000  1.0
  C  C73  1  0.42709000  0.35783000  0.66288000  1.0
  C  C74  1  0.21582000  0.35870000  0.16337000  1.0
  C  C75  1  0.57289000  0.64219000  0.33711000  1.0
  C  C76  1  0.85502000  0.50495000  0.80789000  1.0
  C  C77  1  0.36098000  0.49411000  0.69168000  1.0
  C  C78  1  0.14498000  0.49503000  0.19211000  1.0
  C  C79  1  0.63901000  0.50592000  0.30831000  1.0
  C  C80  1  0.16222000  0.11645000  0.61843000  1.0
  C  C81  1  0.27933000  0.88289000  0.88138000  1.0
  C  C82  1  0.83776000  0.88357000  0.38157000  1.0
  C  C83  1  0.72069000  0.11710000  0.11862000  1.0
  C  C84  1  0.11592000  0.19873000  0.54409000  1.0
  C  C85  1  0.31539000  0.80075000  0.95576000  1.0
  C  C86  1  0.88408000  0.80127000  0.45591000  1.0
  C  C87  1  0.68462000  0.19925000  0.04424000  1.0
  C  C88  1  0.19430000  0.27540000  0.51415000  1.0
  C  C89  1  0.47043000  0.72395000  0.98563000  1.0
  C  C90  1  0.80570000  0.72459000  0.48585000  1.0
  C  C91  1  0.52960000  0.27603000  0.01438000  1.0
  C  C92  1  0.14381000  0.36029000  0.44678000  1.0
  C  C93  1  0.50455000  0.63939000  0.05308000  1.0
  C  C94  1  0.85620000  0.63972000  0.55322000  1.0
  C  C95  1  0.49549000  0.36059000  0.94692000  1.0
  C  C96  1  0.01614000  0.36803000  0.40858000  1.0
  C  C97  1  0.38454000  0.63198000  0.09142000  1.0
  C  C98  1  0.98384000  0.63199000  0.59142000  1.0
  C  C99  1  0.61548000  0.36801000  0.90859000  1.0
  C  C100  1  0.93933000  0.28954000  0.43773000  1.0
  C  C101  1  0.22930000  0.71056000  0.06231000  1.0
  C  C102  1  0.06067000  0.71047000  0.56227000  1.0
  C  C103  1  0.77074000  0.28941000  0.93770000  1.0
  C  C104  1  0.98873000  0.20546000  0.50529000  1.0
  C  C105  1  0.19486000  0.79438000  0.99469000  1.0
  C  C106  1  0.01125000  0.79456000  0.49471000  1.0
  C  C107  1  0.80517000  0.20560000  0.00532000  1.0
  C  C108  1  0.61905000  0.06881000  0.79739000  1.0
  C  C109  1  0.68830000  0.93102000  0.70256000  1.0
  C  C110  1  0.38095000  0.93118000  0.20262000  1.0
  C  C111  1  0.31169000  0.06900000  0.29744000  1.0
  C  C112  1  0.76336000  0.06756000  0.79787000  1.0
  C  C113  1  0.83145000  0.93210000  0.70231000  1.0
  C  C114  1  0.23663000  0.93245000  0.20214000  1.0
  C  C115  1  0.16854000  0.06792000  0.29769000  1.0
  N  N116  1  0.58217000  0.99997000  0.74990000  1.0
  N  N117  1  0.41784000  0.00003000  0.25010000  1.0
  N  N118  1  0.86890000  0.99982000  0.75014000  1.0
  N  N119  1  0.13111000  0.00019000  0.24986000  1.0
  O  O120  1  0.24598000  0.19671000  0.78747000  1.0
  O  O121  1  0.44237000  0.80304000  0.71224000  1.0
  O  O122  1  0.75402000  0.80329000  0.21254000  1.0
  O  O123  1  0.55762000  0.19699000  0.28773000  1.0
  O  O124  1  0.00527000  0.21630000  0.76666000  1.0
  O  O125  1  0.22157000  0.78281000  0.73319000  1.0
  O  O126  1  0.99476000  0.78367000  0.23333000  1.0
  O  O127  1  0.77844000  0.21720000  0.26681000  1.0
  O  O128  1  0.28265000  0.10883000  0.65009000  1.0
  O  O129  1  0.39204000  0.89061000  0.84960000  1.0
  O  O130  1  0.71731000  0.89124000  0.34992000  1.0
  O  O131  1  0.60798000  0.10937000  0.15041000  1.0
  O  O132  1  0.07486000  0.06352000  0.64515000  1.0
  O  O133  1  0.13904000  0.93577000  0.85480000  1.0
  O  O134  1  0.92516000  0.93644000  0.35485000  1.0
  O  O135  1  0.86097000  0.06422000  0.14520000  1.0
