# generated using pymatgen
data_FeH16PdC20(SN6)2
_symmetry_space_group_name_H-M   'P 1'
_cell_length_a   7.02519000
_cell_length_b   7.50913000
_cell_length_c   12.38230000
_cell_angle_alpha   100.88000000
_cell_angle_beta   100.55000000
_cell_angle_gamma   93.01130000
_symmetry_Int_Tables_number   1
_chemical_formula_structural   FeH16PdC20(SN6)2
_chemical_formula_sum   'Fe1 H16 Pd1 C20 S2 N12'
_cell_volume   628.04783871
_cell_formula_units_Z   1
loop_
 _symmetry_equiv_pos_site_id
 _symmetry_equiv_pos_as_xyz
  1  'x, y, z'
loop_
 _atom_site_type_symbol
 _atom_site_label
 _atom_site_symmetry_multiplicity
 _atom_site_fract_x
 _atom_site_fract_y
 _atom_site_fract_z
 _atom_site_occupancy
  Fe  Fe0  1  0.48627000  0.50967000  0.50008000  1.0
  H  H1  1  0.25814000  0.16380000  0.95949000  1.0
  H  H2  1  0.73745000  0.83917000  0.04086000  1.0
  H  H3  1  0.37906000  0.11350000  0.32769000  1.0
  H  H4  1  0.60890000  0.89776000  0.67361000  1.0
  H  H5  1  0.36526000  0.41848000  0.07143000  1.0
  H  H6  1  0.64296000  0.58343000  0.92615000  1.0
  H  H7  1  0.14344000  0.96504000  0.75542000  1.0
  H  H8  1  0.85110000  0.03823000  0.24588000  1.0
  H  H9  1  0.04852000  0.62276000  0.65353000  1.0
  H  H10  1  0.94368000  0.38050000  0.34795000  1.0
  H  H11  1  0.97760000  0.30258000  0.70763000  1.0
  H  H12  1  0.02005000  0.70198000  0.29285000  1.0
  H  H13  1  0.01415000  0.29097000  0.85198000  1.0
  H  H14  1  0.98654000  0.71077000  0.14824000  1.0
  H  H15  1  0.21601000  0.29009000  0.78162000  1.0
  H  H16  1  0.78273000  0.71270000  0.21706000  1.0
  Pd  Pd17  1  0.01329000  0.98420000  0.49854000  1.0
  C  C18  1  0.82291000  0.16656000  0.50629000  1.0
  C  C19  1  0.20480000  0.79892000  0.49172000  1.0
  C  C20  1  0.20636000  0.19317000  0.51467000  1.0
  C  C21  1  0.80703000  0.78833000  0.48398000  1.0
  C  C22  1  0.25682000  0.04005000  0.99441000  1.0
  C  C23  1  0.74387000  0.96303000  0.00630000  1.0
  C  C24  1  0.38642000  0.22677000  0.28548000  1.0
  C  C25  1  0.60388000  0.78281000  0.71463000  1.0
  C  C26  1  0.37811000  0.38349000  0.15312000  1.0
  C  C27  1  0.62169000  0.62141000  0.84504000  1.0
  C  C28  1  0.19833000  0.87361000  0.91478000  1.0
  C  C29  1  0.80320000  0.12895000  0.08624000  1.0
  C  C30  1  0.14482000  0.85157000  0.79885000  1.0
  C  C31  1  0.85243000  0.15148000  0.20236000  1.0
  C  C32  1  0.10663000  0.54916000  0.81708000  1.0
  C  C33  1  0.89300000  0.45360000  0.18397000  1.0
  C  C34  1  0.09310000  0.66818000  0.74393000  1.0
  C  C35  1  0.90291000  0.33504000  0.25737000  1.0
  C  C36  1  0.07630000  0.34702000  0.78897000  1.0
  C  C37  1  0.92287000  0.65577000  0.21110000  1.0
  S  S38  1  0.18085000  0.66460000  0.95468000  1.0
  S  S39  1  0.82352000  0.33766000  0.04622000  1.0
  N  N40  1  0.30626000  0.32446000  0.51719000  1.0
  N  N41  1  0.68379000  0.67631000  0.48277000  1.0
  N  N42  1  0.71893000  0.28295000  0.51275000  1.0
  N  N43  1  0.30782000  0.68080000  0.48931000  1.0
  N  N44  1  0.42625000  0.40162000  0.33223000  1.0
  N  N45  1  0.55808000  0.60899000  0.66643000  1.0
  N  N46  1  0.30305000  0.04147000  0.10105000  1.0
  N  N47  1  0.70073000  0.96292000  0.89971000  1.0
  N  N48  1  0.42223000  0.50131000  0.24916000  1.0
  N  N49  1  0.56847000  0.50636000  0.74833000  1.0
  N  N50  1  0.35370000  0.20899000  0.17173000  1.0
  N  N51  1  0.64573000  0.79698000  0.82811000  1.0
