# generated using pymatgen
data_CoH12C12(N4Cl)2
_symmetry_space_group_name_H-M   'P 1'
_cell_length_a   7.24433000
_cell_length_b   7.71553000
_cell_length_c   8.42279000
_cell_angle_alpha   105.20200000
_cell_angle_beta   104.28600000
_cell_angle_gamma   99.50360000
_symmetry_Int_Tables_number   1
_chemical_formula_structural   CoH12C12(N4Cl)2
_chemical_formula_sum   'Co1 H12 C12 N8 Cl2'
_cell_volume   426.75795880
_cell_formula_units_Z   1
loop_
 _symmetry_equiv_pos_site_id
 _symmetry_equiv_pos_as_xyz
  1  'x, y, z'
loop_
 _atom_site_type_symbol
 _atom_site_label
 _atom_site_symmetry_multiplicity
 _atom_site_fract_x
 _atom_site_fract_y
 _atom_site_fract_z
 _atom_site_occupancy
  Co  Co0  1  0.00000000  0.50000000  0.50000000  1.0
  H  H1  1  0.60592000  0.35584000  0.59161000  1.0
  H  H2  1  0.39409000  0.64416000  0.40840000  1.0
  H  H3  1  0.70112000  0.82608000  0.33381000  1.0
  H  H4  1  0.29888000  0.17393000  0.66618000  1.0
  H  H5  1  0.54836000  0.39708000  0.26921000  1.0
  H  H6  1  0.45164000  0.60292000  0.73080000  1.0
  H  H7  1  0.81257000  0.66133000  0.95244000  1.0
  H  H8  1  0.18743000  0.33867000  0.04756000  1.0
  H  H9  1  0.95503000  0.11609000  0.33709000  1.0
  H  H10  1  0.04496000  0.88391000  0.66290000  1.0
  H  H11  1  0.06477000  0.65303000  0.22436000  1.0
  H  H12  1  0.93523000  0.34698000  0.77564000  1.0
  C  C13  1  0.65700000  0.24119000  0.52623000  1.0
  C  C14  1  0.34300000  0.75881000  0.47377000  1.0
  C  C15  1  0.58248000  0.04796000  0.48113000  1.0
  C  C16  1  0.41752000  0.95204000  0.51887000  1.0
  C  C17  1  0.70304000  0.96954000  0.39188000  1.0
  C  C18  1  0.29695000  0.03047000  0.60812000  1.0
  C  C19  1  0.64523000  0.46647000  0.21274000  1.0
  C  C20  1  0.35477000  0.53353000  0.78727000  1.0
  C  C21  1  0.59707000  0.51557000  0.05966000  1.0
  C  C22  1  0.40293000  0.48443000  0.94034000  1.0
  C  C23  1  0.77677000  0.60270000  0.04901000  1.0
  C  C24  1  0.22322000  0.39730000  0.95099000  1.0
  N  N25  1  0.81299000  0.27635000  0.46920000  1.0
  N  N26  1  0.18701000  0.72366000  0.53080000  1.0
  N  N27  1  0.83743000  0.11017000  0.38736000  1.0
  N  N28  1  0.16258000  0.88984000  0.61264000  1.0
  N  N29  1  0.84052000  0.52086000  0.29030000  1.0
  N  N30  1  0.15948000  0.47914000  0.70971000  1.0
  N  N31  1  0.91671000  0.60266000  0.18892000  1.0
  N  N32  1  0.08329000  0.39734000  0.81108000  1.0
  Cl  Cl33  1  0.18790000  0.29927000  0.32044000  1.0
  Cl  Cl34  1  0.81210000  0.70073000  0.67956000  1.0
