# generated using pymatgen
data_ZnH5C10N5O2
_symmetry_space_group_name_H-M   'P 1'
_cell_length_a   10.82770000
_cell_length_b   13.82290000
_cell_length_c   13.82290000
_cell_angle_alpha   113.42500000
_cell_angle_beta   105.13700000
_cell_angle_gamma   105.13700000
_symmetry_Int_Tables_number   1
_chemical_formula_structural   ZnH5C10N5O2
_chemical_formula_sum   'Zn6 H30 C60 N30 O12'
_cell_volume   1669.73050331
_cell_formula_units_Z   6
loop_
 _symmetry_equiv_pos_site_id
 _symmetry_equiv_pos_as_xyz
  1  'x, y, z'
loop_
 _atom_site_type_symbol
 _atom_site_label
 _atom_site_symmetry_multiplicity
 _atom_site_fract_x
 _atom_site_fract_y
 _atom_site_fract_z
 _atom_site_occupancy
  Zn  Zn0  1  0.79692000  0.32731000  0.24664000  1.0
  Zn  Zn1  1  0.55032000  0.75334000  0.08069000  1.0
  Zn  Zn2  1  0.46967000  0.91931000  0.67271000  1.0
  Zn  Zn3  1  0.05032000  0.08069000  0.75334000  1.0
  Zn  Zn4  1  0.96967000  0.67271000  0.91931000  1.0
  Zn  Zn5  1  0.29692000  0.24664000  0.32731000  1.0
  H  H6  1  0.56509000  0.55822000  0.53240000  1.0
  H  H7  1  0.03274000  0.46757000  0.02586000  1.0
  H  H8  1  0.00681000  0.97423000  0.44174000  1.0
  H  H9  1  0.53274000  0.02586000  0.46757000  1.0
  H  H10  1  0.50681000  0.44174000  0.97423000  1.0
  H  H11  1  0.06509000  0.53240000  0.55822000  1.0
  H  H12  1  0.95876000  0.98670000  0.14649000  1.0
  H  H13  1  0.81224000  0.85362000  0.84020000  1.0
  H  H14  1  0.97205000  0.15983000  0.01334000  1.0
  H  H15  1  0.31223000  0.84020000  0.85362000  1.0
  H  H16  1  0.47205000  0.01334000  0.15983000  1.0
  H  H17  1  0.45876000  0.14649000  0.98670000  1.0
  H  H18  1  0.61982000  0.76895000  0.63867000  1.0
  H  H19  1  0.98114000  0.36128000  0.13032000  1.0
  H  H20  1  0.85081000  0.86976000  0.23103000  1.0
  H  H21  1  0.48114000  0.13032000  0.36128000  1.0
  H  H22  1  0.35081000  0.23103000  0.86976000  1.0
  H  H23  1  0.11981000  0.63867000  0.76895000  1.0
  H  H24  1  0.73050000  0.04485000  0.12635000  1.0
  H  H25  1  0.60414000  0.87370000  0.91853000  1.0
  H  H26  1  0.68567000  0.08152000  0.95518000  1.0
  H  H27  1  0.10415000  0.91853000  0.87370000  1.0
  H  H28  1  0.18567000  0.95518000  0.08152000  1.0
  H  H29  1  0.23050000  0.12635000  0.04485000  1.0
  H  H30  1  0.19985000  0.71643000  0.51244000  1.0
  H  H31  1  0.68740000  0.48754000  0.20396000  1.0
  H  H32  1  0.48343000  0.79595000  0.28360000  1.0
  H  H33  1  0.18740000  0.20396000  0.48754000  1.0
  H  H34  1  0.98343000  0.28360000  0.79595000  1.0
  H  H35  1  0.69985000  0.51244000  0.71643000  1.0
  C  C36  1  0.03227000  0.25800000  0.27077000  1.0
  C  C37  1  0.76147000  0.72924000  0.98716000  1.0
  C  C38  1  0.77431000  0.01277000  0.74207000  1.0
  C  C39  1  0.26147000  0.98715000  0.72924000  1.0
  C  C40  1  0.27431000  0.74207000  0.01277000  1.0
  C  C41  1  0.53227000  0.27077000  0.25800000  1.0
  C  C42  1  0.48207000  0.58877000  0.52542000  1.0
  C  C43  1  0.95665000  0.47454000  0.06336000  1.0
  C  C44  1  0.89326000  0.93666000  0.41120000  1.0
  C  C45  1  0.45665000  0.06336000  0.47454000  1.0
  C  C46  1  0.39325000  0.41120000  0.93666000  1.0
  C  C47  1  0.98208000  0.52542000  0.58878000  1.0
  C  C48  1  0.34038000  0.51337000  0.45692000  1.0
  C  C49  1  0.88354000  0.54311000  0.05645000  1.0
  C  C50  1  0.82703000  0.94355000  0.48664000  1.0
  C  C51  1  0.38354000  0.05645000  0.54311000  1.0
  C  C52  1  0.32702000  0.48664000  0.94354000  1.0
  C  C53  1  0.84038000  0.45692000  0.51337000  1.0
  C  C54  1  0.95625000  0.07134000  0.18046000  1.0
  C  C55  1  0.77576000  0.81956000  0.89080000  1.0
  C  C56  1  0.88492000  0.10916000  0.92869000  1.0
  C  C57  1  0.27576000  0.89080000  0.81956000  1.0
  C  C58  1  0.38492000  0.92869000  0.10916000  1.0
  C  C59  1  0.45625000  0.18046000  0.07134000  1.0
  C  C60  1  0.13275000  0.37628000  0.34585000  1.0
  C  C61  1  0.78689000  0.65411000  0.03034000  1.0
  C  C62  1  0.75649000  0.96955000  0.62376000  1.0
  C  C63  1  0.28689000  0.03034000  0.65411000  1.0
  C  C64  1  0.25649000  0.62376000  0.96955000  1.0
  C  C65  1  0.63275000  0.34585000  0.37628000  1.0
  C  C66  1  0.23528000  0.55895000  0.45063000  1.0
  C  C67  1  0.78465000  0.54935000  0.10829000  1.0
  C  C68  1  0.67634000  0.89168000  0.44108000  1.0
  C  C69  1  0.28466000  0.10829000  0.54935000  1.0
  C  C70  1  0.17634000  0.44108000  0.89169000  1.0
  C  C71  1  0.73528000  0.45063000  0.55895000  1.0
  C  C72  1  0.51189000  0.70556000  0.58452000  1.0
  C  C73  1  0.92737000  0.41548000  0.12111000  1.0
  C  C74  1  0.80627000  0.87895000  0.29443000  1.0
  C  C75  1  0.42737000  0.12110000  0.41548000  1.0
  C  C76  1  0.30627000  0.29443000  0.87895000  1.0
  C  C77  1  0.01190000  0.58452000  0.70556000  1.0
  C  C78  1  0.84183000  0.10021000  0.16995000  1.0
  C  C79  1  0.67187000  0.83007000  0.93019000  1.0
  C  C80  1  0.74165000  0.06977000  0.89983000  1.0
  C  C81  1  0.17188000  0.93019000  0.83007000  1.0
  C  C82  1  0.24165000  0.89983000  0.06977000  1.0
  C  C83  1  0.34183000  0.16995000  0.10021000  1.0
  C  C84  1  0.27563000  0.67774000  0.51345000  1.0
  C  C85  1  0.76216000  0.48652000  0.16427000  1.0
  C  C86  1  0.59788000  0.83571000  0.32228000  1.0
  C  C87  1  0.26217000  0.16427000  0.48652000  1.0
  C  C88  1  0.09788000  0.32228000  0.83571000  1.0
  C  C89  1  0.77563000  0.51345000  0.67774000  1.0
  C  C90  1  0.84565000  0.17931000  0.43414000  1.0
  C  C91  1  0.41156000  0.56590000  0.74518000  1.0
  C  C92  1  0.66654000  0.25490000  0.82065000  1.0
  C  C93  1  0.91156000  0.74518000  0.56590000  1.0
  C  C94  1  0.16654000  0.82064000  0.25490000  1.0
  C  C95  1  0.34565000  0.43414000  0.17931000  1.0
  N  N96  1  0.07649000  0.17173000  0.24388000  1.0
  N  N97  1  0.83259000  0.75615000  0.92778000  1.0
  N  N98  1  0.90480000  0.07218000  0.82830000  1.0
  N  N99  1  0.33259000  0.92778000  0.75615000  1.0
  N  N100  1  0.40480000  0.82830000  0.07218000  1.0
  N  N101  1  0.57650000  0.24388000  0.17173000  1.0
  N  N102  1  0.89087000  0.21901000  0.22704000  1.0
  N  N103  1  0.66382000  0.77299000  0.99196000  1.0
  N  N104  1  0.67187000  0.00801000  0.78103000  1.0
  N  N105  1  0.16381000  0.99196000  0.77299000  1.0
  N  N106  1  0.17188000  0.78103000  0.00801000  1.0
  N  N107  1  0.39086000  0.22704000  0.21901000  1.0
  N  N108  1  0.41259000  0.74893000  0.57929000  1.0
  N  N109  1  0.83332000  0.42070000  0.16971000  1.0
  N  N110  1  0.66360000  0.83030000  0.25102000  1.0
  N  N111  1  0.33333333  0.16971000  0.42070000  1.0
  N  N112  1  0.16360000  0.25102000  0.83030000  1.0
  N  N113  1  0.91259000  0.57929000  0.74893000  1.0
  N  N114  1  0.27216000  0.39574000  0.38884000  1.0
  N  N115  1  0.88332000  0.61113000  0.00684000  1.0
  N  N116  1  0.87642000  0.99308000  0.60425000  1.0
  N  N117  1  0.38332000  0.00684000  0.61113000  1.0
  N  N118  1  0.37642000  0.60425000  0.99308000  1.0
  N  N119  1  0.77216000  0.38884000  0.39574000  1.0
  N  N120  1  0.10382000  0.46938000  0.37947000  1.0
  N  N121  1  0.72431000  0.62049000  0.08980000  1.0
  N  N122  1  0.63445000  0.91008000  0.53071000  1.0
  N  N123  1  0.22431000  0.08980000  0.62049000  1.0
  N  N124  1  0.13445000  0.53071000  0.91008000  1.0
  N  N125  1  0.60382000  0.37947000  0.46938000  1.0
  O  O126  1  0.72367000  0.12534000  0.38077000  1.0
  O  O127  1  0.34286000  0.61918000  0.74456000  1.0
  O  O128  1  0.59842000  0.25547000  0.87453000  1.0
  O  O129  1  0.84286000  0.74457000  0.61919000  1.0
  O  O130  1  0.09842000  0.87452000  0.25547000  1.0
  O  O131  1  0.22367000  0.38077000  0.12535000  1.0
  O  O132  1  0.96731000  0.23354000  0.48840000  1.0
  O  O133  1  0.47905000  0.51168000  0.74513000  1.0
  O  O134  1  0.73400000  0.25486000  0.76642000  1.0
  O  O135  1  0.97905000  0.74514000  0.51169000  1.0
  O  O136  1  0.23400000  0.76641000  0.25486000  1.0
  O  O137  1  0.46731000  0.48840000  0.23354000  1.0
