# generated using pymatgen
data_ZnH15C27N4O4F
_symmetry_space_group_name_H-M   'P 1'
_cell_length_a   9.69825000
_cell_length_b   10.66770000
_cell_length_c   11.97210000
_cell_angle_alpha   63.60170000
_cell_angle_beta   69.33560000
_cell_angle_gamma   81.06700000
_symmetry_Int_Tables_number   1
_chemical_formula_structural   ZnH15C27N4O4F
_chemical_formula_sum   'Zn2 H30 C54 N8 O8 F2'
_cell_volume   1038.07335404
_cell_formula_units_Z   2
loop_
 _symmetry_equiv_pos_site_id
 _symmetry_equiv_pos_as_xyz
  1  'x, y, z'
loop_
 _atom_site_type_symbol
 _atom_site_label
 _atom_site_symmetry_multiplicity
 _atom_site_fract_x
 _atom_site_fract_y
 _atom_site_fract_z
 _atom_site_occupancy
  Zn  Zn0  1  0.50927000  0.10872000  0.85351000  1.0
  Zn  Zn1  1  0.49073000  0.89128000  0.14649000  1.0
  H  H2  1  0.84362000  0.92802000  0.91244000  1.0
  H  H3  1  0.15638000  0.07197000  0.08756000  1.0
  H  H4  1  0.91034000  0.18547000  0.08083000  1.0
  H  H5  1  0.08967000  0.81452000  0.91917000  1.0
  H  H6  1  0.47472000  0.32480000  0.97547000  1.0
  H  H7  1  0.52528000  0.67520000  0.02453000  1.0
  H  H8  1  0.29166000  0.51794000  0.99705000  1.0
  H  H9  1  0.70834000  0.48206000  0.00295000  1.0
  H  H10  1  0.09286000  0.57250000  0.89465000  1.0
  H  H11  1  0.90714000  0.42750000  0.10535000  1.0
  H  H12  1  0.48508000  0.99370000  0.65667000  1.0
  H  H13  1  0.51492000  0.00630000  0.34333000  1.0
  H  H14  1  0.29363000  0.01123000  0.55190000  1.0
  H  H15  1  0.70636000  0.98877000  0.44810000  1.0
  H  H16  1  0.08354000  0.17495000  0.57258000  1.0
  H  H17  1  0.91646000  0.82506000  0.42742000  1.0
  H  H18  1  0.70209000  0.66479000  0.80480000  1.0
  H  H19  1  0.29791000  0.33521000  0.19520000  1.0
  H  H20  1  0.46128000  0.77609000  0.78526000  1.0
  H  H21  1  0.53872000  0.22391000  0.21474000  1.0
  H  H22  1  0.46740000  0.58666000  0.53301000  1.0
  H  H23  1  0.53260000  0.41334000  0.46699000  1.0
  H  H24  1  0.70137000  0.46221000  0.56342000  1.0
  H  H25  1  0.29863000  0.53779000  0.43658000  1.0
  H  H26  1  0.90711000  0.24451000  0.42231000  1.0
  H  H27  1  0.09289000  0.75550000  0.57769000  1.0
  H  H28  1  0.88155000  0.82622000  0.72885000  1.0
  H  H29  1  0.11845000  0.17378000  0.27115000  1.0
  H  H30  1  0.86821000  0.32352000  0.64583000  1.0
  H  H31  1  0.13179000  0.67648000  0.35417000  1.0
  C  C32  1  0.71627000  0.13373000  0.99214000  1.0
  C  C33  1  0.28374000  0.86626000  0.00786000  1.0
  C  C34  1  0.86247000  0.06369000  0.99633000  1.0
  C  C35  1  0.13754000  0.93630000  0.00367000  1.0
  C  C36  1  0.91292000  0.95894000  0.95060000  1.0
  C  C37  1  0.08708000  0.04105000  0.04940000  1.0
  C  C38  1  0.95083000  0.10408000  0.04562000  1.0
  C  C39  1  0.04918000  0.89591000  0.95438000  1.0
  C  C40  1  0.38539000  0.35332000  0.93282000  1.0
  C  C41  1  0.61461000  0.64668000  0.06718000  1.0
  C  C42  1  0.28358000  0.45981000  0.94442000  1.0
  C  C43  1  0.71642000  0.54019000  0.05558000  1.0
  C  C44  1  0.17336000  0.49063000  0.88773000  1.0
  C  C45  1  0.82664000  0.50937000  0.11227000  1.0
  C  C46  1  0.16494000  0.41519000  0.81924000  1.0
  C  C47  1  0.83505000  0.58481000  0.18076000  1.0
  C  C48  1  0.27286000  0.31045000  0.81048000  1.0
  C  C49  1  0.72714000  0.68955000  0.18952000  1.0
  C  C50  1  0.27145000  0.22921000  0.74076000  1.0
  C  C51  1  0.72855000  0.77079000  0.25924000  1.0
  C  C52  1  0.39070000  0.06336000  0.66319000  1.0
  C  C53  1  0.60931000  0.93664000  0.33681000  1.0
  C  C54  1  0.28409000  0.07410000  0.60509000  1.0
  C  C55  1  0.71591000  0.92590000  0.39491000  1.0
  C  C56  1  0.16686000  0.16443000  0.61761000  1.0
  C  C57  1  0.83314000  0.83557000  0.38239000  1.0
  C  C58  1  0.15745000  0.24499000  0.68658000  1.0
  C  C59  1  0.84255000  0.75501000  0.31342000  1.0
  C  C60  1  0.04647000  0.34496000  0.70396000  1.0
  C  C61  1  0.95353000  0.65504000  0.29604000  1.0
  C  C62  1  0.05203000  0.43206000  0.76231000  1.0
  C  C63  1  0.94797000  0.56795000  0.23769000  1.0
  C  C64  1  0.85607000  0.48900000  0.70523000  1.0
  C  C65  1  0.14393000  0.51100000  0.29477000  1.0
  C  C66  1  0.71850000  0.55613000  0.68600000  1.0
  C  C67  1  0.28150000  0.44387000  0.31400000  1.0
  C  C68  1  0.65047000  0.64711000  0.74585000  1.0
  C  C69  1  0.34953000  0.35290000  0.25415000  1.0
  C  C70  1  0.51810000  0.71255000  0.73238000  1.0
  C  C71  1  0.48189000  0.28746000  0.26762000  1.0
  C  C72  1  0.45673000  0.68877000  0.65474000  1.0
  C  C73  1  0.54327000  0.31123000  0.34526000  1.0
  C  C74  1  0.52037000  0.60046000  0.59322000  1.0
  C  C75  1  0.47963000  0.39955000  0.40678000  1.0
  C  C76  1  0.65133000  0.53294000  0.61008000  1.0
  C  C77  1  0.34867000  0.46706000  0.38991000  1.0
  C  C78  1  0.75456000  0.08339000  0.67621000  1.0
  C  C79  1  0.24544000  0.91661000  0.32379000  1.0
  C  C80  1  0.88066000  0.03994000  0.58515000  1.0
  C  C81  1  0.11934000  0.96007000  0.41485000  1.0
  C  C82  1  0.94785000  0.13748000  0.45596000  1.0
  C  C83  1  0.05215000  0.86253000  0.54403000  1.0
  C  C84  1  0.93349000  0.90214000  0.62862000  1.0
  C  C85  1  0.06651000  0.09786000  0.37138000  1.0
  N  N86  1  0.38320000  0.13816000  0.72939000  1.0
  N  N87  1  0.61679000  0.86184000  0.27061000  1.0
  N  N88  1  0.37996000  0.28169000  0.86707000  1.0
  N  N89  1  0.62004000  0.71831000  0.13293000  1.0
  N  N90  1  0.93449000  0.52216000  0.76072000  1.0
  N  N91  1  0.06551000  0.47784000  0.23928000  1.0
  N  N92  1  0.92095000  0.38275000  0.66834000  1.0
  N  N93  1  0.07905000  0.61725000  0.33166000  1.0
  O  O94  1  0.62113000  0.06283000  0.98622000  1.0
  O  O95  1  0.37887000  0.93717000  0.01377000  1.0
  O  O96  1  0.69135000  0.25049000  0.99440000  1.0
  O  O97  1  0.30866000  0.74951000  0.00561000  1.0
  O  O98  1  0.66142000  0.98909000  0.76851000  1.0
  O  O99  1  0.33858000  0.01091000  0.23148000  1.0
  O  O100  1  0.74170000  0.21049000  0.66024000  1.0
  O  O101  1  0.25830000  0.78951000  0.33975000  1.0
  F  F102  1  0.32721000  0.75382000  0.63916000  1.0
  F  F103  1  0.67279000  0.24618000  0.36084000  1.0
