# generated using pymatgen
data_UH10C7N2O7
_symmetry_space_group_name_H-M   'P 1'
_cell_length_a   7.68262000
_cell_length_b   10.03810000
_cell_length_c   14.73140000
_cell_angle_alpha   89.99870000
_cell_angle_beta   75.52700000
_cell_angle_gamma   89.99690000
_symmetry_Int_Tables_number   1
_chemical_formula_structural   UH10C7N2O7
_chemical_formula_sum   'U4 H40 C28 N8 O28'
_cell_volume   1100.01690478
_cell_formula_units_Z   4
loop_
 _symmetry_equiv_pos_site_id
 _symmetry_equiv_pos_as_xyz
  1  'x, y, z'
loop_
 _atom_site_type_symbol
 _atom_site_label
 _atom_site_symmetry_multiplicity
 _atom_site_fract_x
 _atom_site_fract_y
 _atom_site_fract_z
 _atom_site_occupancy
  U  U0  1  0.55520000  0.09249000  0.16539000  1.0
  U  U1  1  0.44479000  0.59244000  0.33461000  1.0
  U  U2  1  0.44482000  0.90751000  0.83459000  1.0
  U  U3  1  0.55520000  0.40753000  0.66538000  1.0
  H  H4  1  0.32455000  0.86937000  0.46619000  1.0
  H  H5  1  0.67545000  0.36937000  0.03379000  1.0
  H  H6  1  0.67542000  0.13064000  0.53382000  1.0
  H  H7  1  0.32453000  0.63065000  0.96619000  1.0
  H  H8  1  0.30048000  0.24492000  0.36582000  1.0
  H  H9  1  0.69946000  0.74489000  0.13421000  1.0
  H  H10  1  0.69947000  0.75509000  0.63419000  1.0
  H  H11  1  0.30055000  0.25510000  0.86579000  1.0
  H  H12  1  0.93657000  0.42319000  0.24462000  1.0
  H  H13  1  0.06341000  0.92317000  0.25538000  1.0
  H  H14  1  0.06340000  0.57682000  0.75537000  1.0
  H  H15  1  0.93655000  0.07686000  0.74462000  1.0
  H  H16  1  0.07954000  0.28546000  0.24252000  1.0
  H  H17  1  0.92044000  0.78546000  0.25745000  1.0
  H  H18  1  0.92054000  0.71458000  0.75744000  1.0
  H  H19  1  0.07952000  0.21459000  0.74252000  1.0
  H  H20  1  0.91326000  0.22425000  0.40755000  1.0
  H  H21  1  0.08681000  0.72426000  0.09242000  1.0
  H  H22  1  0.08681000  0.77573000  0.59241000  1.0
  H  H23  1  0.91323000  0.27579000  0.90757000  1.0
  H  H24  1  0.00419000  0.38602000  0.39990000  1.0
  H  H25  1  0.99581000  0.88599000  0.10013000  1.0
  H  H26  1  0.99584000  0.61399000  0.60010000  1.0
  H  H27  1  0.00421000  0.11404000  0.89986000  1.0
  H  H28  1  0.09770000  0.24310000  0.53914000  1.0
  H  H29  1  0.90224000  0.74311000  0.96090000  1.0
  H  H30  1  0.90227000  0.75691000  0.46087000  1.0
  H  H31  1  0.09775000  0.25690000  0.03910000  1.0
  H  H32  1  0.33385000  0.24388000  0.53055000  1.0
  H  H33  1  0.66612000  0.74387000  0.96946000  1.0
  H  H34  1  0.66611000  0.75613000  0.46946000  1.0
  H  H35  1  0.33388000  0.25613000  0.03054000  1.0
  H  H36  1  0.27394000  0.03313000  0.60938000  1.0
  H  H37  1  0.72607000  0.53315000  0.89061000  1.0
  H  H38  1  0.72603000  0.96688000  0.39063000  1.0
  H  H39  1  0.27394000  0.46686000  0.10937000  1.0
  H  H40  1  0.07161000  0.01053000  0.57233000  1.0
  H  H41  1  0.92841000  0.51054000  0.92767000  1.0
  H  H42  1  0.92836000  0.98949000  0.42768000  1.0
  H  H43  1  0.07159000  0.48947000  0.07232000  1.0
  C  C44  1  0.81268000  0.23733000  0.23603000  1.0
  C  C45  1  0.18718000  0.73732000  0.26411000  1.0
  C  C46  1  0.18742000  0.76260000  0.76398000  1.0
  C  C47  1  0.81273000  0.26270000  0.73596000  1.0
  C  C48  1  0.94206000  0.32218000  0.27263000  1.0
  C  C49  1  0.05792000  0.82215000  0.22739000  1.0
  C  C50  1  0.05800000  0.67782000  0.72736000  1.0
  C  C51  1  0.94206000  0.17788000  0.77261000  1.0
  C  C52  1  0.90226000  0.32378000  0.37918000  1.0
  C  C53  1  0.09779000  0.82377000  0.12083000  1.0
  C  C54  1  0.09780000  0.67621000  0.62080000  1.0
  C  C55  1  0.90225000  0.17627000  0.87917000  1.0
  C  C56  1  0.72279000  0.38288000  0.42721000  1.0
  C  C57  1  0.27717000  0.88297000  0.07281000  1.0
  C  C58  1  0.27720000  0.61705000  0.57279000  1.0
  C  C59  1  0.72284000  0.11707000  0.92717000  1.0
  C  C60  1  0.32851000  0.04306000  0.38915000  1.0
  C  C61  1  0.67148000  0.54303000  0.11086000  1.0
  C  C62  1  0.67146000  0.95695000  0.61086000  1.0
  C  C63  1  0.32857000  0.45696000  0.88913000  1.0
  C  C64  1  0.22380000  0.18865000  0.51262000  1.0
  C  C65  1  0.77614000  0.68865000  0.98740000  1.0
  C  C66  1  0.77616000  0.81135000  0.48739000  1.0
  C  C67  1  0.22386000  0.31136000  0.01259000  1.0
  C  C68  1  0.21237000  0.04471000  0.55034000  1.0
  C  C69  1  0.78764000  0.54471000  0.94966000  1.0
  C  C70  1  0.78759000  0.95530000  0.44967000  1.0
  C  C71  1  0.21237000  0.45530000  0.05033000  1.0
  N  N72  1  0.31067000  0.97036000  0.46796000  1.0
  N  N73  1  0.68934000  0.47035000  0.03204000  1.0
  N  N74  1  0.68929000  0.02965000  0.53205000  1.0
  N  N75  1  0.31068000  0.52966000  0.96795000  1.0
  N  N76  1  0.26273000  0.16715000  0.41110000  1.0
  N  N77  1  0.73719000  0.66712000  0.08892000  1.0
  N  N78  1  0.73721000  0.83286000  0.58891000  1.0
  N  N79  1  0.26282000  0.33287000  0.91108000  1.0
  O  O80  1  0.70287000  0.94823000  0.13870000  1.0
  O  O81  1  0.29709000  0.44819000  0.36134000  1.0
  O  O82  1  0.29710000  0.05178000  0.86136000  1.0
  O  O83  1  0.70283000  0.55178000  0.63866000  1.0
  O  O84  1  0.40698000  0.23573000  0.18851000  1.0
  O  O85  1  0.59304000  0.73563000  0.31142000  1.0
  O  O86  1  0.59311000  0.76434000  0.81145000  1.0
  O  O87  1  0.40693000  0.26431000  0.68854000  1.0
  O  O88  1  0.69034000  0.16969000  0.29217000  1.0
  O  O89  1  0.30948000  0.66960000  0.20801000  1.0
  O  O90  1  0.30957000  0.83040000  0.70788000  1.0
  O  O91  1  0.69041000  0.33039000  0.79207000  1.0
  O  O92  1  0.66298000  0.47839000  0.38729000  1.0
  O  O93  1  0.33693000  0.97846000  0.11277000  1.0
  O  O94  1  0.33694000  0.52152000  0.61274000  1.0
  O  O95  1  0.66310000  0.02161000  0.88718000  1.0
  O  O96  1  0.82304000  0.23261000  0.14792000  1.0
  O  O97  1  0.17680000  0.73269000  0.35221000  1.0
  O  O98  1  0.17725000  0.76709000  0.85208000  1.0
  O  O99  1  0.82308000  0.26734000  0.64785000  1.0
  O  O100  1  0.39593000  0.99937000  0.30668000  1.0
  O  O101  1  0.60407000  0.49930000  0.19332000  1.0
  O  O102  1  0.60403000  0.00067000  0.69332000  1.0
  O  O103  1  0.39602000  0.50066000  0.80667000  1.0
  O  O104  1  0.64071000  0.33858000  0.50803000  1.0
  O  O105  1  0.35929000  0.83874000  0.99196000  1.0
  O  O106  1  0.35935000  0.66132000  0.49196000  1.0
  O  O107  1  0.64073000  0.16125000  0.00802000  1.0
