# generated using pymatgen
data_Zn4H15C15N3O13
_symmetry_space_group_name_H-M   'P 1'
_cell_length_a   12.82160000
_cell_length_b   13.49410000
_cell_length_c   14.72630000
_cell_angle_alpha   112.38600000
_cell_angle_beta   97.25700000
_cell_angle_gamma   109.93400000
_symmetry_Int_Tables_number   1
_chemical_formula_structural   Zn4H15C15N3O13
_chemical_formula_sum   'Zn8 H30 C30 N6 O26'
_cell_volume   2116.36842647
_cell_formula_units_Z   2
loop_
 _symmetry_equiv_pos_site_id
 _symmetry_equiv_pos_as_xyz
  1  'x, y, z'
loop_
 _atom_site_type_symbol
 _atom_site_label
 _atom_site_symmetry_multiplicity
 _atom_site_fract_x
 _atom_site_fract_y
 _atom_site_fract_z
 _atom_site_occupancy
  Zn  Zn0  1  0.13098000  0.06426000  0.03297000  1.0
  Zn  Zn1  1  0.32732000  0.99917000  0.11122000  1.0
  Zn  Zn2  1  0.14049000  0.81960000  0.88338000  1.0
  Zn  Zn3  1  0.06544000  0.83853000  0.08293000  1.0
  Zn  Zn4  1  0.72944000  0.85754000  0.42627000  1.0
  Zn  Zn5  1  0.50143000  0.84289000  0.51074000  1.0
  Zn  Zn6  1  0.64282000  0.06443000  0.47310000  1.0
  Zn  Zn7  1  0.75305000  0.03368000  0.65655000  1.0
  H  H8  1  0.43794000  0.29001000  0.33731000  1.0
  H  H9  1  0.33685000  0.42113000  0.40328000  1.0
  H  H10  1  0.32884000  0.44331000  0.29042000  1.0
  H  H11  1  0.55384000  0.52636000  0.45706000  1.0
  H  H12  1  0.52977000  0.43749000  0.23643000  1.0
  H  H13  1  0.28164000  0.07146000  0.76839000  1.0
  H  H14  1  0.22797000  0.21710000  0.73775000  1.0
  H  H15  1  0.10280000  0.17156000  0.77990000  1.0
  H  H16  1  0.10908000  0.06326000  0.55804000  1.0
  H  H17  1  0.07047000  0.88104000  0.62097000  1.0
  H  H18  1  0.75802000  0.94123000  0.00405000  1.0
  H  H19  1  0.75187000  0.10939000  0.14851000  1.0
  H  H20  1  0.85536000  0.10237000  0.23667000  1.0
  H  H21  1  0.59609000  0.93501000  0.14222000  1.0
  H  H22  1  0.76178000  0.82940000  0.13903000  1.0
  H  H23  1  0.52812000  0.80541000  0.95895000  1.0
  H  H24  1  0.64986000  0.00281000  0.96634000  1.0
  H  H25  1  0.52679000  0.98671000  0.87977000  1.0
  H  H26  1  0.65216000  0.82302000  0.82567000  1.0
  H  H27  1  0.40076000  0.75113000  0.75198000  1.0
  H  H28  1  0.12761000  0.04084000  0.35051000  1.0
  H  H29  1  0.27705000  0.19555000  0.51519000  1.0
  H  H30  1  0.38511000  0.17506000  0.45279000  1.0
  H  H31  1  0.30041000  0.05831000  0.58442000  1.0
  H  H32  1  0.17546000  0.86834000  0.38814000  1.0
  H  H33  1  0.76226000  0.58670000  0.85365000  1.0
  H  H34  1  0.73432000  0.42622000  0.90459000  1.0
  H  H35  1  0.86256000  0.41689000  0.87434000  1.0
  H  H36  1  0.62944000  0.32973000  0.71728000  1.0
  H  H37  1  0.84496000  0.46443000  0.68744000  1.0
  C  C38  1  0.34721000  0.23082000  0.18543000  1.0
  C  C39  1  0.42037000  0.33250000  0.28983000  1.0
  C  C40  1  0.38028000  0.42832000  0.34505000  1.0
  C  C41  1  0.50952000  0.51326000  0.38105000  1.0
  C  C42  1  0.54418000  0.63657000  0.39146000  1.0
  C  C43  1  0.14596000  0.00550000  0.82366000  1.0
  C  C44  1  0.18711000  0.04694000  0.74688000  1.0
  C  C45  1  0.15460000  0.14097000  0.73185000  1.0
  C  C46  1  0.08361000  0.04484000  0.62066000  1.0
  C  C47  1  0.95231000  0.00260000  0.59424000  1.0
  C  C48  1  0.91642000  0.96164000  0.08429000  1.0
  C  C49  1  0.79475000  0.95123000  0.08025000  1.0
  C  C50  1  0.77950000  0.04986000  0.16815000  1.0
  C  C51  1  0.68413000  0.94653000  0.17457000  1.0
  C  C52  1  0.69171000  0.95512000  0.28062000  1.0
  C  C53  1  0.38322000  0.84760000  0.94145000  1.0
  C  C54  1  0.48435000  0.83074000  0.90796000  1.0
  C  C55  1  0.57150000  0.93918000  0.90187000  1.0
  C  C56  1  0.57951000  0.84438000  0.80589000  1.0
  C  C57  1  0.59291000  0.87570000  0.71899000  1.0
  C  C58  1  0.23386000  0.97489000  0.27277000  1.0
  C  C59  1  0.20518000  0.02673000  0.37238000  1.0
  C  C60  1  0.30484000  0.13059000  0.46709000  1.0
  C  C61  1  0.30364000  0.03810000  0.50502000  1.0
  C  C62  1  0.40156000  0.99925000  0.49166000  1.0
  C  C63  1  0.94025000  0.63560000  0.88309000  1.0
  C  C64  1  0.81827000  0.54057000  0.83074000  1.0
  C  C65  1  0.78645000  0.43170000  0.85179000  1.0
  C  C66  1  0.72474000  0.35940000  0.73537000  1.0
  C  C67  1  0.74038000  0.24936000  0.67604000  1.0
  N  N68  1  0.53586000  0.42388000  0.30047000  1.0
  N  N69  1  0.12959000  0.96304000  0.63665000  1.0
  N  N70  1  0.71539000  0.85790000  0.10101000  1.0
  N  N71  1  0.46848000  0.75216000  0.79831000  1.0
  N  N72  1  0.18861000  0.95430000  0.42836000  1.0
  N  N73  1  0.77734000  0.46519000  0.71747000  1.0
  O  O74  1  0.16499000  0.92918000  0.02586000  1.0
  O  O75  1  0.39430000  0.16711000  0.13495000  1.0
  O  O76  1  0.24079000  0.21114000  0.15704000  1.0
  O  O77  1  0.47275000  0.68115000  0.41609000  1.0
  O  O78  1  0.64187000  0.68661000  0.37942000  1.0
  O  O79  1  0.11588000  0.89558000  0.79677000  1.0
  O  O80  1  0.14990000  0.08320000  0.90887000  1.0
  O  O81  1  0.91285000  0.05697000  0.66255000  1.0
  O  O82  1  0.89305000  0.91693000  0.50512000  1.0
  O  O83  1  0.95019000  0.90185000  0.12034000  1.0
  O  O84  1  0.97374000  0.02911000  0.04947000  1.0
  O  O85  1  0.66142000  0.03246000  0.33773000  1.0
  O  O86  1  0.72676000  0.88792000  0.30386000  1.0
  O  O87  1  0.28718000  0.80366000  0.87317000  1.0
  O  O88  1  0.40756000  0.91103000  0.03858000  1.0
  O  O89  1  0.69651000  0.94541000  0.73245000  1.0
  O  O90  1  0.50382000  0.83518000  0.64399000  1.0
  O  O91  1  0.16537000  0.86673000  0.21060000  1.0
  O  O92  1  0.31859000  0.03966000  0.25452000  1.0
  O  O93  1  0.49466000  0.07211000  0.48996000  1.0
  O  O94  1  0.38198000  0.89698000  0.48507000  1.0
  O  O95  1  0.00026000  0.66967000  0.82922000  1.0
  O  O96  1  0.97143000  0.67592000  0.98066000  1.0
  O  O97  1  0.74011000  0.18525000  0.72128000  1.0
  O  O98  1  0.74759000  0.22567000  0.58514000  1.0
  O  O99  1  0.65463000  0.94473000  0.51294000  1.0
