# generated using pymatgen
data_Ag2P2H28C31(N2O3)2
_symmetry_space_group_name_H-M   'P 1'
_cell_length_a   9.61524000
_cell_length_b   13.71750000
_cell_length_c   14.03330000
_cell_angle_alpha   115.85600000
_cell_angle_beta   100.97100000
_cell_angle_gamma   95.52690000
_symmetry_Int_Tables_number   1
_chemical_formula_structural   Ag2P2H28C31(N2O3)2
_chemical_formula_sum   'Ag4 P4 H56 C62 N8 O12'
_cell_volume   1601.17953493
_cell_formula_units_Z   2
loop_
 _symmetry_equiv_pos_site_id
 _symmetry_equiv_pos_as_xyz
  1  'x, y, z'
loop_
 _atom_site_type_symbol
 _atom_site_label
 _atom_site_symmetry_multiplicity
 _atom_site_fract_x
 _atom_site_fract_y
 _atom_site_fract_z
 _atom_site_occupancy
  Ag  Ag0  1  0.67898000  0.31017000  0.21898000  1.0
  Ag  Ag1  1  0.32101000  0.68983000  0.78102000  1.0
  Ag  Ag2  1  0.81940000  0.66360000  0.48329000  1.0
  Ag  Ag3  1  0.18060000  0.33640000  0.51671000  1.0
  P  P4  1  0.43472000  0.24895000  0.19336000  1.0
  P  P5  1  0.56528000  0.75106000  0.80664000  1.0
  P  P6  1  0.68314000  0.79727000  0.48279000  1.0
  P  P7  1  0.31686000  0.20273000  0.51721000  1.0
  H  H8  1  0.37783000  0.38610000  0.35646000  1.0
  H  H9  1  0.62217000  0.61390000  0.64354000  1.0
  H  H10  1  0.26987000  0.25457000  0.30891000  1.0
  H  H11  1  0.73013000  0.74543000  0.69109000  1.0
  H  H12  1  0.13751000  0.29892000  0.19501000  1.0
  H  H13  1  0.86249000  0.70109000  0.80500000  1.0
  H  H14  1  0.45687000  0.29461000  0.01472000  1.0
  H  H15  1  0.54313000  0.70539000  0.98528000  1.0
  H  H16  1  0.60112000  0.07983000  0.16884000  1.0
  H  H17  1  0.39888000  0.92017000  0.83116000  1.0
  H  H18  1  0.14896000  0.09298000  0.08970000  1.0
  H  H19  1  0.85103000  0.90702000  0.91030000  1.0
  H  H20  1  0.52057000  0.14458000  0.43489000  1.0
  H  H21  1  0.47943000  0.85542000  0.56511000  1.0
  H  H22  1  0.35882000  0.11682000  0.33522000  1.0
  H  H23  1  0.64118000  0.88318000  0.66478000  1.0
  H  H24  1  0.97474000  0.35623000  0.08017000  1.0
  H  H25  1  0.02525000  0.64378000  0.91983000  1.0
  H  H26  1  0.28569000  0.34324000  0.89304000  1.0
  H  H27  1  0.71430000  0.65676000  0.10696000  1.0
  H  H28  1  0.53357000  0.87664000  0.09962000  1.0
  H  H29  1  0.46643000  0.12336000  0.90038000  1.0
  H  H30  1  0.08328000  0.88916000  0.01378000  1.0
  H  H31  1  0.91671000  0.11084000  0.98621000  1.0
  H  H32  1  0.97503000  0.55367000  0.62595000  1.0
  H  H33  1  0.02497000  0.44633000  0.37405000  1.0
  H  H34  1  0.58266000  0.46391000  0.39753000  1.0
  H  H35  1  0.41734000  0.53609000  0.60247000  1.0
  H  H36  1  0.67494000  0.26766000  0.56608000  1.0
  H  H37  1  0.32506000  0.73234000  0.43392000  1.0
  H  H38  1  0.04839000  0.37762000  0.92724000  1.0
  H  H39  1  0.95161000  0.62238000  0.07276000  1.0
  H  H40  1  0.27421000  0.78097000  0.01869000  1.0
  H  H41  1  0.72579000  0.21904000  0.98131000  1.0
  H  H42  1  0.90816000  0.39717000  0.66701000  1.0
  H  H43  1  0.09184000  0.60283000  0.33299000  1.0
  H  H44  1  0.61923000  0.59781000  0.28004000  1.0
  H  H45  1  0.38077000  0.40219000  0.71996000  1.0
  H  H46  1  0.45193000  0.89781000  0.40421000  1.0
  H  H47  1  0.54807000  0.10220000  0.59579000  1.0
  H  H48  1  0.69962000  0.93491000  0.36714000  1.0
  H  H49  1  0.30037000  0.06509000  0.63286000  1.0
  H  H50  1  0.87170000  0.96512000  0.68904000  1.0
  H  H51  1  0.12830000  0.03489000  0.31096000  1.0
  H  H52  1  0.43123000  0.52386000  0.10314000  1.0
  H  H53  1  0.56876000  0.47614000  0.89687000  1.0
  H  H54  1  0.26527000  0.82327000  0.22946000  1.0
  H  H55  1  0.73474000  0.17673000  0.77054000  1.0
  H  H56  1  0.84257000  0.12239000  0.42806000  1.0
  H  H57  1  0.15743000  0.87761000  0.57194000  1.0
  H  H58  1  0.00961000  0.15253000  0.74893000  1.0
  H  H59  1  0.99039000  0.84747000  0.25107000  1.0
  H  H60  1  0.25398000  0.63537000  0.07741000  1.0
  H  H61  1  0.74602000  0.36463000  0.92259000  1.0
  H  H62  1  0.99743000  0.23095000  0.61898000  1.0
  H  H63  1  0.00257000  0.76905000  0.38101000  1.0
  C  C64  1  0.38045000  0.29792000  0.32519000  1.0
  C  C65  1  0.61955000  0.70208000  0.67481000  1.0
  C  C66  1  0.30845000  0.29124000  0.11204000  1.0
  C  C67  1  0.69155000  0.70876000  0.88796000  1.0
  C  C68  1  0.37971000  0.09947000  0.13439000  1.0
  C  C69  1  0.62029000  0.90053000  0.86561000  1.0
  C  C70  1  0.17258000  0.30970000  0.13034000  1.0
  C  C71  1  0.82742000  0.69030000  0.86966000  1.0
  C  C72  1  0.34919000  0.30452000  0.02670000  1.0
  C  C73  1  0.65082000  0.69548000  0.97331000  1.0
  C  C74  1  0.48746000  0.03797000  0.13687000  1.0
  C  C75  1  0.51254000  0.96203000  0.86313000  1.0
  C  C76  1  0.23357000  0.04572000  0.09077000  1.0
  C  C77  1  0.76643000  0.95429000  0.90922000  1.0
  C  C78  1  0.42841000  0.18001000  0.41475000  1.0
  C  C79  1  0.57159000  0.81999000  0.58525000  1.0
  C  C80  1  0.60635000  0.35006000  0.46793000  1.0
  C  C81  1  0.39365000  0.64995000  0.53207000  1.0
  C  C82  1  0.07933000  0.34099000  0.06440000  1.0
  C  C83  1  0.92067000  0.65901000  0.93560000  1.0
  C  C84  1  0.25430000  0.33322000  0.95940000  1.0
  C  C85  1  0.74569000  0.66678000  0.04060000  1.0
  C  C86  1  0.44931000  0.92384000  0.09698000  1.0
  C  C87  1  0.55069000  0.07616000  0.90302000  1.0
  C  C88  1  0.19634000  0.93145000  0.04943000  1.0
  C  C89  1  0.80366000  0.06855000  0.95057000  1.0
  C  C90  1  0.87088000  0.49681000  0.58471000  1.0
  C  C91  1  0.12912000  0.50319000  0.41529000  1.0
  C  C92  1  0.65148000  0.44354000  0.45443000  1.0
  C  C93  1  0.34852000  0.55646000  0.54557000  1.0
  C  C94  1  0.54978000  0.75257000  0.35348000  1.0
  C  C95  1  0.45022000  0.24744000  0.64652000  1.0
  C  C96  1  0.77166000  0.93843000  0.52487000  1.0
  C  C97  1  0.22834000  0.06157000  0.47513000  1.0
  C  C98  1  0.70209000  0.33544000  0.54809000  1.0
  C  C99  1  0.29792000  0.66456000  0.45191000  1.0
  C  C100  1  0.11964000  0.35235000  0.97874000  1.0
  C  C101  1  0.88035000  0.64765000  0.02126000  1.0
  C  C102  1  0.30404000  0.87045000  0.05235000  1.0
  C  C103  1  0.69596000  0.12955000  0.94765000  1.0
  C  C104  1  0.83347000  0.40876000  0.60576000  1.0
  C  C105  1  0.16652000  0.59124000  0.39424000  1.0
  C  C106  1  0.54224000  0.64739000  0.26787000  1.0
  C  C107  1  0.45776000  0.35261000  0.73214000  1.0
  C  C108  1  0.44921000  0.81600000  0.33855000  1.0
  C  C109  1  0.55080000  0.18400000  0.66145000  1.0
  C  C110  1  0.76539000  0.98302000  0.45143000  1.0
  C  C111  1  0.23461000  0.01698000  0.54857000  1.0
  C  C112  1  0.86056000  0.00033000  0.63238000  1.0
  C  C113  1  0.13944000  0.99967000  0.36762000  1.0
  C  C114  1  0.43642000  0.60583000  0.16894000  1.0
  C  C115  1  0.56358000  0.39417000  0.83106000  1.0
  C  C116  1  0.34312000  0.77383000  0.23986000  1.0
  C  C117  1  0.65688000  0.22617000  0.76013000  1.0
  C  C118  1  0.84600000  0.08806000  0.48529000  1.0
  C  C119  1  0.15400000  0.91194000  0.51470000  1.0
  C  C120  1  0.94028000  0.10526000  0.66560000  1.0
  C  C121  1  0.05973000  0.89474000  0.33439000  1.0
  C  C122  1  0.33625000  0.66867000  0.15499000  1.0
  C  C123  1  0.66375000  0.33133000  0.84500000  1.0
  C  C124  1  0.93324000  0.14932000  0.59232000  1.0
  C  C125  1  0.06676000  0.85068000  0.40768000  1.0
  N  N126  1  0.82116000  0.50585000  0.20851000  1.0
  N  N127  1  0.17884000  0.49415000  0.79149000  1.0
  N  N128  1  0.95260000  0.22562000  0.28489000  1.0
  N  N129  1  0.04741000  0.77438000  0.71511000  1.0
  N  N130  1  0.47590000  0.27797000  0.40506000  1.0
  N  N131  1  0.52411000  0.72203000  0.59494000  1.0
  N  N132  1  0.77955000  0.51387000  0.51097000  1.0
  N  N133  1  0.22044000  0.48613000  0.48902000  1.0
  O  O134  1  0.81346000  0.49698000  0.29583000  1.0
  O  O135  1  0.18655000  0.50302000  0.70417000  1.0
  O  O136  1  0.76234000  0.42293000  0.11619000  1.0
  O  O137  1  0.23765000  0.57707000  0.88382000  1.0
  O  O138  1  0.87573000  0.23000000  0.20205000  1.0
  O  O139  1  0.12427000  0.77000000  0.79795000  1.0
  O  O140  1  0.07230000  0.72409000  0.62161000  1.0
  O  O141  1  0.92769000  0.27591000  0.37839000  1.0
  O  O142  1  0.88498000  0.59457000  0.21800000  1.0
  O  O143  1  0.11502000  0.40543000  0.78201000  1.0
  O  O144  1  0.05301000  0.17259000  0.27154000  1.0
  O  O145  1  0.94699000  0.82742000  0.72846000  1.0
