# generated using pymatgen
data_AgH8C11(NO)2
_symmetry_space_group_name_H-M   'P 1'
_cell_length_a   7.10616000
_cell_length_b   14.70750000
_cell_length_c   21.94510000
_cell_angle_alpha   90.00000000
_cell_angle_beta   89.99820000
_cell_angle_gamma   89.99770000
_symmetry_Int_Tables_number   1
_chemical_formula_structural   AgH8C11(NO)2
_chemical_formula_sum   'Ag8 H64 C88 N16 O16'
_cell_volume   2293.56684715
_cell_formula_units_Z   8
loop_
 _symmetry_equiv_pos_site_id
 _symmetry_equiv_pos_as_xyz
  1  'x, y, z'
loop_
 _atom_site_type_symbol
 _atom_site_label
 _atom_site_symmetry_multiplicity
 _atom_site_fract_x
 _atom_site_fract_y
 _atom_site_fract_z
 _atom_site_occupancy
  Ag  Ag0  1  0.34084000  0.00024000  0.46038000  1.0
  Ag  Ag1  1  0.65918000  0.49975000  0.46036000  1.0
  Ag  Ag2  1  0.15921000  0.00021000  0.03965000  1.0
  Ag  Ag3  1  0.84076000  0.49977000  0.03962000  1.0
  Ag  Ag4  1  0.65916000  0.99975000  0.53964000  1.0
  Ag  Ag5  1  0.34078000  0.50024000  0.53962000  1.0
  Ag  Ag6  1  0.84081000  0.99980000  0.96037000  1.0
  Ag  Ag7  1  0.15913000  0.50024000  0.96037000  1.0
  H  H8  1  0.39033000  0.13993000  0.35491000  1.0
  H  H9  1  0.60970000  0.36005000  0.35485000  1.0
  H  H10  1  0.10962000  0.13994000  0.14514000  1.0
  H  H11  1  0.89046000  0.36008000  0.14508000  1.0
  H  H12  1  0.60959000  0.86007000  0.64511000  1.0
  H  H13  1  0.39039000  0.63995000  0.64513000  1.0
  H  H14  1  0.89033000  0.86007000  0.85487000  1.0
  H  H15  1  0.10951000  0.63991000  0.85489000  1.0
  H  H16  1  0.48320000  0.14779000  0.24573000  1.0
  H  H17  1  0.51698000  0.35225000  0.24566000  1.0
  H  H18  1  0.01685000  0.14777000  0.25433000  1.0
  H  H19  1  0.98336000  0.35223000  0.25425000  1.0
  H  H20  1  0.51684000  0.85224000  0.75431000  1.0
  H  H21  1  0.48310000  0.64775000  0.75432000  1.0
  H  H22  1  0.98307000  0.85224000  0.74568000  1.0
  H  H23  1  0.01677000  0.64774000  0.74570000  1.0
  H  H24  1  0.52307000  0.85422000  0.24801000  1.0
  H  H25  1  0.47720000  0.64581000  0.24797000  1.0
  H  H26  1  0.97724000  0.85420000  0.25206000  1.0
  H  H27  1  0.02289000  0.64581000  0.25199000  1.0
  H  H28  1  0.47708000  0.14582000  0.75201000  1.0
  H  H29  1  0.52273000  0.35417000  0.75201000  1.0
  H  H30  1  0.02286000  0.14581000  0.74798000  1.0
  H  H31  1  0.97711000  0.35416000  0.74800000  1.0
  H  H32  1  0.42140000  0.85996000  0.35662000  1.0
  H  H33  1  0.57883000  0.64004000  0.35658000  1.0
  H  H34  1  0.07888000  0.85995000  0.14344000  1.0
  H  H35  1  0.92120000  0.64006000  0.14338000  1.0
  H  H36  1  0.57865000  0.14004000  0.64339000  1.0
  H  H37  1  0.42111000  0.35996000  0.64340000  1.0
  H  H38  1  0.92124000  0.14005000  0.85660000  1.0
  H  H39  1  0.07867000  0.35994000  0.85662000  1.0
  H  H40  1  0.60931000  0.14817000  0.16331000  1.0
  H  H41  1  0.39091000  0.35187000  0.16325000  1.0
  H  H42  1  0.89074000  0.14815000  0.33674000  1.0
  H  H43  1  0.10931000  0.35185000  0.33668000  1.0
  H  H44  1  0.39071000  0.85186000  0.83671000  1.0
  H  H45  1  0.60902000  0.64812000  0.83673000  1.0
  H  H46  1  0.10916000  0.85186000  0.66327000  1.0
  H  H47  1  0.89073000  0.64810000  0.66329000  1.0
  H  H48  1  0.69639000  0.14320000  0.05474000  1.0
  H  H49  1  0.30364000  0.35686000  0.05470000  1.0
  H  H50  1  0.80353000  0.14317000  0.44530000  1.0
  H  H51  1  0.19639000  0.35682000  0.44525000  1.0
  H  H52  1  0.30357000  0.85685000  0.94528000  1.0
  H  H53  1  0.69622000  0.64313000  0.94529000  1.0
  H  H54  1  0.19635000  0.85684000  0.55472000  1.0
  H  H55  1  0.80362000  0.64313000  0.55473000  1.0
  H  H56  1  0.63262000  0.86351000  0.04737000  1.0
  H  H57  1  0.36738000  0.63656000  0.04733000  1.0
  H  H58  1  0.86748000  0.86348000  0.45270000  1.0
  H  H59  1  0.13258000  0.63651000  0.45263000  1.0
  H  H60  1  0.36744000  0.13653000  0.95266000  1.0
  H  H61  1  0.63257000  0.36344000  0.95266000  1.0
  H  H62  1  0.13259000  0.13653000  0.54733000  1.0
  H  H63  1  0.86745000  0.36345000  0.54734000  1.0
  H  H64  1  0.53144000  0.85612000  0.15479000  1.0
  H  H65  1  0.46869000  0.64393000  0.15473000  1.0
  H  H66  1  0.96878000  0.85610000  0.34529000  1.0
  H  H67  1  0.03146000  0.64390000  0.34520000  1.0
  H  H68  1  0.46861000  0.14391000  0.84524000  1.0
  H  H69  1  0.53131000  0.35605000  0.84524000  1.0
  H  H70  1  0.03133000  0.14392000  0.65475000  1.0
  H  H71  1  0.96860000  0.35605000  0.65476000  1.0
  C  C72  1  0.41909000  0.07842000  0.32862000  1.0
  C  C73  1  0.58106000  0.42158000  0.32856000  1.0
  C  C74  1  0.08098000  0.07842000  0.17144000  1.0
  C  C75  1  0.91915000  0.42159000  0.17138000  1.0
  C  C76  1  0.58090000  0.92159000  0.67141000  1.0
  C  C77  1  0.41901000  0.57842000  0.67142000  1.0
  C  C78  1  0.91901000  0.92159000  0.82858000  1.0
  C  C79  1  0.08086000  0.57839000  0.82859000  1.0
  C  C80  1  0.47385000  0.08172000  0.26792000  1.0
  C  C81  1  0.52637000  0.41831000  0.26786000  1.0
  C  C82  1  0.02628000  0.08170000  0.23213000  1.0
  C  C83  1  0.97394000  0.41830000  0.23207000  1.0
  C  C84  1  0.52620000  0.91830000  0.73210000  1.0
  C  C85  1  0.47369000  0.58169000  0.73211000  1.0
  C  C86  1  0.97367000  0.91831000  0.76789000  1.0
  C  C87  1  0.02614000  0.58167000  0.76791000  1.0
  C  C88  1  0.51120000  0.00108000  0.23561000  1.0
  C  C89  1  0.48903000  0.49896000  0.23555000  1.0
  C  C90  1  0.98900000  0.00105000  0.26446000  1.0
  C  C91  1  0.01119000  0.49895000  0.26439000  1.0
  C  C92  1  0.48887000  0.99895000  0.76442000  1.0
  C  C93  1  0.51098000  0.50104000  0.76443000  1.0
  C  C94  1  0.01104000  0.99895000  0.73557000  1.0
  C  C95  1  0.98886000  0.50102000  0.73559000  1.0
  C  C96  1  0.49290000  0.91980000  0.26893000  1.0
  C  C97  1  0.50735000  0.58022000  0.26888000  1.0
  C  C98  1  0.00735000  0.91978000  0.23113000  1.0
  C  C99  1  0.99279000  0.58022000  0.23107000  1.0
  C  C100  1  0.50721000  0.08022000  0.73110000  1.0
  C  C101  1  0.49262000  0.41977000  0.73111000  1.0
  C  C102  1  0.99270000  0.08023000  0.76889000  1.0
  C  C103  1  0.00721000  0.41976000  0.76890000  1.0
  C  C104  1  0.43635000  0.92182000  0.32950000  1.0
  C  C105  1  0.56388000  0.57818000  0.32946000  1.0
  C  C106  1  0.06388000  0.92182000  0.17055000  1.0
  C  C107  1  0.93625000  0.57820000  0.17050000  1.0
  C  C108  1  0.56370000  0.07819000  0.67051000  1.0
  C  C109  1  0.43611000  0.42181000  0.67052000  1.0
  C  C110  1  0.93619000  0.07820000  0.82947000  1.0
  C  C111  1  0.06371000  0.42179000  0.82949000  1.0
  C  C112  1  0.56463000  0.00175000  0.17070000  1.0
  C  C113  1  0.43556000  0.49829000  0.17064000  1.0
  C  C114  1  0.93553000  0.00173000  0.32937000  1.0
  C  C115  1  0.06464000  0.49827000  0.32930000  1.0
  C  C116  1  0.43542000  0.99827000  0.82933000  1.0
  C  C117  1  0.56441000  0.50170000  0.82934000  1.0
  C  C118  1  0.06446000  0.99827000  0.67066000  1.0
  C  C119  1  0.93542000  0.50170000  0.67067000  1.0
  C  C120  1  0.61027000  0.08276000  0.14008000  1.0
  C  C121  1  0.38991000  0.41728000  0.14002000  1.0
  C  C122  1  0.88981000  0.08275000  0.35997000  1.0
  C  C123  1  0.11028000  0.41726000  0.35991000  1.0
  C  C124  1  0.38976000  0.91727000  0.85994000  1.0
  C  C125  1  0.61003000  0.58272000  0.85996000  1.0
  C  C126  1  0.11013000  0.91726000  0.64004000  1.0
  C  C127  1  0.88979000  0.58270000  0.64006000  1.0
  C  C128  1  0.66041000  0.08090000  0.07899000  1.0
  C  C129  1  0.33967000  0.41916000  0.07895000  1.0
  C  C130  1  0.83959000  0.08087000  0.42106000  1.0
  C  C131  1  0.16043000  0.41913000  0.42101000  1.0
  C  C132  1  0.33957000  0.91915000  0.92103000  1.0
  C  C133  1  0.66021000  0.58084000  0.92104000  1.0
  C  C134  1  0.16033000  0.91913000  0.57896000  1.0
  C  C135  1  0.83961000  0.58083000  0.57897000  1.0
  C  C136  1  0.62446000  0.92511000  0.07491000  1.0
  C  C137  1  0.37560000  0.57495000  0.07486000  1.0
  C  C138  1  0.87566000  0.92509000  0.42515000  1.0
  C  C139  1  0.12445000  0.57491000  0.42508000  1.0
  C  C140  1  0.37559000  0.07493000  0.92512000  1.0
  C  C141  1  0.62432000  0.42505000  0.92512000  1.0
  C  C142  1  0.12438000  0.07492000  0.57487000  1.0
  C  C143  1  0.87560000  0.42505000  0.57489000  1.0
  C  C144  1  0.57111000  0.92167000  0.13568000  1.0
  C  C145  1  0.42904000  0.57837000  0.13563000  1.0
  C  C146  1  0.92909000  0.92166000  0.36438000  1.0
  C  C147  1  0.07111000  0.57835000  0.36431000  1.0
  C  C148  1  0.42895000  0.07836000  0.86434000  1.0
  C  C149  1  0.57092000  0.42162000  0.86435000  1.0
  C  C150  1  0.07097000  0.07836000  0.63564000  1.0
  C  C151  1  0.92895000  0.42161000  0.63566000  1.0
  C  C152  1  0.50002000  0.80193000  0.49835000  1.0
  C  C153  1  0.49993000  0.69806000  0.49835000  1.0
  C  C154  1  0.99984000  0.80192000  0.00165000  1.0
  C  C155  1  0.99978000  0.69806000  0.00167000  1.0
  C  C156  1  0.49996000  0.19806000  0.50165000  1.0
  C  C157  1  0.50003000  0.30193000  0.50164000  1.0
  C  C158  1  0.00011000  0.19809000  0.99836000  1.0
  C  C159  1  0.00014000  0.30195000  0.99834000  1.0
  N  N160  1  0.39691000  0.99975000  0.35918000  1.0
  N  N161  1  0.60323000  0.50024000  0.35913000  1.0
  N  N162  1  0.10321000  0.99975000  0.14087000  1.0
  N  N163  1  0.89688000  0.50026000  0.14082000  1.0
  N  N164  1  0.60307000  0.00026000  0.64084000  1.0
  N  N165  1  0.39679000  0.49975000  0.64085000  1.0
  N  N166  1  0.89682000  0.00026000  0.85915000  1.0
  N  N167  1  0.10304000  0.49972000  0.85916000  1.0
  N  N168  1  0.67014000  0.00334000  0.04650000  1.0
  N  N169  1  0.32989000  0.49672000  0.04646000  1.0
  N  N170  1  0.82989000  0.00331000  0.45355000  1.0
  N  N171  1  0.17012000  0.49669000  0.45349000  1.0
  N  N172  1  0.32988000  0.99670000  0.95352000  1.0
  N  N173  1  0.67001000  0.50327000  0.95353000  1.0
  N  N174  1  0.17009000  0.99670000  0.54647000  1.0
  N  N175  1  0.82991000  0.50328000  0.54648000  1.0
  O  O176  1  0.60597000  0.83935000  0.53758000  1.0
  O  O177  1  0.39395000  0.66063000  0.53756000  1.0
  O  O178  1  0.89391000  0.83939000  0.96243000  1.0
  O  O179  1  0.10573000  0.66059000  0.96244000  1.0
  O  O180  1  0.39399000  0.16063000  0.46243000  1.0
  O  O181  1  0.60599000  0.33936000  0.46242000  1.0
  O  O182  1  0.10601000  0.16063000  0.03758000  1.0
  O  O183  1  0.89414000  0.33941000  0.03755000  1.0
  O  O184  1  0.39341000  0.83921000  0.45932000  1.0
  O  O185  1  0.60657000  0.66078000  0.45933000  1.0
  O  O186  1  0.10653000  0.83916000  0.04067000  1.0
  O  O187  1  0.89309000  0.66081000  0.04067000  1.0
  O  O188  1  0.60655000  0.16079000  0.54068000  1.0
  O  O189  1  0.39342000  0.33922000  0.54067000  1.0
  O  O190  1  0.89345000  0.16083000  0.95933000  1.0
  O  O191  1  0.10682000  0.33919000  0.95932000  1.0
