# generated using pymatgen
data_ZnH12C17(NO2)2
_symmetry_space_group_name_H-M   'P 1'
_cell_length_a   9.14733000
_cell_length_b   9.18052000
_cell_length_c   10.43710000
_cell_angle_alpha   88.40570000
_cell_angle_beta   79.56400000
_cell_angle_gamma   62.45710000
_symmetry_Int_Tables_number   1
_chemical_formula_structural   ZnH12C17(NO2)2
_chemical_formula_sum   'Zn2 H24 C34 N4 O8'
_cell_volume   762.71324700
_cell_formula_units_Z   2
loop_
 _symmetry_equiv_pos_site_id
 _symmetry_equiv_pos_as_xyz
  1  'x, y, z'
loop_
 _atom_site_type_symbol
 _atom_site_label
 _atom_site_symmetry_multiplicity
 _atom_site_fract_x
 _atom_site_fract_y
 _atom_site_fract_z
 _atom_site_occupancy
  Zn  Zn0  1  0.90125000  0.09030000  0.16160000  1.0
  Zn  Zn1  1  0.09875000  0.90970000  0.83840000  1.0
  H  H2  1  0.13924000  0.13898000  0.54617000  1.0
  H  H3  1  0.86075000  0.86102000  0.45383000  1.0
  H  H4  1  0.07418000  0.50897000  0.07790000  1.0
  H  H5  1  0.92581000  0.49103000  0.92210000  1.0
  H  H6  1  0.17039000  0.25388000  0.19880000  1.0
  H  H7  1  0.82961000  0.74612000  0.80120000  1.0
  H  H8  1  0.38855000  0.19140000  0.33413000  1.0
  H  H9  1  0.61146000  0.80859000  0.66586000  1.0
  H  H10  1  0.51314000  0.37878000  0.34280000  1.0
  H  H11  1  0.48686000  0.62122000  0.65720000  1.0
  H  H12  1  0.41338000  0.66183000  0.43671000  1.0
  H  H13  1  0.58663000  0.33817000  0.56329000  1.0
  H  H14  1  0.55904000  0.83101000  0.45034000  1.0
  H  H15  1  0.44096000  0.16899000  0.54966000  1.0
  H  H16  1  0.62457000  0.86202000  0.03437000  1.0
  H  H17  1  0.37543000  0.13798000  0.96563000  1.0
  H  H18  1  0.48099000  0.69285000  0.01903000  1.0
  H  H19  1  0.51901000  0.30715000  0.98097000  1.0
  H  H20  1  0.15221000  0.96398000  0.35573000  1.0
  H  H21  1  0.84779000  0.03602000  0.64427000  1.0
  H  H22  1  0.89992000  0.43853000  0.55057000  1.0
  H  H23  1  0.10007000  0.56147000  0.44943000  1.0
  H  H24  1  0.75466000  0.43970000  0.33773000  1.0
  H  H25  1  0.24534000  0.56030000  0.66227000  1.0
  C  C26  1  0.16973000  0.47978000  0.13712000  1.0
  C  C27  1  0.83027000  0.52022000  0.86288000  1.0
  C  C28  1  0.22309000  0.33756000  0.20553000  1.0
  C  C29  1  0.77692000  0.66244000  0.79447000  1.0
  C  C30  1  0.34558000  0.30269000  0.28071000  1.0
  C  C31  1  0.65443000  0.69731000  0.71929000  1.0
  C  C32  1  0.41428000  0.40935000  0.28654000  1.0
  C  C33  1  0.58572000  0.59065000  0.71346000  1.0
  C  C34  1  0.36074000  0.55461000  0.21956000  1.0
  C  C35  1  0.63926000  0.44539000  0.78044000  1.0
  C  C36  1  0.23567000  0.58920000  0.14456000  1.0
  C  C37  1  0.76433000  0.41080000  0.85544000  1.0
  C  C38  1  0.43997000  0.66216000  0.22678000  1.0
  C  C39  1  0.56003000  0.33784000  0.77322000  1.0
  C  C40  1  0.46307000  0.70267000  0.34803000  1.0
  C  C41  1  0.53693000  0.29733000  0.65197000  1.0
  C  C42  1  0.54405000  0.79756000  0.35609000  1.0
  C  C43  1  0.45595000  0.20244000  0.64391000  1.0
  C  C44  1  0.60473000  0.85368000  0.24277000  1.0
  C  C45  1  0.39527000  0.14632000  0.75723000  1.0
  C  C46  1  0.57860000  0.81694000  0.12198000  1.0
  C  C47  1  0.42140000  0.18306000  0.87802000  1.0
  C  C48  1  0.49761000  0.72230000  0.11407000  1.0
  C  C49  1  0.50238000  0.27770000  0.88593000  1.0
  C  C50  1  0.69882000  0.94861000  0.25168000  1.0
  C  C51  1  0.30118000  0.05139000  0.74832000  1.0
  C  C52  1  0.16084000  0.74525000  0.07656000  1.0
  C  C53  1  0.83916000  0.25475000  0.92344000  1.0
  C  C54  1  0.06253000  0.09252000  0.37945000  1.0
  C  C55  1  0.93747000  0.90748000  0.62055000  1.0
  C  C56  1  0.92943000  0.34170000  0.47842000  1.0
  C  C57  1  0.07056000  0.65830000  0.52158000  1.0
  C  C58  1  0.85689000  0.34012000  0.37426000  1.0
  C  C59  1  0.14311000  0.65988000  0.62574000  1.0
  N  N60  1  0.94102000  0.18338000  0.31362000  1.0
  N  N61  1  0.05898000  0.81662000  0.68638000  1.0
  N  N62  1  0.05835000  0.18505000  0.47932000  1.0
  N  N63  1  0.94165000  0.81495000  0.52068000  1.0
  O  O64  1  0.72818000  0.97345000  0.36050000  1.0
  O  O65  1  0.27183000  0.02655000  0.63950000  1.0
  O  O66  1  0.74608000  0.00197000  0.14433000  1.0
  O  O67  1  0.25392000  0.99803000  0.85567000  1.0
  O  O68  1  0.11753000  0.87976000  0.13984000  1.0
  O  O69  1  0.88247000  0.12024000  0.86016000  1.0
  O  O70  1  0.14146000  0.73142000  0.96021000  1.0
  O  O71  1  0.85854000  0.26858000  0.03979000  1.0
