# generated using pymatgen
data_Zn4H5C24S4Br2ClO13
_symmetry_space_group_name_H-M   'P 1'
_cell_length_a   19.67730000
_cell_length_b   19.71280000
_cell_length_c   33.38770000
_cell_angle_alpha   79.05910000
_cell_angle_beta   79.16470000
_cell_angle_gamma   63.93820000
_symmetry_Int_Tables_number   1
_chemical_formula_structural   Zn4H5C24S4Br2ClO13
_chemical_formula_sum   'Zn16 H20 C96 S16 Br8 Cl4 O52'
_cell_volume   11341.98975608
_cell_formula_units_Z   4
loop_
 _symmetry_equiv_pos_site_id
 _symmetry_equiv_pos_as_xyz
  1  'x, y, z'
loop_
 _atom_site_type_symbol
 _atom_site_label
 _atom_site_symmetry_multiplicity
 _atom_site_fract_x
 _atom_site_fract_y
 _atom_site_fract_z
 _atom_site_occupancy
  Zn  Zn0  1  0.05580000  0.39934000  0.47787000  1.0
  Zn  Zn1  1  0.98589000  0.48421000  0.56048000  1.0
  Zn  Zn2  1  0.05764000  0.56135000  0.48229000  1.0
  Zn  Zn3  1  0.90071000  0.55426000  0.48016000  1.0
  Zn  Zn4  1  0.69404000  0.34959000  0.27148000  1.0
  Zn  Zn5  1  0.68848000  0.18953000  0.26628000  1.0
  Zn  Zn6  1  0.76979000  0.26522000  0.19067000  1.0
  Zn  Zn7  1  0.84726000  0.19475000  0.27308000  1.0
  Zn  Zn8  1  0.26700000  0.76684000  0.68967000  1.0
  Zn  Zn9  1  0.34930000  0.69730000  0.77197000  1.0
  Zn  Zn10  1  0.19246000  0.84801000  0.77140000  1.0
  Zn  Zn11  1  0.19213000  0.68722000  0.76664000  1.0
  Zn  Zn12  1  0.56051000  0.05989000  0.98320000  1.0
  Zn  Zn13  1  0.40143000  0.05505000  0.97830000  1.0
  Zn  Zn14  1  0.55534000  0.90106000  0.97830000  1.0
  Zn  Zn15  1  0.48367000  0.98271000  0.06044000  1.0
  H  H16  1  0.95479000  0.24879000  0.35162000  1.0
  H  H17  1  0.74739000  0.45326000  0.34980000  1.0
  H  H18  1  0.99932000  0.30021000  0.39973000  1.0
  H  H19  1  0.09722000  0.59696000  0.69971000  1.0
  H  H20  1  0.20219000  0.70157000  0.59825000  1.0
  H  H21  1  0.05069000  0.55128000  0.64972000  1.0
  H  H22  1  0.46316000  0.24010000  0.34105000  1.0
  H  H23  1  0.47949000  0.70269000  0.60128000  1.0
  H  H24  1  0.20304000  0.97913000  0.60147000  1.0
  H  H25  1  0.94809000  0.97020000  0.34796000  1.0
  H  H26  1  0.55000000  0.05009000  0.15346000  1.0
  H  H27  1  0.65121000  0.15172000  0.04863000  1.0
  H  H28  1  0.59999000  0.09985000  0.19960000  1.0
  H  H29  1  0.54750000  0.77023000  0.14844000  1.0
  H  H30  1  0.16277000  0.14142000  0.04057000  1.0
  H  H31  1  0.50126000  0.79523000  0.89844000  1.0
  H  H32  1  0.29708000  0.00295000  0.89994000  1.0
  H  H33  1  0.44933000  0.75134000  0.85034000  1.0
  H  H34  1  0.30097000  0.27984000  0.90212000  1.0
  H  H35  1  0.78697000  0.00970000  0.90886000  1.0
  C  C36  1  0.06172000  0.31632000  0.56172000  1.0
  C  C37  1  0.06907000  0.57024000  0.56920000  1.0
  C  C38  1  0.18324000  0.43956000  0.43855000  1.0
  C  C39  1  0.93686000  0.68390000  0.43879000  1.0
  C  C40  1  0.93118000  0.42985000  0.43098000  1.0
  C  C41  1  0.81701000  0.56120000  0.56239000  1.0
  C  C42  1  0.56549000  0.31134000  0.31130000  1.0
  C  C43  1  0.68093000  0.18011000  0.18101000  1.0
  C  C44  1  0.68983000  0.43309000  0.18838000  1.0
  C  C45  1  0.93517000  0.18772000  0.18985000  1.0
  C  C46  1  0.81953000  0.31913000  0.31943000  1.0
  C  C47  1  0.81085000  0.06578000  0.31161000  1.0
  C  C48  1  0.43379000  0.68955000  0.68819000  1.0
  C  C49  1  0.31904000  0.81962000  0.81928000  1.0
  C  C50  1  0.18858000  0.93356000  0.68827000  1.0
  C  C51  1  0.06597000  0.80957000  0.81108000  1.0
  C  C52  1  0.18122000  0.68020000  0.68069000  1.0
  C  C53  1  0.31296000  0.56603000  0.81133000  1.0
  C  C54  1  0.43826000  0.18388000  0.93864000  1.0
  C  C55  1  0.43118000  0.93017000  0.93071000  1.0
  C  C56  1  0.68420000  0.93886000  0.93868000  1.0
  C  C57  1  0.56144000  0.81575000  0.06160000  1.0
  C  C58  1  0.56919000  0.06885000  0.06966000  1.0
  C  C59  1  0.31591000  0.06139000  0.06119000  1.0
  C  C60  1  0.89935000  0.40489000  0.40197000  1.0
  C  C61  1  0.84818000  0.34818000  0.34789000  1.0
  C  C62  1  0.82749000  0.44836000  0.38747000  1.0
  C  C63  1  0.91964000  0.30447000  0.36183000  1.0
  C  C64  1  0.80278000  0.41966000  0.36074000  1.0
  C  C65  1  0.94411000  0.33303000  0.38841000  1.0
  C  C66  1  0.09979000  0.60018000  0.59620000  1.0
  C  C67  1  0.15251000  0.65209000  0.65181000  1.0
  C  C68  1  0.14318000  0.64308000  0.58171000  1.0
  C  C69  1  0.10971000  0.60956000  0.66666667  1.0
  C  C70  1  0.16890000  0.66855000  0.60955000  1.0
  C  C71  1  0.08409000  0.58439000  0.63900000  1.0
  C  C72  1  0.30464000  0.45471000  0.40107000  1.0
  C  C73  1  0.44607000  0.29676000  0.34904000  1.0
  C  C74  1  0.25836000  0.41595000  0.41398000  1.0
  C  C75  1  0.49086000  0.33667000  0.33649000  1.0
  C  C76  1  0.37800000  0.33970000  0.37268000  1.0
  C  C77  1  0.37277000  0.41142000  0.37754000  1.0
  C  C78  1  0.72592000  0.57567000  0.63040000  1.0
  C  C79  1  0.52421000  0.67359000  0.62128000  1.0
  C  C80  1  0.74295000  0.58505000  0.58792000  1.0
  C  C81  1  0.50896000  0.66368000  0.66365000  1.0
  C  C82  1  0.60350000  0.64142000  0.60900000  1.0
  C  C83  1  0.64655000  0.60776000  0.64250000  1.0
  C  C84  1  0.07617000  0.22542000  0.62992000  1.0
  C  C85  1  0.17400000  0.02387000  0.62134000  1.0
  C  C86  1  0.08566000  0.24230000  0.58740000  1.0
  C  C87  1  0.16368000  0.00873000  0.66371000  1.0
  C  C88  1  0.14204000  0.10304000  0.60889000  1.0
  C  C89  1  0.10818000  0.14616000  0.64224000  1.0
  C  C90  1  0.84221000  0.80090000  0.39705000  1.0
  C  C91  1  0.90382000  0.94968000  0.35252000  1.0
  C  C92  1  0.91063000  0.75833000  0.41365000  1.0
  C  C93  1  0.83518000  0.99085000  0.33641000  1.0
  C  C94  1  0.90666000  0.88014000  0.37468000  1.0
  C  C95  1  0.83982000  0.87028000  0.37484000  1.0
  C  C96  1  0.65351000  0.15345000  0.15064000  1.0
  C  C97  1  0.59786000  0.09788000  0.09816000  1.0
  C  C98  1  0.66777000  0.16809000  0.10745000  1.0
  C  C99  1  0.58301000  0.08306000  0.14088000  1.0
  C  C100  1  0.63997000  0.14026000  0.08180000  1.0
  C  C101  1  0.61070000  0.11069000  0.16632000  1.0
  C  C102  1  0.67405000  0.52386000  0.12010000  1.0
  C  C103  1  0.57642000  0.72546000  0.12858000  1.0
  C  C104  1  0.66503000  0.50703000  0.16265000  1.0
  C  C105  1  0.58649000  0.74058000  0.08621000  1.0
  C  C106  1  0.60830000  0.64630000  0.14108000  1.0
  C  C107  1  0.64186000  0.60310000  0.10775000  1.0
  C  C108  1  0.08283000  0.12333000  0.17834000  1.0
  C  C109  1  0.17033000  0.12484000  0.07295000  1.0
  C  C110  1  0.01059000  0.16224000  0.16560000  1.0
  C  C111  1  0.24147000  0.08605000  0.08654000  1.0
  C  C112  1  0.11216000  0.13859000  0.10642000  1.0
  C  C113  1  0.14074000  0.10978000  0.14474000  1.0
  C  C114  1  0.34459000  0.85141000  0.84801000  1.0
  C  C115  1  0.40204000  0.90195000  0.90207000  1.0
  C  C116  1  0.30149000  0.92324000  0.86235000  1.0
  C  C117  1  0.44551000  0.83061000  0.88819000  1.0
  C  C118  1  0.33053000  0.94762000  0.88907000  1.0
  C  C119  1  0.41662000  0.80647000  0.86160000  1.0
  C  C120  1  0.40756000  0.44857000  0.85302000  1.0
  C  C121  1  0.34538000  0.30014000  0.89757000  1.0
  C  C122  1  0.33924000  0.49134000  0.83632000  1.0
  C  C123  1  0.41396000  0.25877000  0.91374000  1.0
  C  C124  1  0.34285000  0.36953000  0.87531000  1.0
  C  C125  1  0.40978000  0.37920000  0.87519000  1.0
  C  C126  1  0.94488000  0.79449000  0.84923000  1.0
  C  C127  1  0.80391000  0.95296000  0.90102000  1.0
  C  C128  1  0.99121000  0.83310000  0.83599000  1.0
  C  C129  1  0.75898000  0.91322000  0.91370000  1.0
  C  C130  1  0.87191000  0.90976000  0.87741000  1.0
  C  C131  1  0.87693000  0.83799000  0.87278000  1.0
  S  S132  1  0.29881000  0.32626000  0.39724000  1.0
  S  S133  1  0.45108000  0.42616000  0.35318000  1.0
  S  S134  1  0.66136000  0.63313000  0.56286000  1.0
  S  S135  1  0.59008000  0.61546000  0.68888000  1.0
  S  S136  1  0.13393000  0.16067000  0.56263000  1.0
  S  S137  1  0.11544000  0.08983000  0.68872000  1.0
  S  S138  1  0.97200000  0.80359000  0.40189000  1.0
  S  S139  1  0.77378000  0.94592000  0.34788000  1.0
  S  S140  1  0.61670000  0.58875000  0.18738000  1.0
  S  S141  1  0.63439000  0.65937000  0.06123000  1.0
  S  S142  1  0.01399000  0.18216000  0.11224000  1.0
  S  S143  1  0.23855000  0.06596000  0.13974000  1.0
  S  S144  1  0.27777000  0.44616000  0.84797000  1.0
  S  S145  1  0.47565000  0.30342000  0.90220000  1.0
  S  S146  1  0.95109000  0.92294000  0.85258000  1.0
  S  S147  1  0.79854000  0.82355000  0.89724000  1.0
  Br  Br148  1  0.28479000  0.55218000  0.41189000  1.0
  Br  Br149  1  0.79525000  0.52725000  0.66946000  1.0
  Br  Br150  1  0.02778000  0.29471000  0.66886000  1.0
  Br  Br151  1  0.76001000  0.77458000  0.40164000  1.0
  Br  Br152  1  0.72169000  0.45448000  0.08121000  1.0
  Br  Br153  1  0.10672000  0.09039000  0.23256000  1.0
  Br  Br154  1  0.49009000  0.47441000  0.84843000  1.0
  Br  Br155  1  0.96467000  0.69682000  0.83877000  1.0
  Cl  Cl156  1  0.76492000  0.53770000  0.40044000  1.0
  Cl  Cl157  1  0.16844000  0.66736000  0.53041000  1.0
  Cl  Cl158  1  0.71849000  0.21984000  0.08259000  1.0
  Cl  Cl159  1  0.21232000  0.98613000  0.84902000  1.0
  O  O160  1  0.00100000  0.49783000  0.50011000  1.0
  O  O161  1  0.07790000  0.31423000  0.52280000  1.0
  O  O162  1  0.03249000  0.53082000  0.58736000  1.0
  O  O163  1  0.15398000  0.50571000  0.44991000  1.0
  O  O164  1  0.02740000  0.37538000  0.58029000  1.0
  O  O165  1  0.15410000  0.39101000  0.44618000  1.0
  O  O166  1  0.08116000  0.58609000  0.53060000  1.0
  O  O167  1  0.00399000  0.65826000  0.44934000  1.0
  O  O168  1  0.88980000  0.49394000  0.44378000  1.0
  O  O169  1  0.89146000  0.65158000  0.44796000  1.0
  O  O170  1  0.99764000  0.38440000  0.44069000  1.0
  O  O171  1  0.87662000  0.52698000  0.58066000  1.0
  O  O172  1  0.81434000  0.57762000  0.52348000  1.0
  O  O173  1  0.74901000  0.24983000  0.25087000  1.0
  O  O174  1  0.59651000  0.35824000  0.30337000  1.0
  O  O175  1  0.66163000  0.16340000  0.21910000  1.0
  O  O176  1  0.72630000  0.37379000  0.17012000  1.0
  O  O177  1  0.59226000  0.24539000  0.29967000  1.0
  O  O178  1  0.67234000  0.43533000  0.22726000  1.0
  O  O179  1  0.72122000  0.21691000  0.16687000  1.0
  O  O180  1  0.87813000  0.22298000  0.16913000  1.0
  O  O181  1  0.86304000  0.25300000  0.30915000  1.0
  O  O182  1  0.93269000  0.17293000  0.22878000  1.0
  O  O183  1  0.75426000  0.36267000  0.30789000  1.0
  O  O184  1  0.74475000  0.09318000  0.29964000  1.0
  O  O185  1  0.85783000  0.09649000  0.30432000  1.0
  O  O186  1  0.25050000  0.74936000  0.74989000  1.0
  O  O187  1  0.37574000  0.72455000  0.66849000  1.0
  O  O188  1  0.36574000  0.75426000  0.80872000  1.0
  O  O189  1  0.17184000  0.93334000  0.72723000  1.0
  O  O190  1  0.43380000  0.67450000  0.72721000  1.0
  O  O191  1  0.22435000  0.87566000  0.66866000  1.0
  O  O192  1  0.25354000  0.85930000  0.80760000  1.0
  O  O193  1  0.09472000  0.85847000  0.80343000  1.0
  O  O194  1  0.16559000  0.66271000  0.71899000  1.0
  O  O195  1  0.09552000  0.74369000  0.79936000  1.0
  O  O196  1  0.21892000  0.71926000  0.66452000  1.0
  O  O197  1  0.35752000  0.59928000  0.80323000  1.0
  O  O198  1  0.24654000  0.59083000  0.79995000  1.0
  O  O199  1  0.50017000  0.99966000  0.00011000  1.0
  O  O200  1  0.50476000  0.15634000  0.95013000  1.0
  O  O201  1  0.38780000  0.99574000  0.94181000  1.0
  O  O202  1  0.65299000  0.89212000  0.94656000  1.0
  O  O203  1  0.39119000  0.15323000  0.94653000  1.0
  O  O204  1  0.65729000  0.00492000  0.95019000  1.0
  O  O205  1  0.49689000  0.88637000  0.94162000  1.0
  O  O206  1  0.57715000  0.81588000  0.02260000  1.0
  O  O207  1  0.53098000  0.03045000  0.08619000  1.0
  O  O208  1  0.52650000  0.87375000  0.08120000  1.0
  O  O209  1  0.58543000  0.08490000  0.03124000  1.0
  O  O210  1  0.31548000  0.07755000  0.02232000  1.0
  O  O211  1  0.37443000  0.02582000  0.08068000  1.0
