# generated using pymatgen
data_ZnH18C25(NO4)2
_symmetry_space_group_name_H-M   'P 1'
_cell_length_a   12.62670000
_cell_length_b   13.82830000
_cell_length_c   23.72350000
_cell_angle_alpha   87.32370000
_cell_angle_beta   85.74360000
_cell_angle_gamma   86.19650000
_symmetry_Int_Tables_number   1
_chemical_formula_structural   ZnH18C25(NO4)2
_chemical_formula_sum   'Zn2 H36 C50 N4 O16'
_cell_volume   4118.10417658
_cell_formula_units_Z   2
loop_
 _symmetry_equiv_pos_site_id
 _symmetry_equiv_pos_as_xyz
  1  'x, y, z'
loop_
 _atom_site_type_symbol
 _atom_site_label
 _atom_site_symmetry_multiplicity
 _atom_site_fract_x
 _atom_site_fract_y
 _atom_site_fract_z
 _atom_site_occupancy
  Zn  Zn0  1  0.60913000  0.50774000  0.49508000  1.0
  Zn  Zn1  1  0.39290000  0.48898000  0.50585000  1.0
  H  H2  1  0.49622000  0.26677000  0.06578000  1.0
  H  H3  1  0.37930000  0.02568000  0.50366000  1.0
  H  H4  1  0.98875000  0.41389000  0.54606000  1.0
  H  H5  1  0.01351000  0.58043000  0.45380000  1.0
  H  H6  1  0.34991000  0.25264000  0.92606000  1.0
  H  H7  1  0.35228000  0.19191000  0.99448000  1.0
  H  H8  1  0.46315000  0.05187000  0.94942000  1.0
  H  H9  1  0.33634000  0.07172000  0.92113000  1.0
  H  H10  1  0.45213000  0.11265000  0.88185000  1.0
  H  H11  1  0.35205000  0.79374000  0.07403000  1.0
  H  H12  1  0.38125000  0.84763000  0.00482000  1.0
  H  H13  1  0.51390000  0.74377000  0.93480000  1.0
  H  H14  1  0.49448000  0.96549000  0.04817000  1.0
  H  H15  1  0.35998000  0.97485000  0.07702000  1.0
  H  H16  1  0.46001000  0.91200000  0.11644000  1.0
  H  H17  1  0.27041000  0.32698000  0.83142000  1.0
  H  H18  1  0.31946000  0.32766000  0.75927000  1.0
  H  H19  1  0.12034000  0.44654000  0.80564000  1.0
  H  H20  1  0.16534000  0.44050000  0.73355000  1.0
  H  H21  1  0.13907000  0.25958000  0.73772000  1.0
  H  H22  1  0.01830000  0.32643000  0.75794000  1.0
  H  H23  1  0.09467000  0.26577000  0.81022000  1.0
  H  H24  1  0.34656000  0.45485000  0.68735000  1.0
  H  H25  1  0.19663000  0.55462000  0.16696000  1.0
  H  H26  1  0.29794000  0.63101000  0.18347000  1.0
  H  H27  1  0.11784000  0.56052000  0.26606000  1.0
  H  H28  1  0.22040000  0.63233000  0.28422000  1.0
  H  H29  1  0.16102000  0.76613000  0.21596000  1.0
  H  H30  1  0.05424000  0.73738000  0.26539000  1.0
  H  H31  1  0.05884000  0.69539000  0.19570000  1.0
  H  H32  1  0.32570000  0.48639000  0.32776000  1.0
  H  H33  1  0.67280000  0.52755000  0.67107000  1.0
  H  H34  1  0.65962000  0.53428000  0.31475000  1.0
  H  H35  1  0.67276000  0.53220000  0.77688000  1.0
  H  H36  1  0.65929000  0.53894000  0.20868000  1.0
  H  H37  1  0.62111000  0.97138000  0.49698000  1.0
  C  C38  1  0.54728000  0.31197000  0.49826000  1.0
  C  C39  1  0.58696000  0.52574000  0.29401000  1.0
  C  C40  1  0.60196000  0.51466000  0.75680000  1.0
  C  C41  1  0.58650000  0.52848000  0.23536000  1.0
  C  C42  1  0.51057000  0.49451000  0.79075000  1.0
  C  C43  1  0.49250000  0.51673000  0.20989000  1.0
  C  C44  1  0.44382000  0.78947000  0.50285000  1.0
  C  C45  1  0.55847000  0.20753000  0.49806000  1.0
  C  C46  1  0.45222000  0.97833000  0.50179000  1.0
  C  C47  1  0.54830000  0.01887000  0.49887000  1.0
  C  C48  1  0.55639000  0.11944000  0.49833000  1.0
  C  C49  1  0.45609000  0.68507000  0.50259000  1.0
  C  C50  1  0.44466000  0.87766000  0.50251000  1.0
  C  C51  1  0.97366000  0.52889000  0.48305000  1.0
  C  C52  1  0.02858000  0.46549000  0.51684000  1.0
  C  C53  1  0.50765000  0.49095000  0.61033000  1.0
  C  C54  1  0.49329000  0.50641000  0.39068000  1.0
  C  C55  1  0.14068000  0.46410000  0.51559000  1.0
  C  C56  1  0.86152000  0.53079000  0.48452000  1.0
  C  C57  1  0.48476000  0.60443000  0.11852000  1.0
  C  C58  1  0.49955000  0.40786000  0.88242000  1.0
  C  C59  1  0.49846000  0.42229000  0.12636000  1.0
  C  C60  1  0.41775000  0.47185000  0.76633000  1.0
  C  C61  1  0.51199000  0.58882000  0.87421000  1.0
  C  C62  1  0.49580000  0.42151000  0.06409000  1.0
  C  C63  1  0.50569000  0.58982000  0.93677000  1.0
  C  C64  1  0.49649000  0.50894000  0.03044000  1.0
  C  C65  1  0.49956000  0.50263000  0.97044000  1.0
  C  C66  1  0.49491000  0.60033000  0.05595000  1.0
  C  C67  1  0.49738000  0.41154000  0.94495000  1.0
  C  C68  1  0.49540000  0.33318000  0.03913000  1.0
  C  C69  1  0.50707000  0.67808000  0.96174000  1.0
  C  C70  1  0.49514000  0.32669000  0.98005000  1.0
  C  C71  1  0.39723000  0.50286000  0.24289000  1.0
  C  C72  1  0.50159000  0.68487000  0.02096000  1.0
  C  C73  1  0.39535000  0.19942000  0.95237000  1.0
  C  C74  1  0.41326000  0.10313000  0.92448000  1.0
  C  C75  1  0.41092000  0.83392000  0.04729000  1.0
  C  C76  1  0.43311000  0.92706000  0.07381000  1.0
  C  C77  1  0.27318000  0.37098000  0.79143000  1.0
  C  C78  1  0.16129000  0.39842000  0.77415000  1.0
  C  C79  1  0.09986000  0.30772000  0.76966000  1.0
  C  C80  1  0.24385000  0.57598000  0.20096000  1.0
  C  C81  1  0.17151000  0.61655000  0.24962000  1.0
  C  C82  1  0.41801000  0.47007000  0.70754000  1.0
  C  C83  1  0.10786000  0.70880000  0.23064000  1.0
  C  C84  1  0.39845000  0.49926000  0.30168000  1.0
  C  C85  1  0.50976000  0.49021000  0.67347000  1.0
  C  C86  1  0.49283000  0.51058000  0.32741000  1.0
  C  C87  1  0.60218000  0.51203000  0.69826000  1.0
  N  N88  1  0.49425000  0.51463000  0.14920000  1.0
  N  N89  1  0.51005000  0.49719000  0.85126000  1.0
  N  N90  1  0.76936000  0.53238000  0.48580000  1.0
  N  N91  1  0.23275000  0.46344000  0.51468000  1.0
  O  O92  1  0.63141000  0.35851000  0.49548000  1.0
  O  O93  1  0.49358000  0.33325000  0.85704000  1.0
  O  O94  1  0.50439000  0.34812000  0.15678000  1.0
  O  O95  1  0.51805000  0.66299000  0.84380000  1.0
  O  O96  1  0.49847000  0.23583000  0.95967000  1.0
  O  O97  1  0.50968000  0.77388000  0.04210000  1.0
  O  O98  1  0.33008000  0.45495000  0.80188000  1.0
  O  O99  1  0.30556000  0.48812000  0.21724000  1.0
  O  O100  1  0.37232000  0.63781000  0.50735000  1.0
  O  O101  1  0.45121000  0.34740000  0.50133000  1.0
  O  O102  1  0.55226000  0.65036000  0.49743000  1.0
  O  O103  1  0.59595000  0.50013000  0.58141000  1.0
  O  O104  1  0.40404000  0.50021000  0.41909000  1.0
  O  O105  1  0.41780000  0.48298000  0.59030000  1.0
  O  O106  1  0.58344000  0.50952000  0.41123000  1.0
  O  O107  1  0.46754000  0.67966000  0.14428000  1.0
