# generated using pymatgen
data_ZnH9C17(NO2)3
_symmetry_space_group_name_H-M   'P 1'
_cell_length_a   14.10110000
_cell_length_b   16.03850000
_cell_length_c   17.27680000
_cell_angle_alpha   93.52160000
_cell_angle_beta   91.64030000
_cell_angle_gamma   98.03840000
_symmetry_Int_Tables_number   1
_chemical_formula_structural   ZnH9C17(NO2)3
_chemical_formula_sum   'Zn2 H18 C34 N6 O12'
_cell_volume   3858.89413192
_cell_formula_units_Z   2
loop_
 _symmetry_equiv_pos_site_id
 _symmetry_equiv_pos_as_xyz
  1  'x, y, z'
loop_
 _atom_site_type_symbol
 _atom_site_label
 _atom_site_symmetry_multiplicity
 _atom_site_fract_x
 _atom_site_fract_y
 _atom_site_fract_z
 _atom_site_occupancy
  Zn  Zn0  1  0.49549000  0.41094000  0.49975000  1.0
  Zn  Zn1  1  0.50450000  0.58905000  0.50025000  1.0
  H  H2  1  0.98269000  0.40337000  0.50525000  1.0
  H  H3  1  0.44445000  0.62963000  0.74432000  1.0
  H  H4  1  0.44294000  0.09194000  0.39747000  1.0
  H  H5  1  0.55709000  0.90806000  0.60252000  1.0
  H  H6  1  0.40871000  0.84682000  0.38022000  1.0
  H  H7  1  0.59129000  0.15318000  0.61978000  1.0
  H  H8  1  0.43090000  0.69425000  0.39475000  1.0
  H  H9  1  0.56910000  0.30575000  0.60525000  1.0
  H  H10  1  0.40177000  0.25116000  0.26652000  1.0
  H  H11  1  0.59824000  0.74883000  0.73347000  1.0
  H  H12  1  0.01730000  0.59669000  0.49475000  1.0
  H  H13  1  0.57650000  0.40451000  0.75049000  1.0
  H  H14  1  0.42349000  0.59548000  0.24951000  1.0
  H  H15  1  0.57005000  0.41133000  0.89598000  1.0
  H  H16  1  0.42997000  0.58868000  0.10402000  1.0
  H  H17  1  0.56408000  0.36439000  0.10970000  1.0
  H  H18  1  0.43594000  0.63562000  0.89030000  1.0
  H  H19  1  0.55555000  0.37036000  0.25568000  1.0
  C  C20  1  0.48924000  0.49052000  0.34782000  1.0
  C  C21  1  0.47026000  0.13746000  0.44490000  1.0
  C  C22  1  0.48451000  0.88848000  0.48932000  1.0
  C  C23  1  0.51550000  0.11151000  0.51068000  1.0
  C  C24  1  0.44641000  0.82806000  0.43078000  1.0
  C  C25  1  0.55360000  0.17194000  0.56922000  1.0
  C  C26  1  0.45874000  0.74434000  0.43840000  1.0
  C  C27  1  0.54126000  0.25565000  0.56160000  1.0
  C  C28  1  0.31496000  0.49069000  0.50593000  1.0
  C  C29  1  0.68503000  0.50932000  0.49408000  1.0
  C  C30  1  0.78842000  0.52072000  0.49370000  1.0
  C  C31  1  0.51075000  0.50947000  0.65218000  1.0
  C  C32  1  0.21158000  0.47929000  0.50630000  1.0
  C  C33  1  0.97605000  0.53395000  0.49733000  1.0
  C  C34  1  0.02395000  0.46610000  0.50266000  1.0
  C  C35  1  0.12425000  0.47306000  0.50476000  1.0
  C  C36  1  0.87574000  0.52698000  0.49523000  1.0
  C  C37  1  0.48973000  0.48375000  0.26092000  1.0
  C  C38  1  0.51026000  0.51624000  0.73908000  1.0
  C  C39  1  0.45405000  0.54515000  0.21812000  1.0
  C  C40  1  0.54594000  0.45484000  0.78188000  1.0
  C  C41  1  0.45773000  0.54175000  0.13791000  1.0
  C  C42  1  0.53287000  0.41420000  0.14141000  1.0
  C  C43  1  0.54228000  0.45826000  0.86209000  1.0
  C  C44  1  0.49905000  0.47677000  0.09903000  1.0
  C  C45  1  0.50097000  0.52325000  0.90098000  1.0
  C  C46  1  0.40307000  0.24976000  0.37582000  1.0
  C  C47  1  0.59695000  0.75023000  0.62419000  1.0
  C  C48  1  0.46715000  0.58581000  0.85859000  1.0
  C  C49  1  0.52809000  0.41759000  0.22188000  1.0
  C  C50  1  0.47191000  0.58241000  0.77812000  1.0
  C  C51  1  0.53984000  0.77776000  0.55759000  1.0
  C  C52  1  0.46017000  0.22223000  0.44241000  1.0
  C  C53  1  0.52975000  0.86254000  0.55509000  1.0
  N  N54  1  0.50996000  0.46886000  0.01801000  1.0
  N  N55  1  0.49006000  0.53115000  0.98199000  1.0
  N  N56  1  0.50604000  0.71968000  0.49981000  1.0
  N  N57  1  0.49396000  0.28032000  0.50019000  1.0
  N  N58  1  0.47250000  0.97332000  0.47839000  1.0
  N  N59  1  0.52752000  0.02668000  0.52161000  1.0
  O  O60  1  0.49504000  0.42328000  0.38222000  1.0
  O  O61  1  0.44144000  0.23058000  0.30680000  1.0
  O  O62  1  0.67033000  0.71970000  0.61653000  1.0
  O  O63  1  0.55856000  0.76941000  0.69320000  1.0
  O  O64  1  0.50496000  0.57671000  0.61778000  1.0
  O  O65  1  0.48441000  0.56309000  0.38042000  1.0
  O  O66  1  0.51557000  0.43689000  0.61958000  1.0
  O  O67  1  0.35512000  0.42462000  0.51021000  1.0
  O  O68  1  0.64487000  0.57538000  0.48979000  1.0
  O  O69  1  0.35606000  0.56609000  0.50119000  1.0
  O  O70  1  0.64394000  0.43391000  0.49882000  1.0
  O  O71  1  0.32967000  0.28030000  0.38347000  1.0
