# generated using pymatgen
data_MnSnH11C15(SeN)3
_symmetry_space_group_name_H-M   'P 1'
_cell_length_a   9.77242000
_cell_length_b   9.93340000
_cell_length_c   10.78180000
_cell_angle_alpha   107.57100000
_cell_angle_beta   97.32200000
_cell_angle_gamma   115.24300000
_symmetry_Int_Tables_number   1
_chemical_formula_structural   MnSnH11C15(SeN)3
_chemical_formula_sum   'Mn2 Sn2 H22 C30 Se6 N6'
_cell_volume   861.76107551
_cell_formula_units_Z   2
loop_
 _symmetry_equiv_pos_site_id
 _symmetry_equiv_pos_as_xyz
  1  'x, y, z'
loop_
 _atom_site_type_symbol
 _atom_site_label
 _atom_site_symmetry_multiplicity
 _atom_site_fract_x
 _atom_site_fract_y
 _atom_site_fract_z
 _atom_site_occupancy
  Mn  Mn0  1  0.64915000  0.19250000  0.76234000  1.0
  Mn  Mn1  1  0.35086000  0.80750000  0.23765000  1.0
  Sn  Sn2  1  0.18182000  0.00624000  0.54222000  1.0
  Sn  Sn3  1  0.81820000  0.99377000  0.45779000  1.0
  H  H4  1  0.52156000  0.83091000  0.55160000  1.0
  H  H5  1  0.47844000  0.16909000  0.44840000  1.0
  H  H6  1  0.43048000  0.55669000  0.55806000  1.0
  H  H7  1  0.56951000  0.44331000  0.44193000  1.0
  H  H8  1  0.47027000  0.53689000  0.78479000  1.0
  H  H9  1  0.52972000  0.46311000  0.21520000  1.0
  H  H10  1  0.59848000  0.79129000  0.99702000  1.0
  H  H11  1  0.40151000  0.20870000  0.00297000  1.0
  H  H12  1  0.71350000  0.01333000  0.16429000  1.0
  H  H13  1  0.28649000  0.98666000  0.83570000  1.0
  H  H14  1  0.84132000  0.28979000  0.34924000  1.0
  H  H15  1  0.15867000  0.71021000  0.65075000  1.0
  H  H16  1  0.90345000  0.52908000  0.28941000  1.0
  H  H17  1  0.09655000  0.47091000  0.71058000  1.0
  H  H18  1  0.93383000  0.71411000  0.22065000  1.0
  H  H19  1  0.06616000  0.28588000  0.77935000  1.0
  H  H20  1  0.98115000  0.91751000  0.12202000  1.0
  H  H21  1  0.01884000  0.08248000  0.87799000  1.0
  H  H22  1  0.90726000  0.82429000  0.86314000  1.0
  H  H23  1  0.09275000  0.17572000  0.13688000  1.0
  H  H24  1  0.78294000  0.52858000  0.72157000  1.0
  H  H25  1  0.21708000  0.47144000  0.27843000  1.0
  C  C26  1  0.53766000  0.81742000  0.64833000  1.0
  C  C27  1  0.46233000  0.18258000  0.35166000  1.0
  C  C28  1  0.48776000  0.66514000  0.65242000  1.0
  C  C29  1  0.51222000  0.33486000  0.34758000  1.0
  C  C30  1  0.50882000  0.65482000  0.77879000  1.0
  C  C31  1  0.49117000  0.34517000  0.22120000  1.0
  C  C32  1  0.58042000  0.79664000  0.89690000  1.0
  C  C33  1  0.41957000  0.20335000  0.10310000  1.0
  C  C34  1  0.62624000  0.94504000  0.88515000  1.0
  C  C35  1  0.37375000  0.05495000  0.11484000  1.0
  C  C36  1  0.70182000  0.10162000  0.00394000  1.0
  C  C37  1  0.29818000  0.89837000  0.99606000  1.0
  C  C38  1  0.74070000  0.11892000  0.13946000  1.0
  C  C39  1  0.25930000  0.88107000  0.86053000  1.0
  C  C40  1  0.81222000  0.27360000  0.24268000  1.0
  C  C41  1  0.18778000  0.72639000  0.75732000  1.0
  C  C42  1  0.84426000  0.40715000  0.20972000  1.0
  C  C43  1  0.15574000  0.59285000  0.79028000  1.0
  C  C44  1  0.80291000  0.38165000  0.07225000  1.0
  C  C45  1  0.19709000  0.61834000  0.92774000  1.0
  C  C46  1  0.83280000  0.51246000  0.02353000  1.0
  C  C47  1  0.16720000  0.48754000  0.97647000  1.0
  C  C48  1  0.90052000  0.67577000  0.11039000  1.0
  C  C49  1  0.09948000  0.32423000  0.88961000  1.0
  C  C50  1  0.92819000  0.79035000  0.05381000  1.0
  C  C51  1  0.07181000  0.20965000  0.94620000  1.0
  C  C52  1  0.88758000  0.73974000  0.91267000  1.0
  C  C53  1  0.11242000  0.26026000  0.08734000  1.0
  C  C54  1  0.81819000  0.57475000  0.83270000  1.0
  C  C55  1  0.18182000  0.42526000  0.16730000  1.0
  Se  Se56  1  0.41081000  0.23220000  0.74568000  1.0
  Se  Se57  1  0.58920000  0.76782000  0.25433000  1.0
  Se  Se58  1  0.22221000  0.77401000  0.42043000  1.0
  Se  Se59  1  0.77779000  0.22599000  0.57957000  1.0
  Se  Se60  1  0.08083000  0.13041000  0.39696000  1.0
  Se  Se61  1  0.91920000  0.86962000  0.60305000  1.0
  N  N62  1  0.60330000  0.95420000  0.76153000  1.0
  N  N63  1  0.39669000  0.04579000  0.23847000  1.0
  N  N64  1  0.73275000  0.23131000  0.97304000  1.0
  N  N65  1  0.26726000  0.76869000  0.02696000  1.0
  N  N66  1  0.79105000  0.46374000  0.88623000  1.0
  N  N67  1  0.20896000  0.53626000  0.11377000  1.0
