# generated using pymatgen
data_CuPH15C13N3ClO3
_symmetry_space_group_name_H-M   'P 1'
_cell_length_a   9.24163000
_cell_length_b   12.06290000
_cell_length_c   13.28390000
_cell_angle_alpha   89.99840000
_cell_angle_beta   89.99850000
_cell_angle_gamma   75.87600000
_symmetry_Int_Tables_number   1
_chemical_formula_structural   CuPH15C13N3ClO3
_chemical_formula_sum   'Cu4 P4 H60 C52 N12 Cl4 O12'
_cell_volume   1436.13278098
_cell_formula_units_Z   4
loop_
 _symmetry_equiv_pos_site_id
 _symmetry_equiv_pos_as_xyz
  1  'x, y, z'
loop_
 _atom_site_type_symbol
 _atom_site_label
 _atom_site_symmetry_multiplicity
 _atom_site_fract_x
 _atom_site_fract_y
 _atom_site_fract_z
 _atom_site_occupancy
  Cu  Cu0  1  0.69098000  0.36516000  0.61624000  1.0
  Cu  Cu1  1  0.80905000  0.13481000  0.11624000  1.0
  Cu  Cu2  1  0.30905000  0.63481000  0.38377000  1.0
  Cu  Cu3  1  0.19097000  0.86514000  0.88375000  1.0
  P  P4  1  0.39393000  0.58088000  0.86643000  1.0
  P  P5  1  0.10612000  0.91913000  0.36645000  1.0
  P  P6  1  0.60610000  0.41913000  0.13355000  1.0
  P  P7  1  0.89391000  0.08087000  0.63356000  1.0
  H  H8  1  0.39475000  0.52596000  0.68985000  1.0
  H  H9  1  0.10527000  0.97402000  0.18987000  1.0
  H  H10  1  0.60527000  0.47402000  0.31013000  1.0
  H  H11  1  0.89475000  0.02594000  0.81015000  1.0
  H  H12  1  0.55814000  0.56799000  0.72522000  1.0
  H  H13  1  0.94188000  0.93199000  0.22527000  1.0
  H  H14  1  0.44187000  0.43200000  0.27475000  1.0
  H  H15  1  0.05814000  0.06797000  0.77475000  1.0
  H  H16  1  0.57452000  0.57384000  0.98195000  1.0
  H  H17  1  0.92552000  0.92615000  0.48196000  1.0
  H  H18  1  0.42551000  0.42615000  0.01804000  1.0
  H  H19  1  0.07452000  0.07384000  0.51805000  1.0
  H  H20  1  0.37089000  0.34466000  0.79922000  1.0
  H  H21  1  0.12912000  0.15533000  0.29923000  1.0
  H  H22  1  0.62911000  0.65535000  0.20078000  1.0
  H  H23  1  0.87089000  0.84465000  0.70076000  1.0
  H  H24  1  0.52965000  0.23164000  0.77048000  1.0
  H  H25  1  0.97035000  0.26835000  0.27050000  1.0
  H  H26  1  0.47033000  0.76836000  0.22952000  1.0
  H  H27  1  0.02964000  0.73163000  0.72951000  1.0
  H  H28  1  0.54787000  0.33694000  0.41619000  1.0
  H  H29  1  0.95205000  0.16314000  0.91621000  1.0
  H  H30  1  0.45206000  0.66311000  0.58380000  1.0
  H  H31  1  0.04788000  0.83690000  0.08378000  1.0
  H  H32  1  0.30860000  0.28876000  0.36216000  1.0
  H  H33  1  0.19137000  0.21125000  0.86215000  1.0
  H  H34  1  0.69134000  0.71125000  0.63785000  1.0
  H  H35  1  0.80859000  0.78874000  0.13784000  1.0
  H  H36  1  0.13318000  0.25247000  0.49792000  1.0
  H  H37  1  0.36682000  0.24749000  0.99789000  1.0
  H  H38  1  0.86679000  0.74751000  0.50210000  1.0
  H  H39  1  0.63315000  0.75248000  0.00210000  1.0
  H  H40  1  0.20597000  0.26329000  0.67647000  1.0
  H  H41  1  0.29404000  0.23668000  0.17646000  1.0
  H  H42  1  0.79402000  0.73669000  0.32354000  1.0
  H  H43  1  0.70593000  0.76331000  0.82353000  1.0
  H  H44  1  0.72168000  0.27432000  0.83120000  1.0
  H  H45  1  0.77835000  0.22568000  0.33120000  1.0
  H  H46  1  0.27835000  0.72569000  0.16880000  1.0
  H  H47  1  0.22169000  0.77431000  0.66881000  1.0
  H  H48  1  0.63521000  0.39492000  0.90435000  1.0
  H  H49  1  0.86476000  0.10507000  0.40435000  1.0
  H  H50  1  0.36477000  0.60508000  0.09566000  1.0
  H  H51  1  0.13522000  0.89490000  0.59564000  1.0
  H  H52  1  0.96205000  0.47025000  0.58949000  1.0
  H  H53  1  0.53794000  0.02981000  0.08947000  1.0
  H  H54  1  0.03794000  0.52982000  0.41055000  1.0
  H  H55  1  0.46205000  0.97025000  0.91050000  1.0
  H  H56  1  0.13010000  0.53958000  0.70929000  1.0
  H  H57  1  0.36992000  0.96044000  0.20925000  1.0
  H  H58  1  0.86993000  0.46043000  0.29077000  1.0
  H  H59  1  0.63009000  0.03957000  0.79070000  1.0
  H  H60  1  0.08246000  0.53293000  0.89394000  1.0
  H  H61  1  0.41756000  0.96706000  0.39391000  1.0
  H  H62  1  0.91756000  0.46705000  0.10611000  1.0
  H  H63  1  0.58244000  0.03293000  0.60604000  1.0
  H  H64  1  0.86015000  0.45864000  0.95246000  1.0
  H  H65  1  0.63988000  0.04134000  0.45244000  1.0
  H  H66  1  0.13986000  0.54134000  0.04757000  1.0
  H  H67  1  0.36012000  0.95865000  0.54753000  1.0
  C  C68  1  0.48149000  0.51586000  0.74809000  1.0
  C  C69  1  0.01853000  0.98412000  0.24812000  1.0
  C  C70  1  0.51852000  0.48413000  0.25188000  1.0
  C  C71  1  0.98148000  0.01585000  0.75190000  1.0
  C  C72  1  0.46477000  0.31642000  0.74661000  1.0
  C  C73  1  0.03524000  0.18357000  0.24662000  1.0
  C  C74  1  0.53523000  0.68358000  0.25339000  1.0
  C  C75  1  0.96476000  0.81641000  0.75338000  1.0
  C  C76  1  0.41171000  0.30865000  0.64039000  1.0
  C  C77  1  0.08828000  0.19136000  0.14039000  1.0
  C  C78  1  0.58827000  0.69136000  0.35962000  1.0
  C  C79  1  0.91169000  0.80864000  0.85960000  1.0
  C  C80  1  0.46682000  0.32060000  0.47013000  1.0
  C  C81  1  0.03313000  0.17944000  0.97014000  1.0
  C  C82  1  0.53313000  0.67943000  0.52987000  1.0
  C  C83  1  0.96681000  0.82058000  0.02985000  1.0
  C  C84  1  0.33489000  0.29342000  0.44174000  1.0
  C  C85  1  0.16507000  0.20660000  0.94173000  1.0
  C  C86  1  0.66505000  0.70660000  0.55827000  1.0
  C  C87  1  0.83488000  0.79341000  0.05826000  1.0
  C  C88  1  0.23854000  0.27295000  0.51620000  1.0
  C  C89  1  0.26145000  0.22704000  0.01619000  1.0
  C  C90  1  0.76142000  0.72705000  0.48381000  1.0
  C  C91  1  0.73851000  0.77296000  0.98380000  1.0
  C  C92  1  0.27875000  0.27972000  0.61675000  1.0
  C  C93  1  0.22125000  0.22026000  0.11674000  1.0
  C  C94  1  0.72123000  0.72027000  0.38326000  1.0
  C  C95  1  0.77873000  0.77974000  0.88325000  1.0
  C  C96  1  0.67994000  0.36779000  0.82933000  1.0
  C  C97  1  0.82006000  0.13221000  0.32932000  1.0
  C  C98  1  0.32006000  0.63221000  0.17067000  1.0
  C  C99  1  0.17994000  0.86778000  0.67067000  1.0
  C  C100  1  0.80536000  0.42065000  0.80208000  1.0
  C  C101  1  0.69463000  0.07938000  0.30206000  1.0
  C  C102  1  0.19462000  0.57938000  0.19794000  1.0
  C  C103  1  0.30536000  0.92065000  0.69792000  1.0
  C  C104  1  0.94650000  0.46812000  0.67071000  1.0
  C  C105  1  0.55350000  0.03193000  0.17068000  1.0
  C  C106  1  0.05349000  0.53193000  0.32933000  1.0
  C  C107  1  0.44648000  0.96812000  0.82929000  1.0
  C  C108  1  0.03866000  0.50646000  0.73818000  1.0
  C  C109  1  0.46134000  0.99357000  0.23815000  1.0
  C  C110  1  0.96135000  0.49357000  0.26187000  1.0
  C  C111  1  0.53865000  0.00646000  0.76181000  1.0
  C  C112  1  0.01034000  0.50296000  0.84106000  1.0
  C  C113  1  0.48967000  0.99705000  0.34104000  1.0
  C  C114  1  0.98966000  0.49705000  0.15898000  1.0
  C  C115  1  0.51032000  0.00296000  0.65893000  1.0
  C  C116  1  0.89101000  0.46022000  0.87342000  1.0
  C  C117  1  0.60899000  0.03979000  0.37340000  1.0
  C  C118  1  0.10899000  0.53979000  0.12662000  1.0
  C  C119  1  0.39100000  0.96022000  0.62658000  1.0
  N  N120  1  0.56497000  0.39459000  0.75007000  1.0
  N  N121  1  0.93504000  0.10540000  0.25007000  1.0
  N  N122  1  0.43504000  0.60540000  0.24993000  1.0
  N  N123  1  0.06496000  0.89458000  0.74993000  1.0
  N  N124  1  0.50377000  0.32860000  0.56706000  1.0
  N  N125  1  0.99619000  0.17145000  0.06706000  1.0
  N  N126  1  0.49619000  0.67142000  0.43294000  1.0
  N  N127  1  0.00377000  0.82857000  0.93293000  1.0
  N  N128  1  0.83288000  0.42541000  0.70215000  1.0
  N  N129  1  0.66711000  0.07463000  0.20212000  1.0
  N  N130  1  0.16711000  0.57463000  0.29788000  1.0
  N  N131  1  0.33287000  0.92541000  0.79785000  1.0
  Cl  Cl132  1  0.79139000  0.39281000  0.46546000  1.0
  Cl  Cl133  1  0.70880000  0.10702000  0.96543000  1.0
  Cl  Cl134  1  0.20871000  0.60709000  0.53455000  1.0
  Cl  Cl135  1  0.29132000  0.89283000  0.03455000  1.0
  O  O136  1  0.27438000  0.68239000  0.83159000  1.0
  O  O137  1  0.22573000  0.81766000  0.33164000  1.0
  O  O138  1  0.72570000  0.31765000  0.16836000  1.0
  O  O139  1  0.77436000  0.18238000  0.66840000  1.0
  O  O140  1  0.52434000  0.62252000  0.92127000  1.0
  O  O141  1  0.97575000  0.87745000  0.42131000  1.0
  O  O142  1  0.47573000  0.37745000  0.07869000  1.0
  O  O143  1  0.02433000  0.12251000  0.57872000  1.0
  O  O144  1  0.34527000  0.49044000  0.92945000  1.0
  O  O145  1  0.15474000  0.00960000  0.42945000  1.0
  O  O146  1  0.65472000  0.50961000  0.07055000  1.0
  O  O147  1  0.84525000  0.99044000  0.57054000  1.0
