# generated using pymatgen
data_CuH12C12(N2O3)2
_symmetry_space_group_name_H-M   'P 1'
_cell_length_a   8.73005000
_cell_length_b   11.46990000
_cell_length_c   15.45220000
_cell_angle_alpha   107.13900000
_cell_angle_beta   89.99990000
_cell_angle_gamma   90.00000000
_symmetry_Int_Tables_number   1
_chemical_formula_structural   CuH12C12(N2O3)2
_chemical_formula_sum   'Cu4 H48 C48 N16 O24'
_cell_volume   1478.56180247
_cell_formula_units_Z   4
loop_
 _symmetry_equiv_pos_site_id
 _symmetry_equiv_pos_as_xyz
  1  'x, y, z'
loop_
 _atom_site_type_symbol
 _atom_site_label
 _atom_site_symmetry_multiplicity
 _atom_site_fract_x
 _atom_site_fract_y
 _atom_site_fract_z
 _atom_site_occupancy
  Cu  Cu0  1  0.86014000  0.12068000  0.22884000  1.0
  Cu  Cu1  1  0.36015000  0.37932000  0.27116000  1.0
  Cu  Cu2  1  0.13983000  0.87929000  0.77114000  1.0
  Cu  Cu3  1  0.63983000  0.62071000  0.72886000  1.0
  H  H4  1  0.77324000  0.31667000  0.14057000  1.0
  H  H5  1  0.27324000  0.18332000  0.35943000  1.0
  H  H6  1  0.22675000  0.68332000  0.85943000  1.0
  H  H7  1  0.72676000  0.81668000  0.64057000  1.0
  H  H8  1  0.89423000  0.39532000  0.02174000  1.0
  H  H9  1  0.39423000  0.10469000  0.47826000  1.0
  H  H10  1  0.10577000  0.60468000  0.97826000  1.0
  H  H11  1  0.60577000  0.89532000  0.52174000  1.0
  H  H12  1  0.23890000  0.11694000  0.98812000  1.0
  H  H13  1  0.73890000  0.38305000  0.51188000  1.0
  H  H14  1  0.76110000  0.88306000  0.01188000  1.0
  H  H15  1  0.26110000  0.61694000  0.48812000  1.0
  H  H16  1  0.20744000  0.22967000  0.87212000  1.0
  H  H17  1  0.70744000  0.27033000  0.62788000  1.0
  H  H18  1  0.79256000  0.77033000  0.12788000  1.0
  H  H19  1  0.29256000  0.72967000  0.37212000  1.0
  H  H20  1  0.24562000  0.37015000  0.95653000  1.0
  H  H21  1  0.74562000  0.12985000  0.54347000  1.0
  H  H22  1  0.75438000  0.62985000  0.04347000  1.0
  H  H23  1  0.25438000  0.87015000  0.45653000  1.0
  H  H24  1  0.07406000  0.35379000  0.89205000  1.0
  H  H25  1  0.57406000  0.14621000  0.60795000  1.0
  H  H26  1  0.92594000  0.64621000  0.10795000  1.0
  H  H27  1  0.42594000  0.85379000  0.39205000  1.0
  H  H28  1  0.02125000  0.92180000  0.29170000  1.0
  H  H29  1  0.52125000  0.57820000  0.20830000  1.0
  H  H30  1  0.97875000  0.07820000  0.70830000  1.0
  H  H31  1  0.47875000  0.42180000  0.79170000  1.0
  H  H32  1  0.24008000  0.78200000  0.23290000  1.0
  H  H33  1  0.74008000  0.71800000  0.26710000  1.0
  H  H34  1  0.75992000  0.21800000  0.76710000  1.0
  H  H35  1  0.25992000  0.28200000  0.73290000  1.0
  H  H36  1  0.30987000  0.96787000  0.03096000  1.0
  H  H37  1  0.80987000  0.53213000  0.46904000  1.0
  H  H38  1  0.69013000  0.03213000  0.96904000  1.0
  H  H39  1  0.19013000  0.46787000  0.53096000  1.0
  H  H40  1  0.47227000  0.79887000  0.02692000  1.0
  H  H41  1  0.97227000  0.70113000  0.47308000  1.0
  H  H42  1  0.52773000  0.20113000  0.97308000  1.0
  H  H43  1  0.02772000  0.29887000  0.52692000  1.0
  H  H44  1  0.39391000  0.68680000  0.07417000  1.0
  H  H45  1  0.89391000  0.81320000  0.42583000  1.0
  H  H46  1  0.60609000  0.31320000  0.92583000  1.0
  H  H47  1  0.10609000  0.18680000  0.57417000  1.0
  H  H48  1  0.51992000  0.80072000  0.13919000  1.0
  H  H49  1  0.01992000  0.69928000  0.36081000  1.0
  H  H50  1  0.48008000  0.19928000  0.86081000  1.0
  H  H51  1  0.98008000  0.30072000  0.63919000  1.0
  C  C52  1  0.87639000  0.27505000  0.10479000  1.0
  C  C53  1  0.37639000  0.22494000  0.39521000  1.0
  C  C54  1  0.12361000  0.72494000  0.89521000  1.0
  C  C55  1  0.62361000  0.77506000  0.60479000  1.0
  C  C56  1  0.94453000  0.31841000  0.03910000  1.0
  C  C57  1  0.44453000  0.18159000  0.46090000  1.0
  C  C58  1  0.05547000  0.68159000  0.96090000  1.0
  C  C59  1  0.55547000  0.81841000  0.53910000  1.0
  C  C60  1  0.07658000  0.26139000  0.99458000  1.0
  C  C61  1  0.57658000  0.23861000  0.50542000  1.0
  C  C62  1  0.92342000  0.73861000  0.00542000  1.0
  C  C63  1  0.42342000  0.76139000  0.49458000  1.0
  C  C64  1  0.13549000  0.16289000  0.02018000  1.0
  C  C65  1  0.63549000  0.33711000  0.47982000  1.0
  C  C66  1  0.86451000  0.83711000  0.97982000  1.0
  C  C67  1  0.36452000  0.66288000  0.52017000  1.0
  C  C68  1  0.06336000  0.12505000  0.08773000  1.0
  C  C69  1  0.56337000  0.37495000  0.41227000  1.0
  C  C70  1  0.93663000  0.87495000  0.91227000  1.0
  C  C71  1  0.43663000  0.62505000  0.58773000  1.0
  C  C72  1  0.15458000  0.30564000  0.92400000  1.0
  C  C73  1  0.65458000  0.19436000  0.57600000  1.0
  C  C74  1  0.84542000  0.69436000  0.07600000  1.0
  C  C75  1  0.34542000  0.80564000  0.42400000  1.0
  C  C76  1  0.08739000  0.92828000  0.23350000  1.0
  C  C77  1  0.58739000  0.57172000  0.26650000  1.0
  C  C78  1  0.91261000  0.07172000  0.76650000  1.0
  C  C79  1  0.41261000  0.42827000  0.73350000  1.0
  C  C80  1  0.21115000  0.85204000  0.20099000  1.0
  C  C81  1  0.71116000  0.64796000  0.29901000  1.0
  C  C82  1  0.78884000  0.14796000  0.79901000  1.0
  C  C83  1  0.28884000  0.35203000  0.70099000  1.0
  C  C84  1  0.29414000  0.86418000  0.12633000  1.0
  C  C85  1  0.79415000  0.63582000  0.37367000  1.0
  C  C86  1  0.70585000  0.13582000  0.87367000  1.0
  C  C87  1  0.20585000  0.36418000  0.62633000  1.0
  C  C88  1  0.24741000  0.95497000  0.08840000  1.0
  C  C89  1  0.74741000  0.54502000  0.41160000  1.0
  C  C90  1  0.75259000  0.04503000  0.91160000  1.0
  C  C91  1  0.25259000  0.45498000  0.58840000  1.0
  C  C92  1  0.12108000  0.02785000  0.12344000  1.0
  C  C93  1  0.62108000  0.47215000  0.37656000  1.0
  C  C94  1  0.87892000  0.97216000  0.87657000  1.0
  C  C95  1  0.37892000  0.52784000  0.62344000  1.0
  C  C96  1  0.42741000  0.78307000  0.08878000  1.0
  C  C97  1  0.92742000  0.71693000  0.41122000  1.0
  C  C98  1  0.57258000  0.21693000  0.91122000  1.0
  C  C99  1  0.07258000  0.28307000  0.58878000  1.0
  N  N100  1  0.93383000  0.18020000  0.12803000  1.0
  N  N101  1  0.43383000  0.31980000  0.37196000  1.0
  N  N102  1  0.06616000  0.81979000  0.87196000  1.0
  N  N103  1  0.56616000  0.68021000  0.62804000  1.0
  N  N104  1  0.04233000  0.01375000  0.19538000  1.0
  N  N105  1  0.54233000  0.48625000  0.30462000  1.0
  N  N106  1  0.95767000  0.98626000  0.80462000  1.0
  N  N107  1  0.45767000  0.51374000  0.69538000  1.0
  N  N108  1  0.56528000  0.14416000  0.16298000  1.0
  N  N109  1  0.06529000  0.35584000  0.33701000  1.0
  N  N110  1  0.43472000  0.85583000  0.83701000  1.0
  N  N111  1  0.93472000  0.64417000  0.66299000  1.0
  N  N112  1  0.72517000  0.98041000  0.32987000  1.0
  N  N113  1  0.22517000  0.51959000  0.17013000  1.0
  N  N114  1  0.27483000  0.01959000  0.67013000  1.0
  N  N115  1  0.77483000  0.48042000  0.82987000  1.0
  O  O116  1  0.65392000  0.19771000  0.23147000  1.0
  O  O117  1  0.15391000  0.30230000  0.26853000  1.0
  O  O118  1  0.34610000  0.80229000  0.76853000  1.0
  O  O119  1  0.84609000  0.69770000  0.73147000  1.0
  O  O120  1  0.60792000  0.04818000  0.10627000  1.0
  O  O121  1  0.10793000  0.45181000  0.39373000  1.0
  O  O122  1  0.39208000  0.95181000  0.89373000  1.0
  O  O123  1  0.89209000  0.54819000  0.60627000  1.0
  O  O124  1  0.43899000  0.19407000  0.15752000  1.0
  O  O125  1  0.93899000  0.30594000  0.34248000  1.0
  O  O126  1  0.56103000  0.80593000  0.84248000  1.0
  O  O127  1  0.06102000  0.69408000  0.65752000  1.0
  O  O128  1  0.81405000  0.07600000  0.34135000  1.0
  O  O129  1  0.31406000  0.42400000  0.15865000  1.0
  O  O130  1  0.18595000  0.92399000  0.65865000  1.0
  O  O131  1  0.68595000  0.57602000  0.84136000  1.0
  O  O132  1  0.68181000  0.92375000  0.25153000  1.0
  O  O133  1  0.18181000  0.57625000  0.24847000  1.0
  O  O134  1  0.31818000  0.07625000  0.74847000  1.0
  O  O135  1  0.81818000  0.42376000  0.75153000  1.0
  O  O136  1  0.69002000  0.95027000  0.39851000  1.0
  O  O137  1  0.19002000  0.54973000  0.10149000  1.0
  O  O138  1  0.30999000  0.04973000  0.60149000  1.0
  O  O139  1  0.80998000  0.45027000  0.89851000  1.0
