# generated using pymatgen
data_GdP2H13C6NO11
_symmetry_space_group_name_H-M   'P 1'
_cell_length_a   8.69508000
_cell_length_b   9.58085000
_cell_length_c   9.63166000
_cell_angle_alpha   109.38200000
_cell_angle_beta   111.54500000
_cell_angle_gamma   95.62890000
_symmetry_Int_Tables_number   1
_chemical_formula_structural   GdP2H13C6NO11
_chemical_formula_sum   'Gd2 P4 H26 C12 N2 O22'
_cell_volume   681.53856416
_cell_formula_units_Z   2
loop_
 _symmetry_equiv_pos_site_id
 _symmetry_equiv_pos_as_xyz
  1  'x, y, z'
loop_
 _atom_site_type_symbol
 _atom_site_label
 _atom_site_symmetry_multiplicity
 _atom_site_fract_x
 _atom_site_fract_y
 _atom_site_fract_z
 _atom_site_occupancy
  Gd  Gd0  1  0.37396000  0.17427000  0.26185000  1.0
  Gd  Gd1  1  0.62605000  0.82574000  0.73815000  1.0
  P  P2  1  0.26727000  0.48863000  0.50549000  1.0
  P  P3  1  0.73274000  0.51136000  0.49452000  1.0
  P  P4  1  0.19628000  0.37285000  0.98421000  1.0
  P  P5  1  0.80372000  0.62715000  0.01580000  1.0
  H  H6  1  0.34475000  0.26467000  0.64579000  1.0
  H  H7  1  0.65525000  0.73533000  0.35421000  1.0
  H  H8  1  0.99841000  0.44976000  0.37577000  1.0
  H  H9  1  0.00160000  0.55024000  0.62419000  1.0
  H  H10  1  0.14338000  0.60415000  0.06384000  1.0
  H  H11  1  0.85661000  0.39585000  0.93616000  1.0
  H  H12  1  0.98494000  0.03545000  0.13922000  1.0
  H  H13  1  0.01507000  0.96456000  0.86079000  1.0
  H  H14  1  0.06434000  0.89497000  0.14641000  1.0
  H  H15  1  0.93566000  0.10503000  0.85360000  1.0
  H  H16  1  0.10238000  0.04038000  0.68058000  1.0
  H  H17  1  0.89762000  0.95961000  0.31940000  1.0
  H  H18  1  0.18845000  0.01687000  0.53630000  1.0
  H  H19  1  0.81154000  0.98313000  0.46367000  1.0
  H  H20  1  0.99761000  0.26004000  0.63068000  1.0
  H  H21  1  0.00238000  0.73996000  0.36932000  1.0
  H  H22  1  0.05662000  0.22220000  0.46494000  1.0
  H  H23  1  0.94338000  0.77780000  0.53506000  1.0
  H  H24  1  0.32553000  0.20052000  0.84961000  1.0
  H  H25  1  0.67445000  0.79947000  0.15039000  1.0
  H  H26  1  0.44992000  0.38721000  0.93468000  1.0
  H  H27  1  0.55007000  0.61278000  0.06532000  1.0
  H  H28  1  0.22806000  0.54475000  0.76277000  1.0
  H  H29  1  0.77193000  0.45525000  0.23723000  1.0
  H  H30  1  0.43320000  0.52870000  0.77869000  1.0
  H  H31  1  0.56679000  0.47130000  0.22131000  1.0
  C  C32  1  0.08479000  0.05250000  0.56674000  1.0
  C  C33  1  0.91521000  0.94750000  0.43325000  1.0
  C  C34  1  0.08714000  0.21572000  0.58298000  1.0
  C  C35  1  0.91286000  0.78428000  0.41701000  1.0
  C  C36  1  0.31824000  0.31710000  0.86143000  1.0
  C  C37  1  0.68175000  0.68290000  0.13857000  1.0
  C  C38  1  0.29605000  0.47689000  0.70131000  1.0
  C  C39  1  0.70395000  0.52310000  0.29869000  1.0
  C  C40  1  0.59381000  0.04800000  0.05973000  1.0
  C  C41  1  0.40618000  0.95200000  0.94027000  1.0
  C  C42  1  0.50784000  0.93753000  0.42963000  1.0
  C  C43  1  0.49217000  0.06247000  0.57037000  1.0
  N  N44  1  0.26322000  0.31799000  0.69524000  1.0
  N  N45  1  0.73677000  0.68201000  0.30477000  1.0
  O  O46  1  0.46632000  0.95188000  0.29610000  1.0
  O  O47  1  0.53371000  0.04813000  0.70392000  1.0
  O  O48  1  0.61354000  0.15910000  0.18615000  1.0
  O  O49  1  0.38645000  0.84089000  0.81384000  1.0
  O  O50  1  0.56566000  0.83061000  0.46356000  1.0
  O  O51  1  0.43434000  0.16938000  0.53644000  1.0
  O  O52  1  0.71121000  0.00558000  0.01988000  1.0
  O  O53  1  0.28879000  0.99441000  0.98012000  1.0
  O  O54  1  0.09458000  0.54003000  0.43313000  1.0
  O  O55  1  0.90544000  0.45997000  0.56688000  1.0
  O  O56  1  0.23846000  0.32837000  0.38784000  1.0
  O  O57  1  0.76155000  0.67164000  0.61217000  1.0
  O  O58  1  0.40792000  0.61904000  0.54557000  1.0
  O  O59  1  0.59209000  0.38096000  0.45444000  1.0
  O  O60  1  0.00533000  0.29814000  0.89648000  1.0
  O  O61  1  0.99465000  0.70186000  0.10352000  1.0
  O  O62  1  0.29888000  0.33202000  0.12409000  1.0
  O  O63  1  0.70111000  0.66798000  0.87591000  1.0
  O  O64  1  0.23007000  0.55316000  0.03509000  1.0
  O  O65  1  0.76992000  0.44684000  0.96492000  1.0
  O  O66  1  0.09413000  0.00826000  0.17912000  1.0
  O  O67  1  0.90587000  0.99175000  0.82089000  1.0
