# generated using pymatgen
data_UH6(C4O3)2
_symmetry_space_group_name_H-M   'P 1'
_cell_length_a   7.78195000
_cell_length_b   9.45600000
_cell_length_c   13.19670000
_cell_angle_alpha   77.69290000
_cell_angle_beta   87.40300000
_cell_angle_gamma   82.99050000
_symmetry_Int_Tables_number   1
_chemical_formula_structural   UH6(C4O3)2
_chemical_formula_sum   'U4 H24 C32 O24'
_cell_volume   941.49965753
_cell_formula_units_Z   4
loop_
 _symmetry_equiv_pos_site_id
 _symmetry_equiv_pos_as_xyz
  1  'x, y, z'
loop_
 _atom_site_type_symbol
 _atom_site_label
 _atom_site_symmetry_multiplicity
 _atom_site_fract_x
 _atom_site_fract_y
 _atom_site_fract_z
 _atom_site_occupancy
  U  U0  1  0.64467000  0.82703000  0.52071000  1.0
  U  U1  1  0.35576000  0.17261000  0.47935000  1.0
  U  U2  1  0.13547000  0.88552000  0.42289000  1.0
  U  U3  1  0.86477000  0.11453000  0.57707000  1.0
  H  H4  1  0.82347000  0.64715000  0.70812000  1.0
  H  H5  1  0.17693000  0.35367000  0.29199000  1.0
  H  H6  1  0.96109000  0.63505000  0.61923000  1.0
  H  H7  1  0.03938000  0.36512000  0.38100000  1.0
  H  H8  1  0.34656000  0.57801000  0.38510000  1.0
  H  H9  1  0.65143000  0.42173000  0.61583000  1.0
  H  H10  1  0.40065000  0.70966000  0.30055000  1.0
  H  H11  1  0.59772000  0.28847000  0.69939000  1.0
  H  H12  1  0.04294000  0.92668000  0.90371000  1.0
  H  H13  1  0.95707000  0.07495000  0.09760000  1.0
  H  H14  1  0.16229000  0.83259000  0.08228000  1.0
  H  H15  1  0.83876000  0.16858000  0.91872000  1.0
  H  H16  1  0.67879000  0.83577000  0.95337000  1.0
  H  H17  1  0.32147000  0.16334000  0.04642000  1.0
  H  H18  1  0.48069000  0.78030000  0.10481000  1.0
  H  H19  1  0.52037000  0.21946000  0.89544000  1.0
  H  H20  1  0.91004000  0.65977000  0.00402000  1.0
  H  H21  1  0.08892000  0.33957000  0.99505000  1.0
  H  H22  1  0.71578000  0.46364000  0.01847000  1.0
  H  H23  1  0.28358000  0.53522000  0.98143000  1.0
  H  H24  1  0.97156000  0.74771000  0.16316000  1.0
  H  H25  1  0.02751000  0.25270000  0.83534000  1.0
  H  H26  1  0.60310000  0.34734000  0.19201000  1.0
  H  H27  1  0.39725000  0.65203000  0.80823000  1.0
  C  C28  1  0.60064000  0.93611000  0.75366000  1.0
  C  C29  1  0.39878000  0.06339000  0.24637000  1.0
  C  C30  1  0.22093000  0.99640000  0.72475000  1.0
  C  C31  1  0.77872000  0.00433000  0.27586000  1.0
  C  C32  1  0.72959000  0.47762000  0.27403000  1.0
  C  C33  1  0.27071000  0.52243000  0.72566000  1.0
  C  C34  1  0.47438000  0.91239000  0.84366000  1.0
  C  C35  1  0.52536000  0.08734000  0.15663000  1.0
  C  C36  1  0.83224000  0.59257000  0.26553000  1.0
  C  C37  1  0.16782000  0.40777000  0.73366000  1.0
  C  C38  1  0.18223000  0.90558000  0.91603000  1.0
  C  C39  1  0.81788000  0.09543000  0.08484000  1.0
  C  C40  1  0.24876000  0.85125000  0.01481000  1.0
  C  C41  1  0.75186000  0.14939000  0.98592000  1.0
  C  C42  1  0.53939000  0.85453000  0.94267000  1.0
  C  C43  1  0.46085000  0.14501000  0.05748000  1.0
  C  C44  1  0.86499000  0.65317000  0.35684000  1.0
  C  C45  1  0.13556000  0.34751000  0.64218000  1.0
  C  C46  1  0.68707000  0.38486000  0.37689000  1.0
  C  C47  1  0.31354000  0.61512000  0.62287000  1.0
  C  C48  1  0.42756000  0.82321000  0.02795000  1.0
  C  C49  1  0.57312000  0.17672000  0.97243000  1.0
  C  C50  1  0.29359000  0.93587000  0.82955000  1.0
  C  C51  1  0.70608000  0.06460000  0.17104000  1.0
  C  C52  1  0.85639000  0.61047000  0.07923000  1.0
  C  C53  1  0.14285000  0.38916000  0.91997000  1.0
  C  C54  1  0.74861000  0.50031000  0.08734000  1.0
  C  C55  1  0.25099000  0.49895000  0.91236000  1.0
  C  C56  1  0.89441000  0.65799000  0.16765000  1.0
  C  C57  1  0.10491000  0.34219000  0.83128000  1.0
  C  C58  1  0.68419000  0.43528000  0.18440000  1.0
  C  C59  1  0.31590000  0.56432000  0.81550000  1.0
  O  O60  1  0.37989000  0.92393000  0.47937000  1.0
  O  O61  1  0.62062000  0.07579000  0.52076000  1.0
  O  O62  1  0.61582000  0.83888000  0.69837000  1.0
  O  O63  1  0.38297000  0.16063000  0.30165000  1.0
  O  O64  1  0.84053000  0.61780000  0.64162000  1.0
  O  O65  1  0.16002000  0.38231000  0.35874000  1.0
  O  O66  1  0.81724000  0.32396000  0.43267000  1.0
  O  O67  1  0.18340000  0.67607000  0.56708000  1.0
  O  O68  1  0.69192000  0.04105000  0.74023000  1.0
  O  O69  1  0.30764000  0.95837000  0.25961000  1.0
  O  O70  1  0.32144000  0.06415000  0.65698000  1.0
  O  O71  1  0.67848000  0.93598000  0.34349000  1.0
  O  O72  1  0.99913000  0.71892000  0.35509000  1.0
  O  O73  1  0.00139000  0.28204000  0.64351000  1.0
  O  O74  1  0.53044000  0.36352000  0.39810000  1.0
  O  O75  1  0.47027000  0.63600000  0.60151000  1.0
  O  O76  1  0.06489000  0.98041000  0.70840000  1.0
  O  O77  1  0.93448000  0.02091000  0.29234000  1.0
  O  O78  1  0.36126000  0.68176000  0.37223000  1.0
  O  O79  1  0.63881000  0.31764000  0.62816000  1.0
  O  O80  1  0.90196000  0.89412000  0.52826000  1.0
  O  O81  1  0.09820000  0.10575000  0.47216000  1.0
  O  O82  1  0.75220000  0.64333000  0.43075000  1.0
  O  O83  1  0.24906000  0.35721000  0.56863000  1.0
