# generated using pymatgen
data_Ag5H16C20(N3O5)3
_symmetry_space_group_name_H-M   'P 1'
_cell_length_a   8.00395000
_cell_length_b   11.56707837
_cell_length_c   17.55000000
_cell_angle_alpha   76.94539573
_cell_angle_beta   90.01700000
_cell_angle_gamma   69.75626069
_symmetry_Int_Tables_number   1
_chemical_formula_structural   Ag5H16C20(N3O5)3
_chemical_formula_sum   'Ag10 H32 C40 N18 O30'
_cell_volume   1479.57286439
_cell_formula_units_Z   2
loop_
 _symmetry_equiv_pos_site_id
 _symmetry_equiv_pos_as_xyz
  1  'x, y, z'
loop_
 _atom_site_type_symbol
 _atom_site_label
 _atom_site_symmetry_multiplicity
 _atom_site_fract_x
 _atom_site_fract_y
 _atom_site_fract_z
 _atom_site_occupancy
  Ag  Ag0  1  0.99033000  0.38757000  0.83732000  1.0
  Ag  Ag1  1  0.37771000  0.61236000  0.66255000  1.0
  Ag  Ag2  1  0.00967000  0.61243000  0.16268000  1.0
  Ag  Ag3  1  0.62229000  0.38764000  0.33745000  1.0
  Ag  Ag4  1  0.94343000  0.00002000  0.74997000  1.0
  Ag  Ag5  1  0.05658000  0.99998000  0.25003000  1.0
  Ag  Ag6  1  0.36623000  0.24507000  0.82470000  1.0
  Ag  Ag7  1  0.61098000  0.75488000  0.67533000  1.0
  Ag  Ag8  1  0.63377000  0.75493000  0.17530000  1.0
  Ag  Ag9  1  0.38902000  0.24512000  0.32467000  1.0
  H  H10  1  0.16024000  0.14844000  0.11126000  1.0
  H  H11  1  0.30857000  0.85147000  0.38857000  1.0
  H  H12  1  0.83976000  0.85156000  0.88874000  1.0
  H  H13  1  0.69142000  0.14854000  0.61143000  1.0
  H  H14  1  0.31869000  0.99064000  0.87376000  1.0
  H  H15  1  0.30945000  0.00938000  0.62603000  1.0
  H  H16  1  0.68130000  0.00936000  0.12624000  1.0
  H  H17  1  0.69055000  0.99062000  0.37397000  1.0
  H  H18  1  0.25407000  0.84844000  0.99005000  1.0
  H  H19  1  0.10297000  0.15170000  0.50962000  1.0
  H  H20  1  0.74593000  0.15156000  0.00995000  1.0
  H  H21  1  0.89703000  0.84830000  0.49039000  1.0
  H  H22  1  0.17074000  0.92862000  0.11139000  1.0
  H  H23  1  0.09962000  0.07145000  0.38832000  1.0
  H  H24  1  0.82926000  0.07138000  0.88861000  1.0
  H  H25  1  0.90038000  0.92855000  0.61168000  1.0
  H  H26  1  0.39056000  0.25468000  0.10523000  1.0
  H  H27  1  0.64532000  0.74513000  0.39475000  1.0
  H  H28  1  0.60945000  0.74532000  0.89477000  1.0
  H  H29  1  0.35468000  0.25487000  0.60525000  1.0
  H  H30  1  0.09254000  0.59600000  0.87233000  1.0
  H  H31  1  0.68872000  0.40400000  0.62771000  1.0
  H  H32  1  0.90747000  0.40399000  0.12767000  1.0
  H  H33  1  0.31128000  0.59600000  0.37229000  1.0
  H  H34  1  0.39589000  0.46959000  0.09820000  1.0
  H  H35  1  0.86559000  0.53016000  0.40184000  1.0
  H  H36  1  0.60411000  0.53041000  0.90180000  1.0
  H  H37  1  0.13440000  0.46984000  0.59815000  1.0
  H  H38  1  0.24530000  0.64608000  0.97801000  1.0
  H  H39  1  0.89148000  0.35375000  0.52210000  1.0
  H  H40  1  0.75470000  0.35392000  0.02199000  1.0
  H  H41  1  0.10851000  0.64625000  0.47790000  1.0
  C  C42  1  0.23957000  0.18249000  0.99328000  1.0
  C  C43  1  0.42202000  0.81743000  0.50655000  1.0
  C  C44  1  0.76042000  0.81751000  0.00673000  1.0
  C  C45  1  0.57798000  0.18257000  0.49344000  1.0
  C  C46  1  0.23946000  0.31127000  0.99222000  1.0
  C  C47  1  0.55073000  0.68861000  0.50770000  1.0
  C  C48  1  0.76055000  0.68872000  0.00778000  1.0
  C  C49  1  0.44927000  0.31139000  0.49230000  1.0
  C  C50  1  0.19818000  0.10919000  0.06025000  1.0
  C  C51  1  0.30736000  0.89074000  0.43956000  1.0
  C  C52  1  0.80183000  0.89080000  0.93975000  1.0
  C  C53  1  0.69265000  0.10926000  0.56043000  1.0
  C  C54  1  0.28575000  0.02107000  0.92796000  1.0
  C  C55  1  0.30696000  0.97892000  0.57182000  1.0
  C  C56  1  0.71424000  0.97893000  0.07204000  1.0
  C  C57  1  0.69305000  0.02108000  0.42818000  1.0
  C  C58  1  0.24809000  0.94271000  0.99289000  1.0
  C  C59  1  0.19109000  0.05738000  0.50683000  1.0
  C  C60  1  0.75190000  0.05729000  0.00711000  1.0
  C  C61  1  0.80890000  0.94263000  0.49317000  1.0
  C  C62  1  0.20286000  0.98765000  0.06009000  1.0
  C  C63  1  0.19073000  0.01240000  0.43965000  1.0
  C  C64  1  0.79714000  0.01235000  0.93991000  1.0
  C  C65  1  0.80927000  0.98760000  0.56035000  1.0
  C  C66  1  0.32396000  0.33236000  0.05469000  1.0
  C  C67  1  0.65642000  0.66748000  0.44531000  1.0
  C  C68  1  0.67604000  0.66764000  0.94532000  1.0
  C  C69  1  0.34357000  0.33252000  0.55469000  1.0
  C  C70  1  0.16016000  0.52352000  0.92502000  1.0
  C  C71  1  0.68385000  0.47643000  0.57500000  1.0
  C  C72  1  0.83985000  0.47647000  0.07498000  1.0
  C  C73  1  0.31615000  0.52357000  0.42500000  1.0
  C  C74  1  0.32667000  0.45342000  0.05063000  1.0
  C  C75  1  0.78022000  0.54638000  0.44939000  1.0
  C  C76  1  0.67333000  0.54658000  0.94937000  1.0
  C  C77  1  0.21978000  0.45362000  0.55060000  1.0
  C  C78  1  0.24459000  0.55045000  0.98445000  1.0
  C  C79  1  0.79515000  0.44940000  0.51558000  1.0
  C  C80  1  0.75541000  0.44955000  0.01555000  1.0
  C  C81  1  0.20485000  0.55060000  0.48442000  1.0
  N  N82  1  0.28287000  0.13823000  0.92806000  1.0
  N  N83  1  0.42108000  0.86170000  0.57178000  1.0
  N  N84  1  0.71713000  0.86177000  0.07194000  1.0
  N  N85  1  0.57893000  0.13830000  0.42821000  1.0
  N  N86  1  0.15677000  0.40676000  0.92879000  1.0
  N  N87  1  0.56358000  0.59318000  0.57116000  1.0
  N  N88  1  0.84324000  0.59323000  0.07121000  1.0
  N  N89  1  0.43642000  0.40682000  0.42884000  1.0
  N  N90  1  0.63329000  0.36963000  0.79911000  1.0
  N  N91  1  0.00281000  0.63036000  0.70088000  1.0
  N  N92  1  0.36671000  0.63037000  0.20089000  1.0
  N  N93  1  0.99718000  0.36964000  0.29912000  1.0
  N  N94  1  0.57414000  0.00011000  0.75002000  1.0
  N  N95  1  0.42586000  0.99989000  0.24998000  1.0
  N  N96  1  0.04203000  0.22383000  0.71228000  1.0
  N  N97  1  0.26589000  0.77620000  0.78762000  1.0
  N  N98  1  0.95798000  0.77616000  0.28772000  1.0
  N  N99  1  0.73411000  0.22380000  0.21238000  1.0
  O  O100  1  0.60832000  0.09791000  0.75663000  1.0
  O  O101  1  0.70568000  0.90203000  0.74349000  1.0
  O  O102  1  0.39168000  0.90209000  0.24337000  1.0
  O  O103  1  0.29432000  0.09797000  0.25651000  1.0
  O  O104  1  0.73018000  0.43123000  0.76715000  1.0
  O  O105  1  0.16138000  0.56877000  0.73285000  1.0
  O  O106  1  0.26982000  0.56877000  0.23285000  1.0
  O  O107  1  0.83862000  0.43123000  0.26716000  1.0
  O  O108  1  0.66094000  0.31172000  0.86993000  1.0
  O  O109  1  0.97242000  0.68810000  0.63003000  1.0
  O  O110  1  0.33906000  0.68828000  0.13007000  1.0
  O  O111  1  0.02757000  0.31190000  0.36997000  1.0
  O  O112  1  0.50428000  0.37053000  0.75519000  1.0
  O  O113  1  0.87478000  0.62963000  0.74484000  1.0
  O  O114  1  0.49572000  0.62947000  0.24481000  1.0
  O  O115  1  0.12521000  0.37037000  0.25516000  1.0
  O  O116  1  0.41761000  0.00040000  0.74994000  1.0
  O  O117  1  0.58239000  0.99960000  0.25006000  1.0
  O  O118  1  0.10169000  0.31338000  0.70585000  1.0
  O  O119  1  0.41515000  0.68670000  0.79398000  1.0
  O  O120  1  0.89832000  0.68662000  0.29415000  1.0
  O  O121  1  0.58485000  0.31330000  0.20601000  1.0
  O  O122  1  0.00194000  0.17472000  0.77960000  1.0
  O  O123  1  0.17660000  0.82548000  0.72030000  1.0
  O  O124  1  0.99806000  0.82528000  0.22039000  1.0
  O  O125  1  0.82340000  0.17452000  0.27970000  1.0
  O  O126  1  0.02139000  0.18220000  0.65364000  1.0
  O  O127  1  0.20370000  0.81761000  0.84632000  1.0
  O  O128  1  0.97862000  0.81780000  0.34636000  1.0
  O  O129  1  0.79632000  0.18238000  0.15368000  1.0
