# generated using pymatgen
data_Zr3H24C30BrO16
_symmetry_space_group_name_H-M   'P 1'
_cell_length_a   14.76509894
_cell_length_b   14.77230000
_cell_length_c   14.78096564
_cell_angle_alpha   119.96164694
_cell_angle_beta   119.73369197
_cell_angle_gamma   60.03404519
_symmetry_Int_Tables_number   1
_chemical_formula_structural   Zr3H24C30BrO16
_chemical_formula_sum   'Zr6 H48 C60 Br2 O32'
_cell_volume   2285.47834174
_cell_formula_units_Z   2
loop_
 _symmetry_equiv_pos_site_id
 _symmetry_equiv_pos_as_xyz
  1  'x, y, z'
loop_
 _atom_site_type_symbol
 _atom_site_label
 _atom_site_symmetry_multiplicity
 _atom_site_fract_x
 _atom_site_fract_y
 _atom_site_fract_z
 _atom_site_occupancy
  Zr  Zr0  1  0.11995000  0.37479000  0.61482000  1.0
  Zr  Zr1  1  0.88430000  0.61839000  0.38108000  1.0
  Zr  Zr2  1  0.12309000  0.61532000  0.61970000  1.0
  Zr  Zr3  1  0.88135000  0.37897000  0.37800000  1.0
  Zr  Zr4  1  0.12123000  0.37843000  0.37842000  1.0
  Zr  Zr5  1  0.88312000  0.61644000  0.61863000  1.0
  H  H6  1  0.28481000  0.40025000  0.58834000  1.0
  H  H7  1  0.91021000  0.40549000  0.21586000  1.0
  H  H8  1  0.91036000  0.77932000  0.59733000  1.0
  H  H9  1  0.90441000  0.40402000  0.59021000  1.0
  H  H10  1  0.45197000  0.12856000  0.41328000  1.0
  H  H11  1  0.53886000  0.85242000  0.56413000  1.0
  H  H12  1  0.93171000  0.67108000  0.95741000  1.0
  H  H13  1  0.08621000  0.33474000  0.05197000  1.0
  H  H14  1  0.85517000  0.09913000  0.07950000  1.0
  H  H15  1  0.16866000  0.87648000  0.93701000  1.0
  H  H16  1  0.57639000  0.37812000  0.34427000  1.0
  H  H17  1  0.40102000  0.64597000  0.63052000  1.0
  H  H18  1  0.28615000  0.51871000  0.04000000  1.0
  H  H19  1  0.34779000  0.37233000  0.98415000  1.0
  H  H20  1  0.51530000  0.37697000  0.15579000  1.0
  H  H21  1  0.45399000  0.52355000  0.21177000  1.0
  H  H22  1  0.13691000  0.09232000  0.63567000  1.0
  H  H23  1  0.86449000  0.90308000  0.36137000  1.0
  H  H24  1  0.61818000  0.04730000  0.38511000  1.0
  H  H25  1  0.73262000  0.96023000  0.46118000  1.0
  H  H26  1  0.65450000  0.89992000  0.32589000  1.0
  H  H27  1  0.36868000  0.93112000  0.58561000  1.0
  H  H28  1  0.34631000  0.07573000  0.65847000  1.0
  H  H29  1  0.25725000  0.03181000  0.52369000  1.0
  H  H30  1  0.83540000  0.73379000  0.15044000  1.0
  H  H31  1  0.96904000  0.73785000  0.23847000  1.0
  H  H32  1  0.90287000  0.78611000  0.12430000  1.0
  H  H33  1  0.04504000  0.26835000  0.76993000  1.0
  H  H34  1  0.18003000  0.26834000  0.85637000  1.0
  H  H35  1  0.10990000  0.21989000  0.88357000  1.0
  H  H36  1  0.75238000  0.99222000  0.94530000  1.0
  H  H37  1  0.77029000  0.92280000  0.81295000  1.0
  H  H38  1  0.82674000  0.84719000  0.90072000  1.0
  H  H39  1  0.19795000  0.12405000  0.10759000  1.0
  H  H40  1  0.24728000  0.06361000  0.20667000  1.0
  H  H41  1  0.27531000  0.97955000  0.07900000  1.0
  H  H42  1  0.44271000  0.29990000  0.24069000  1.0
  H  H43  1  0.40373000  0.27764000  0.32261000  1.0
  H  H44  1  0.30809000  0.37484000  0.25468000  1.0
  H  H45  1  0.52145000  0.73749000  0.72287000  1.0
  H  H46  1  0.66088000  0.64971000  0.73056000  1.0
  H  H47  1  0.59017000  0.73644000  0.65089000  1.0
  H  H48  1  0.22986000  0.97441000  0.73049000  1.0
  H  H49  1  0.14879000  0.92101000  0.73681000  1.0
  H  H50  1  0.23389000  0.83364000  0.65386000  1.0
  H  H51  1  0.77108000  0.02108000  0.26712000  1.0
  H  H52  1  0.76456000  0.16207000  0.34609000  1.0
  H  H53  1  0.84907000  0.07924000  0.26233000  1.0
  C  C54  1  0.29879000  0.18508000  0.49024000  1.0
  C  C55  1  0.00775000  0.50846000  0.20256000  1.0
  C  C56  1  0.69619000  0.80018000  0.49462000  1.0
  C  C57  1  0.00636000  0.49517000  0.80400000  1.0
  C  C58  1  0.30802000  0.48931000  0.79717000  1.0
  C  C59  1  0.99672000  0.19128000  0.49050000  1.0
  C  C60  1  0.70132000  0.49458000  0.19409000  1.0
  C  C61  1  0.00776000  0.80127000  0.50401000  1.0
  C  C62  1  0.29845000  0.50263000  0.48911000  1.0
  C  C63  1  0.00763000  0.79386000  0.81041000  1.0
  C  C64  1  0.69055000  0.50846000  0.49558000  1.0
  C  C65  1  0.00984000  0.18880000  0.19875000  1.0
  C  C66  1  0.59396000  0.89997000  0.49021000  1.0
  C  C67  1  0.39775000  0.08193000  0.48898000  1.0
  C  C68  1  0.57135000  0.97733000  0.44570000  1.0
  C  C69  1  0.41981000  0.00400000  0.53236000  1.0
  C  C70  1  0.47240000  0.06653000  0.44615000  1.0
  C  C71  1  0.51860000  0.91458000  0.53153000  1.0
  C  C72  1  0.00813000  0.51079000  0.10277000  1.0
  C  C73  1  0.00941000  0.49496000  0.90648000  1.0
  C  C74  1  0.96307000  0.60903000  0.07825000  1.0
  C  C75  1  0.05437000  0.39677000  0.93096000  1.0
  C  C76  1  0.96538000  0.59750000  0.97960000  1.0
  C  C77  1  0.05280000  0.40834000  0.02991000  1.0
  C  C78  1  0.00650000  0.89348000  0.91292000  1.0
  C  C79  1  0.01613000  0.08351000  0.10209000  1.0
  C  C80  1  0.91529000  0.95486000  0.95248000  1.0
  C  C81  1  0.10832000  0.02093000  0.06396000  1.0
  C  C82  1  0.92390000  0.04863000  0.04685000  1.0
  C  C83  1  0.09982000  0.92703000  0.96955000  1.0
  C  C84  1  0.39432000  0.50593000  0.48227000  1.0
  C  C85  1  0.58546000  0.51545000  0.49459000  1.0
  C  C86  1  0.44112000  0.42893000  0.39698000  1.0
  C  C87  1  0.53615000  0.59523000  0.57759000  1.0
  C  C88  1  0.53631000  0.43662000  0.40690000  1.0
  C  C89  1  0.44101000  0.58738000  0.56778000  1.0
  C  C90  1  0.41499000  0.47996000  0.89079000  1.0
  C  C91  1  0.60794000  0.48386000  0.08697000  1.0
  C  C92  1  0.42382000  0.46751000  0.98229000  1.0
  C  C93  1  0.60500000  0.48609000  0.99094000  1.0
  C  C94  1  0.51674000  0.46973000  0.07708000  1.0
  C  C95  1  0.51065000  0.48473000  0.89539000  1.0
  C  C96  1  0.36348000  0.45156000  0.02888000  1.0
  C  C97  1  0.46890000  0.45447000  0.13679000  1.0
  C  C98  1  0.00798000  0.90304000  0.50561000  1.0
  C  C99  1  0.99434000  0.09148000  0.49053000  1.0
  C  C100  1  0.08735000  0.95588000  0.58670000  1.0
  C  C101  1  0.91381000  0.03975000  0.41052000  1.0
  C  C102  1  0.07738000  0.04918000  0.57566000  1.0
  C  C103  1  0.92412000  0.94613000  0.42127000  1.0
  C  C104  1  0.64805000  0.97097000  0.40210000  1.0
  C  C105  1  0.34388000  0.01075000  0.57707000  1.0
  C  C106  1  0.91530000  0.72291000  0.15184000  1.0
  C  C107  1  0.09960000  0.28227000  0.85629000  1.0
  C  C108  1  0.81054000  0.92804000  0.90014000  1.0
  C  C109  1  0.21301000  0.04809000  0.11728000  1.0
  C  C110  1  0.39649000  0.34076000  0.29826000  1.0
  C  C111  1  0.57915000  0.68476000  0.67557000  1.0
  C  C112  1  0.18011000  0.91940000  0.68215000  1.0
  C  C113  1  0.81953000  0.07739000  0.31631000  1.0
  Br  Br114  1  0.73598000  0.48085000  0.98974000  1.0
  Br  Br115  1  0.51329000  0.48019000  0.76574000  1.0
  O  O116  1  0.25861000  0.22605000  0.56720000  1.0
  O  O117  1  0.93120000  0.58435000  0.24338000  1.0
  O  O118  1  0.73848000  0.75870000  0.41910000  1.0
  O  O119  1  0.08164000  0.41788000  0.76177000  1.0
  O  O120  1  0.26740000  0.57027000  0.76343000  1.0
  O  O121  1  0.92054000  0.23360000  0.41565000  1.0
  O  O122  1  0.73680000  0.42066000  0.23607000  1.0
  O  O123  1  0.08273000  0.76053000  0.58027000  1.0
  O  O124  1  0.26228000  0.42218000  0.41757000  1.0
  O  O125  1  0.92991000  0.75415000  0.76692000  1.0
  O  O126  1  0.73533000  0.58099000  0.57423000  1.0
  O  O127  1  0.08194000  0.23372000  0.23578000  1.0
  O  O128  1  0.08481000  0.75522000  0.77110000  1.0
  O  O129  1  0.73022000  0.42961000  0.41921000  1.0
  O  O130  1  0.93154000  0.22881000  0.23691000  1.0
  O  O131  1  0.26059000  0.57831000  0.56770000  1.0
  O  O132  1  0.26504000  0.41646000  0.76173000  1.0
  O  O133  1  0.93125000  0.76183000  0.42631000  1.0
  O  O134  1  0.73552000  0.57507000  0.23539000  1.0
  O  O135  1  0.07486000  0.22907000  0.56670000  1.0
  O  O136  1  0.92895000  0.57261000  0.76575000  1.0
  O  O137  1  0.26310000  0.22745000  0.41661000  1.0
  O  O138  1  0.08208000  0.42827000  0.23809000  1.0
  O  O139  1  0.73437000  0.76278000  0.57265000  1.0
  O  O140  1  0.93276000  0.43004000  0.56419000  1.0
  O  O141  1  0.93642000  0.69899000  0.56895000  1.0
  O  O142  1  0.93486000  0.43195000  0.29608000  1.0
  O  O143  1  0.20452000  0.42780000  0.56440000  1.0
  O  O144  1  0.05251000  0.54775000  0.45065000  1.0
  O  O145  1  0.05044000  0.34784000  0.44681000  1.0
  O  O146  1  0.85336000  0.54786000  0.44920000  1.0
  O  O147  1  0.05242000  0.54436000  0.64703000  1.0
