# generated using pymatgen
data_AgH3C4SN3(OF)3
_symmetry_space_group_name_H-M   'P 1'
_cell_length_a   8.17040000
_cell_length_b   9.20735000
_cell_length_c   11.92410000
_cell_angle_alpha   89.99970000
_cell_angle_beta   89.99990000
_cell_angle_gamma   89.99990000
_symmetry_Int_Tables_number   1
_chemical_formula_structural   AgH3C4SN3(OF)3
_chemical_formula_sum   'Ag4 H12 C16 S4 N12 O12 F12'
_cell_volume   897.02300437
_cell_formula_units_Z   4
loop_
 _symmetry_equiv_pos_site_id
 _symmetry_equiv_pos_as_xyz
  1  'x, y, z'
loop_
 _atom_site_type_symbol
 _atom_site_label
 _atom_site_symmetry_multiplicity
 _atom_site_fract_x
 _atom_site_fract_y
 _atom_site_fract_z
 _atom_site_occupancy
  Ag  Ag0  1  0.28674000  0.88141000  0.18292000  1.0
  Ag  Ag1  1  0.78674000  0.38142000  0.31708000  1.0
  Ag  Ag2  1  0.78674000  0.11859000  0.81708000  1.0
  Ag  Ag3  1  0.28674000  0.61858000  0.68293000  1.0
  H  H4  1  0.24942000  0.80672000  0.44585000  1.0
  H  H5  1  0.74942000  0.30673000  0.05415000  1.0
  H  H6  1  0.74943000  0.19328000  0.55415000  1.0
  H  H7  1  0.24942000  0.69328000  0.94585000  1.0
  H  H8  1  0.58424000  0.65798000  0.20787000  1.0
  H  H9  1  0.08424000  0.15798000  0.29213000  1.0
  H  H10  1  0.08424000  0.34202000  0.79213000  1.0
  H  H11  1  0.58424000  0.84202000  0.70787000  1.0
  H  H12  1  0.56889000  0.47118000  0.52431000  1.0
  H  H13  1  0.06890000  0.97118000  0.97570000  1.0
  H  H14  1  0.06890000  0.52882000  0.47569000  1.0
  H  H15  1  0.56890000  0.02882000  0.02430000  1.0
  C  C16  1  0.52795000  0.65025000  0.29039000  1.0
  C  C17  1  0.02794000  0.15026000  0.20962000  1.0
  C  C18  1  0.02795000  0.34974000  0.70962000  1.0
  C  C19  1  0.52794000  0.84974000  0.79038000  1.0
  C  C20  1  0.34683000  0.73262000  0.42086000  1.0
  C  C21  1  0.84683000  0.23263000  0.07914000  1.0
  C  C22  1  0.84683000  0.26738000  0.57914000  1.0
  C  C23  1  0.34683000  0.76737000  0.92086000  1.0
  C  C24  1  0.52336000  0.55085000  0.46460000  1.0
  C  C25  1  0.02336000  0.05085000  0.03540000  1.0
  C  C26  1  0.02336000  0.44915000  0.53540000  1.0
  C  C27  1  0.52336000  0.94915000  0.96460000  1.0
  C  C28  1  0.36982000  0.13870000  0.56409000  1.0
  C  C29  1  0.86983000  0.63870000  0.93591000  1.0
  C  C30  1  0.86983000  0.86130000  0.43591000  1.0
  C  C31  1  0.36983000  0.36130000  0.06409000  1.0
  S  S32  1  0.39372000  0.18883000  0.41358000  1.0
  S  S33  1  0.89372000  0.68883000  0.08642000  1.0
  S  S34  1  0.89372000  0.81117000  0.58642000  1.0
  S  S35  1  0.39372000  0.31117000  0.91358000  1.0
  N  N36  1  0.40209000  0.73851000  0.31486000  1.0
  N  N37  1  0.90209000  0.23852000  0.18514000  1.0
  N  N38  1  0.90209000  0.26148000  0.68514000  1.0
  N  N39  1  0.40209000  0.76148000  0.81486000  1.0
  N  N40  1  0.40440000  0.85928000  0.99842000  1.0
  N  N41  1  0.90441000  0.35928000  0.50157000  1.0
  N  N42  1  0.90440000  0.14072000  0.00158000  1.0
  N  N43  1  0.40440000  0.64071000  0.49843000  1.0
  N  N44  1  0.09117000  0.05407000  0.13753000  1.0
  N  N45  1  0.59118000  0.55406000  0.36247000  1.0
  N  N46  1  0.59118000  0.94593000  0.86247000  1.0
  N  N47  1  0.09118000  0.44593000  0.63753000  1.0
  O  O48  1  0.30149000  0.32407000  0.40330000  1.0
  O  O49  1  0.80149000  0.82407000  0.09669000  1.0
  O  O50  1  0.80149000  0.67593000  0.59669000  1.0
  O  O51  1  0.30149000  0.17593000  0.90331000  1.0
  O  O52  1  0.32196000  0.06440000  0.35613000  1.0
  O  O53  1  0.82195000  0.56440000  0.14387000  1.0
  O  O54  1  0.82197000  0.93561000  0.64387000  1.0
  O  O55  1  0.32196000  0.43560000  0.85613000  1.0
  O  O56  1  0.57115000  0.20265000  0.40254000  1.0
  O  O57  1  0.07115000  0.70266000  0.09746000  1.0
  O  O58  1  0.07115000  0.79735000  0.59746000  1.0
  O  O59  1  0.57115000  0.29735000  0.90254000  1.0
  F  F60  1  0.21025000  0.12285000  0.59247000  1.0
  F  F61  1  0.71026000  0.62285000  0.90753000  1.0
  F  F62  1  0.71026000  0.87715000  0.40753000  1.0
  F  F63  1  0.21026000  0.37715000  0.09247000  1.0
  F  F64  1  0.44720000  0.01115000  0.58617000  1.0
  F  F65  1  0.94721000  0.51115000  0.91383000  1.0
  F  F66  1  0.94720000  0.98885000  0.41382000  1.0
  F  F67  1  0.44721000  0.48885000  0.08617000  1.0
  F  F68  1  0.43629000  0.24229000  0.63214000  1.0
  F  F69  1  0.93630000  0.74230000  0.86786000  1.0
  F  F70  1  0.93629000  0.75771000  0.36786000  1.0
  F  F71  1  0.43629000  0.25770000  0.13214000  1.0
