# generated using pymatgen
data_CdH14C14(NO)4
_symmetry_space_group_name_H-M   'P 1'
_cell_length_a   6.91474000
_cell_length_b   11.20510000
_cell_length_c   11.20520000
_cell_angle_alpha   64.90020000
_cell_angle_beta   72.02150000
_cell_angle_gamma   72.02150000
_symmetry_Int_Tables_number   1
_chemical_formula_structural   CdH14C14(NO)4
_chemical_formula_sum   'Cd2 H28 C28 N8 O8'
_cell_volume   731.72039041
_cell_formula_units_Z   2
loop_
 _symmetry_equiv_pos_site_id
 _symmetry_equiv_pos_as_xyz
  1  'x, y, z'
loop_
 _atom_site_type_symbol
 _atom_site_label
 _atom_site_symmetry_multiplicity
 _atom_site_fract_x
 _atom_site_fract_y
 _atom_site_fract_z
 _atom_site_occupancy
  Cd  Cd0  1  0.41721000  0.99996000  0.00002000  1.0
  Cd  Cd1  1  0.91722000  0.00001000  0.99996000  1.0
  H  H2  1  0.14405000  0.32095000  0.93873000  1.0
  H  H3  1  0.40370000  0.67904000  0.06127000  1.0
  H  H4  1  0.64405000  0.93873000  0.32095000  1.0
  H  H5  1  0.90370000  0.06127000  0.67904000  1.0
  H  H6  1  0.59660000  0.73446000  0.25156000  1.0
  H  H7  1  0.58261000  0.26542000  0.74852000  1.0
  H  H8  1  0.09660000  0.25156000  0.73446000  1.0
  H  H9  1  0.08261000  0.74852000  0.26542000  1.0
  H  H10  1  0.43944000  0.62990000  0.37713000  1.0
  H  H11  1  0.44645000  0.37008000  0.62297000  1.0
  H  H12  1  0.93945000  0.37713000  0.62990000  1.0
  H  H13  1  0.94645000  0.62297000  0.37008000  1.0
  H  H14  1  0.61298000  0.23234000  0.28599000  1.0
  H  H15  1  0.13142000  0.76754000  0.71418000  1.0
  H  H16  1  0.11299000  0.28600000  0.23234000  1.0
  H  H17  1  0.63142000  0.71418000  0.76754000  1.0
  H  H18  1  0.47079000  0.39836000  0.39801000  1.0
  H  H19  1  0.26732000  0.60161000  0.60206000  1.0
  H  H20  1  0.97079000  0.39801000  0.39836000  1.0
  H  H21  1  0.76732000  0.60207000  0.60161000  1.0
  H  H22  1  0.81184000  0.67855000  0.06084000  1.0
  H  H23  1  0.55133000  0.32133000  0.93925000  1.0
  H  H24  1  0.31184000  0.06084000  0.67855000  1.0
  H  H25  1  0.05133000  0.93925000  0.32133000  1.0
  H  H26  1  0.94688000  0.51482000  0.94875000  1.0
  H  H27  1  0.41040000  0.48499000  0.05144000  1.0
  H  H28  1  0.44688000  0.94876000  0.51482000  1.0
  H  H29  1  0.91040000  0.05145000  0.48499000  1.0
  C  C30  1  0.87597000  0.25286000  0.05369000  1.0
  C  C31  1  0.18245000  0.74705000  0.94639000  1.0
  C  C32  1  0.37597000  0.05369000  0.25286000  1.0
  C  C33  1  0.68246000  0.94639000  0.74705000  1.0
  C  C34  1  0.79718000  0.35810000  0.11236000  1.0
  C  C35  1  0.26762000  0.64173000  0.88781000  1.0
  C  C36  1  0.29717000  0.11237000  0.35810000  1.0
  C  C37  1  0.76761000  0.88781000  0.64173000  1.0
  C  C38  1  0.65805000  0.32964000  0.23806000  1.0
  C  C39  1  0.22582000  0.67022000  0.76208000  1.0
  C  C40  1  0.15805000  0.23806000  0.32964000  1.0
  C  C41  1  0.72582000  0.76208000  0.67022000  1.0
  C  C42  1  0.57895000  0.42271000  0.30086000  1.0
  C  C43  1  0.30268000  0.57720000  0.69923000  1.0
  C  C44  1  0.07895000  0.30086000  0.42271000  1.0
  C  C45  1  0.80268000  0.69923000  0.57720000  1.0
  C  C46  1  0.63837000  0.54879000  0.24111000  1.0
  C  C47  1  0.42840000  0.45113000  0.75897000  1.0
  C  C48  1  0.13837000  0.24111000  0.54879000  1.0
  C  C49  1  0.92840000  0.75898000  0.45113000  1.0
  C  C50  1  0.77115000  0.57965000  0.11198000  1.0
  C  C51  1  0.46293000  0.42024000  0.88812000  1.0
  C  C52  1  0.27115000  0.11198000  0.57965000  1.0
  C  C53  1  0.96293000  0.88812000  0.42023000  1.0
  C  C54  1  0.84891000  0.48575000  0.04939000  1.0
  C  C55  1  0.38407000  0.51409000  0.95077000  1.0
  C  C56  1  0.34891000  0.04939000  0.48576000  1.0
  C  C57  1  0.88407000  0.95078000  0.51409000  1.0
  N  N58  1  0.04710000  0.26036000  0.95536000  1.0
  N  N59  1  0.26276000  0.73962000  0.04465000  1.0
  N  N60  1  0.54709000  0.95536000  0.26036000  1.0
  N  N61  1  0.76276000  0.04465000  0.73962000  1.0
  N  N62  1  0.57452000  0.63731000  0.30748000  1.0
  N  N63  1  0.51937000  0.36260000  0.69261000  1.0
  N  N64  1  0.07451000  0.30748000  0.63730000  1.0
  N  N65  1  0.01937000  0.69261000  0.36260000  1.0
  O  O66  1  0.13627000  0.15929000  0.90386000  1.0
  O  O67  1  0.19940000  0.84075000  0.09607000  1.0
  O  O68  1  0.63628000  0.90386000  0.15929000  1.0
  O  O69  1  0.69940000  0.09607000  0.84075000  1.0
  O  O70  1  0.78078000  0.15711000  0.09567000  1.0
  O  O71  1  0.03352000  0.84281000  0.90436000  1.0
  O  O72  1  0.28078000  0.09567000  0.15711000  1.0
  O  O73  1  0.53352000  0.90435000  0.84281000  1.0
