# generated using pymatgen
data_CuH8C11SN3
_symmetry_space_group_name_H-M   'P 1'
_cell_length_a   7.67939000
_cell_length_b   11.56020000
_cell_length_c   12.24990000
_cell_angle_alpha   90.00020000
_cell_angle_beta   90.00010000
_cell_angle_gamma   90.00000000
_symmetry_Int_Tables_number   1
_chemical_formula_structural   CuH8C11SN3
_chemical_formula_sum   'Cu4 H32 C44 S4 N12'
_cell_volume   1087.48835487
_cell_formula_units_Z   4
loop_
 _symmetry_equiv_pos_site_id
 _symmetry_equiv_pos_as_xyz
  1  'x, y, z'
loop_
 _atom_site_type_symbol
 _atom_site_label
 _atom_site_symmetry_multiplicity
 _atom_site_fract_x
 _atom_site_fract_y
 _atom_site_fract_z
 _atom_site_occupancy
  Cu  Cu0  1  0.75709000  0.94137000  0.25000000  1.0
  Cu  Cu1  1  0.74291000  0.44137000  0.75000000  1.0
  Cu  Cu2  1  0.24290000  0.05863000  0.75000000  1.0
  Cu  Cu3  1  0.25710000  0.55862000  0.25000000  1.0
  H  H4  1  0.73752000  0.98109000  0.50188000  1.0
  H  H5  1  0.76248000  0.48109000  0.49812000  1.0
  H  H6  1  0.26248000  0.01891000  0.00188000  1.0
  H  H7  1  0.23752000  0.51891000  0.99812000  1.0
  H  H8  1  0.26248000  0.01891000  0.49812000  1.0
  H  H9  1  0.23752000  0.51891000  0.50188000  1.0
  H  H10  1  0.73752000  0.98109000  0.99812000  1.0
  H  H11  1  0.76248000  0.48109000  0.00188000  1.0
  H  H12  1  0.50480000  0.33489000  0.33440000  1.0
  H  H13  1  0.99519000  0.83489000  0.66559000  1.0
  H  H14  1  0.49520000  0.66512000  0.83440000  1.0
  H  H15  1  0.00480000  0.16511000  0.16560000  1.0
  H  H16  1  0.49520000  0.66512000  0.66560000  1.0
  H  H17  1  0.00480000  0.16511000  0.33440000  1.0
  H  H18  1  0.50480000  0.33488000  0.16560000  1.0
  H  H19  1  0.99520000  0.83489000  0.83441000  1.0
  H  H20  1  0.62862000  0.13922000  0.62299000  1.0
  H  H21  1  0.87138000  0.63921000  0.37701000  1.0
  H  H22  1  0.37138000  0.86079000  0.12299000  1.0
  H  H23  1  0.12862000  0.36078000  0.87701000  1.0
  H  H24  1  0.37138000  0.86079000  0.37701000  1.0
  H  H25  1  0.12862000  0.36078000  0.62299000  1.0
  H  H26  1  0.62862000  0.13922000  0.87701000  1.0
  H  H27  1  0.87138000  0.63921000  0.12299000  1.0
  H  H28  1  0.51323000  0.32074000  0.53714000  1.0
  H  H29  1  0.98676000  0.82074000  0.46285000  1.0
  H  H30  1  0.48677000  0.67926000  0.03715000  1.0
  H  H31  1  0.01324000  0.17925000  0.96285000  1.0
  H  H32  1  0.48677000  0.67926000  0.46285000  1.0
  H  H33  1  0.01323000  0.17926000  0.53715000  1.0
  H  H34  1  0.51323000  0.32074000  0.96285000  1.0
  H  H35  1  0.98676000  0.82074000  0.03715000  1.0
  C  C36  1  0.68391000  0.06059000  0.46762000  1.0
  C  C37  1  0.81609000  0.56058000  0.53238000  1.0
  C  C38  1  0.31609000  0.93942000  0.96762000  1.0
  C  C39  1  0.18391000  0.43941000  0.03238000  1.0
  C  C40  1  0.31609000  0.93942000  0.53238000  1.0
  C  C41  1  0.18391000  0.43941000  0.46762000  1.0
  C  C42  1  0.68391000  0.06058000  0.03238000  1.0
  C  C43  1  0.81609000  0.56058000  0.96762000  1.0
  C  C44  1  0.11134000  0.80414000  0.25000000  1.0
  C  C45  1  0.38865000  0.30415000  0.75000000  1.0
  C  C46  1  0.88866000  0.19586000  0.75000000  1.0
  C  C47  1  0.61134000  0.69586000  0.25000000  1.0
  C  C48  1  0.61420000  0.16387000  0.31041000  1.0
  C  C49  1  0.88580000  0.66387000  0.68959000  1.0
  C  C50  1  0.38580000  0.83614000  0.81041000  1.0
  C  C51  1  0.11420000  0.33613000  0.18959000  1.0
  C  C52  1  0.38580000  0.83613000  0.68959000  1.0
  C  C53  1  0.11420000  0.33613000  0.31041000  1.0
  C  C54  1  0.61420000  0.16387000  0.18959000  1.0
  C  C55  1  0.88580000  0.66387000  0.81041000  1.0
  C  C56  1  0.55440000  0.25698000  0.37327000  1.0
  C  C57  1  0.94561000  0.75698000  0.62672000  1.0
  C  C58  1  0.44561000  0.74302000  0.87328000  1.0
  C  C59  1  0.05439000  0.24302000  0.12672000  1.0
  C  C60  1  0.44561000  0.74302000  0.62672000  1.0
  C  C61  1  0.05439000  0.24302000  0.37328000  1.0
  C  C62  1  0.55439000  0.25698000  0.12672000  1.0
  C  C63  1  0.94561000  0.75698000  0.87328000  1.0
  C  C64  1  0.62440000  0.14905000  0.53485000  1.0
  C  C65  1  0.87560000  0.64904000  0.46515000  1.0
  C  C66  1  0.37560000  0.85096000  0.03485000  1.0
  C  C67  1  0.12440000  0.35095000  0.96515000  1.0
  C  C68  1  0.37560000  0.85096000  0.46515000  1.0
  C  C69  1  0.12440000  0.35095000  0.53485000  1.0
  C  C70  1  0.62440000  0.14905000  0.96515000  1.0
  C  C71  1  0.87560000  0.64904000  0.03485000  1.0
  C  C72  1  0.55931000  0.24945000  0.48663000  1.0
  C  C73  1  0.94069000  0.74945000  0.51337000  1.0
  C  C74  1  0.44069000  0.75055000  0.98663000  1.0
  C  C75  1  0.05931000  0.25055000  0.01337000  1.0
  C  C76  1  0.44069000  0.75055000  0.51337000  1.0
  C  C77  1  0.05931000  0.25055000  0.48663000  1.0
  C  C78  1  0.55931000  0.24945000  0.01337000  1.0
  C  C79  1  0.94069000  0.74945000  0.98663000  1.0
  S  S80  1  0.05539000  0.94079000  0.25000000  1.0
  S  S81  1  0.44461000  0.44080000  0.75000000  1.0
  S  S82  1  0.94461000  0.05920000  0.75000000  1.0
  S  S83  1  0.55539000  0.55920000  0.25000000  1.0
  N  N84  1  0.67879000  0.06679000  0.35806000  1.0
  N  N85  1  0.82122000  0.56679000  0.64194000  1.0
  N  N86  1  0.32122000  0.93322000  0.85806000  1.0
  N  N87  1  0.17879000  0.43321000  0.14194000  1.0
  N  N88  1  0.32121000  0.93322000  0.64194000  1.0
  N  N89  1  0.17879000  0.43321000  0.35806000  1.0
  N  N90  1  0.67879000  0.06679000  0.14194000  1.0
  N  N91  1  0.82122000  0.56678000  0.85806000  1.0
  N  N92  1  0.15777000  0.70657000  0.25000000  1.0
  N  N93  1  0.34222000  0.20658000  0.75000000  1.0
  N  N94  1  0.84223000  0.29342000  0.75000000  1.0
  N  N95  1  0.65777000  0.79342000  0.25000000  1.0
