# generated using pymatgen
data_Al2H9C24S6(NO4)3
_symmetry_space_group_name_H-M   'P 1'
_cell_length_a   4.01434000
_cell_length_b   20.08877454
_cell_length_c   20.08890000
_cell_angle_alpha   119.98661959
_cell_angle_beta   89.99670000
_cell_angle_gamma   89.99519836
_symmetry_Int_Tables_number   1
_chemical_formula_structural   Al2H9C24S6(NO4)3
_chemical_formula_sum   'Al2 H9 C24 S6 N3 O12'
_cell_volume   1403.17850080
_cell_formula_units_Z   1
loop_
 _symmetry_equiv_pos_site_id
 _symmetry_equiv_pos_as_xyz
  1  'x, y, z'
loop_
 _atom_site_type_symbol
 _atom_site_label
 _atom_site_symmetry_multiplicity
 _atom_site_fract_x
 _atom_site_fract_y
 _atom_site_fract_z
 _atom_site_occupancy
  Al  Al0  1  0.91837000  0.49999000  0.00002000  1.0
  Al  Al1  1  0.00385000  0.83334000  0.66666000  1.0
  H  H2  1  0.22597000  0.81048000  0.43990000  1.0
  H  H3  1  0.22593000  0.06007000  0.87055000  1.0
  H  H4  1  0.22607000  0.62945000  0.68953000  1.0
  H  H5  1  0.76320000  0.48413000  0.25249000  1.0
  H  H6  1  0.77198000  0.47535000  0.16225000  1.0
  H  H7  1  0.76294000  0.24755000  0.73166000  1.0
  H  H8  1  0.77192000  0.33778000  0.81311000  1.0
  H  H9  1  0.76294000  0.76834000  0.01587000  1.0
  H  H10  1  0.77183000  0.68688000  0.02467000  1.0
  C  C11  1  0.42037000  0.55860000  0.94080000  1.0
  C  C12  1  0.42035000  0.55921000  0.11784000  1.0
  C  C13  1  0.42044000  0.38216000  0.94141000  1.0
  C  C14  1  0.50211000  0.77226000  0.54852000  1.0
  C  C15  1  0.50196000  0.95146000  0.72368000  1.0
  C  C16  1  0.50205000  0.77629000  0.72773000  1.0
  C  C17  1  0.59903000  0.57753000  0.24675000  1.0
  C  C18  1  0.34998000  0.75519000  0.41710000  1.0
  C  C19  1  0.44689000  0.60300000  0.20054000  1.0
  C  C20  1  0.49245000  0.72990000  0.46284000  1.0
  C  C21  1  0.37848000  0.69884000  0.33811000  1.0
  C  C22  1  0.54862000  0.63265000  0.32567000  1.0
  C  C23  1  0.59897000  0.25326000  0.83079000  1.0
  C  C24  1  0.34984000  0.08288000  0.83805000  1.0
  C  C25  1  0.44691000  0.29945000  0.90247000  1.0
  C  C26  1  0.49232000  0.03715000  0.76703000  1.0
  C  C27  1  0.37842000  0.16189000  0.86072000  1.0
  C  C28  1  0.54850000  0.17433000  0.80696000  1.0
  C  C29  1  0.59904000  0.66921000  0.92247000  1.0
  C  C30  1  0.34995000  0.66194000  0.74483000  1.0
  C  C31  1  0.44690000  0.59753000  0.89699000  1.0
  C  C32  1  0.49240000  0.73296000  0.77011000  1.0
  C  C33  1  0.37856000  0.63927000  0.80117000  1.0
  C  C34  1  0.54854000  0.69303000  0.86736000  1.0
  S  S35  1  0.25692000  0.69289000  0.25320000  1.0
  S  S36  1  0.66617000  0.63884000  0.41125000  1.0
  S  S37  1  0.25694000  0.24678000  0.93969000  1.0
  S  S38  1  0.66598000  0.08877000  0.72756000  1.0
  S  S39  1  0.25703000  0.56031000  0.80709000  1.0
  S  S40  1  0.66605000  0.77241000  0.86118000  1.0
  N  N41  1  0.77097000  0.51010000  0.22039000  1.0
  N  N42  1  0.77087000  0.27962000  0.78970000  1.0
  N  N43  1  0.77084000  0.71028000  0.98990000  1.0
  O  O44  1  0.17916000  0.41493000  0.98871000  1.0
  O  O45  1  0.17910000  0.51130000  0.92627000  1.0
  O  O46  1  0.17906000  0.57373000  0.08507000  1.0
  O  O47  1  0.64390000  0.41808000  0.92486000  1.0
  O  O48  1  0.64376000  0.50673000  0.08193000  1.0
  O  O49  1  0.64377000  0.57515000  0.99326000  1.0
  O  O50  1  0.26942000  0.82455000  0.74118000  1.0
  O  O51  1  0.26944000  0.75881000  0.58334000  1.0
  O  O52  1  0.26944000  0.91665000  0.67544000  1.0
  O  O53  1  0.74098000  0.76172000  0.68073000  1.0
  O  O54  1  0.74093000  0.91903000  0.73827000  1.0
  O  O55  1  0.74099000  0.81927000  0.58095000  1.0
