# generated using pymatgen
data_NiH22C26SN6O7
_symmetry_space_group_name_H-M   'P 1'
_cell_length_a   9.91235000
_cell_length_b   10.86090000
_cell_length_c   13.04050000
_cell_angle_alpha   72.00790000
_cell_angle_beta   87.05470000
_cell_angle_gamma   77.14370000
_symmetry_Int_Tables_number   1
_chemical_formula_structural   NiH22C26SN6O7
_chemical_formula_sum   'Ni2 H44 C52 S2 N12 O14'
_cell_volume   1301.54868850
_cell_formula_units_Z   2
loop_
 _symmetry_equiv_pos_site_id
 _symmetry_equiv_pos_as_xyz
  1  'x, y, z'
loop_
 _atom_site_type_symbol
 _atom_site_label
 _atom_site_symmetry_multiplicity
 _atom_site_fract_x
 _atom_site_fract_y
 _atom_site_fract_z
 _atom_site_occupancy
  Ni  Ni0  1  0.05779000  0.07580000  0.68193000  1.0
  Ni  Ni1  1  0.94222000  0.92419000  0.31807000  1.0
  H  H2  1  0.69765000  0.31686000  0.58566000  1.0
  H  H3  1  0.30235000  0.68314000  0.41434000  1.0
  H  H4  1  0.16921000  0.66511000  0.64698000  1.0
  H  H5  1  0.83079000  0.33489000  0.35302000  1.0
  H  H6  1  0.28092000  0.42691000  0.68192000  1.0
  H  H7  1  0.71908000  0.57309000  0.31808000  1.0
  H  H8  1  0.53977000  0.44617000  0.92943000  1.0
  H  H9  1  0.46023000  0.55383000  0.07056000  1.0
  H  H10  1  0.43031000  0.68687000  0.89158000  1.0
  H  H11  1  0.56970000  0.31313000  0.10841000  1.0
  H  H12  1  0.23612000  0.17201000  0.85121000  1.0
  H  H13  1  0.76388000  0.82799000  0.14880000  1.0
  H  H14  1  0.10266000  0.07644000  0.01287000  1.0
  H  H15  1  0.89735000  0.92355000  0.98714000  1.0
  H  H16  1  0.42574000  0.07382000  0.22148000  1.0
  H  H17  1  0.57427000  0.92618000  0.77852000  1.0
  H  H18  1  0.56601000  0.15886000  0.06177000  1.0
  H  H19  1  0.43399000  0.84114000  0.93823000  1.0
  H  H20  1  0.36755000  0.10090000  0.67993000  1.0
  H  H21  1  0.63245000  0.89910000  0.32007000  1.0
  H  H22  1  0.08366000  0.19786000  0.42281000  1.0
  H  H23  1  0.91634000  0.80215000  0.57719000  1.0
  H  H24  1  0.55455000  0.21752000  0.41930000  1.0
  H  H25  1  0.44545000  0.78249000  0.58069000  1.0
  H  H26  1  0.58176000  0.15864000  0.56162000  1.0
  H  H27  1  0.41824000  0.84136000  0.43837000  1.0
  H  H28  1  0.30965000  0.45506000  0.41013000  1.0
  H  H29  1  0.69035000  0.54494000  0.58987000  1.0
  H  H30  1  0.87899000  0.20975000  0.84162000  1.0
  H  H31  1  0.12101000  0.79025000  0.15838000  1.0
  H  H32  1  0.07560000  0.38294000  0.55604000  1.0
  H  H33  1  0.92440000  0.61706000  0.44396000  1.0
  H  H34  1  0.74556000  0.43210000  0.86689000  1.0
  H  H35  1  0.25444000  0.56790000  0.13310000  1.0
  H  H36  1  0.78057000  0.58261000  0.77773000  1.0
  H  H37  1  0.21943000  0.41739000  0.22227000  1.0
  H  H38  1  0.89549000  0.30393000  0.03117000  1.0
  H  H39  1  0.10451000  0.69608000  0.96882000  1.0
  H  H40  1  0.95927000  0.68197000  0.82612000  1.0
  H  H41  1  0.04072000  0.31803000  0.17388000  1.0
  H  H42  1  0.87270000  0.12582000  0.44718000  1.0
  H  H43  1  0.12729000  0.87418000  0.55282000  1.0
  H  H44  1  0.83700000  0.09623000  0.57127000  1.0
  H  H45  1  0.16300000  0.90376000  0.42873000  1.0
  C  C46  1  0.61063000  0.39720000  0.54847000  1.0
  C  C47  1  0.38937000  0.60280000  0.45153000  1.0
  C  C48  1  0.23088000  0.83530000  0.75386000  1.0
  C  C49  1  0.76912000  0.16470000  0.24614000  1.0
  C  C50  1  0.29161000  0.69068000  0.76897000  1.0
  C  C51  1  0.70839000  0.30932000  0.23102000  1.0
  C  C52  1  0.24851000  0.61758000  0.71002000  1.0
  C  C53  1  0.75148000  0.38242000  0.28998000  1.0
  C  C54  1  0.31101000  0.48375000  0.72913000  1.0
  C  C55  1  0.68899000  0.51625000  0.27087000  1.0
  C  C56  1  0.41536000  0.42398000  0.80781000  1.0
  C  C57  1  0.58463000  0.57602000  0.19219000  1.0
  C  C58  1  0.45850000  0.49508000  0.86803000  1.0
  C  C59  1  0.54150000  0.50491000  0.13196000  1.0
  C  C60  1  0.39712000  0.62821000  0.84758000  1.0
  C  C61  1  0.60288000  0.37178000  0.15242000  1.0
  C  C62  1  0.40534000  0.17648000  0.94813000  1.0
  C  C63  1  0.59466000  0.82352000  0.05187000  1.0
  C  C64  1  0.27631000  0.15217000  0.93228000  1.0
  C  C65  1  0.72369000  0.84782000  0.06773000  1.0
  C  C66  1  0.20227000  0.09875000  0.02228000  1.0
  C  C67  1  0.79773000  0.90125000  0.97773000  1.0
  C  C68  1  0.25549000  0.07242000  0.12638000  1.0
  C  C69  1  0.74451000  0.92758000  0.87362000  1.0
  C  C70  1  0.38520000  0.09667000  0.14014000  1.0
  C  C71  1  0.61481000  0.90333000  0.85986000  1.0
  C  C72  1  0.46189000  0.14718000  0.05085000  1.0
  C  C73  1  0.53812000  0.85282000  0.94915000  1.0
  C  C74  1  0.17828000  0.01428000  0.22512000  1.0
  C  C75  1  0.82173000  0.98572000  0.77490000  1.0
  C  C76  1  0.31960000  0.13520000  0.60051000  1.0
  C  C77  1  0.68040000  0.86480000  0.39949000  1.0
  C  C78  1  0.17716000  0.18710000  0.46702000  1.0
  C  C79  1  0.82283000  0.81291000  0.53298000  1.0
  C  C80  1  0.51323000  0.22963000  0.49626000  1.0
  C  C81  1  0.48677000  0.77037000  0.50374000  1.0
  C  C82  1  0.50399000  0.37000000  0.49844000  1.0
  C  C83  1  0.49601000  0.63000000  0.50156000  1.0
  C  C84  1  0.39337000  0.47417000  0.45000000  1.0
  C  C85  1  0.60663000  0.52583000  0.55000000  1.0
  C  C86  1  0.92156000  0.27873000  0.77648000  1.0
  C  C87  1  0.07844000  0.72127000  0.22352000  1.0
  C  C88  1  0.01988000  0.36963000  0.63100000  1.0
  C  C89  1  0.98012000  0.63037000  0.36900000  1.0
  C  C90  1  0.82793000  0.48389000  0.83132000  1.0
  C  C91  1  0.17207000  0.51611000  0.16867000  1.0
  C  C92  1  0.91764000  0.49203000  0.91842000  1.0
  C  C93  1  0.08236000  0.50797000  0.08158000  1.0
  C  C94  1  0.94140000  0.39018000  0.01687000  1.0
  C  C95  1  0.05860000  0.60982000  0.98312000  1.0
  C  C96  1  0.97691000  0.60198000  0.90237000  1.0
  C  C97  1  0.02308000  0.39803000  0.09763000  1.0
  S  S98  1  0.49733000  0.25392000  0.83562000  1.0
  S  S99  1  0.50267000  0.74608000  0.16438000  1.0
  N  N100  1  0.19072000  0.13159000  0.57683000  1.0
  N  N101  1  0.80928000  0.86841000  0.42317000  1.0
  N  N102  1  0.29030000  0.22557000  0.42284000  1.0
  N  N103  1  0.70970000  0.77444000  0.57716000  1.0
  N  N104  1  0.37913000  0.19211000  0.50859000  1.0
  N  N105  1  0.62087000  0.80789000  0.49140000  1.0
  N  N106  1  0.99606000  0.24992000  0.69453000  1.0
  N  N107  1  0.00394000  0.75008000  0.30547000  1.0
  N  N108  1  0.96500000  0.46894000  0.66960000  1.0
  N  N109  1  0.03500000  0.53106000  0.33040000  1.0
  N  N110  1  0.90313000  0.40917000  0.76161000  1.0
  N  N111  1  0.09686000  0.59083000  0.23839000  1.0
  O  O112  1  0.12743000  0.89164000  0.68453000  1.0
  O  O113  1  0.87257000  0.10837000  0.31547000  1.0
  O  O114  1  0.27914000  0.89421000  0.80658000  1.0
  O  O115  1  0.72086000  0.10578000  0.19343000  1.0
  O  O116  1  0.47084000  0.21125000  0.74513000  1.0
  O  O117  1  0.52916000  0.78874000  0.25487000  1.0
  O  O118  1  0.63888000  0.23908000  0.87008000  1.0
  O  O119  1  0.36112000  0.76092000  0.12992000  1.0
  O  O120  1  0.06269000  0.98748000  0.20492000  1.0
  O  O121  1  0.93732000  0.01252000  0.79509000  1.0
  O  O122  1  0.22793000  0.99551000  0.31639000  1.0
  O  O123  1  0.77209000  0.00448000  0.68362000  1.0
  O  O124  1  0.87296000  0.15943000  0.50909000  1.0
  O  O125  1  0.12703000  0.84057000  0.49091000  1.0
