# generated using pymatgen
data_CuH4C7NO5
_symmetry_space_group_name_H-M   'P 1'
_cell_length_a   7.50681000
_cell_length_b   10.23610000
_cell_length_c   10.66660000
_cell_angle_alpha   71.00700000
_cell_angle_beta   89.99720000
_cell_angle_gamma   68.58800000
_symmetry_Int_Tables_number   1
_chemical_formula_structural   CuH4C7NO5
_chemical_formula_sum   'Cu4 H16 C28 N4 O20'
_cell_volume   714.91667463
_cell_formula_units_Z   4
loop_
 _symmetry_equiv_pos_site_id
 _symmetry_equiv_pos_as_xyz
  1  'x, y, z'
loop_
 _atom_site_type_symbol
 _atom_site_label
 _atom_site_symmetry_multiplicity
 _atom_site_fract_x
 _atom_site_fract_y
 _atom_site_fract_z
 _atom_site_occupancy
  Cu  Cu0  1  0.73530000  0.73475000  0.40508000  1.0
  Cu  Cu1  1  0.47121000  0.26485000  0.09485000  1.0
  Cu  Cu2  1  0.26367000  0.26535000  0.59491000  1.0
  Cu  Cu3  1  0.52971000  0.73519000  0.90513000  1.0
  H  H4  1  0.78689000  0.26586000  0.46216000  1.0
  H  H5  1  0.05178000  0.73399000  0.03754000  1.0
  H  H6  1  0.21331000  0.73394000  0.53787000  1.0
  H  H7  1  0.94825000  0.26586000  0.96245000  1.0
  H  H8  1  0.70371000  0.07927000  0.64619000  1.0
  H  H9  1  0.78320000  0.92062000  0.85340000  1.0
  H  H10  1  0.29624000  0.92055000  0.35377000  1.0
  H  H11  1  0.21706000  0.07920000  0.14656000  1.0
  H  H12  1  0.77870000  0.46932000  0.49670000  1.0
  H  H13  1  0.24914000  0.53003000  0.00344000  1.0
  H  H14  1  0.21935000  0.53093000  0.50330000  1.0
  H  H15  1  0.75247000  0.47014000  0.99657000  1.0
  H  H16  1  0.57066000  0.56708000  0.39274000  1.0
  H  H17  1  0.13942000  0.43150000  0.10773000  1.0
  H  H18  1  0.42736000  0.43354000  0.60729000  1.0
  H  H19  1  0.86190000  0.56907000  0.89240000  1.0
  C  C20  1  0.80468000  0.01595000  0.31312000  1.0
  C  C21  1  0.82057000  0.98394000  0.18652000  1.0
  C  C22  1  0.19528000  0.98399000  0.68679000  1.0
  C  C23  1  0.17952000  0.01599000  0.81339000  1.0
  C  C24  1  0.80952000  0.14759000  0.32551000  1.0
  C  C25  1  0.95641000  0.85227000  0.17417000  1.0
  C  C26  1  0.19054000  0.85231000  0.67447000  1.0
  C  C27  1  0.04362000  0.14762000  0.82580000  1.0
  C  C28  1  0.78069000  0.16646000  0.44914000  1.0
  C  C29  1  0.94656000  0.83339000  0.05054000  1.0
  C  C30  1  0.21935000  0.83340000  0.55085000  1.0
  C  C31  1  0.05354000  0.16649000  0.94945000  1.0
  C  C32  1  0.73911000  0.06176000  0.55238000  1.0
  C  C33  1  0.80084000  0.93816000  0.94722000  1.0
  C  C34  1  0.26088000  0.93814000  0.44755000  1.0
  C  C35  1  0.19930000  0.06174000  0.05270000  1.0
  C  C36  1  0.73176000  0.93633000  0.53160000  1.0
  C  C37  1  0.66843000  0.06357000  0.96799000  1.0
  C  C38  1  0.26818000  0.06363000  0.46825000  1.0
  C  C39  1  0.33168000  0.93640000  0.03186000  1.0
  C  C40  1  0.83740000  0.27144000  0.21146000  1.0
  C  C41  1  0.10748000  0.72844000  0.28825000  1.0
  C  C42  1  0.16287000  0.72850000  0.78870000  1.0
  C  C43  1  0.89233000  0.27147000  0.71188000  1.0
  C  C44  1  0.67218000  0.82062000  0.62915000  1.0
  C  C45  1  0.49360000  0.17925000  0.87049000  1.0
  C  C46  1  0.32789000  0.17930000  0.37077000  1.0
  C  C47  1  0.50646000  0.82068000  0.12942000  1.0
  N  N48  1  0.76795000  0.91442000  0.41498000  1.0
  N  N49  1  0.68272000  0.08544000  0.08467000  1.0
  N  N50  1  0.23189000  0.08557000  0.58487000  1.0
  N  N51  1  0.31748000  0.91454000  0.91519000  1.0
  O  O52  1  0.69950000  0.34521000  0.11309000  1.0
  O  O53  1  0.04300000  0.65458000  0.38660000  1.0
  O  O54  1  0.30139000  0.65442000  0.88662000  1.0
  O  O55  1  0.95646000  0.34517000  0.61316000  1.0
  O  O56  1  0.98684000  0.29638000  0.21983000  1.0
  O  O57  1  0.28174000  0.70352000  0.27997000  1.0
  O  O58  1  0.01299000  0.70396000  0.78086000  1.0
  O  O59  1  0.71810000  0.29668000  0.72060000  1.0
  O  O60  1  0.68138000  0.70937000  0.59646000  1.0
  O  O61  1  0.39153000  0.29005000  0.90359000  1.0
  O  O62  1  0.31913000  0.29033000  0.40365000  1.0
  O  O63  1  0.60838000  0.70968000  0.09651000  1.0
  O  O64  1  0.60716000  0.84839000  0.73107000  1.0
  O  O65  1  0.45658000  0.15204000  0.76815000  1.0
  O  O66  1  0.39266000  0.15167000  0.26872000  1.0
  O  O67  1  0.54355000  0.84804000  0.23163000  1.0
  O  O68  1  0.70700000  0.55133000  0.40894000  1.0
  O  O69  1  0.25973000  0.44784000  0.09126000  1.0
  O  O70  1  0.29112000  0.44904000  0.59119000  1.0
  O  O71  1  0.74173000  0.55246000  0.90889000  1.0
