# generated using pymatgen
data_ZnH24C22(NO)4
_symmetry_space_group_name_H-M   'P 1'
_cell_length_a   8.79800000
_cell_length_b   10.78610000
_cell_length_c   14.12600000
_cell_angle_alpha   75.23160000
_cell_angle_beta   77.57400000
_cell_angle_gamma   79.89250000
_symmetry_Int_Tables_number   1
_chemical_formula_structural   ZnH24C22(NO)4
_chemical_formula_sum   'Zn2 H48 C44 N8 O8'
_cell_volume   1255.48023491
_cell_formula_units_Z   2
loop_
 _symmetry_equiv_pos_site_id
 _symmetry_equiv_pos_as_xyz
  1  'x, y, z'
loop_
 _atom_site_type_symbol
 _atom_site_label
 _atom_site_symmetry_multiplicity
 _atom_site_fract_x
 _atom_site_fract_y
 _atom_site_fract_z
 _atom_site_occupancy
  Zn  Zn0  1  0.60082000  0.07478000  0.19208000  1.0
  Zn  Zn1  1  0.39918000  0.92522000  0.80792000  1.0
  H  H2  1  0.41330000  0.31478000  0.29781000  1.0
  H  H3  1  0.58669000  0.68524000  0.70220000  1.0
  H  H4  1  0.32743000  0.44264000  0.43068000  1.0
  H  H5  1  0.67258000  0.55737000  0.56932000  1.0
  H  H6  1  0.41986000  0.36727000  0.59123000  1.0
  H  H7  1  0.58014000  0.63274000  0.40877000  1.0
  H  H8  1  0.60469000  0.16478000  0.62607000  1.0
  H  H9  1  0.39530000  0.83522000  0.37393000  1.0
  H  H10  1  0.77098000  0.90058000  0.36209000  1.0
  H  H11  1  0.22903000  0.09944000  0.63790000  1.0
  H  H12  1  0.82696000  0.83840000  0.53669000  1.0
  H  H13  1  0.17302000  0.16160000  0.46331000  1.0
  H  H14  1  0.71914000  0.92761000  0.62365000  1.0
  H  H15  1  0.28085000  0.07240000  0.37635000  1.0
  H  H16  1  0.52889000  0.11156000  0.97711000  1.0
  H  H17  1  0.47113000  0.88844000  0.02287000  1.0
  H  H18  1  0.50946000  0.21539000  0.80116000  1.0
  H  H19  1  0.49057000  0.78461000  0.19882000  1.0
  H  H20  1  0.58812000  0.43287000  0.72321000  1.0
  H  H21  1  0.41191000  0.56714000  0.27678000  1.0
  H  H22  1  0.69184000  0.55610000  0.81979000  1.0
  H  H23  1  0.30817000  0.44391000  0.18021000  1.0
  H  H24  1  0.71829000  0.35536000  0.17969000  1.0
  H  H25  1  0.28172000  0.64462000  0.82031000  1.0
  H  H26  1  0.75547000  0.58657000  0.08495000  1.0
  H  H27  1  0.24451000  0.41343000  0.91505000  1.0
  H  H28  1  0.71033000  0.63876000  0.96326000  1.0
  H  H29  1  0.28966000  0.36123000  0.03675000  1.0
  H  H30  1  0.15328000  0.96403000  0.16314000  1.0
  H  H31  1  0.84674000  0.03597000  0.83684000  1.0
  H  H32  1  0.11989000  0.11918000  0.08480000  1.0
  H  H33  1  0.88012000  0.88084000  0.91520000  1.0
  H  H34  1  0.02704000  0.09297000  0.21098000  1.0
  H  H35  1  0.97296000  0.90701000  0.78902000  1.0
  H  H36  1  0.03109000  0.85973000  0.04695000  1.0
  H  H37  1  0.96892000  0.14026000  0.95306000  1.0
  H  H38  1  0.94498000  0.71240000  0.09086000  1.0
  H  H39  1  0.05504000  0.28760000  0.90915000  1.0
  H  H40  1  0.06153000  0.75170000  0.16316000  1.0
  H  H41  1  0.93847000  0.24829000  0.83686000  1.0
  H  H42  1  0.98745000  0.64517000  0.94851000  1.0
  H  H43  1  0.01254000  0.35483000  0.05151000  1.0
  H  H44  1  0.91040000  0.08825000  0.56953000  1.0
  H  H45  1  0.08960000  0.91175000  0.43046000  1.0
  H  H46  1  0.96392000  0.52158000  0.89432000  1.0
  H  H47  1  0.03607000  0.47842000  0.10569000  1.0
  H  H48  1  0.00187000  0.92977000  0.60974000  1.0
  H  H49  1  0.99813000  0.07022000  0.39026000  1.0
  C  C50  1  0.56432000  0.17369000  0.38596000  1.0
  C  C51  1  0.43566000  0.82631000  0.61404000  1.0
  C  C52  1  0.45957000  0.28679000  0.36684000  1.0
  C  C53  1  0.54042000  0.71322000  0.63316000  1.0
  C  C54  1  0.41148000  0.35529000  0.44186000  1.0
  C  C55  1  0.58851000  0.64472000  0.55815000  1.0
  C  C56  1  0.46490000  0.31305000  0.53350000  1.0
  C  C57  1  0.53509000  0.68695000  0.46651000  1.0
  C  C58  1  0.56873000  0.20017000  0.55367000  1.0
  C  C59  1  0.43125000  0.79983000  0.44633000  1.0
  C  C60  1  0.61677000  0.13173000  0.47837000  1.0
  C  C61  1  0.38322000  0.86827000  0.52163000  1.0
  C  C62  1  0.71217000  0.98859000  0.38522000  1.0
  C  C63  1  0.28782000  0.01142000  0.61477000  1.0
  C  C64  1  0.79696000  0.93586000  0.55102000  1.0
  C  C65  1  0.20302000  0.06415000  0.44898000  1.0
  C  C66  1  0.94398000  0.99333000  0.54996000  1.0
  C  C67  1  0.05601000  0.00667000  0.45004000  1.0
  C  C68  1  0.61687000  0.27732000  0.99803000  1.0
  C  C69  1  0.38313000  0.72268000  0.00197000  1.0
  C  C70  1  0.56249000  0.20778000  0.94370000  1.0
  C  C71  1  0.43753000  0.79222000  0.05628000  1.0
  C  C72  1  0.55313000  0.26669000  0.84486000  1.0
  C  C73  1  0.44688000  0.73332000  0.15512000  1.0
  C  C74  1  0.59868000  0.39060000  0.80064000  1.0
  C  C75  1  0.40134000  0.60940000  0.19935000  1.0
  C  C76  1  0.65591000  0.46037000  0.85307000  1.0
  C  C77  1  0.34410000  0.53963000  0.14693000  1.0
  C  C78  1  0.66284000  0.40126000  0.95247000  1.0
  C  C79  1  0.33716000  0.59874000  0.04753000  1.0
  C  C80  1  0.69141000  0.34740000  0.11015000  1.0
  C  C81  1  0.30858000  0.65259000  0.88984000  1.0
  C  C82  1  0.77562000  0.56201000  0.01202000  1.0
  C  C83  1  0.22436000  0.43799000  0.98799000  1.0
  C  C84  1  0.94967000  0.54865000  0.96616000  1.0
  C  C85  1  0.05032000  0.45135000  0.03385000  1.0
  C  C86  1  0.27466000  0.11059000  0.18546000  1.0
  C  C87  1  0.72534000  0.88940000  0.81454000  1.0
  C  C88  1  0.13535000  0.06769000  0.16064000  1.0
  C  C89  1  0.86466000  0.93231000  0.83936000  1.0
  C  C90  1  0.82994000  0.85892000  0.16860000  1.0
  C  C91  1  0.17008000  0.14107000  0.83141000  1.0
  C  C92  1  0.97677000  0.79344000  0.11315000  1.0
  C  C93  1  0.02325000  0.20655000  0.88686000  1.0
  N  N94  1  0.62713000  0.08177000  0.32937000  1.0
  N  N95  1  0.37286000  0.91824000  0.67062000  1.0
  N  N96  1  0.70935000  0.01378000  0.47490000  1.0
  N  N97  1  0.29064000  0.98622000  0.52510000  1.0
  N  N98  1  0.63597000  0.24726000  0.09701000  1.0
  N  N99  1  0.36403000  0.75272000  0.90298000  1.0
  N  N100  1  0.70928000  0.44251000  0.02607000  1.0
  N  N101  1  0.29071000  0.55748000  0.97393000  1.0
  O  O102  1  0.39923000  0.02480000  0.18759000  1.0
  O  O103  1  0.60077000  0.97519000  0.81242000  1.0
  O  O104  1  0.26566000  0.22083000  0.20145000  1.0
  O  O105  1  0.73434000  0.77917000  0.79855000  1.0
  O  O106  1  0.77704000  0.97310000  0.12162000  1.0
  O  O107  1  0.22294000  0.02688000  0.87838000  1.0
  O  O108  1  0.76843000  0.80261000  0.25371000  1.0
  O  O109  1  0.23160000  0.19739000  0.74632000  1.0
