# generated using pymatgen
data_DyH7C8NO8
_symmetry_space_group_name_H-M   'P 1'
_cell_length_a   5.81322000
_cell_length_b   10.27406072
_cell_length_c   11.23630000
_cell_angle_alpha   68.24534641
_cell_angle_beta   80.34390000
_cell_angle_gamma   74.20252148
_symmetry_Int_Tables_number   1
_chemical_formula_structural   DyH7C8NO8
_chemical_formula_sum   'Dy2 H14 C16 N2 O16'
_cell_volume   598.07532002
_cell_formula_units_Z   2
loop_
 _symmetry_equiv_pos_site_id
 _symmetry_equiv_pos_as_xyz
  1  'x, y, z'
loop_
 _atom_site_type_symbol
 _atom_site_label
 _atom_site_symmetry_multiplicity
 _atom_site_fract_x
 _atom_site_fract_y
 _atom_site_fract_z
 _atom_site_occupancy
  Dy  Dy0  1  0.45432000  0.18666000  0.55742000  1.0
  Dy  Dy1  1  0.54568000  0.81335000  0.44258000  1.0
  H  H2  1  0.49047000  0.29866000  0.10347000  1.0
  H  H3  1  0.50953000  0.70133000  0.89652000  1.0
  H  H4  1  0.31688000  0.06919000  0.99513000  1.0
  H  H5  1  0.68312000  0.93080000  0.00488000  1.0
  H  H6  1  0.08461000  0.22166000  0.77778000  1.0
  H  H7  1  0.91539000  0.77834000  0.22222000  1.0
  H  H8  1  0.95659000  0.28160000  0.64488000  1.0
  H  H9  1  0.04340000  0.71840000  0.35512000  1.0
  H  H10  1  0.15448000  0.12889000  0.40648000  1.0
  H  H11  1  0.84553000  0.87110000  0.59353000  1.0
  H  H12  1  0.01495000  0.28275000  0.40517000  1.0
  H  H13  1  0.98505000  0.71725000  0.59483000  1.0
  H  H14  1  0.65584000  0.32655000  0.87615000  1.0
  H  H15  1  0.34418000  0.67344000  0.12384000  1.0
  C  C16  1  0.67481000  0.24565000  0.08293000  1.0
  C  C17  1  0.32519000  0.75434000  0.91707000  1.0
  C  C18  1  0.82271000  0.16023000  0.18336000  1.0
  C  C19  1  0.17727000  0.83977000  0.81663000  1.0
  C  C20  1  0.05787000  0.09219000  0.15300000  1.0
  C  C21  1  0.94212000  0.90781000  0.84701000  1.0
  C  C22  1  0.13448000  0.11796000  0.02307000  1.0
  C  C23  1  0.86552000  0.88203000  0.97694000  1.0
  C  C24  1  0.22802000  0.99390000  0.25224000  1.0
  C  C25  1  0.77197000  0.00610000  0.74776000  1.0
  C  C26  1  0.71746000  0.14845000  0.31761000  1.0
  C  C27  1  0.28253000  0.85155000  0.68239000  1.0
  C  C28  1  0.38877000  0.52834000  0.46083000  1.0
  C  C29  1  0.61126000  0.47169000  0.53918000  1.0
  C  C30  1  0.76631000  0.26224000  0.95699000  1.0
  C  C31  1  0.23369000  0.73776000  0.04301000  1.0
  N  N32  1  0.99395000  0.20110000  0.92745000  1.0
  N  N33  1  0.00605000  0.79889000  0.07255000  1.0
  O  O34  1  0.70699000  0.25163000  0.35587000  1.0
  O  O35  1  0.29300000  0.74837000  0.64413000  1.0
  O  O36  1  0.62380000  0.04318000  0.38440000  1.0
  O  O37  1  0.37621000  0.95682000  0.61559000  1.0
  O  O38  1  0.16901000  0.98251000  0.37080000  1.0
  O  O39  1  0.83098000  0.01748000  0.62920000  1.0
  O  O40  1  0.42743000  0.92324000  0.21904000  1.0
  O  O41  1  0.57257000  0.07676000  0.78097000  1.0
  O  O42  1  0.11605000  0.23910000  0.68142000  1.0
  O  O43  1  0.88394000  0.76090000  0.31858000  1.0
  O  O44  1  0.29333000  0.43809000  0.45005000  1.0
  O  O45  1  0.70670000  0.56194000  0.54995000  1.0
  O  O46  1  0.17349000  0.21794000  0.41607000  1.0
  O  O47  1  0.82651000  0.78206000  0.58394000  1.0
  O  O48  1  0.32037000  0.66548000  0.41268000  1.0
  O  O49  1  0.67964000  0.33453000  0.58732000  1.0
