# generated using pymatgen
data_H14RhC17NO4
_symmetry_space_group_name_H-M   'P 1'
_cell_length_a   10.25670000
_cell_length_b   10.45780000
_cell_length_c   15.53060000
_cell_angle_alpha   78.73150000
_cell_angle_beta   81.40380000
_cell_angle_gamma   86.12230000
_symmetry_Int_Tables_number   1
_chemical_formula_structural   H14RhC17NO4
_chemical_formula_sum   'H56 Rh4 C68 N4 O16'
_cell_volume   1614.11608756
_cell_formula_units_Z   4
loop_
 _symmetry_equiv_pos_site_id
 _symmetry_equiv_pos_as_xyz
  1  'x, y, z'
loop_
 _atom_site_type_symbol
 _atom_site_label
 _atom_site_symmetry_multiplicity
 _atom_site_fract_x
 _atom_site_fract_y
 _atom_site_fract_z
 _atom_site_occupancy
  H  H0  1  0.11738000  0.04464000  0.03320000  1.0
  H  H1  1  0.88262000  0.95536000  0.96680000  1.0
  H  H2  1  0.22137000  0.84763000  0.97471000  1.0
  H  H3  1  0.77863000  0.15237000  0.02529000  1.0
  H  H4  1  0.31152000  0.86896000  0.81655000  1.0
  H  H5  1  0.68848000  0.13103000  0.18345000  1.0
  H  H6  1  0.28544000  0.07924000  0.71205000  1.0
  H  H7  1  0.71456000  0.92075000  0.28796000  1.0
  H  H8  1  0.17806000  0.27288000  0.76961000  1.0
  H  H9  1  0.82194000  0.72711000  0.23039000  1.0
  H  H10  1  0.26651000  0.48863000  0.22311000  1.0
  H  H11  1  0.73349000  0.51136000  0.77689000  1.0
  H  H12  1  0.45557000  0.55910000  0.28465000  1.0
  H  H13  1  0.54443000  0.44090000  0.71535000  1.0
  H  H14  1  0.63417000  0.68267000  0.18253000  1.0
  H  H15  1  0.36583000  0.31733000  0.81747000  1.0
  H  H16  1  0.62595000  0.73473000  0.02067000  1.0
  H  H17  1  0.37405000  0.26527000  0.97933000  1.0
  H  H18  1  0.43442000  0.66652000  0.96003000  1.0
  H  H19  1  0.56558000  0.33348000  0.03997000  1.0
  H  H20  1  0.46056000  0.00515000  0.19721000  1.0
  H  H21  1  0.53944000  0.99485000  0.80279000  1.0
  H  H22  1  0.35306000  0.94702000  0.07700000  1.0
  H  H23  1  0.64694000  0.05298000  0.92300000  1.0
  H  H24  1  0.14587000  0.82359000  0.11556000  1.0
  H  H25  1  0.85413000  0.17641000  0.88444000  1.0
  H  H26  1  0.04820000  0.75815000  0.27172000  1.0
  H  H27  1  0.95180000  0.24185000  0.72828000  1.0
  H  H28  1  0.15689000  0.81525000  0.39265000  1.0
  H  H29  1  0.84310000  0.18475000  0.60735000  1.0
  H  H30  1  0.43151000  0.45778000  0.45151000  1.0
  H  H31  1  0.56849000  0.54222000  0.54849000  1.0
  H  H32  1  0.31372000  0.66549000  0.48180000  1.0
  H  H33  1  0.68628000  0.33451000  0.51820000  1.0
  H  H34  1  0.09198000  0.65777000  0.57174000  1.0
  H  H35  1  0.90802000  0.34223000  0.42826000  1.0
  H  H36  1  0.98836000  0.44513000  0.63323000  1.0
  H  H37  1  0.01164000  0.55487000  0.36677000  1.0
  H  H38  1  0.10926000  0.23770000  0.60551000  1.0
  H  H39  1  0.89074000  0.76230000  0.39449000  1.0
  H  H40  1  0.71010000  0.44452000  0.18198000  1.0
  H  H41  1  0.28990000  0.55548000  0.81802000  1.0
  H  H42  1  0.56667000  0.31821000  0.31307000  1.0
  H  H43  1  0.43334000  0.68180000  0.68693000  1.0
  H  H44  1  0.88382000  0.06276000  0.36786000  1.0
  H  H45  1  0.11617000  0.93724000  0.63214000  1.0
  H  H46  1  0.11176000  0.22893000  0.17097000  1.0
  H  H47  1  0.88824000  0.77108000  0.82903000  1.0
  H  H48  1  0.08548000  0.07842000  0.24557000  1.0
  H  H49  1  0.91453000  0.92158000  0.75443000  1.0
  H  H50  1  0.13122000  0.33643000  0.30254000  1.0
  H  H51  1  0.86878000  0.66357000  0.69746000  1.0
  H  H52  1  0.25497000  0.21152000  0.28894000  1.0
  H  H53  1  0.74504000  0.78848000  0.71107000  1.0
  H  H54  1  0.11749000  0.18060000  0.37336000  1.0
  H  H55  1  0.88252000  0.81940000  0.62664000  1.0
  Rh  Rh56  1  0.96374000  0.43497000  0.07234000  1.0
  Rh  Rh57  1  0.03626000  0.56503000  0.92766000  1.0
  Rh  Rh58  1  0.57943000  0.06378000  0.44564000  1.0
  Rh  Rh59  1  0.42057000  0.93622000  0.55435000  1.0
  C  C60  1  0.09192000  0.28875000  0.94029000  1.0
  C  C61  1  0.90808000  0.71124000  0.05971000  1.0
  C  C62  1  0.14438000  0.17037000  0.90524000  1.0
  C  C63  1  0.85562000  0.82963000  0.09477000  1.0
  C  C64  1  0.15459000  0.05038000  0.96319000  1.0
  C  C65  1  0.84541000  0.94962000  0.03681000  1.0
  C  C66  1  0.21325000  0.94189000  0.93077000  1.0
  C  C67  1  0.78675000  0.05811000  0.06923000  1.0
  C  C68  1  0.26236000  0.95316000  0.84096000  1.0
  C  C69  1  0.73764000  0.04684000  0.15905000  1.0
  C  C70  1  0.24868000  0.07145000  0.78232000  1.0
  C  C71  1  0.75131000  0.92854000  0.21768000  1.0
  C  C72  1  0.18901000  0.17965000  0.81429000  1.0
  C  C73  1  0.81099000  0.82035000  0.18571000  1.0
  C  C74  1  0.22209000  0.53844000  0.05394000  1.0
  C  C75  1  0.77791000  0.46155000  0.94605000  1.0
  C  C76  1  0.33963000  0.57356000  0.08827000  1.0
  C  C77  1  0.66037000  0.42644000  0.91173000  1.0
  C  C78  1  0.34621000  0.54188000  0.17960000  1.0
  C  C79  1  0.65379000  0.45812000  0.82039000  1.0
  C  C80  1  0.45184000  0.58133000  0.21342000  1.0
  C  C81  1  0.54816000  0.41866000  0.78658000  1.0
  C  C82  1  0.55190000  0.65105000  0.15619000  1.0
  C  C83  1  0.44810000  0.34895000  0.84381000  1.0
  C  C84  1  0.54682000  0.68109000  0.06499000  1.0
  C  C85  1  0.45318000  0.31891000  0.93501000  1.0
  C  C86  1  0.44055000  0.64321000  0.03086000  1.0
  C  C87  1  0.55945000  0.35679000  0.96914000  1.0
  C  C88  1  0.37934000  0.94872000  0.37341000  1.0
  C  C89  1  0.62066000  0.05128000  0.62659000  1.0
  C  C90  1  0.31477000  0.91432000  0.30193000  1.0
  C  C91  1  0.68523000  0.08568000  0.69807000  1.0
  C  C92  1  0.36996000  0.95157000  0.21295000  1.0
  C  C93  1  0.63004000  0.04843000  0.78705000  1.0
  C  C94  1  0.30966000  0.91866000  0.14607000  1.0
  C  C95  1  0.69033000  0.08134000  0.85393000  1.0
  C  C96  1  0.19395000  0.84920000  0.16751000  1.0
  C  C97  1  0.80605000  0.15080000  0.83249000  1.0
  C  C98  1  0.13869000  0.81189000  0.25602000  1.0
  C  C99  1  0.86130000  0.18811000  0.74398000  1.0
  C  C100  1  0.19876000  0.84380000  0.32332000  1.0
  C  C101  1  0.80124000  0.15620000  0.67668000  1.0
  C  C102  1  0.35206000  0.21286000  0.51271000  1.0
  C  C103  1  0.64794000  0.78714000  0.48729000  1.0
  C  C104  1  0.27711000  0.33573000  0.52654000  1.0
  C  C105  1  0.72289000  0.66427000  0.47346000  1.0
  C  C106  1  0.33419000  0.45639000  0.49091000  1.0
  C  C107  1  0.66581000  0.54361000  0.50909000  1.0
  C  C108  1  0.26831000  0.57186000  0.50770000  1.0
  C  C109  1  0.73170000  0.42814000  0.49230000  1.0
  C  C110  1  0.14393000  0.56744000  0.55898000  1.0
  C  C111  1  0.85607000  0.43256000  0.44103000  1.0
  C  C112  1  0.08589000  0.44779000  0.59387000  1.0
  C  C113  1  0.91411000  0.55221000  0.40613000  1.0
  C  C114  1  0.15233000  0.33202000  0.57816000  1.0
  C  C115  1  0.84767000  0.66798000  0.42184000  1.0
  C  C116  1  0.74944000  0.36009000  0.22462000  1.0
  C  C117  1  0.25056000  0.63991000  0.77538000  1.0
  C  C118  1  0.67020000  0.29050000  0.29588000  1.0
  C  C119  1  0.32981000  0.70951000  0.70412000  1.0
  C  C120  1  0.84620000  0.15017000  0.32669000  1.0
  C  C121  1  0.15380000  0.84983000  0.67331000  1.0
  C  C122  1  0.92846000  0.22098000  0.25567000  1.0
  C  C123  1  0.07154000  0.77902000  0.74433000  1.0
  C  C124  1  0.07273000  0.18493000  0.23910000  1.0
  C  C125  1  0.92728000  0.81507000  0.76090000  1.0
  C  C126  1  0.14847000  0.23102000  0.30496000  1.0
  C  C127  1  0.85153000  0.76898000  0.69504000  1.0
  N  N128  1  0.87749000  0.32488000  0.20281000  1.0
  N  N129  1  0.12251000  0.67512000  0.79719000  1.0
  N  N130  1  0.71778000  0.18245000  0.34621000  1.0
  N  N131  1  0.28222000  0.81756000  0.65379000  1.0
  O  O132  1  0.03914000  0.27388000  0.02164000  1.0
  O  O133  1  0.96086000  0.72612000  0.97836000  1.0
  O  O134  1  0.10595000  0.39809000  0.88587000  1.0
  O  O135  1  0.89405000  0.60191000  0.11413000  1.0
  O  O136  1  0.14035000  0.46423000  0.10872000  1.0
  O  O137  1  0.85965000  0.53576000  0.89128000  1.0
  O  O138  1  0.20900000  0.58755000  0.97310000  1.0
  O  O139  1  0.79100000  0.41245000  0.02690000  1.0
  O  O140  1  0.47890000  0.02184000  0.35035000  1.0
  O  O141  1  0.52110000  0.97816000  0.64965000  1.0
  O  O142  1  0.33055000  0.90135000  0.45356000  1.0
  O  O143  1  0.66945000  0.09865000  0.54644000  1.0
  O  O144  1  0.45866000  0.22425000  0.45728000  1.0
  O  O145  1  0.54133000  0.77575000  0.54272000  1.0
  O  O146  1  0.30705000  0.10502000  0.55848000  1.0
  O  O147  1  0.69295000  0.89498000  0.44152000  1.0
