# generated using pymatgen
data_Zn2H12C30(N3O)3
_symmetry_space_group_name_H-M   'P 1'
_cell_length_a   18.48720000
_cell_length_b   18.57490000
_cell_length_c   18.61770000
_cell_angle_alpha   101.26000000
_cell_angle_beta   112.09700000
_cell_angle_gamma   109.39100000
_symmetry_Int_Tables_number   1
_chemical_formula_structural   Zn2H12C30(N3O)3
_chemical_formula_sum   'Zn4 H24 C60 N18 O6'
_cell_volume   5199.26380794
_cell_formula_units_Z   2
loop_
 _symmetry_equiv_pos_site_id
 _symmetry_equiv_pos_as_xyz
  1  'x, y, z'
loop_
 _atom_site_type_symbol
 _atom_site_label
 _atom_site_symmetry_multiplicity
 _atom_site_fract_x
 _atom_site_fract_y
 _atom_site_fract_z
 _atom_site_occupancy
  Zn  Zn0  1  0.09757000  0.64301000  0.98855000  1.0
  Zn  Zn1  1  0.88807000  0.38622000  0.00092000  1.0
  Zn  Zn2  1  0.89118000  0.51695000  0.88323000  1.0
  Zn  Zn3  1  0.11049000  0.47045000  0.09741000  1.0
  H  H4  1  0.09082000  0.81212000  0.98251000  1.0
  H  H5  1  0.31041000  0.58285000  0.99616000  1.0
  H  H6  1  0.14780000  0.46860000  0.28235000  1.0
  H  H7  1  0.89354000  0.39012000  0.74077000  1.0
  H  H8  1  0.82528000  0.64529000  0.79139000  1.0
  H  H9  1  0.13360000  0.34850000  0.97754000  1.0
  H  H10  1  0.61461000  0.04982000  0.37732000  1.0
  H  H11  1  0.44983000  0.80925000  0.55522000  1.0
  H  H12  1  0.83523000  0.32563000  0.20080000  1.0
  H  H13  1  0.80410000  0.30098000  0.09713000  1.0
  H  H14  1  0.17886000  0.59463000  0.79651000  1.0
  H  H15  1  0.85121000  0.22490000  0.85708000  1.0
  H  H16  1  0.20090000  0.65430000  0.89150000  1.0
  H  H17  1  0.32587000  0.81977000  0.15231000  1.0
  H  H18  1  0.67542000  0.17062000  0.85163000  1.0
  H  H19  1  0.33501000  0.95586000  0.34141000  1.0
  H  H20  1  0.71667000  0.99223000  0.64970000  1.0
  H  H21  1  0.43442000  0.02381000  0.53699000  1.0
  H  H22  1  0.61464000  0.92052000  0.45361000  1.0
  H  H23  1  0.84576000  0.63569000  0.98401000  1.0
  H  H24  1  0.32615000  0.50204000  0.20282000  1.0
  H  H25  1  0.19822000  0.60888000  0.27212000  1.0
  H  H26  1  0.73601000  0.36236000  0.68910000  1.0
  H  H27  1  0.85959000  0.48472000  0.13467000  1.0
  C  C28  1  0.02747000  0.76035000  0.94033000  1.0
  C  C29  1  0.57457000  0.94365000  0.47212000  1.0
  C  C30  1  0.46752000  0.98052000  0.42980000  1.0
  C  C31  1  0.58261000  0.96492000  0.56138000  1.0
  C  C32  1  0.34175000  0.76726000  0.30583000  1.0
  C  C33  1  0.65859000  0.19177000  0.68090000  1.0
  C  C34  1  0.48109000  0.92081000  0.52456000  1.0
  C  C35  1  0.56964000  0.02571000  0.46824000  1.0
  C  C36  1  0.47252000  0.89622000  0.43338000  1.0
  C  C37  1  0.57645000  0.04913000  0.55770000  1.0
  C  C38  1  0.40881000  0.82172000  0.36591000  1.0
  C  C39  1  0.91976000  0.26796000  0.89384000  1.0
  C  C40  1  0.62483000  0.12645000  0.62359000  1.0
  C  C41  1  0.00965000  0.41015000  0.33075000  1.0
  C  C42  1  0.02487000  0.45193000  0.68469000  1.0
  C  C43  1  0.93325000  0.37627000  0.17524000  1.0
  C  C44  1  0.08973000  0.54580000  0.83284000  1.0
  C  C45  1  0.01166000  0.41311000  0.39825000  1.0
  C  C46  1  0.02394000  0.43861000  0.61674000  1.0
  C  C47  1  0.01562000  0.41912000  0.47257000  1.0
  C  C48  1  0.01996000  0.42687000  0.54183000  1.0
  C  C49  1  0.44546000  0.57150000  0.13304000  1.0
  C  C50  1  0.00801000  0.40886000  0.25513000  1.0
  C  C51  1  0.78405000  0.60000000  0.10650000  1.0
  C  C52  1  0.51932000  0.58809000  0.14158000  1.0
  C  C53  1  0.72914000  0.60755000  0.12545000  1.0
  C  C54  1  0.59601000  0.60079000  0.14382000  1.0
  C  C55  1  0.66291000  0.60831000  0.13881000  1.0
  C  C56  1  0.94822000  0.82467000  0.85465000  1.0
  C  C57  1  0.98846000  0.17809000  0.86607000  1.0
  C  C58  1  0.95204000  0.88845000  0.84281000  1.0
  C  C59  1  0.97865000  0.10685000  0.84714000  1.0
  C  C60  1  0.95866000  0.96047000  0.83561000  1.0
  C  C61  1  0.02427000  0.47515000  0.76023000  1.0
  C  C62  1  0.96841000  0.03001000  0.83696000  1.0
  C  C63  1  0.85589000  0.59297000  0.01434000  1.0
  C  C64  1  0.30768000  0.51898000  0.14839000  1.0
  C  C65  1  0.19957000  0.63627000  0.22593000  1.0
  C  C66  1  0.74101000  0.34609000  0.74311000  1.0
  C  C67  1  0.86379000  0.51626000  0.09195000  1.0
  C  C68  1  0.29865000  0.56057000  0.04243000  1.0
  C  C69  1  0.22962000  0.71262000  0.15376000  1.0
  C  C70  1  0.73291000  0.28539000  0.83329000  1.0
  C  C71  1  0.07847000  0.43951000  0.23877000  1.0
  C  C72  1  0.83471000  0.57580000  0.07641000  1.0
  C  C73  1  0.95609000  0.44379000  0.77933000  1.0
  C  C74  1  0.89179000  0.67475000  0.84189000  1.0
  C  C75  1  0.06450000  0.33043000  0.95512000  1.0
  C  C76  1  0.95385000  0.75797000  0.87635000  1.0
  C  C77  1  0.99195000  0.25460000  0.89839000  1.0
  C  C78  1  0.61518000  0.08138000  0.43527000  1.0
  C  C79  1  0.43333000  0.86163000  0.55308000  1.0
  C  C80  1  0.26186000  0.76538000  0.11522000  1.0
  C  C81  1  0.72430000  0.23576000  0.88278000  1.0
  C  C82  1  0.40355000  0.97922000  0.35184000  1.0
  C  C83  1  0.35859000  0.55249000  0.11200000  1.0
  C  C84  1  0.64731000  0.96249000  0.63655000  1.0
  C  C85  1  0.26365000  0.70933000  0.23498000  1.0
  C  C86  1  0.70393000  0.26819000  0.74635000  1.0
  C  C87  1  0.47394000  0.00033000  0.51802000  1.0
  N  N88  1  0.01009000  0.68508000  0.94297000  1.0
  N  N89  1  0.22009000  0.53483000  0.03774000  1.0
  N  N90  1  0.15154000  0.64536000  0.10339000  1.0
  N  N91  1  0.78430000  0.36678000  0.87611000  1.0
  N  N92  1  0.04891000  0.42682000  0.15758000  1.0
  N  N93  1  0.97729000  0.49150000  0.85532000  1.0
  N  N94  1  0.92636000  0.63202000  0.88187000  1.0
  N  N95  1  0.03663000  0.38266000  0.98297000  1.0
  N  N96  1  0.84689000  0.34243000  0.15608000  1.0
  N  N97  1  0.17103000  0.59706000  0.84788000  1.0
  N  N98  1  0.94757000  0.34408000  0.94519000  1.0
  N  N99  1  0.95851000  0.38740000  0.11775000  1.0
  N  N100  1  0.06031000  0.55420000  0.88828000  1.0
  N  N101  1  0.89191000  0.54550000  0.99350000  1.0
  N  N102  1  0.22586000  0.50894000  0.10304000  1.0
  N  N103  1  0.13371000  0.59811000  0.14580000  1.0
  N  N104  1  0.78855000  0.40345000  0.82172000  1.0
  N  N105  1  0.89686000  0.49856000  0.04157000  1.0
  O  O106  1  0.65156000  0.15600000  0.46877000  1.0
  O  O107  1  0.37800000  0.86805000  0.57092000  1.0
  O  O108  1  0.21831000  0.74962000  0.03843000  1.0
  O  O109  1  0.77164000  0.26505000  0.96024000  1.0
  O  O110  1  0.42216000  0.99814000  0.29949000  1.0
  O  O111  1  0.62767000  0.93238000  0.68328000  1.0
