# generated using pymatgen
data_CdH16C14(SN3)2
_symmetry_space_group_name_H-M   'P 1'
_cell_length_a   7.99293000
_cell_length_b   8.88647000
_cell_length_c   12.54700000
_cell_angle_alpha   89.99950000
_cell_angle_beta   89.99940000
_cell_angle_gamma   81.30750000
_symmetry_Int_Tables_number   1
_chemical_formula_structural   CdH16C14(SN3)2
_chemical_formula_sum   'Cd2 H32 C28 S4 N12'
_cell_volume   880.96340790
_cell_formula_units_Z   2
loop_
 _symmetry_equiv_pos_site_id
 _symmetry_equiv_pos_as_xyz
  1  'x, y, z'
loop_
 _atom_site_type_symbol
 _atom_site_label
 _atom_site_symmetry_multiplicity
 _atom_site_fract_x
 _atom_site_fract_y
 _atom_site_fract_z
 _atom_site_occupancy
  Cd  Cd0  1  0.00001000  0.00000000  0.50000000  1.0
  Cd  Cd1  1  0.50000000  0.50000000  1.00000000  1.0
  H  H2  1  0.05194000  0.65105000  0.39971000  1.0
  H  H3  1  0.44806000  0.84895000  0.89971000  1.0
  H  H4  1  0.94806000  0.34896000  0.60029000  1.0
  H  H5  1  0.55194000  0.15104000  0.10029000  1.0
  H  H6  1  0.21449000  0.39215000  0.43034000  1.0
  H  H7  1  0.28550000  0.10785000  0.93034000  1.0
  H  H8  1  0.78550000  0.60785000  0.56966000  1.0
  H  H9  1  0.71449000  0.89215000  0.06966000  1.0
  H  H10  1  0.41388000  0.35191000  0.58583000  1.0
  H  H11  1  0.08611000  0.14809000  0.08583000  1.0
  H  H12  1  0.58611000  0.64809000  0.41416000  1.0
  H  H13  1  0.91388000  0.85191000  0.91416000  1.0
  H  H14  1  0.27945000  0.82822000  0.65851000  1.0
  H  H15  1  0.22055000  0.67178000  0.15852000  1.0
  H  H16  1  0.72056000  0.17178000  0.34148000  1.0
  H  H17  1  0.77944000  0.32822000  0.84149000  1.0
  H  H18  1  0.59141000  0.50372000  0.71770000  1.0
  H  H19  1  0.90859000  0.99627000  0.21770000  1.0
  H  H20  1  0.40859000  0.49627000  0.28230000  1.0
  H  H21  1  0.09141000  0.00373000  0.78230000  1.0
  H  H22  1  0.48736000  0.68004000  0.76465000  1.0
  H  H23  1  0.01264000  0.81996000  0.26466000  1.0
  H  H24  1  0.51265000  0.31996000  0.23534000  1.0
  H  H25  1  0.98735000  0.18005000  0.73534000  1.0
  H  H26  1  0.39659000  0.37441000  0.80269000  1.0
  H  H27  1  0.10341000  0.12559000  0.30269000  1.0
  H  H28  1  0.60341000  0.62559000  0.19731000  1.0
  H  H29  1  0.89659000  0.87441000  0.69731000  1.0
  H  H30  1  0.26368000  0.52916000  0.82944000  1.0
  H  H31  1  0.23632000  0.97084000  0.32944000  1.0
  H  H32  1  0.73632000  0.47085000  0.17056000  1.0
  H  H33  1  0.76368000  0.02916000  0.67056000  1.0
  C  C34  1  0.33035000  0.10290000  0.63386000  1.0
  C  C35  1  0.16965000  0.39709000  0.13387000  1.0
  C  C36  1  0.66967000  0.89709000  0.36615000  1.0
  C  C37  1  0.83033000  0.60291000  0.86615000  1.0
  C  C38  1  0.14269000  0.63052000  0.46493000  1.0
  C  C39  1  0.35731000  0.86948000  0.96493000  1.0
  C  C40  1  0.85731000  0.36948000  0.53507000  1.0
  C  C41  1  0.64269000  0.13052000  0.03507000  1.0
  C  C42  1  0.23218000  0.48570000  0.48319000  1.0
  C  C43  1  0.26782000  0.01430000  0.98318000  1.0
  C  C44  1  0.76782000  0.51430000  0.51681000  1.0
  C  C45  1  0.73217000  0.98570000  0.01681000  1.0
  C  C46  1  0.34184000  0.46384000  0.56976000  1.0
  C  C47  1  0.15816000  0.03616000  0.06976000  1.0
  C  C48  1  0.65816000  0.53616000  0.43024000  1.0
  C  C49  1  0.84184000  0.96385000  0.93024000  1.0
  C  C50  1  0.35857000  0.58655000  0.63677000  1.0
  C  C51  1  0.14143000  0.91345000  0.13677000  1.0
  C  C52  1  0.64144000  0.41345000  0.36323000  1.0
  C  C53  1  0.85856000  0.08655000  0.86323000  1.0
  C  C54  1  0.26699000  0.72805000  0.61049000  1.0
  C  C55  1  0.23302000  0.77195000  0.11050000  1.0
  C  C56  1  0.73302000  0.27195000  0.38951000  1.0
  C  C57  1  0.76698000  0.22805000  0.88951000  1.0
  C  C58  1  0.46614000  0.56780000  0.73585000  1.0
  C  C59  1  0.03387000  0.93219000  0.23586000  1.0
  C  C60  1  0.53387000  0.43219000  0.26415000  1.0
  C  C61  1  0.96613000  0.06781000  0.76414000  1.0
  S  S62  1  0.46696000  0.10054000  0.73024000  1.0
  S  S63  1  0.03304000  0.39945000  0.23025000  1.0
  S  S64  1  0.53305000  0.89946000  0.26976000  1.0
  S  S65  1  0.96695000  0.60055000  0.76976000  1.0
  N  N66  1  0.22987000  0.10724000  0.56373000  1.0
  N  N67  1  0.27014000  0.39275000  0.06374000  1.0
  N  N68  1  0.77013000  0.89275000  0.43626000  1.0
  N  N69  1  0.72986000  0.60725000  0.93626000  1.0
  N  N70  1  0.16119000  0.75037000  0.52676000  1.0
  N  N71  1  0.33881000  0.74962000  0.02676000  1.0
  N  N72  1  0.83882000  0.24963000  0.47324000  1.0
  N  N73  1  0.66118000  0.25037000  0.97324000  1.0
  N  N74  1  0.39071000  0.48743000  0.82284000  1.0
  N  N75  1  0.10929000  0.01257000  0.32284000  1.0
  N  N76  1  0.60929000  0.51257000  0.17716000  1.0
  N  N77  1  0.89071000  0.98743000  0.67716000  1.0
