# generated using pymatgen
data_CoH12C5NO8
_symmetry_space_group_name_H-M   'P 1'
_cell_length_a   7.11147000
_cell_length_b   7.21893000
_cell_length_c   9.57351000
_cell_angle_alpha   88.76110000
_cell_angle_beta   83.58140000
_cell_angle_gamma   68.83900000
_symmetry_Int_Tables_number   1
_chemical_formula_structural   CoH12C5NO8
_chemical_formula_sum   'Co2 H24 C10 N2 O16'
_cell_volume   455.37071729
_cell_formula_units_Z   2
loop_
 _symmetry_equiv_pos_site_id
 _symmetry_equiv_pos_as_xyz
  1  'x, y, z'
loop_
 _atom_site_type_symbol
 _atom_site_label
 _atom_site_symmetry_multiplicity
 _atom_site_fract_x
 _atom_site_fract_y
 _atom_site_fract_z
 _atom_site_occupancy
  Co  Co0  1  0.24871000  0.70843000  0.72024000  1.0
  Co  Co1  1  0.75129000  0.29157000  0.27975000  1.0
  H  H2  1  0.73073000  0.93189000  0.74809000  1.0
  H  H3  1  0.26926000  0.06812000  0.25192000  1.0
  H  H4  1  0.46164000  0.03961000  0.74129000  1.0
  H  H5  1  0.53835000  0.96038000  0.25872000  1.0
  H  H6  1  0.98609000  0.72444000  0.52863000  1.0
  H  H7  1  0.01391000  0.27557000  0.47137000  1.0
  H  H8  1  0.18738000  0.73515000  0.45165000  1.0
  H  H9  1  0.81262000  0.26485000  0.54835000  1.0
  H  H10  1  0.42933000  0.36062000  0.60841000  1.0
  H  H11  1  0.57067000  0.63938000  0.39159000  1.0
  H  H12  1  0.26877000  0.36375000  0.74128000  1.0
  H  H13  1  0.73123000  0.63626000  0.25873000  1.0
  H  H14  1  0.03690000  0.11941000  0.76482000  1.0
  H  H15  1  0.96311000  0.88059000  0.23518000  1.0
  H  H16  1  0.13690000  0.05708000  0.61401000  1.0
  H  H17  1  0.86311000  0.94292000  0.38599000  1.0
  H  H18  1  0.65901000  0.49719000  0.78247000  1.0
  H  H19  1  0.34100000  0.50281000  0.21752000  1.0
  H  H20  1  0.67295000  0.51123000  0.96507000  1.0
  H  H21  1  0.32707000  0.48876000  0.03492000  1.0
  H  H22  1  0.73050000  0.87869000  0.99470000  1.0
  H  H23  1  0.26949000  0.12129000  0.00531000  1.0
  H  H24  1  0.53188000  0.80566000  0.08235000  1.0
  H  H25  1  0.46811000  0.19432000  0.91765000  1.0
  C  C26  1  0.59331000  0.90070000  0.73805000  1.0
  C  C27  1  0.40668000  0.09930000  0.26194000  1.0
  C  C28  1  0.61142000  0.80352000  0.59540000  1.0
  C  C29  1  0.38858000  0.19648000  0.40460000  1.0
  C  C30  1  0.70337000  0.57389000  0.86313000  1.0
  C  C31  1  0.29662000  0.42612000  0.13686000  1.0
  C  C32  1  0.93005000  0.53898000  0.83458000  1.0
  C  C33  1  0.06995000  0.46104000  0.16542000  1.0
  C  C34  1  0.57180000  0.89196000  0.99639000  1.0
  C  C35  1  0.42819000  0.10803000  0.00362000  1.0
  N  N36  1  0.55604000  0.78726000  0.86580000  1.0
  N  N37  1  0.44395000  0.21274000  0.13420000  1.0
  O  O38  1  0.48808000  0.72024000  0.57121000  1.0
  O  O39  1  0.51192000  0.27976000  0.42879000  1.0
  O  O40  1  0.74373000  0.82308000  0.50270000  1.0
  O  O41  1  0.25628000  0.17693000  0.49730000  1.0
  O  O42  1  0.98589000  0.68717000  0.83236000  1.0
  O  O43  1  0.01410000  0.31284000  0.16763000  1.0
  O  O44  1  0.04585000  0.35856000  0.81419000  1.0
  O  O45  1  0.95416000  0.64146000  0.18580000  1.0
  O  O46  1  0.35515000  0.78401000  0.87831000  1.0
  O  O47  1  0.64486000  0.21598000  0.12169000  1.0
  O  O48  1  0.13662000  0.66877000  0.52840000  1.0
  O  O49  1  0.86338000  0.33123000  0.47160000  1.0
  O  O50  1  0.39248000  0.39810000  0.71021000  1.0
  O  O51  1  0.60753000  0.60190000  0.28979000  1.0
  O  O52  1  0.05578000  0.01761000  0.69139000  1.0
  O  O53  1  0.94422000  0.98240000  0.30861000  1.0
