# generated using pymatgen
data_ZnH18C22(NO)4
_symmetry_space_group_name_H-M   'P 1'
_cell_length_a   9.65083000
_cell_length_b   9.66064000
_cell_length_c   11.85800000
_cell_angle_alpha   108.47200000
_cell_angle_beta   103.39200000
_cell_angle_gamma   92.35690000
_symmetry_Int_Tables_number   1
_chemical_formula_structural   ZnH18C22(NO)4
_chemical_formula_sum   'Zn2 H36 C44 N8 O8'
_cell_volume   1012.20005840
_cell_formula_units_Z   2
loop_
 _symmetry_equiv_pos_site_id
 _symmetry_equiv_pos_as_xyz
  1  'x, y, z'
loop_
 _atom_site_type_symbol
 _atom_site_label
 _atom_site_symmetry_multiplicity
 _atom_site_fract_x
 _atom_site_fract_y
 _atom_site_fract_z
 _atom_site_occupancy
  Zn  Zn0  1  0.47588000  0.09951000  0.24641000  1.0
  Zn  Zn1  1  0.52412000  0.90049000  0.75359000  1.0
  H  H2  1  0.02434000  0.98934000  0.29360000  1.0
  H  H3  1  0.97566000  0.01066000  0.70640000  1.0
  H  H4  1  0.75807000  0.00292000  0.53931000  1.0
  H  H5  1  0.24193000  0.99708000  0.46069000  1.0
  H  H6  1  0.69113000  0.37386000  0.09221000  1.0
  H  H7  1  0.30887000  0.62614000  0.90779000  1.0
  H  H8  1  0.24971000  0.44870000  0.00995000  1.0
  H  H9  1  0.75029000  0.55130000  0.99006000  1.0
  H  H10  1  0.27107000  0.35398000  0.32169000  1.0
  H  H11  1  0.72893000  0.64602000  0.67831000  1.0
  H  H12  1  0.54832000  0.16141000  0.54240000  1.0
  H  H13  1  0.45168000  0.83859000  0.45760000  1.0
  H  H14  1  0.43305000  0.38498000  0.69473000  1.0
  H  H15  1  0.56695000  0.61502000  0.30527000  1.0
  H  H16  1  0.18978000  0.54481000  0.46959000  1.0
  H  H17  1  0.81022000  0.45520000  0.53041000  1.0
  H  H18  1  0.33089000  0.62941000  0.60367000  1.0
  H  H19  1  0.66911000  0.37058000  0.39633000  1.0
  H  H20  1  0.18019000  0.75889000  0.71785000  1.0
  H  H21  1  0.81981000  0.24111000  0.28215000  1.0
  H  H22  1  0.89005000  0.52717000  0.84129000  1.0
  H  H23  1  0.10995000  0.47283000  0.15870000  1.0
  H  H24  1  0.94177000  0.28871000  0.70540000  1.0
  H  H25  1  0.05823000  0.71129000  0.29459000  1.0
  H  H26  1  0.10611000  0.28544000  0.57426000  1.0
  H  H27  1  0.89389000  0.71456000  0.42574000  1.0
  H  H28  1  0.02770000  0.89275000  0.83700000  1.0
  H  H29  1  0.97230000  0.10725000  0.16300000  1.0
  H  H30  1  0.90458000  0.80120000  0.89060000  1.0
  H  H31  1  0.09542000  0.19880000  0.10940000  1.0
  H  H32  1  0.27265000  0.99255000  0.97010000  1.0
  H  H33  1  0.72735000  0.00745000  0.02990000  1.0
  H  H34  1  0.02387000  0.71212000  0.07958000  1.0
  H  H35  1  0.97613000  0.28788000  0.92042000  1.0
  H  H36  1  0.27523000  0.83445000  0.26536000  1.0
  H  H37  1  0.72477000  0.16555000  0.73464000  1.0
  C  C38  1  0.75023000  0.99885000  0.30698000  1.0
  C  C39  1  0.24978000  0.00115000  0.69302000  1.0
  C  C40  1  0.87840000  0.99722000  0.40678000  1.0
  C  C41  1  0.12160000  0.00278000  0.59322000  1.0
  C  C42  1  0.01490000  0.99494000  0.38470000  1.0
  C  C43  1  0.98511000  0.00506000  0.61530000  1.0
  C  C44  1  0.86467000  0.00231000  0.52313000  1.0
  C  C45  1  0.13533000  0.99769000  0.47687000  1.0
  C  C46  1  0.42935000  0.29809000  0.12066000  1.0
  C  C47  1  0.57065000  0.70192000  0.87934000  1.0
  C  C48  1  0.46681000  0.40080000  0.05727000  1.0
  C  C49  1  0.53319000  0.59920000  0.94273000  1.0
  C  C50  1  0.60813000  0.42934000  0.05138000  1.0
  C  C51  1  0.39188000  0.57066000  0.94862000  1.0
  C  C52  1  0.35919000  0.47223000  0.00531000  1.0
  C  C53  1  0.64080000  0.52777000  0.99469000  1.0
  C  C54  1  0.32925000  0.32971000  0.40172000  1.0
  C  C55  1  0.67075000  0.67029000  0.59828000  1.0
  C  C56  1  0.47341000  0.23507000  0.52010000  1.0
  C  C57  1  0.52659000  0.76492000  0.47990000  1.0
  C  C58  1  0.41805000  0.34512000  0.59585000  1.0
  C  C59  1  0.58195000  0.65488000  0.40415000  1.0
  C  C60  1  0.25116000  0.53165000  0.55531000  1.0
  C  C61  1  0.74884000  0.46835000  0.44469000  1.0
  C  C62  1  0.15248000  0.52270000  0.63512000  1.0
  C  C63  1  0.84752000  0.47730000  0.36488000  1.0
  C  C64  1  0.12483000  0.65550000  0.71247000  1.0
  C  C65  1  0.87517000  0.34450000  0.28753000  1.0
  C  C66  1  0.03164000  0.65863000  0.78716000  1.0
  C  C67  1  0.96836000  0.34137000  0.21283000  1.0
  C  C68  1  0.96477000  0.52567000  0.78458000  1.0
  C  C69  1  0.03523000  0.47433000  0.21542000  1.0
  C  C70  1  0.99274000  0.39276000  0.70811000  1.0
  C  C71  1  0.00726000  0.60724000  0.29189000  1.0
  C  C72  1  0.08582000  0.39052000  0.63321000  1.0
  C  C73  1  0.91418000  0.60948000  0.36679000  1.0
  C  C74  1  0.01166000  0.80452000  0.87407000  1.0
  C  C75  1  0.98834000  0.19548000  0.12593000  1.0
  C  C76  1  0.24223000  0.93520000  0.02785000  1.0
  C  C77  1  0.75778000  0.06480000  0.97215000  1.0
  C  C78  1  0.11396000  0.78739000  0.08608000  1.0
  C  C79  1  0.88604000  0.21261000  0.91392000  1.0
  C  C80  1  0.23782000  0.84921000  0.17696000  1.0
  C  C81  1  0.76218000  0.15078000  0.82304000  1.0
  N  N82  1  0.41735000  0.22665000  0.39915000  1.0
  N  N83  1  0.58265000  0.77335000  0.60085000  1.0
  N  N84  1  0.32690000  0.40370000  0.51911000  1.0
  N  N85  1  0.67310000  0.59630000  0.48089000  1.0
  N  N86  1  0.11861000  0.84357000  0.99319000  1.0
  N  N87  1  0.88139000  0.15643000  0.00681000  1.0
  N  N88  1  0.31627000  0.94170000  0.13992000  1.0
  N  N89  1  0.68373000  0.05830000  0.86008000  1.0
  O  O90  1  0.63665000  0.03515000  0.34508000  1.0
  O  O91  1  0.36336000  0.96485000  0.65492000  1.0
  O  O92  1  0.76078000  0.97213000  0.19935000  1.0
  O  O93  1  0.23923000  0.02788000  0.80065000  1.0
  O  O94  1  0.53184000  0.22791000  0.15950000  1.0
  O  O95  1  0.46817000  0.77209000  0.84050000  1.0
  O  O96  1  0.30526000  0.28653000  0.13527000  1.0
  O  O97  1  0.69474000  0.71347000  0.86474000  1.0
