# generated using pymatgen
data_KH5(C4O)2
_symmetry_space_group_name_H-M   'P 1'
_cell_length_a   3.86337000
_cell_length_b   11.32080000
_cell_length_c   16.21990000
_cell_angle_alpha   86.56870000
_cell_angle_beta   89.99950000
_cell_angle_gamma   89.99960000
_symmetry_Int_Tables_number   1
_chemical_formula_structural   KH5(C4O)2
_chemical_formula_sum   'K4 H20 C32 O8'
_cell_volume   708.12891212
_cell_formula_units_Z   4
loop_
 _symmetry_equiv_pos_site_id
 _symmetry_equiv_pos_as_xyz
  1  'x, y, z'
loop_
 _atom_site_type_symbol
 _atom_site_label
 _atom_site_symmetry_multiplicity
 _atom_site_fract_x
 _atom_site_fract_y
 _atom_site_fract_z
 _atom_site_occupancy
  K  K0  1  0.68527000  0.62275000  0.06354000  1.0
  K  K1  1  0.18526000  0.87725000  0.93646000  1.0
  K  K2  1  0.31475000  0.37725000  0.93646000  1.0
  K  K3  1  0.81473000  0.12274000  0.06354000  1.0
  H  H4  1  0.62367000  0.22405000  0.25309000  1.0
  H  H5  1  0.12366000  0.27595000  0.74692000  1.0
  H  H6  1  0.37633000  0.77595000  0.74692000  1.0
  H  H7  1  0.87634000  0.72405000  0.25309000  1.0
  H  H8  1  0.73969000  0.26333000  0.39936000  1.0
  H  H9  1  0.23968000  0.23667000  0.60064000  1.0
  H  H10  1  0.26032000  0.73667000  0.60064000  1.0
  H  H11  1  0.76032000  0.76333000  0.39936000  1.0
  H  H12  1  0.27912000  0.60955000  0.35926000  1.0
  H  H13  1  0.77911000  0.89046000  0.64074000  1.0
  H  H14  1  0.72089000  0.39046000  0.64074000  1.0
  H  H15  1  0.22088000  0.10955000  0.35926000  1.0
  H  H16  1  0.17249000  0.56969000  0.21413000  1.0
  H  H17  1  0.67248000  0.93031000  0.78587000  1.0
  H  H18  1  0.82752000  0.43031000  0.78587000  1.0
  H  H19  1  0.32751000  0.06969000  0.21413000  1.0
  H  H20  1  0.73034000  0.38905000  0.51091000  1.0
  H  H21  1  0.23033000  0.11096000  0.48909000  1.0
  H  H22  1  0.26967000  0.61096000  0.48909000  1.0
  H  H23  1  0.76967000  0.88904000  0.51091000  1.0
  C  C24  1  0.29349000  0.36958000  0.13590000  1.0
  C  C25  1  0.79349000  0.13042000  0.86410000  1.0
  C  C26  1  0.70651000  0.63042000  0.86410000  1.0
  C  C27  1  0.20651000  0.86958000  0.13590000  1.0
  C  C28  1  0.37852000  0.39252000  0.22425000  1.0
  C  C29  1  0.87852000  0.10748000  0.77575000  1.0
  C  C30  1  0.62148000  0.60748000  0.77575000  1.0
  C  C31  1  0.12148000  0.89252000  0.22425000  1.0
  C  C32  1  0.54360000  0.30764000  0.27704000  1.0
  C  C33  1  0.04360000  0.19236000  0.72296000  1.0
  C  C34  1  0.45640000  0.69236000  0.72296000  1.0
  C  C35  1  0.95640000  0.80764000  0.27704000  1.0
  C  C36  1  0.60792000  0.32988000  0.35910000  1.0
  C  C37  1  0.10792000  0.17012000  0.64090000  1.0
  C  C38  1  0.39208000  0.67012000  0.64090000  1.0
  C  C39  1  0.89207000  0.82988000  0.35910000  1.0
  C  C40  1  0.50680000  0.43744000  0.39166000  1.0
  C  C41  1  0.00680000  0.06256000  0.60834000  1.0
  C  C42  1  0.49320000  0.56257000  0.60834000  1.0
  C  C43  1  0.99320000  0.93744000  0.39166000  1.0
  C  C44  1  0.35196000  0.52385000  0.33731000  1.0
  C  C45  1  0.85194000  0.97615000  0.66269000  1.0
  C  C46  1  0.64806000  0.47615000  0.66269000  1.0
  C  C47  1  0.14804000  0.02385000  0.33731000  1.0
  C  C48  1  0.29108000  0.50180000  0.25547000  1.0
  C  C49  1  0.79106000  0.99820000  0.74453000  1.0
  C  C50  1  0.70893000  0.49820000  0.74453000  1.0
  C  C51  1  0.20892000  0.00180000  0.25547000  1.0
  C  C52  1  0.56533000  0.45538000  0.47867000  1.0
  C  C53  1  0.06532000  0.04462000  0.52133000  1.0
  C  C54  1  0.43468000  0.54462000  0.52133000  1.0
  C  C55  1  0.93467000  0.95538000  0.47867000  1.0
  O  O56  1  0.18218000  0.45650000  0.08958000  1.0
  O  O57  1  0.68217000  0.04350000  0.91042000  1.0
  O  O58  1  0.81783000  0.54350000  0.91042000  1.0
  O  O59  1  0.31782000  0.95649000  0.08958000  1.0
  O  O60  1  0.33623000  0.26555000  0.11149000  1.0
  O  O61  1  0.83624000  0.23445000  0.88851000  1.0
  O  O62  1  0.66377000  0.73445000  0.88851000  1.0
  O  O63  1  0.16377000  0.76555000  0.11150000  1.0
