# generated using pymatgen
data_Ag2H14C9(NO2)3
_symmetry_space_group_name_H-M   'P 1'
_cell_length_a   7.40099000
_cell_length_b   7.93654539
_cell_length_c   12.66070000
_cell_angle_alpha   91.25475145
_cell_angle_beta   103.01340000
_cell_angle_gamma   110.71256107
_symmetry_Int_Tables_number   1
_chemical_formula_structural   Ag2H14C9(NO2)3
_chemical_formula_sum   'Ag4 H28 C18 N6 O12'
_cell_volume   673.51745509
_cell_formula_units_Z   2
loop_
 _symmetry_equiv_pos_site_id
 _symmetry_equiv_pos_as_xyz
  1  'x, y, z'
loop_
 _atom_site_type_symbol
 _atom_site_label
 _atom_site_symmetry_multiplicity
 _atom_site_fract_x
 _atom_site_fract_y
 _atom_site_fract_z
 _atom_site_occupancy
  Ag  Ag0  1  0.06005000  0.85122000  0.26692000  1.0
  Ag  Ag1  1  0.93996000  0.14879000  0.73308000  1.0
  Ag  Ag2  1  0.17027000  0.90663000  0.76975000  1.0
  Ag  Ag3  1  0.82973000  0.09337000  0.23025000  1.0
  H  H4  1  0.57953000  0.38701000  0.55846000  1.0
  H  H5  1  0.42047000  0.61298000  0.44154000  1.0
  H  H6  1  0.47833000  0.23822000  0.71896000  1.0
  H  H7  1  0.52170000  0.76179000  0.28104000  1.0
  H  H8  1  0.41384000  0.14844000  0.28427000  1.0
  H  H9  1  0.58618000  0.85157000  0.71573000  1.0
  H  H10  1  0.26705000  0.27466000  0.30273000  1.0
  H  H11  1  0.73296000  0.72535000  0.69727000  1.0
  H  H12  1  0.52830000  0.36758000  0.35923000  1.0
  H  H13  1  0.47170000  0.63242000  0.64077000  1.0
  H  H14  1  0.44472000  0.77660000  0.02030000  1.0
  H  H15  1  0.55526000  0.22339000  0.97970000  1.0
  H  H16  1  0.23095000  0.59637000  0.94806000  1.0
  H  H17  1  0.76903000  0.40361000  0.05194000  1.0
  H  H18  1  0.35440000  0.37646000  0.05944000  1.0
  H  H19  1  0.64559000  0.62353000  0.94056000  1.0
  H  H20  1  0.02688000  0.66339000  0.43873000  1.0
  H  H21  1  0.97312000  0.33662000  0.56127000  1.0
  H  H22  1  0.03765000  0.67125000  0.57945000  1.0
  H  H23  1  0.96236000  0.32876000  0.42055000  1.0
  H  H24  1  0.09148000  0.83289000  0.97652000  1.0
  H  H25  1  0.90851000  0.16710000  0.02348000  1.0
  H  H26  1  0.92906000  0.68943000  0.87864000  1.0
  H  H27  1  0.07094000  0.31057000  0.12135000  1.0
  H  H28  1  0.08202000  0.51703000  0.27499000  1.0
  H  H29  1  0.91796000  0.48296000  0.72501000  1.0
  H  H30  1  0.85976000  0.48490000  0.28282000  1.0
  H  H31  1  0.14024000  0.51510000  0.71718000  1.0
  C  C32  1  0.18769000  0.91070000  0.52449000  1.0
  C  C33  1  0.81232000  0.08931000  0.47551000  1.0
  C  C34  1  0.36340000  0.15883000  0.44427000  1.0
  C  C35  1  0.63661000  0.84118000  0.55573000  1.0
  C  C36  1  0.46464000  0.25252000  0.54787000  1.0
  C  C37  1  0.53537000  0.74749000  0.45213000  1.0
  C  C38  1  0.41128000  0.16908000  0.63684000  1.0
  C  C39  1  0.58873000  0.83092000  0.36316000  1.0
  C  C40  1  0.39708000  0.24221000  0.34315000  1.0
  C  C41  1  0.60293000  0.75780000  0.65686000  1.0
  C  C42  1  0.23151000  0.65506000  0.11206000  1.0
  C  C43  1  0.76848000  0.34494000  0.88793000  1.0
  C  C44  1  0.34231000  0.64002000  0.02708000  1.0
  C  C45  1  0.65768000  0.35996000  0.97292000  1.0
  C  C46  1  0.45489000  0.51108000  0.04835000  1.0
  C  C47  1  0.54511000  0.48892000  0.95165000  1.0
  C  C48  1  0.62924000  0.57691000  0.14934000  1.0
  C  C49  1  0.37075000  0.42308000  0.85066000  1.0
  N  N50  1  0.27353000  0.00100000  0.62718000  1.0
  N  N51  1  0.72648000  0.99900000  0.37283000  1.0
  N  N52  1  0.05821000  0.74055000  0.51208000  1.0
  N  N53  1  0.94180000  0.25946000  0.48792000  1.0
  N  N54  1  0.22714000  0.98940000  0.43312000  1.0
  N  N55  1  0.77286000  0.01061000  0.56689000  1.0
  O  O56  1  0.01894000  0.81951000  0.89825000  1.0
  O  O57  1  0.98106000  0.18049000  0.10175000  1.0
  O  O58  1  0.17800000  0.79099000  0.11411000  1.0
  O  O59  1  0.82199000  0.20899000  0.88589000  1.0
  O  O60  1  0.99774000  0.49587000  0.32904000  1.0
  O  O61  1  0.00225000  0.50413000  0.67096000  1.0
  O  O62  1  0.19705000  0.53141000  0.17613000  1.0
  O  O63  1  0.80295000  0.46858000  0.82387000  1.0
  O  O64  1  0.65635000  0.45892000  0.21009000  1.0
  O  O65  1  0.34365000  0.54108000  0.78991000  1.0
  O  O66  1  0.74210000  0.74437000  0.16084000  1.0
  O  O67  1  0.25789000  0.25563000  0.83916000  1.0
