# generated using pymatgen
data_ZnH8C21N2(O2F3)2
_symmetry_space_group_name_H-M   'P 1'
_cell_length_a   16.35710000
_cell_length_b   17.53270000
_cell_length_c   17.74870000
_cell_angle_alpha   89.80590000
_cell_angle_beta   84.71130000
_cell_angle_gamma   88.97500000
_symmetry_Int_Tables_number   1
_chemical_formula_structural   ZnH8C21N2(O2F3)2
_chemical_formula_sum   'Zn2 H16 C42 N4 O8 F12'
_cell_volume   5067.55784140
_cell_formula_units_Z   2
loop_
 _symmetry_equiv_pos_site_id
 _symmetry_equiv_pos_as_xyz
  1  'x, y, z'
loop_
 _atom_site_type_symbol
 _atom_site_label
 _atom_site_symmetry_multiplicity
 _atom_site_fract_x
 _atom_site_fract_y
 _atom_site_fract_z
 _atom_site_occupancy
  Zn  Zn0  1  0.41390000  0.49788000  0.50353000  1.0
  Zn  Zn1  1  0.58609000  0.50212000  0.49647000  1.0
  H  H2  1  0.71605000  0.42311000  0.57344000  1.0
  H  H3  1  0.86795000  0.42427000  0.57301000  1.0
  H  H4  1  0.86909000  0.60144000  0.40185000  1.0
  H  H5  1  0.71595000  0.59276000  0.41119000  1.0
  H  H6  1  0.13092000  0.39853000  0.59813000  1.0
  H  H7  1  0.13205000  0.57569000  0.42697000  1.0
  H  H8  1  0.28395000  0.57685000  0.42653000  1.0
  H  H9  1  0.28405000  0.40722000  0.58879000  1.0
  H  H10  1  0.61815000  0.50413000  0.73536000  1.0
  H  H11  1  0.61295000  0.50420000  0.87475000  1.0
  H  H12  1  0.34801000  0.49443000  0.88693000  1.0
  H  H13  1  0.35574000  0.49456000  0.74670000  1.0
  H  H14  1  0.65201000  0.50565000  0.11308000  1.0
  H  H15  1  0.38707000  0.49585000  0.12522000  1.0
  H  H16  1  0.38183000  0.49591000  0.26461000  1.0
  H  H17  1  0.64426000  0.50546000  0.25331000  1.0
  C  C18  1  0.49172000  0.49878000  0.64770000  1.0
  C  C19  1  0.50954000  0.35017000  0.50026000  1.0
  C  C20  1  0.50826000  0.50125000  0.35230000  1.0
  C  C21  1  0.49047000  0.64983000  0.49983000  1.0
  C  C22  1  0.75293000  0.46178000  0.53666000  1.0
  C  C23  1  0.83775000  0.46270000  0.53597000  1.0
  C  C24  1  0.88253000  0.51343000  0.48687000  1.0
  C  C25  1  0.83782000  0.56119000  0.44081000  1.0
  C  C26  1  0.75292000  0.55663000  0.44547000  1.0
  C  C27  1  0.97153000  0.51910000  0.48109000  1.0
  C  C28  1  0.02847000  0.48087000  0.51890000  1.0
  C  C29  1  0.16219000  0.43878000  0.55918000  1.0
  C  C30  1  0.11747000  0.48654000  0.51312000  1.0
  C  C31  1  0.16225000  0.53726000  0.46402000  1.0
  C  C32  1  0.24707000  0.53819000  0.46332000  1.0
  C  C33  1  0.24708000  0.44334000  0.55452000  1.0
  C  C34  1  0.48742000  0.49891000  0.73227000  1.0
  C  C35  1  0.55931000  0.50175000  0.76938000  1.0
  C  C36  1  0.55613000  0.50187000  0.84781000  1.0
  C  C37  1  0.47978000  0.49912000  0.89209000  1.0
  C  C38  1  0.40753000  0.49645000  0.85416000  1.0
  C  C39  1  0.41155000  0.49639000  0.77568000  1.0
  C  C40  1  0.47140000  0.49896000  0.97439000  1.0
  C  C41  1  0.52864000  0.50111000  0.02560000  1.0
  C  C42  1  0.59249000  0.50362000  0.14584000  1.0
  C  C43  1  0.52024000  0.50095000  0.10791000  1.0
  C  C44  1  0.44388000  0.49818000  0.15217000  1.0
  C  C45  1  0.44068000  0.49829000  0.23061000  1.0
  C  C46  1  0.51256000  0.50112000  0.26773000  1.0
  C  C47  1  0.58844000  0.50365000  0.22433000  1.0
  C  C48  1  0.48710000  0.73624000  0.50010000  1.0
  C  C49  1  0.55868000  0.78025000  0.49760000  1.0
  C  C50  1  0.55660000  0.85972000  0.49802000  1.0
  C  C51  1  0.48137000  0.90111000  0.50090000  1.0
  C  C52  1  0.40963000  0.85716000  0.50346000  1.0
  C  C53  1  0.41235000  0.77775000  0.50301000  1.0
  C  C54  1  0.59037000  0.14284000  0.49670000  1.0
  C  C55  1  0.51863000  0.09890000  0.49933000  1.0
  C  C56  1  0.44340000  0.14029000  0.50226000  1.0
  C  C57  1  0.44134000  0.21977000  0.50267000  1.0
  C  C58  1  0.51292000  0.26377000  0.50008000  1.0
  C  C59  1  0.58767000  0.22225000  0.49716000  1.0
  N  N60  1  0.71118000  0.50772000  0.49240000  1.0
  N  N61  1  0.28883000  0.49225000  0.50758000  1.0
  N  N62  1  0.46771000  0.97998000  0.50153000  1.0
  N  N63  1  0.53228000  0.02002000  0.49869000  1.0
  O  O64  1  0.42383000  0.49717000  0.61772000  1.0
  O  O65  1  0.56296000  0.50033000  0.61193000  1.0
  O  O66  1  0.57763000  0.38397000  0.49760000  1.0
  O  O67  1  0.43882000  0.38131000  0.50289000  1.0
  O  O68  1  0.57615000  0.50262000  0.38228000  1.0
  O  O69  1  0.43700000  0.49993000  0.38807000  1.0
  O  O70  1  0.42235000  0.61604000  0.50270000  1.0
  O  O71  1  0.56120000  0.61869000  0.49689000  1.0
  F  F72  1  0.00119000  0.57160000  0.42900000  1.0
  F  F73  1  0.99881000  0.42838000  0.57099000  1.0
  F  F74  1  0.39126000  0.49606000  0.00496000  1.0
  F  F75  1  0.60878000  0.50402000  0.99504000  1.0
  F  F76  1  0.33920000  0.74317000  0.50529000  1.0
  F  F77  1  0.33572000  0.89250000  0.50627000  1.0
  F  F78  1  0.63417000  0.74754000  0.49448000  1.0
  F  F79  1  0.62894000  0.89532000  0.49551000  1.0
  F  F80  1  0.66429000  0.10749000  0.49383000  1.0
  F  F81  1  0.66082000  0.25684000  0.49483000  1.0
  F  F82  1  0.37105000  0.10470000  0.50484000  1.0
  F  F83  1  0.36584000  0.25248000  0.50588000  1.0
