# generated using pymatgen
data_CdH20C34(N3O4)2
_symmetry_space_group_name_H-M   'P 1'
_cell_length_a   15.15380000
_cell_length_b   15.15380000
_cell_length_c   19.64060000
_cell_angle_alpha   89.99770000
_cell_angle_beta   89.99990000
_cell_angle_gamma   60.00000000
_symmetry_Int_Tables_number   1
_chemical_formula_structural   CdH20C34(N3O4)2
_chemical_formula_sum   'Cd3 H60 C102 N18 O24'
_cell_volume   3905.96623215
_cell_formula_units_Z   3
loop_
 _symmetry_equiv_pos_site_id
 _symmetry_equiv_pos_as_xyz
  1  'x, y, z'
loop_
 _atom_site_type_symbol
 _atom_site_label
 _atom_site_symmetry_multiplicity
 _atom_site_fract_x
 _atom_site_fract_y
 _atom_site_fract_z
 _atom_site_occupancy
  Cd  Cd0  1  0.00001000  0.86582000  0.83333000  1.0
  Cd  Cd1  1  0.86583000  0.13418000  0.16667000  1.0
  Cd  Cd2  1  0.13415000  0.00001000  0.50000000  1.0
  H  H3  1  0.45579000  0.87300000  0.75697000  1.0
  H  H4  1  0.54900000  0.73292000  0.67296000  1.0
  H  H5  1  0.28019000  0.91496000  0.79391000  1.0
  H  H6  1  0.07195000  0.66426000  0.73968000  1.0
  H  H7  1  0.07194000  0.49788000  0.73461000  1.0
  H  H8  1  0.89840000  0.08931000  0.00829000  1.0
  H  H9  1  0.93982000  0.14724000  0.90101000  1.0
  H  H10  1  0.95448000  0.38149000  0.01828000  1.0
  H  H11  1  0.91375000  0.31111000  0.12251000  1.0
  H  H12  1  0.15384000  0.45827000  0.43054000  1.0
  H  H13  1  0.87299000  0.67123000  0.09035000  1.0
  H  H14  1  0.73292000  0.71808000  0.00633000  1.0
  H  H15  1  0.91496000  0.80487000  0.12727000  1.0
  H  H16  1  0.66427000  0.26379000  0.07306000  1.0
  H  H17  1  0.49786000  0.43015000  0.06799000  1.0
  H  H18  1  0.08930000  0.01229000  0.34162000  1.0
  H  H19  1  0.14723000  0.91295000  0.23434000  1.0
  H  H20  1  0.38148000  0.66404000  0.35164000  1.0
  H  H21  1  0.31109000  0.77516000  0.45586000  1.0
  H  H22  1  0.45825000  0.38790000  0.76391000  1.0
  H  H23  1  0.67121000  0.45584000  0.42366000  1.0
  H  H24  1  0.71809000  0.54903000  0.33963000  1.0
  H  H25  1  0.80485000  0.28023000  0.46061000  1.0
  H  H26  1  0.26380000  0.07192000  0.40636000  1.0
  H  H27  1  0.43019000  0.07191000  0.40129000  1.0
  H  H28  1  0.01229000  0.89841000  0.67496000  1.0
  H  H29  1  0.91293000  0.93983000  0.56767000  1.0
  H  H30  1  0.66404000  0.95449000  0.68497000  1.0
  H  H31  1  0.77516000  0.91377000  0.78919000  1.0
  H  H32  1  0.38788000  0.15385000  0.09719000  1.0
  H  H33  1  0.32879000  0.12700000  0.24303000  1.0
  H  H34  1  0.28193000  0.26707000  0.32705000  1.0
  H  H35  1  0.19515000  0.08505000  0.20609000  1.0
  H  H36  1  0.73621000  0.33574000  0.26032000  1.0
  H  H37  1  0.56982000  0.50212000  0.26539000  1.0
  H  H38  1  0.98772000  0.91069000  0.99171000  1.0
  H  H39  1  0.08706000  0.85276000  0.09899000  1.0
  H  H40  1  0.33597000  0.61851000  0.98172000  1.0
  H  H41  1  0.22485000  0.68890000  0.87749000  1.0
  H  H42  1  0.61212000  0.54173000  0.56946000  1.0
  H  H43  1  0.54422000  0.32876000  0.90965000  1.0
  H  H44  1  0.45100000  0.28192000  0.99367000  1.0
  H  H45  1  0.71983000  0.19512000  0.87273000  1.0
  H  H46  1  0.92805000  0.73621000  0.92694000  1.0
  H  H47  1  0.92801000  0.56985000  0.93201000  1.0
  H  H48  1  0.10159000  0.98771000  0.65838000  1.0
  H  H49  1  0.06018000  0.08705000  0.76566000  1.0
  H  H50  1  0.04552000  0.33596000  0.64836000  1.0
  H  H51  1  0.08624000  0.22485000  0.54414000  1.0
  H  H52  1  0.84615000  0.61211000  0.23609000  1.0
  H  H53  1  0.12705000  0.54416000  0.57634000  1.0
  H  H54  1  0.26712000  0.45097000  0.66037000  1.0
  H  H55  1  0.08508000  0.71977000  0.53939000  1.0
  H  H56  1  0.33572000  0.92808000  0.59364000  1.0
  H  H57  1  0.50210000  0.92808000  0.59872000  1.0
  H  H58  1  0.91070000  0.10159000  0.32505000  1.0
  H  H59  1  0.85276000  0.06017000  0.43233000  1.0
  H  H60  1  0.61853000  0.04550000  0.31503000  1.0
  H  H61  1  0.68893000  0.08623000  0.21081000  1.0
  H  H62  1  0.54173000  0.84615000  0.90281000  1.0
  C  C63  1  0.42056000  0.83105000  0.73648000  1.0
  C  C64  1  0.47255000  0.75316000  0.68943000  1.0
  C  C65  1  0.42639000  0.70126000  0.66099000  1.0
  C  C66  1  0.32773000  0.72459000  0.68177000  1.0
  C  C67  1  0.27746000  0.80095000  0.73149000  1.0
  C  C68  1  0.32313000  0.85485000  0.75692000  1.0
  C  C69  1  0.48120000  0.62493000  0.60670000  1.0
  C  C70  1  0.17663000  0.82443000  0.76158000  1.0
  C  C71  1  0.03932000  0.64077000  0.78048000  1.0
  C  C72  1  0.04011000  0.54866000  0.77813000  1.0
  C  C73  1  0.91258000  0.15300000  0.00856000  1.0
  C  C74  1  0.93566000  0.18583000  0.94860000  1.0
  C  C75  1  0.95142000  0.26919000  0.95157000  1.0
  C  C76  1  0.94288000  0.31634000  0.01458000  1.0
  C  C77  1  0.92041000  0.27779000  0.07213000  1.0
  C  C78  1  0.97697000  0.30599000  0.88900000  1.0
  C  C79  1  0.83105000  0.74840000  0.06984000  1.0
  C  C80  1  0.75315000  0.77430000  0.02280000  1.0
  C  C81  1  0.70127000  0.87234000  0.99434000  1.0
  C  C82  1  0.72460000  0.94768000  0.01512000  1.0
  C  C83  1  0.80095000  0.92160000  0.06484000  1.0
  C  C84  1  0.85485000  0.82203000  0.09028000  1.0
  C  C85  1  0.62494000  0.89386000  0.94006000  1.0
  C  C86  1  0.82443000  0.99895000  0.09493000  1.0
  C  C87  1  0.64077000  0.31990000  0.11386000  1.0
  C  C88  1  0.54865000  0.41120000  0.11151000  1.0
  C  C89  1  0.15298000  0.93444000  0.34189000  1.0
  C  C90  1  0.18581000  0.87852000  0.28194000  1.0
  C  C91  1  0.26917000  0.77939000  0.28493000  1.0
  C  C92  1  0.31633000  0.74079000  0.34793000  1.0
  C  C93  1  0.27778000  0.80181000  0.40547000  1.0
  C  C94  1  0.30598000  0.71705000  0.22236000  1.0
  C  C95  1  0.74839000  0.42060000  0.40316000  1.0
  C  C96  1  0.77430000  0.47257000  0.35611000  1.0
  C  C97  1  0.87235000  0.42641000  0.32766000  1.0
  C  C98  1  0.94768000  0.32774000  0.34844000  1.0
  C  C99  1  0.92158000  0.27749000  0.39817000  1.0
  C  C100  1  0.82202000  0.32316000  0.42361000  1.0
  C  C101  1  0.89387000  0.48120000  0.27336000  1.0
  C  C102  1  0.99891000  0.17664000  0.42827000  1.0
  C  C103  1  0.31992000  0.03930000  0.44716000  1.0
  C  C104  1  0.41123000  0.04010000  0.44481000  1.0
  C  C105  1  0.93443000  0.91259000  0.67522000  1.0
  C  C106  1  0.87851000  0.93567000  0.61527000  1.0
  C  C107  1  0.77939000  0.95144000  0.61825000  1.0
  C  C108  1  0.74078000  0.94291000  0.68126000  1.0
  C  C109  1  0.80180000  0.92043000  0.73880000  1.0
  C  C110  1  0.71703000  0.97699000  0.55569000  1.0
  C  C111  1  0.25161000  0.16895000  0.26352000  1.0
  C  C112  1  0.22571000  0.24684000  0.31057000  1.0
  C  C113  1  0.12766000  0.29873000  0.33901000  1.0
  C  C114  1  0.05233000  0.27541000  0.31822000  1.0
  C  C115  1  0.07841000  0.19906000  0.26851000  1.0
  C  C116  1  0.17798000  0.14515000  0.24308000  1.0
  C  C117  1  0.10613000  0.37507000  0.39330000  1.0
  C  C118  1  0.00106000  0.17557000  0.23842000  1.0
  C  C119  1  0.68009000  0.35923000  0.21952000  1.0
  C  C120  1  0.58877000  0.45134000  0.22187000  1.0
  C  C121  1  0.06558000  0.84700000  0.99144000  1.0
  C  C122  1  0.12149000  0.81418000  0.05140000  1.0
  C  C123  1  0.22061000  0.73081000  0.04842000  1.0
  C  C124  1  0.25922000  0.68366000  0.98542000  1.0
  C  C125  1  0.19820000  0.72221000  0.92787000  1.0
  C  C126  1  0.28296000  0.69401000  0.11099000  1.0
  C  C127  1  0.57944000  0.25161000  0.93016000  1.0
  C  C128  1  0.52745000  0.22569000  0.97720000  1.0
  C  C129  1  0.57361000  0.12765000  0.00566000  1.0
  C  C130  1  0.67228000  0.05232000  0.98488000  1.0
  C  C131  1  0.72255000  0.07840000  0.93516000  1.0
  C  C132  1  0.67688000  0.17797000  0.90972000  1.0
  C  C133  1  0.51880000  0.10614000  0.05994000  1.0
  C  C134  1  0.82338000  0.00106000  0.90507000  1.0
  C  C135  1  0.96066000  0.68011000  0.88614000  1.0
  C  C136  1  0.95985000  0.58879000  0.88849000  1.0
  C  C137  1  0.08742000  0.06557000  0.65811000  1.0
  C  C138  1  0.06433000  0.12148000  0.71806000  1.0
  C  C139  1  0.04856000  0.22061000  0.71507000  1.0
  C  C140  1  0.05712000  0.25921000  0.65207000  1.0
  C  C141  1  0.07959000  0.19819000  0.59453000  1.0
  C  C142  1  0.02302000  0.28296000  0.77764000  1.0
  C  C143  1  0.16898000  0.57941000  0.59684000  1.0
  C  C144  1  0.24687000  0.52743000  0.64389000  1.0
  C  C145  1  0.29876000  0.57360000  0.67234000  1.0
  C  C146  1  0.27542000  0.67226000  0.65156000  1.0
  C  C147  1  0.19906000  0.72252000  0.60183000  1.0
  C  C148  1  0.14518000  0.67684000  0.57639000  1.0
  C  C149  1  0.37507000  0.51880000  0.72664000  1.0
  C  C150  1  0.17555000  0.82336000  0.57173000  1.0
  C  C151  1  0.35922000  0.96069000  0.55284000  1.0
  C  C152  1  0.45133000  0.95990000  0.55519000  1.0
  C  C153  1  0.84702000  0.08741000  0.32478000  1.0
  C  C154  1  0.81419000  0.06432000  0.38473000  1.0
  C  C155  1  0.73083000  0.04855000  0.38175000  1.0
  C  C156  1  0.68369000  0.05709000  0.31874000  1.0
  C  C157  1  0.72223000  0.07957000  0.26120000  1.0
  C  C158  1  0.69402000  0.02301000  0.44431000  1.0
  C  C159  1  0.99998000  0.42409000  0.83332000  1.0
  C  C160  1  0.99998000  0.52164000  0.83332000  1.0
  C  C161  1  0.42407000  0.57591000  0.16668000  1.0
  C  C162  1  0.52162000  0.47836000  0.16668000  1.0
  C  C163  1  0.57592000  0.00000000  0.50000000  1.0
  C  C164  1  0.47837000  0.00000000  0.50000000  1.0
  N  N165  1  0.90582000  0.19722000  0.06903000  1.0
  N  N166  1  0.97576000  0.39517000  0.89177000  1.0
  N  N167  1  0.19721000  0.89696000  0.40237000  1.0
  N  N168  1  0.39516000  0.62906000  0.22514000  1.0
  N  N169  1  0.89696000  0.90584000  0.73570000  1.0
  N  N170  1  0.62905000  0.97579000  0.55846000  1.0
  N  N171  1  0.10304000  0.80278000  0.93097000  1.0
  N  N172  1  0.37093000  0.60483000  0.10823000  1.0
  N  N173  1  0.09417000  0.10304000  0.59763000  1.0
  N  N174  1  0.02422000  0.37094000  0.77486000  1.0
  N  N175  1  0.80280000  0.09416000  0.26430000  1.0
  N  N176  1  0.60484000  0.02421000  0.44154000  1.0
  N  N177  1  0.00001000  0.70531000  0.83331000  1.0
  N  N178  1  0.00000000  0.24721000  0.83332000  1.0
  N  N179  1  0.70532000  0.29469000  0.16669000  1.0
  N  N180  1  0.24721000  0.75279000  0.16668000  1.0
  N  N181  1  0.29468000  1.00000000  0.50000000  1.0
  N  N182  1  0.75279000  0.00000000  0.50000000  1.0
  O  O183  1  0.15362000  0.75449000  0.76291000  1.0
  O  O184  1  0.44317000  0.59480000  0.56426000  1.0
  O  O185  1  0.58411000  0.58971000  0.60751000  1.0
  O  O186  1  0.11942000  0.91303000  0.78686000  1.0
  O  O187  1  0.75448000  0.09190000  0.09627000  1.0
  O  O188  1  0.59481000  0.96202000  0.89760000  1.0
  O  O189  1  0.58971000  0.82618000  0.94086000  1.0
  O  O190  1  0.91305000  0.96755000  0.12020000  1.0
  O  O191  1  0.09188000  0.15360000  0.42958000  1.0
  O  O192  1  0.96204000  0.44317000  0.23091000  1.0
  O  O193  1  0.82617000  0.58410000  0.27414000  1.0
  O  O194  1  0.96749000  0.11947000  0.45356000  1.0
  O  O195  1  0.90811000  0.24552000  0.23708000  1.0
  O  O196  1  0.03797000  0.40520000  0.43574000  1.0
  O  O197  1  0.17382000  0.41028000  0.39249000  1.0
  O  O198  1  0.03246000  0.08696000  0.21314000  1.0
  O  O199  1  0.84639000  0.90810000  0.90375000  1.0
  O  O200  1  0.55683000  0.03797000  0.10240000  1.0
  O  O201  1  0.41589000  0.17382000  0.05914000  1.0
  O  O202  1  0.88060000  0.03244000  0.87980000  1.0
  O  O203  1  0.24547000  0.84641000  0.57042000  1.0
  O  O204  1  0.40520000  0.55684000  0.76909000  1.0
  O  O205  1  0.41027000  0.41590000  0.72586000  1.0
  O  O206  1  0.08695000  0.88054000  0.54643000  1.0
