# generated using pymatgen
data_CsH5(C2O3)2
_symmetry_space_group_name_H-M   'P 1'
_cell_length_a   7.69996000
_cell_length_b   8.05117000
_cell_length_c   12.08410000
_cell_angle_alpha   90.00000000
_cell_angle_beta   103.04600000
_cell_angle_gamma   89.99990000
_symmetry_Int_Tables_number   1
_chemical_formula_structural   CsH5(C2O3)2
_chemical_formula_sum   'Cs4 H20 C16 O24'
_cell_volume   729.80202510
_cell_formula_units_Z   4
loop_
 _symmetry_equiv_pos_site_id
 _symmetry_equiv_pos_as_xyz
  1  'x, y, z'
loop_
 _atom_site_type_symbol
 _atom_site_label
 _atom_site_symmetry_multiplicity
 _atom_site_fract_x
 _atom_site_fract_y
 _atom_site_fract_z
 _atom_site_occupancy
  Cs  Cs0  1  0.23063000  0.07829000  0.47080000  1.0
  Cs  Cs1  1  0.76938000  0.57829000  0.02920000  1.0
  Cs  Cs2  1  0.76938000  0.92171000  0.52920000  1.0
  Cs  Cs3  1  0.23062000  0.42171000  0.97080000  1.0
  H  H4  1  0.87111000  0.63813000  0.75577000  1.0
  H  H5  1  0.12889000  0.13813000  0.74423000  1.0
  H  H6  1  0.12889000  0.36187000  0.24423000  1.0
  H  H7  1  0.87111000  0.86186000  0.25577000  1.0
  H  H8  1  0.87122000  0.20716000  0.84521000  1.0
  H  H9  1  0.12878000  0.70716000  0.65479000  1.0
  H  H10  1  0.12878000  0.79284000  0.15479000  1.0
  H  H11  1  0.87122000  0.29284000  0.34521000  1.0
  H  H12  1  0.28534000  0.42768000  0.64461000  1.0
  H  H13  1  0.71466000  0.92768000  0.85539000  1.0
  H  H14  1  0.71466000  0.57232000  0.35539000  1.0
  H  H15  1  0.28534000  0.07232000  0.14461000  1.0
  H  H16  1  0.70484000  0.44433000  0.56100000  1.0
  H  H17  1  0.29516000  0.94433000  0.93900000  1.0
  H  H18  1  0.29516000  0.55567000  0.43900000  1.0
  H  H19  1  0.70484000  0.05567000  0.06100000  1.0
  H  H20  1  0.69468000  0.21145000  0.68596000  1.0
  H  H21  1  0.30532000  0.71145000  0.81404000  1.0
  H  H22  1  0.30532000  0.78856000  0.31404000  1.0
  H  H23  1  0.69468000  0.28855000  0.18595000  1.0
  C  C24  1  0.97705000  0.38865000  0.63785000  1.0
  C  C25  1  0.02295000  0.88865000  0.86215000  1.0
  C  C26  1  0.02295000  0.61134000  0.36215000  1.0
  C  C27  1  0.97705000  0.11134000  0.13785000  1.0
  C  C28  1  0.79173000  0.45210000  0.64693000  1.0
  C  C29  1  0.20827000  0.95210000  0.85307000  1.0
  C  C30  1  0.20827000  0.54790000  0.35307000  1.0
  C  C31  1  0.79173000  0.04790000  0.14693000  1.0
  C  C32  1  0.71452000  0.33514000  0.72531000  1.0
  C  C33  1  0.28548000  0.83514000  0.77469000  1.0
  C  C34  1  0.28548000  0.66487000  0.27470000  1.0
  C  C35  1  0.71452000  0.16486000  0.22530000  1.0
  C  C36  1  0.53071000  0.39832000  0.73373000  1.0
  C  C37  1  0.46929000  0.89832000  0.76627000  1.0
  C  C38  1  0.46929000  0.60168000  0.26627000  1.0
  C  C39  1  0.53071000  0.10168000  0.23373000  1.0
  O  O40  1  0.10450000  0.49415000  0.64862000  1.0
  O  O41  1  0.89550000  0.99416000  0.85138000  1.0
  O  O42  1  0.89549000  0.50584000  0.35138000  1.0
  O  O43  1  0.10450000  0.00585000  0.14862000  1.0
  O  O44  1  0.99239000  0.23523000  0.62048000  1.0
  O  O45  1  0.00761000  0.73523000  0.87952000  1.0
  O  O46  1  0.00761000  0.76478000  0.37952000  1.0
  O  O47  1  0.99239000  0.26478000  0.12048000  1.0
  O  O48  1  0.78906000  0.62012000  0.68078000  1.0
  O  O49  1  0.21094000  0.12012000  0.81922000  1.0
  O  O50  1  0.21094000  0.37988000  0.31922000  1.0
  O  O51  1  0.78906000  0.87988000  0.18078000  1.0
  O  O52  1  0.83151000  0.32506000  0.83430000  1.0
  O  O53  1  0.16849000  0.82506000  0.66570000  1.0
  O  O54  1  0.16849000  0.67494000  0.16570000  1.0
  O  O55  1  0.83151000  0.17494000  0.33430000  1.0
  O  O56  1  0.49853000  0.45615000  0.82137000  1.0
  O  O57  1  0.50147000  0.95615000  0.67863000  1.0
  O  O58  1  0.50147000  0.54385000  0.17863000  1.0
  O  O59  1  0.49853000  0.04385000  0.32137000  1.0
  O  O60  1  0.41091000  0.38507000  0.63612000  1.0
  O  O61  1  0.58909000  0.88507000  0.86388000  1.0
  O  O62  1  0.58909000  0.61493000  0.36388000  1.0
  O  O63  1  0.41091000  0.11493000  0.13612000  1.0
