# generated using pymatgen
data_LiH11C13N4
_symmetry_space_group_name_H-M   'P 1'
_cell_length_a   7.87870000
_cell_length_b   9.07787000
_cell_length_c   9.11742000
_cell_angle_alpha   86.69270000
_cell_angle_beta   64.46090000
_cell_angle_gamma   82.35410000
_symmetry_Int_Tables_number   1
_chemical_formula_structural   LiH11C13N4
_chemical_formula_sum   'Li2 H22 C26 N8'
_cell_volume   583.14795272
_cell_formula_units_Z   2
loop_
 _symmetry_equiv_pos_site_id
 _symmetry_equiv_pos_as_xyz
  1  'x, y, z'
loop_
 _atom_site_type_symbol
 _atom_site_label
 _atom_site_symmetry_multiplicity
 _atom_site_fract_x
 _atom_site_fract_y
 _atom_site_fract_z
 _atom_site_occupancy
  Li  Li0  1  0.94098000  0.69219000  0.35529000  1.0
  Li  Li1  1  0.29585000  0.19188000  0.64515000  1.0
  H  H2  1  0.74391000  0.03249000  0.44461000  1.0
  H  H3  1  0.18804000  0.53195000  0.55631000  1.0
  H  H4  1  0.24026000  0.85327000  0.74026000  1.0
  H  H5  1  0.98051000  0.35385000  0.25926000  1.0
  H  H6  1  0.54081000  0.62921000  0.64708000  1.0
  H  H7  1  0.18834000  0.12948000  0.35200000  1.0
  H  H8  1  0.65026000  0.53487000  0.38300000  1.0
  H  H9  1  0.03238000  0.03479000  0.61680000  1.0
  H  H10  1  0.49085000  0.42932000  0.23761000  1.0
  H  H11  1  0.72794000  0.92917000  0.76208000  1.0
  H  H12  1  0.87953000  0.62536000  0.79641000  1.0
  H  H13  1  0.67614000  0.12504000  0.20331000  1.0
  H  H14  1  0.02726000  0.71844000  0.96061000  1.0
  H  H15  1  0.98753000  0.21830000  0.03922000  1.0
  H  H16  1  0.15475000  0.40190000  0.93349000  1.0
  H  H17  1  0.08718000  0.90220000  0.06755000  1.0
  H  H18  1  0.29391000  0.51452000  0.09240000  1.0
  H  H19  1  0.38532000  0.01437000  0.90778000  1.0
  H  H20  1  0.84687000  0.38014000  0.70431000  1.0
  H  H21  1  0.55217000  0.87948000  0.29516000  1.0
  H  H22  1  0.68487000  0.26211000  0.57059000  1.0
  H  H23  1  0.25671000  0.76155000  0.42939000  1.0
  C  C24  1  0.64577000  0.95300000  0.51286000  1.0
  C  C25  1  0.15813000  0.45272000  0.48777000  1.0
  C  C26  1  0.38965000  0.85900000  0.66342000  1.0
  C  C27  1  0.05283000  0.35926000  0.33645000  1.0
  C  C28  1  0.54003000  0.74659000  0.61647000  1.0
  C  C29  1  0.15638000  0.24669000  0.38324000  1.0
  C  C30  1  0.69831000  0.55225000  0.25241000  1.0
  C  C31  1  0.95020000  0.05193000  0.74741000  1.0
  C  C32  1  0.60803000  0.49442000  0.17093000  1.0
  C  C33  1  0.77856000  0.99413000  0.82882000  1.0
  C  C34  1  0.67272000  0.51870000  0.00309000  1.0
  C  C35  1  0.67562000  0.01830000  0.99664000  1.0
  C  C36  1  0.82566000  0.60170000  0.92616000  1.0
  C  C37  1  0.75177000  0.10133000  0.07358000  1.0
  C  C38  1  0.90657000  0.65501000  0.01854000  1.0
  C  C39  1  0.92487000  0.15467000  0.98129000  1.0
  C  C40  1  0.30813000  0.39666000  0.88829000  1.0
  C  C41  1  0.19589000  0.89672000  0.11230000  1.0
  C  C42  1  0.38599000  0.46144000  0.97594000  1.0
  C  C43  1  0.36140000  0.96123000  0.02421000  1.0
  C  C44  1  0.58357000  0.45598000  0.91192000  1.0
  C  C45  1  0.49549000  0.95554000  0.08784000  1.0
  C  C46  1  0.69287000  0.38664000  0.76103000  1.0
  C  C47  1  0.45453000  0.88604000  0.23869000  1.0
  C  C48  1  0.60173000  0.32113000  0.68518000  1.0
  C  C49  1  0.28764000  0.82065000  0.31484000  1.0
  N  N50  1  0.70453000  0.80663000  0.51922000  1.0
  N  N51  1  0.22344000  0.30636000  0.48096000  1.0
  N  N52  1  0.45699000  0.99175000  0.59784000  1.0
  N  N53  1  0.05434000  0.49177000  0.40265000  1.0
  N  N54  1  0.84622000  0.63142000  0.17915000  1.0
  N  N55  1  0.02498000  0.13106000  0.82071000  1.0
  N  N56  1  0.41226000  0.32473000  0.74660000  1.0
  N  N57  1  0.15900000  0.82461000  0.25389000  1.0
