# generated using pymatgen
data_ZnH19C29N3O4
_symmetry_space_group_name_H-M   'P 1'
_cell_length_a   9.18101000
_cell_length_b   10.37840000
_cell_length_c   14.26120000
_cell_angle_alpha   76.97600000
_cell_angle_beta   71.65280000
_cell_angle_gamma   64.94380000
_symmetry_Int_Tables_number   1
_chemical_formula_structural   ZnH19C29N3O4
_chemical_formula_sum   'Zn2 H38 C58 N6 O8'
_cell_volume   1161.69770505
_cell_formula_units_Z   2
loop_
 _symmetry_equiv_pos_site_id
 _symmetry_equiv_pos_as_xyz
  1  'x, y, z'
loop_
 _atom_site_type_symbol
 _atom_site_label
 _atom_site_symmetry_multiplicity
 _atom_site_fract_x
 _atom_site_fract_y
 _atom_site_fract_z
 _atom_site_occupancy
  Zn  Zn0  1  0.54896000  0.80673000  0.81010000  1.0
  Zn  Zn1  1  0.45104000  0.19327000  0.18990000  1.0
  H  H2  1  0.36218000  0.70705000  0.70581000  1.0
  H  H3  1  0.63782000  0.29294000  0.29419000  1.0
  H  H4  1  0.16714000  0.57420000  0.75796000  1.0
  H  H5  1  0.83287000  0.42579000  0.24204000  1.0
  H  H6  1  0.08569000  0.49106000  0.93633000  1.0
  H  H7  1  0.91431000  0.50894000  0.06367000  1.0
  H  H8  1  0.18373000  0.55015000  0.06133000  1.0
  H  H9  1  0.81628000  0.44986000  0.93867000  1.0
  H  H10  1  0.25920000  0.63418000  0.15634000  1.0
  H  H11  1  0.74080000  0.36583000  0.84366000  1.0
  H  H12  1  0.59592000  0.82761000  0.15314000  1.0
  H  H13  1  0.40408000  0.17239000  0.84686000  1.0
  H  H14  1  0.78612000  0.89812000  0.06016000  1.0
  H  H15  1  0.21387000  0.10188000  0.93984000  1.0
  H  H16  1  0.00118000  0.98051000  0.93445000  1.0
  H  H17  1  0.99882000  0.01948000  0.06555000  1.0
  H  H18  1  0.03528000  0.98433000  0.75548000  1.0
  H  H19  1  0.96472000  0.01566000  0.24452000  1.0
  H  H20  1  0.85074000  0.90324000  0.70278000  1.0
  H  H21  1  0.14927000  0.09675000  0.29723000  1.0
  H  H22  1  0.11839000  0.76162000  0.29496000  1.0
  H  H23  1  0.88160000  0.23838000  0.70504000  1.0
  H  H24  1  0.04616000  0.74661000  0.47716000  1.0
  H  H25  1  0.95383000  0.25339000  0.52284000  1.0
  H  H26  1  0.26342000  0.68452000  0.56733000  1.0
  H  H27  1  0.73657000  0.31548000  0.43267000  1.0
  H  H28  1  0.55604000  0.64037000  0.47199000  1.0
  H  H29  1  0.44395000  0.35963000  0.52801000  1.0
  H  H30  1  0.62823000  0.66523000  0.28849000  1.0
  H  H31  1  0.37177000  0.33477000  0.71151000  1.0
  H  H32  1  0.72614000  0.70158000  0.52049000  1.0
  H  H33  1  0.27387000  0.29842000  0.47951000  1.0
  H  H34  1  0.11242000  0.37866000  0.64843000  1.0
  H  H35  1  0.88758000  0.62134000  0.35157000  1.0
  H  H36  1  0.64388000  0.01094000  0.61732000  1.0
  H  H37  1  0.35612000  0.98907000  0.38268000  1.0
  H  H38  1  0.20330000  0.03143000  0.55889000  1.0
  H  H39  1  0.79669000  0.96857000  0.44111000  1.0
  C  C40  1  0.31629000  0.67217000  0.78359000  1.0
  C  C41  1  0.68372000  0.32782000  0.21641000  1.0
  C  C42  1  0.21106000  0.59762000  0.81230000  1.0
  C  C43  1  0.78894000  0.40238000  0.18770000  1.0
  C  C44  1  0.16377000  0.55310000  0.91294000  1.0
  C  C45  1  0.83624000  0.44689000  0.08706000  1.0
  C  C46  1  0.21810000  0.58600000  0.98230000  1.0
  C  C47  1  0.78190000  0.41401000  0.01770000  1.0
  C  C48  1  0.32130000  0.66355000  0.94739000  1.0
  C  C49  1  0.67870000  0.33645000  0.05261000  1.0
  C  C50  1  0.39107000  0.70368000  0.01245000  1.0
  C  C51  1  0.60893000  0.29632000  0.98755000  1.0
  C  C52  1  0.34796000  0.68423000  0.11627000  1.0
  C  C53  1  0.65204000  0.31577000  0.88373000  1.0
  C  C54  1  0.42294000  0.72815000  0.16872000  1.0
  C  C55  1  0.57706000  0.27185000  0.83128000  1.0
  C  C56  1  0.54123000  0.78731000  0.11433000  1.0
  C  C57  1  0.45877000  0.21269000  0.88567000  1.0
  C  C58  1  0.58053000  0.80076000  0.01082000  1.0
  C  C59  1  0.41947000  0.19924000  0.98918000  1.0
  C  C60  1  0.70788000  0.85593000  0.94523000  1.0
  C  C61  1  0.29212000  0.14407000  0.05477000  1.0
  C  C62  1  0.80481000  0.89882000  0.98054000  1.0
  C  C63  1  0.19519000  0.10118000  0.01946000  1.0
  C  C64  1  0.92337000  0.94511000  0.91102000  1.0
  C  C65  1  0.07663000  0.05489000  0.08898000  1.0
  C  C66  1  0.94411000  0.94652000  0.80976000  1.0
  C  C67  1  0.05589000  0.05347000  0.19024000  1.0
  C  C68  1  0.84165000  0.90334000  0.78098000  1.0
  C  C69  1  0.15835000  0.09666000  0.21902000  1.0
  C  C70  1  0.37922000  0.71436000  0.27819000  1.0
  C  C71  1  0.62077000  0.28564000  0.72181000  1.0
  C  C72  1  0.21532000  0.73626000  0.33267000  1.0
  C  C73  1  0.78467000  0.26373000  0.66733000  1.0
  C  C74  1  0.17399000  0.72866000  0.43606000  1.0
  C  C75  1  0.82601000  0.27133000  0.56394000  1.0
  C  C76  1  0.29601000  0.69359000  0.48635000  1.0
  C  C77  1  0.70399000  0.30641000  0.51365000  1.0
  C  C78  1  0.45996000  0.66916000  0.43305000  1.0
  C  C79  1  0.54004000  0.33083000  0.56694000  1.0
  C  C80  1  0.50067000  0.68185000  0.32971000  1.0
  C  C81  1  0.49933000  0.31815000  0.67029000  1.0
  C  C82  1  0.81321000  0.59690000  0.69424000  1.0
  C  C83  1  0.18679000  0.40310000  0.30576000  1.0
  C  C84  1  0.84568000  0.61232000  0.51055000  1.0
  C  C85  1  0.15432000  0.38767000  0.48945000  1.0
  C  C86  1  0.91030000  0.54612000  0.59397000  1.0
  C  C87  1  0.08969000  0.45388000  0.40603000  1.0
  C  C88  1  0.06556000  0.43308000  0.58289000  1.0
  C  C89  1  0.93444000  0.56692000  0.41711000  1.0
  C  C90  1  0.31867000  0.05223000  0.70556000  1.0
  C  C91  1  0.68133000  0.94778000  0.29444000  1.0
  C  C92  1  0.58160000  0.00502000  0.56580000  1.0
  C  C93  1  0.41841000  0.99499000  0.43419000  1.0
  C  C94  1  0.41434000  0.02197000  0.60003000  1.0
  C  C95  1  0.58566000  0.97804000  0.39997000  1.0
  C  C96  1  0.33386000  0.01685000  0.53281000  1.0
  C  C97  1  0.66615000  0.98316000  0.46718000  1.0
  N  N98  1  0.36866000  0.70444000  0.84942000  1.0
  N  N99  1  0.63134000  0.29556000  0.15058000  1.0
  N  N100  1  0.50429000  0.76099000  0.96284000  1.0
  N  N101  1  0.49570000  0.23901000  0.03716000  1.0
  N  N102  1  0.72647000  0.86032000  0.84684000  1.0
  N  N103  1  0.27353000  0.13968000  0.15316000  1.0
  O  O104  1  0.67935000  0.71075000  0.69130000  1.0
  O  O105  1  0.32065000  0.28925000  0.30870000  1.0
  O  O106  1  0.86185000  0.53295000  0.77122000  1.0
  O  O107  1  0.13815000  0.46704000  0.22878000  1.0
  O  O108  1  0.40112000  0.00608000  0.77404000  1.0
  O  O109  1  0.59887000  0.99392000  0.22596000  1.0
  O  O110  1  0.16584000  0.12332000  0.72307000  1.0
  O  O111  1  0.83416000  0.87668000  0.27693000  1.0
