# generated using pymatgen
data_CuH10C4IN2
_symmetry_space_group_name_H-M   'P 1'
_cell_length_a   6.64668000
_cell_length_b   7.87491000
_cell_length_c   7.87492000
_cell_angle_alpha   101.09100000
_cell_angle_beta   108.77500000
_cell_angle_gamma   108.77500000
_symmetry_Int_Tables_number   1
_chemical_formula_structural   CuH10C4IN2
_chemical_formula_sum   'Cu2 H20 C8 I2 N4'
_cell_volume   348.77191384
_cell_formula_units_Z   2
loop_
 _symmetry_equiv_pos_site_id
 _symmetry_equiv_pos_as_xyz
  1  'x, y, z'
loop_
 _atom_site_type_symbol
 _atom_site_label
 _atom_site_symmetry_multiplicity
 _atom_site_fract_x
 _atom_site_fract_y
 _atom_site_fract_z
 _atom_site_occupancy
  Cu  Cu0  1  0.27626000  0.91374000  0.91374000  1.0
  Cu  Cu1  1  0.72375000  0.08627000  0.08626000  1.0
  H  H2  1  0.92973000  0.72146000  0.97618000  1.0
  H  H3  1  0.07027000  0.02379000  0.27853000  1.0
  H  H4  1  0.07029000  0.27857000  0.02383000  1.0
  H  H5  1  0.92972000  0.97618000  0.72144000  1.0
  H  H6  1  0.26259000  0.79687000  0.26228000  1.0
  H  H7  1  0.73736000  0.73772000  0.20311000  1.0
  H  H8  1  0.73741000  0.20314000  0.73774000  1.0
  H  H9  1  0.26261000  0.26224000  0.79684000  1.0
  H  H10  1  0.33975000  0.63815000  0.13231000  1.0
  H  H11  1  0.66025000  0.86773000  0.36186000  1.0
  H  H12  1  0.66025000  0.36188000  0.86771000  1.0
  H  H13  1  0.33976000  0.13225000  0.63811000  1.0
  H  H14  1  0.09765000  0.47915000  0.78384000  1.0
  H  H15  1  0.90239000  0.21619000  0.52085000  1.0
  H  H16  1  0.90236000  0.52088000  0.21620000  1.0
  H  H17  1  0.09758000  0.78375000  0.47912000  1.0
  H  H18  1  0.84275000  0.51646000  0.68090000  1.0
  H  H19  1  0.15730000  0.31909000  0.48354000  1.0
  H  H20  1  0.15728000  0.48356000  0.31912000  1.0
  H  H21  1  0.84266000  0.68088000  0.51644000  1.0
  C  C22  1  0.19073000  0.66221000  0.14593000  1.0
  C  C23  1  0.80925000  0.85406000  0.33781000  1.0
  C  C24  1  0.80930000  0.33786000  0.85406000  1.0
  C  C25  1  0.19074000  0.14590000  0.66218000  1.0
  C  C26  1  0.95458000  0.50294000  0.81013000  1.0
  C  C27  1  0.04547000  0.18988000  0.49710000  1.0
  C  C28  1  0.04549000  0.49717000  0.18994000  1.0
  C  C29  1  0.95449000  0.81007000  0.50288000  1.0
  I  I30  1  0.53836000  0.78303000  0.78303000  1.0
  I  I31  1  0.46165000  0.21699000  0.21696000  1.0
  N  N32  1  0.06241000  0.68530000  0.96659000  1.0
  N  N33  1  0.93757000  0.03341000  0.31466000  1.0
  N  N34  1  0.93758000  0.31467000  0.03346000  1.0
  N  N35  1  0.06243000  0.96658000  0.68529000  1.0
