# generated using pymatgen
data_DyH16C16N10ClO6
_symmetry_space_group_name_H-M   'P 1'
_cell_length_a   8.98149000
_cell_length_b   10.92150000
_cell_length_c   12.78855317
_cell_angle_alpha   115.27201671
_cell_angle_beta   106.35421950
_cell_angle_gamma   90.04160000
_symmetry_Int_Tables_number   1
_chemical_formula_structural   DyH16C16N10ClO6
_chemical_formula_sum   'Dy2 H32 C32 N20 Cl2 O12'
_cell_volume   1077.86292984
_cell_formula_units_Z   2
loop_
 _symmetry_equiv_pos_site_id
 _symmetry_equiv_pos_as_xyz
  1  'x, y, z'
loop_
 _atom_site_type_symbol
 _atom_site_label
 _atom_site_symmetry_multiplicity
 _atom_site_fract_x
 _atom_site_fract_y
 _atom_site_fract_z
 _atom_site_occupancy
  Dy  Dy0  1  0.25015000  0.06850000  0.99999000  1.0
  Dy  Dy1  1  0.74984000  0.93149000  1.00000000  1.0
  H  H2  1  0.98406000  0.21635000  0.99398000  1.0
  H  H3  1  0.51613000  0.22235000  0.00560000  1.0
  H  H4  1  0.01593000  0.78366000  0.00602000  1.0
  H  H5  1  0.48386000  0.77764000  0.99440000  1.0
  H  H6  1  0.53433000  0.95632000  0.68515000  1.0
  H  H7  1  0.96581000  0.27188000  0.31449000  1.0
  H  H8  1  0.46567000  0.04371000  0.31486000  1.0
  H  H9  1  0.03419000  0.72812000  0.68551000  1.0
  H  H10  1  0.47381000  0.78187000  0.64182000  1.0
  H  H11  1  0.02540000  0.14062000  0.35778000  1.0
  H  H12  1  0.52622000  0.21815000  0.35819000  1.0
  H  H13  1  0.97459000  0.85938000  0.64222000  1.0
  H  H14  1  0.00384000  0.55710000  0.38040000  1.0
  H  H15  1  0.49568000  0.17672000  0.61945000  1.0
  H  H16  1  0.99616000  0.44290000  0.61960000  1.0
  H  H17  1  0.50432000  0.82327000  0.38055000  1.0
  H  H18  1  0.87364000  0.87180000  0.26602000  1.0
  H  H19  1  0.62630000  0.60595000  0.73411000  1.0
  H  H20  1  0.12637000  0.12821000  0.73398000  1.0
  H  H21  1  0.37369000  0.39404000  0.26588000  1.0
  H  H22  1  0.59371000  0.49517000  0.07935000  1.0
  H  H23  1  0.90581000  0.41590000  0.92064000  1.0
  H  H24  1  0.40629000  0.50483000  0.92066000  1.0
  H  H25  1  0.09418000  0.58410000  0.07936000  1.0
  H  H26  1  0.76225000  0.40416000  0.21293000  1.0
  H  H27  1  0.73711000  0.19124000  0.78684000  1.0
  H  H28  1  0.23775000  0.59585000  0.78708000  1.0
  H  H29  1  0.26289000  0.80875000  0.21316000  1.0
  H  H30  1  0.13821000  0.33437000  0.06585000  1.0
  H  H31  1  0.36199000  0.26855000  0.93389000  1.0
  H  H32  1  0.86178000  0.66562000  0.93414000  1.0
  H  H33  1  0.63801000  0.73145000  0.06611000  1.0
  C  C34  1  0.40124000  0.92509000  0.78996000  1.0
  C  C35  1  0.09868000  0.13545000  0.20983000  1.0
  C  C36  1  0.59877000  0.07490000  0.21004000  1.0
  C  C37  1  0.90131000  0.86454000  0.79016000  1.0
  C  C38  1  0.43729000  0.88375000  0.67048000  1.0
  C  C39  1  0.06250000  0.21378000  0.32921000  1.0
  C  C40  1  0.56272000  0.11626000  0.32952000  1.0
  C  C41  1  0.93750000  0.78622000  0.67078000  1.0
  C  C42  1  0.09633000  0.81535000  0.43112000  1.0
  C  C43  1  0.40353000  0.38426000  0.56884000  1.0
  C  C44  1  0.90368000  0.18466000  0.56888000  1.0
  C  C45  1  0.59647000  0.61573000  0.43115000  1.0
  C  C46  1  0.95569000  0.72682000  0.33707000  1.0
  C  C47  1  0.54405000  0.38981000  0.66292000  1.0
  C  C48  1  0.04432000  0.27318000  0.66293000  1.0
  C  C49  1  0.45594000  0.61017000  0.33707000  1.0
  C  C50  1  0.92354000  0.59315000  0.32145000  1.0
  C  C51  1  0.57605000  0.27175000  0.67847000  1.0
  C  C52  1  0.07647000  0.40685000  0.67855000  1.0
  C  C53  1  0.42395000  0.72824000  0.32153000  1.0
  C  C54  1  0.85351000  0.76931000  0.25803000  1.0
  C  C55  1  0.64629000  0.51143000  0.74204000  1.0
  C  C56  1  0.14649000  0.23069000  0.74197000  1.0
  C  C57  1  0.35370000  0.48857000  0.25796000  1.0
  C  C58  1  0.69700000  0.55918000  0.15394000  1.0
  C  C59  1  0.80257000  0.40539000  0.84609000  1.0
  C  C60  1  0.30300000  0.44082000  0.84607000  1.0
  C  C61  1  0.19742000  0.59461000  0.15392000  1.0
  C  C62  1  0.79139000  0.50882000  0.22927000  1.0
  C  C63  1  0.70811000  0.27967000  0.77069000  1.0
  C  C64  1  0.20862000  0.49119000  0.77074000  1.0
  C  C65  1  0.29189000  0.72033000  0.22931000  1.0
  N  N66  1  0.18984000  0.77724000  0.51096000  1.0
  N  N67  1  0.30978000  0.26638000  0.48887000  1.0
  N  N68  1  0.81017000  0.22277000  0.48904000  1.0
  N  N69  1  0.69022000  0.73361000  0.51112000  1.0
  N  N70  1  0.30563000  0.88053000  0.57265000  1.0
  N  N71  1  0.19428000  0.30816000  0.42721000  1.0
  N  N72  1  0.69437000  0.11949000  0.42736000  1.0
  N  N73  1  0.80572000  0.69185000  0.57279000  1.0
  N  N74  1  0.28791000  0.97972000  0.53653000  1.0
  N  N75  1  0.21240000  0.44349000  0.46347000  1.0
  N  N76  1  0.71210000  0.02028000  0.46346000  1.0
  N  N77  1  0.78761000  0.55651000  0.53653000  1.0
  N  N78  1  0.15503000  0.93946000  0.44641000  1.0
  N  N79  1  0.34522000  0.49321000  0.55365000  1.0
  N  N80  1  0.84498000  0.06053000  0.55358000  1.0
  N  N81  1  0.65478000  0.50679000  0.44635000  1.0
  N  N82  1  0.72752000  0.68659000  0.16807000  1.0
  N  N83  1  0.77224000  0.51869000  0.83199000  1.0
  N  N84  1  0.27248000  0.31341000  0.83193000  1.0
  N  N85  1  0.22776000  0.48130000  0.16801000  1.0
  Cl  Cl86  1  0.25000000  0.81975000  0.00026000  1.0
  Cl  Cl87  1  0.75000000  0.18025000  0.99974000  1.0
  O  O88  1  0.50463000  0.91229000  0.87374000  1.0
  O  O89  1  0.99508000  0.03897000  0.12605000  1.0
  O  O90  1  0.49536000  0.08772000  0.12626000  1.0
  O  O91  1  0.00492000  0.96104000  0.87396000  1.0
  O  O92  1  0.27389000  0.97031000  0.80038000  1.0
  O  O93  1  0.22631000  0.16998000  0.19954000  1.0
  O  O94  1  0.72610000  0.02969000  0.19962000  1.0
  O  O95  1  0.77370000  0.83003000  0.80046000  1.0
  O  O96  1  0.09312000  0.23630000  0.99705000  1.0
  O  O97  1  0.40715000  0.23927000  0.00266000  1.0
  O  O98  1  0.90688000  0.76370000  0.00295000  1.0
  O  O99  1  0.59285000  0.76072000  0.99734000  1.0
