# generated using pymatgen
data_CdH18C24SN3O4
_symmetry_space_group_name_H-M   'P 1'
_cell_length_a   13.03510000
_cell_length_b   13.03510000
_cell_length_c   14.40350000
_cell_angle_alpha   92.03780000
_cell_angle_beta   92.03840000
_cell_angle_gamma   99.79880000
_symmetry_Int_Tables_number   1
_chemical_formula_structural   CdH18C24SN3O4
_chemical_formula_sum   'Cd4 H72 C96 S4 N12 O16'
_cell_volume   2407.97191244
_cell_formula_units_Z   4
loop_
 _symmetry_equiv_pos_site_id
 _symmetry_equiv_pos_as_xyz
  1  'x, y, z'
loop_
 _atom_site_type_symbol
 _atom_site_label
 _atom_site_symmetry_multiplicity
 _atom_site_fract_x
 _atom_site_fract_y
 _atom_site_fract_z
 _atom_site_occupancy
  Cd  Cd0  1  0.53458000  0.11305000  0.41253000  1.0
  Cd  Cd1  1  0.88695000  0.46542000  0.08747000  1.0
  Cd  Cd2  1  0.46542000  0.88695000  0.58747000  1.0
  Cd  Cd3  1  0.11305000  0.53458000  0.91253000  1.0
  H  H4  1  0.72082000  0.95634000  0.43172000  1.0
  H  H5  1  0.04366000  0.27917000  0.06828000  1.0
  H  H6  1  0.27918000  0.04366000  0.56827000  1.0
  H  H7  1  0.95633000  0.72083000  0.93172000  1.0
  H  H8  1  0.89102000  0.89375000  0.41921000  1.0
  H  H9  1  0.10625000  0.10897000  0.08078000  1.0
  H  H10  1  0.10898000  0.10625000  0.58078000  1.0
  H  H11  1  0.89375000  0.89103000  0.91921000  1.0
  H  H12  1  0.04795000  0.01057000  0.37234000  1.0
  H  H13  1  0.98943000  0.95204000  0.12766000  1.0
  H  H14  1  0.95205000  0.98943000  0.62766000  1.0
  H  H15  1  0.01057000  0.04796000  0.87234000  1.0
  H  H16  1  0.04367000  0.19704000  0.33865000  1.0
  H  H17  1  0.80296000  0.95633000  0.16135000  1.0
  H  H18  1  0.95633000  0.80297000  0.66135000  1.0
  H  H19  1  0.19704000  0.04367000  0.83865000  1.0
  H  H20  1  0.88619000  0.41469000  0.28438000  1.0
  H  H21  1  0.58532000  0.11381000  0.21562000  1.0
  H  H22  1  0.11381000  0.58532000  0.71562000  1.0
  H  H23  1  0.41468000  0.88619000  0.78438000  1.0
  H  H24  1  0.98859000  0.34642000  0.29967000  1.0
  H  H25  1  0.65357000  0.01141000  0.20033000  1.0
  H  H26  1  0.01141000  0.65358000  0.70033000  1.0
  H  H27  1  0.34642000  0.98859000  0.79967000  1.0
  H  H28  1  0.94288000  0.31008000  0.51583000  1.0
  H  H29  1  0.68993000  0.05712000  0.98417000  1.0
  H  H30  1  0.05712000  0.68993000  0.48417000  1.0
  H  H31  1  0.31007000  0.94287000  0.01583000  1.0
  H  H32  1  0.01421000  0.42191000  0.65409000  1.0
  H  H33  1  0.57809000  0.98579000  0.84591000  1.0
  H  H34  1  0.98580000  0.57809000  0.34591000  1.0
  H  H35  1  0.42191000  0.01421000  0.15409000  1.0
  H  H36  1  0.77115000  0.49522000  0.32053000  1.0
  H  H37  1  0.50478000  0.22885000  0.17947000  1.0
  H  H38  1  0.22885000  0.50478000  0.67947000  1.0
  H  H39  1  0.49521000  0.77115000  0.82053000  1.0
  H  H40  1  0.44650000  0.38326000  0.42028000  1.0
  H  H41  1  0.61674000  0.55350000  0.07972000  1.0
  H  H42  1  0.55350000  0.61674000  0.57971000  1.0
  H  H43  1  0.38326000  0.44650000  0.92028000  1.0
  H  H44  1  0.86397000  0.81459000  0.12700000  1.0
  H  H45  1  0.18540000  0.13603000  0.37300000  1.0
  H  H46  1  0.13604000  0.18541000  0.87300000  1.0
  H  H47  1  0.81460000  0.86397000  0.62700000  1.0
  H  H48  1  0.86075000  0.78592000  0.24744000  1.0
  H  H49  1  0.21407000  0.13925000  0.25257000  1.0
  H  H50  1  0.13926000  0.21407000  0.75256000  1.0
  H  H51  1  0.78593000  0.86075000  0.74744000  1.0
  H  H52  1  0.53616000  0.74540000  0.40530000  1.0
  H  H53  1  0.25460000  0.46384000  0.09470000  1.0
  H  H54  1  0.46384000  0.25460000  0.59470000  1.0
  H  H55  1  0.74540000  0.53616000  0.90530000  1.0
  H  H56  1  0.41504000  0.73212000  0.34302000  1.0
  H  H57  1  0.26788000  0.58496000  0.15698000  1.0
  H  H58  1  0.58496000  0.26788000  0.65698000  1.0
  H  H59  1  0.73212000  0.41504000  0.84302000  1.0
  H  H60  1  0.41048000  0.75652000  0.16949000  1.0
  H  H61  1  0.24348000  0.58952000  0.33051000  1.0
  H  H62  1  0.58952000  0.24347000  0.83051000  1.0
  H  H63  1  0.75652000  0.41048000  0.66949000  1.0
  H  H64  1  0.50313000  0.75504000  0.02218000  1.0
  H  H65  1  0.24497000  0.49687000  0.47782000  1.0
  H  H66  1  0.49687000  0.24496000  0.97782000  1.0
  H  H67  1  0.75504000  0.50314000  0.52218000  1.0
  H  H68  1  0.69497000  0.75754000  0.02530000  1.0
  H  H69  1  0.24246000  0.30503000  0.47470000  1.0
  H  H70  1  0.30503000  0.24246000  0.97470000  1.0
  H  H71  1  0.75754000  0.69497000  0.52530000  1.0
  H  H72  1  0.70096000  0.76872000  0.32444000  1.0
  H  H73  1  0.23128000  0.29904000  0.17557000  1.0
  H  H74  1  0.29904000  0.23128000  0.67556000  1.0
  H  H75  1  0.76872000  0.70096000  0.82443000  1.0
  C  C76  1  0.78756000  0.11156000  0.39017000  1.0
  C  C77  1  0.88844000  0.21243000  0.10984000  1.0
  C  C78  1  0.21244000  0.88844000  0.60983000  1.0
  C  C79  1  0.11155000  0.78757000  0.89016000  1.0
  C  C80  1  0.79004000  0.00744000  0.41008000  1.0
  C  C81  1  0.99256000  0.20995000  0.08992000  1.0
  C  C82  1  0.20996000  0.99256000  0.58992000  1.0
  C  C83  1  0.00744000  0.79005000  0.91008000  1.0
  C  C84  1  0.88524000  0.97377000  0.40309000  1.0
  C  C85  1  0.02623000  0.11475000  0.09691000  1.0
  C  C86  1  0.11476000  0.02623000  0.59691000  1.0
  C  C87  1  0.97377000  0.88525000  0.90308000  1.0
  C  C88  1  0.97535000  0.04098000  0.37703000  1.0
  C  C89  1  0.95902000  0.02464000  0.12297000  1.0
  C  C90  1  0.02465000  0.95903000  0.62297000  1.0
  C  C91  1  0.04097000  0.97536000  0.87703000  1.0
  C  C92  1  0.97419000  0.14486000  0.35818000  1.0
  C  C93  1  0.85514000  0.02580000  0.14182000  1.0
  C  C94  1  0.02581000  0.85514000  0.64182000  1.0
  C  C95  1  0.14486000  0.97420000  0.85818000  1.0
  C  C96  1  0.87881000  0.17878000  0.36559000  1.0
  C  C97  1  0.82122000  0.12119000  0.13441000  1.0
  C  C98  1  0.12119000  0.82123000  0.63441000  1.0
  C  C99  1  0.17877000  0.87881000  0.86559000  1.0
  C  C100  1  0.92254000  0.37001000  0.33517000  1.0
  C  C101  1  0.62999000  0.07746000  0.16483000  1.0
  C  C102  1  0.07747000  0.62999000  0.66483000  1.0
  C  C103  1  0.37001000  0.92253000  0.83517000  1.0
  C  C104  1  0.96017000  0.43677000  0.42156000  1.0
  C  C105  1  0.56323000  0.03982000  0.07844000  1.0
  C  C106  1  0.03983000  0.56323000  0.57844000  1.0
  C  C107  1  0.43677000  0.96017000  0.92156000  1.0
  C  C108  1  0.96766000  0.39355000  0.50857000  1.0
  C  C109  1  0.60645000  0.03234000  0.99143000  1.0
  C  C110  1  0.03234000  0.60645000  0.49143000  1.0
  C  C111  1  0.39355000  0.96766000  0.00857000  1.0
  C  C112  1  0.00740000  0.45607000  0.58651000  1.0
  C  C113  1  0.54394000  0.99260000  0.91349000  1.0
  C  C114  1  0.99261000  0.54394000  0.41349000  1.0
  C  C115  1  0.45606000  0.00739000  0.08651000  1.0
  C  C116  1  0.74624000  0.26571000  0.37178000  1.0
  C  C117  1  0.73430000  0.25376000  0.12822000  1.0
  C  C118  1  0.25376000  0.73430000  0.62822000  1.0
  C  C119  1  0.26570000  0.74624000  0.87178000  1.0
  C  C120  1  0.68133000  0.34635000  0.37258000  1.0
  C  C121  1  0.65366000  0.31867000  0.12742000  1.0
  C  C122  1  0.31867000  0.65366000  0.62742000  1.0
  C  C123  1  0.34634000  0.68133000  0.87258000  1.0
  C  C124  1  0.70212000  0.44943000  0.34815000  1.0
  C  C125  1  0.55058000  0.29788000  0.15185000  1.0
  C  C126  1  0.29788000  0.55058000  0.65185000  1.0
  C  C127  1  0.44942000  0.70212000  0.84815000  1.0
  C  C128  1  0.52758000  0.39130000  0.40135000  1.0
  C  C129  1  0.60871000  0.47241000  0.09865000  1.0
  C  C130  1  0.47242000  0.60870000  0.59865000  1.0
  C  C131  1  0.39129000  0.52758000  0.90135000  1.0
  C  C132  1  0.84737000  0.65308000  0.15144000  1.0
  C  C133  1  0.34691000  0.15263000  0.34856000  1.0
  C  C134  1  0.15263000  0.34692000  0.84856000  1.0
  C  C135  1  0.65309000  0.84737000  0.65144000  1.0
  C  C136  1  0.82632000  0.76149000  0.17791000  1.0
  C  C137  1  0.23851000  0.17368000  0.32209000  1.0
  C  C138  1  0.17369000  0.23851000  0.82209000  1.0
  C  C139  1  0.76149000  0.82632000  0.67791000  1.0
  C  C140  1  0.49284000  0.88921000  0.37215000  1.0
  C  C141  1  0.11079000  0.50717000  0.12785000  1.0
  C  C142  1  0.50716000  0.11079000  0.62785000  1.0
  C  C143  1  0.88921000  0.49283000  0.87215000  1.0
  C  C144  1  0.49556000  0.77470000  0.34598000  1.0
  C  C145  1  0.22530000  0.50444000  0.15402000  1.0
  C  C146  1  0.50444000  0.22530000  0.65402000  1.0
  C  C147  1  0.77470000  0.49556000  0.84598000  1.0
  C  C148  1  0.54937000  0.76143000  0.25702000  1.0
  C  C149  1  0.23857000  0.45063000  0.24299000  1.0
  C  C150  1  0.45063000  0.23857000  0.74298000  1.0
  C  C151  1  0.76143000  0.54937000  0.75701000  1.0
  C  C152  1  0.49428000  0.75629000  0.17131000  1.0
  C  C153  1  0.24371000  0.50572000  0.32869000  1.0
  C  C154  1  0.50572000  0.24371000  0.82869000  1.0
  C  C155  1  0.75629000  0.49428000  0.67131000  1.0
  C  C156  1  0.54639000  0.75538000  0.08836000  1.0
  C  C157  1  0.24462000  0.45360000  0.41164000  1.0
  C  C158  1  0.45361000  0.24462000  0.91164000  1.0
  C  C159  1  0.75538000  0.54639000  0.58836000  1.0
  C  C160  1  0.65390000  0.75809000  0.09002000  1.0
  C  C161  1  0.24191000  0.34610000  0.40999000  1.0
  C  C162  1  0.34610000  0.24191000  0.90998000  1.0
  C  C163  1  0.75809000  0.65390000  0.59001000  1.0
  C  C164  1  0.71037000  0.76150000  0.17529000  1.0
  C  C165  1  0.23850000  0.28963000  0.32472000  1.0
  C  C166  1  0.28964000  0.23850000  0.82471000  1.0
  C  C167  1  0.76150000  0.71037000  0.67528000  1.0
  C  C168  1  0.65715000  0.76321000  0.25781000  1.0
  C  C169  1  0.23679000  0.34285000  0.24219000  1.0
  C  C170  1  0.34285000  0.23679000  0.74219000  1.0
  C  C171  1  0.76321000  0.65715000  0.75781000  1.0
  S  S172  1  0.59472000  0.50652000  0.36344000  1.0
  S  S173  1  0.49348000  0.40528000  0.13656000  1.0
  S  S174  1  0.40528000  0.49348000  0.63656000  1.0
  S  S175  1  0.50651000  0.59472000  0.86344000  1.0
  N  N176  1  0.58135000  0.31523000  0.40242000  1.0
  N  N177  1  0.68478000  0.41865000  0.09759000  1.0
  N  N178  1  0.41865000  0.68477000  0.59758000  1.0
  N  N179  1  0.31522000  0.58135000  0.90241000  1.0
  N  N180  1  0.70702000  0.16784000  0.39207000  1.0
  N  N181  1  0.83216000  0.29298000  0.10793000  1.0
  N  N182  1  0.29298000  0.83216000  0.60793000  1.0
  N  N183  1  0.16783000  0.70702000  0.89207000  1.0
  N  N184  1  0.85019000  0.27560000  0.35372000  1.0
  N  N185  1  0.72440000  0.14981000  0.14628000  1.0
  N  N186  1  0.14982000  0.72440000  0.64628000  1.0
  N  N187  1  0.27559000  0.85019000  0.85372000  1.0
  O  O188  1  0.43104000  0.90946000  0.43442000  1.0
  O  O189  1  0.09054000  0.56897000  0.06558000  1.0
  O  O190  1  0.56896000  0.09054000  0.56558000  1.0
  O  O191  1  0.90946000  0.43104000  0.93442000  1.0
  O  O192  1  0.55315000  0.95931000  0.33241000  1.0
  O  O193  1  0.04070000  0.44685000  0.16758000  1.0
  O  O194  1  0.44685000  0.04069000  0.66759000  1.0
  O  O195  1  0.95930000  0.55315000  0.83242000  1.0
  O  O196  1  0.86069000  0.59070000  0.21492000  1.0
  O  O197  1  0.40930000  0.13931000  0.28509000  1.0
  O  O198  1  0.13931000  0.40930000  0.78508000  1.0
  O  O199  1  0.59070000  0.86069000  0.71492000  1.0
  O  O200  1  0.84794000  0.62901000  0.06459000  1.0
  O  O201  1  0.37098000  0.15206000  0.43541000  1.0
  O  O202  1  0.15206000  0.37099000  0.93541000  1.0
  O  O203  1  0.62902000  0.84795000  0.56459000  1.0
