# generated using pymatgen
data_Pr2H8C4S2O15
_symmetry_space_group_name_H-M   'P 1'
_cell_length_a   6.65253000
_cell_length_b   8.48835000
_cell_length_c   13.08380000
_cell_angle_alpha   86.88690000
_cell_angle_beta   89.51600000
_cell_angle_gamma   68.85180000
_symmetry_Int_Tables_number   1
_chemical_formula_structural   Pr2H8C4S2O15
_chemical_formula_sum   'Pr4 H16 C8 S4 O30'
_cell_volume   688.00311039
_cell_formula_units_Z   2
loop_
 _symmetry_equiv_pos_site_id
 _symmetry_equiv_pos_as_xyz
  1  'x, y, z'
loop_
 _atom_site_type_symbol
 _atom_site_label
 _atom_site_symmetry_multiplicity
 _atom_site_fract_x
 _atom_site_fract_y
 _atom_site_fract_z
 _atom_site_occupancy
  Pr  Pr0  1  0.39506000  0.47328000  0.66236000  1.0
  Pr  Pr1  1  0.60494000  0.52672000  0.33764000  1.0
  Pr  Pr2  1  0.25375000  0.25347000  0.00408000  1.0
  Pr  Pr3  1  0.74625000  0.74653000  0.99592000  1.0
  H  H4  1  0.64870000  0.02248000  0.51986000  1.0
  H  H5  1  0.35130000  0.97753000  0.48014000  1.0
  H  H6  1  0.90303000  0.99626000  0.57594000  1.0
  H  H7  1  0.09697000  0.00374000  0.42406000  1.0
  H  H8  1  0.80631000  0.94559000  0.74866000  1.0
  H  H9  1  0.19369000  0.05441000  0.25134000  1.0
  H  H10  1  0.56038000  0.94315000  0.69769000  1.0
  H  H11  1  0.43962000  0.05685000  0.30231000  1.0
  H  H12  1  0.26376000  0.32345000  0.46764000  1.0
  H  H13  1  0.73624000  0.67655000  0.53236000  1.0
  H  H14  1  0.08706000  0.34847000  0.55430000  1.0
  H  H15  1  0.91294000  0.65153000  0.44570000  1.0
  H  H16  1  0.93472000  0.24321000  0.83196000  1.0
  H  H17  1  0.06528000  0.75679000  0.16804000  1.0
  H  H18  1  0.03495000  0.05323000  0.88424000  1.0
  H  H19  1  0.96504000  0.94677000  0.11576000  1.0
  C  C20  1  0.74999000  0.23242000  0.48977000  1.0
  C  C21  1  0.25001000  0.76758000  0.51023000  1.0
  C  C22  1  0.73934000  0.08816000  0.55902000  1.0
  C  C23  1  0.26067000  0.91184000  0.44098000  1.0
  C  C24  1  0.64013000  0.02613000  0.72643000  1.0
  C  C25  1  0.35987000  0.97387000  0.27357000  1.0
  C  C26  1  0.51969000  0.10909000  0.81834000  1.0
  C  C27  1  0.48031000  0.89091000  0.18166000  1.0
  S  S28  1  0.79914000  0.55813000  0.73269000  1.0
  S  S29  1  0.20086000  0.44187000  0.26731000  1.0
  S  S30  1  0.77460000  0.30522000  0.08448000  1.0
  S  S31  1  0.22540000  0.69478000  0.91552000  1.0
  O  O32  1  0.68000000  0.38128000  0.52479000  1.0
  O  O33  1  0.32000000  0.61872000  0.47521000  1.0
  O  O34  1  0.82018000  0.20827000  0.40014000  1.0
  O  O35  1  0.17982000  0.79173000  0.59986000  1.0
  O  O36  1  0.63736000  0.15479000  0.65168000  1.0
  O  O37  1  0.36265000  0.84521000  0.34832000  1.0
  O  O38  1  0.40712000  0.26631000  0.81370000  1.0
  O  O39  1  0.59288000  0.73369000  0.18630000  1.0
  O  O40  1  0.52958000  0.01807000  0.90053000  1.0
  O  O41  1  0.47042000  0.98193000  0.09947000  1.0
  O  O42  1  0.74577000  0.40517000  0.76256000  1.0
  O  O43  1  0.25423000  0.59483000  0.23744000  1.0
  O  O44  1  0.63453000  0.65721000  0.65300000  1.0
  O  O45  1  0.36547000  0.34279000  0.34700000  1.0
  O  O46  1  0.01649000  0.50664000  0.68809000  1.0
  O  O47  1  0.98351000  0.49337000  0.31191000  1.0
  O  O48  1  0.78490000  0.66072000  0.82146000  1.0
  O  O49  1  0.21509000  0.33928000  0.17854000  1.0
  O  O50  1  0.24187000  0.30596000  0.54212000  1.0
  O  O51  1  0.75813000  0.69404000  0.45788000  1.0
  O  O52  1  0.84778000  0.43695000  0.02918000  1.0
  O  O53  1  0.15222000  0.56305000  0.97082000  1.0
  O  O54  1  0.97400000  0.14841000  0.09027000  1.0
  O  O55  1  0.02601000  0.85159000  0.90973000  1.0
  O  O56  1  0.60607000  0.27891000  0.02322000  1.0
  O  O57  1  0.39393000  0.72110000  0.97677000  1.0
  O  O58  1  0.69838000  0.35716000  0.18683000  1.0
  O  O59  1  0.30162000  0.64284000  0.81317000  1.0
  O  O60  1  0.05862000  0.16133000  0.87173000  1.0
  O  O61  1  0.94138000  0.83867000  0.12827000  1.0
