# generated using pymatgen
data_Zn4H57C84S3(N7O3)3
_symmetry_space_group_name_H-M   'P 1'
_cell_length_a   18.74910000
_cell_length_b   19.33230000
_cell_length_c   19.97030000
_cell_angle_alpha   103.28000000
_cell_angle_beta   103.70900000
_cell_angle_gamma   114.01000000
_symmetry_Int_Tables_number   1
_chemical_formula_structural   Zn4H57C84S3(N7O3)3
_chemical_formula_sum   'Zn4 H57 C84 S3 N21 O9'
_cell_volume   5974.29322184
_cell_formula_units_Z   1
loop_
 _symmetry_equiv_pos_site_id
 _symmetry_equiv_pos_as_xyz
  1  'x, y, z'
loop_
 _atom_site_type_symbol
 _atom_site_label
 _atom_site_symmetry_multiplicity
 _atom_site_fract_x
 _atom_site_fract_y
 _atom_site_fract_z
 _atom_site_occupancy
  Zn  Zn0  1  0.87903000  0.88518000  0.50385000  1.0
  Zn  Zn1  1  0.11440000  0.11049000  0.48718000  1.0
  Zn  Zn2  1  0.08272000  0.99985000  0.58680000  1.0
  Zn  Zn3  1  0.90999000  0.00994000  0.39897000  1.0
  H  H4  1  0.84863000  0.78757000  0.62337000  1.0
  H  H5  1  0.62771000  0.30869000  0.62084000  1.0
  H  H6  1  0.14872000  0.29094000  0.47846000  1.0
  H  H7  1  0.75923000  0.31209000  0.62380000  1.0
  H  H8  1  0.73646000  0.99191000  0.61708000  1.0
  H  H9  1  0.60851000  0.93328000  0.64063000  1.0
  H  H10  1  0.47459000  0.93117000  0.63768000  1.0
  H  H11  1  0.94110000  0.63634000  0.31454000  1.0
  H  H12  1  0.09516000  0.75195000  0.54633000  1.0
  H  H13  1  0.13042000  0.54299000  0.61588000  1.0
  H  H14  1  0.15154000  0.13625000  0.74144000  1.0
  H  H15  1  0.32626000  0.17396000  0.52591000  1.0
  H  H16  1  0.94535000  0.28851000  0.31110000  1.0
  H  H17  1  0.89944000  0.36559000  0.24455000  1.0
  H  H18  1  0.90086000  0.49462000  0.24569000  1.0
  H  H19  1  0.67860000  0.76772000  0.13570000  1.0
  H  H20  1  0.31734000  0.22264000  0.77342000  1.0
  H  H21  1  0.50339000  0.55231000  0.94159000  1.0
  H  H22  1  0.61595000  0.49219000  0.13312000  1.0
  H  H23  1  0.68755000  0.60714000  0.25208000  1.0
  H  H24  1  0.87063000  0.13652000  0.49363000  1.0
  H  H25  1  0.54302000  0.43360000  0.00083000  1.0
  H  H26  1  0.13786000  0.88321000  0.50780000  1.0
  H  H27  1  0.61229000  0.65460000  0.01793000  1.0
  H  H28  1  0.38216000  0.50952000  0.85489000  1.0
  H  H29  1  0.11995000  0.86074000  0.80110000  1.0
  H  H30  1  0.17523000  0.95336000  0.26827000  1.0
  H  H31  1  0.12321000  0.83049000  0.02077000  1.0
  H  H32  1  0.85701000  0.72105000  0.84416000  1.0
  H  H33  1  0.92966000  0.71264000  0.06312000  1.0
  H  H34  1  0.85156000  0.76168000  0.73579000  1.0
  H  H35  1  0.17739000  0.27798000  0.60085000  1.0
  H  H36  1  0.92991000  0.73222000  0.96023000  1.0
  H  H37  1  0.89726000  0.86602000  0.26455000  1.0
  H  H38  1  0.12568000  0.82165000  0.90978000  1.0
  H  H39  1  0.18754000  0.90408000  0.14860000  1.0
  H  H40  1  0.86369000  0.99687000  0.63572000  1.0
  H  H41  1  0.87859000  0.15646000  0.36527000  1.0
  H  H42  1  0.11755000  0.94897000  0.73436000  1.0
  H  H43  1  0.22047000  0.95741000  0.65092000  1.0
  H  H44  1  0.32576000  0.00818000  0.68357000  1.0
  H  H45  1  0.98186000  0.28380000  0.70858000  1.0
  H  H46  1  0.07333000  0.70318000  0.69494000  1.0
  H  H47  1  0.05205000  0.32822000  0.55739000  1.0
  H  H48  1  0.16659000  0.99517000  0.38622000  1.0
  H  H49  1  0.07583000  0.42265000  0.60749000  1.0
  H  H50  1  0.25701000  0.46831000  0.75076000  1.0
  H  H51  1  0.18696000  0.36993000  0.69888000  1.0
  H  H52  1  0.45383000  0.26473000  0.84947000  1.0
  H  H53  1  0.52728000  0.36257000  0.89807000  1.0
  H  H54  1  0.90613000  0.75256000  0.23776000  1.0
  H  H55  1  0.86157000  0.69313000  0.14678000  1.0
  H  H56  1  0.57921000  0.64517000  0.34489000  1.0
  H  H57  1  0.86951000  0.72589000  0.39102000  1.0
  H  H58  1  0.76863000  0.87170000  0.23352000  1.0
  H  H59  1  0.38375000  0.99068000  0.61610000  1.0
  H  H60  1  0.48018000  0.23431000  0.61439000  1.0
  C  C61  1  0.91427000  0.83331000  0.64248000  1.0
  C  C62  1  0.93298000  0.77638000  0.42193000  1.0
  C  C63  1  0.76375000  0.84884000  0.27799000  1.0
  C  C64  1  0.08265000  0.24534000  0.45062000  1.0
  C  C65  1  0.27114000  0.05292000  0.61756000  1.0
  C  C66  1  0.72531000  0.76749000  0.27339000  1.0
  C  C67  1  0.33719000  0.10289000  0.59908000  1.0
  C  C68  1  0.00914000  0.77482000  0.43935000  1.0
  C  C69  1  0.03583000  0.90697000  0.29928000  1.0
  C  C70  1  0.43573000  0.04783000  0.62219000  1.0
  C  C71  1  0.42150000  0.11230000  0.61493000  1.0
  C  C72  1  0.01301000  0.25635000  0.42465000  1.0
  C  C73  1  0.48910000  0.18276000  0.61834000  1.0
  C  C74  1  0.56756000  0.18785000  0.62488000  1.0
  C  C75  1  0.58043000  0.12124000  0.63039000  1.0
  C  C76  1  0.14689000  0.15927000  0.69669000  1.0
  C  C77  1  0.51341000  0.05110000  0.63081000  1.0
  C  C78  1  0.63598000  0.25665000  0.62411000  1.0
  C  C79  1  0.71010000  0.25845000  0.62554000  1.0
  C  C80  1  0.72365000  0.19068000  0.62752000  1.0
  C  C81  1  0.65711000  0.12253000  0.63158000  1.0
  C  C82  1  0.66571000  0.05288000  0.63344000  1.0
  C  C83  1  0.19377000  0.23850000  0.69884000  1.0
  C  C84  1  0.59944000  0.98505000  0.63805000  1.0
  C  C85  1  0.52589000  0.98390000  0.63632000  1.0
  C  C86  1  0.79534000  0.18436000  0.62109000  1.0
  C  C87  1  0.79811000  0.11058000  0.61227000  1.0
  C  C88  1  0.87369000  0.09506000  0.52126000  1.0
  C  C89  1  0.73505000  0.04878000  0.62334000  1.0
  C  C90  1  0.97597000  0.63366000  0.36523000  1.0
  C  C91  1  0.01833000  0.70195000  0.43093000  1.0
  C  C92  1  0.06401000  0.69853000  0.49565000  1.0
  C  C93  1  0.06443000  0.62682000  0.49724000  1.0
  C  C94  1  0.85203000  0.08540000  0.58266000  1.0
  C  C95  1  0.01952000  0.55598000  0.43038000  1.0
  C  C96  1  0.97641000  0.56075000  0.36335000  1.0
  C  C97  1  0.10425000  0.61798000  0.56360000  1.0
  C  C98  1  0.09820000  0.54485000  0.56375000  1.0
  C  C99  1  0.05429000  0.47417000  0.49755000  1.0
  C  C100  1  0.15936000  0.23218000  0.62568000  1.0
  C  C101  1  0.01599000  0.48097000  0.43005000  1.0
  C  C102  1  0.97308000  0.41223000  0.36223000  1.0
  C  C103  1  0.93210000  0.41899000  0.29586000  1.0
  C  C104  1  0.93314000  0.49019000  0.29642000  1.0
  C  C105  1  0.74148000  0.77832000  0.34949000  1.0
  C  C106  1  0.04812000  0.39818000  0.49697000  1.0
  C  C107  1  0.01208000  0.33263000  0.42805000  1.0
  C  C108  1  0.97437000  0.34039000  0.36321000  1.0
  C  C109  1  0.68529000  0.69660000  0.20442000  1.0
  C  C110  1  0.66492000  0.70742000  0.13615000  1.0
  C  C111  1  0.62650000  0.64294000  0.06903000  1.0
  C  C112  1  0.86935000  0.02366000  0.59374000  1.0
  C  C113  1  0.60384000  0.56268000  0.06570000  1.0
  C  C114  1  0.62976000  0.55293000  0.13354000  1.0
  C  C115  1  0.66922000  0.61790000  0.20121000  1.0
  C  C116  1  0.29899000  0.13400000  0.55381000  1.0
  C  C117  1  0.40879000  0.34424000  0.84953000  1.0
  C  C118  1  0.33113000  0.28598000  0.79350000  1.0
  C  C119  1  0.29035000  0.38779000  0.78001000  1.0
  C  C120  1  0.36748000  0.44585000  0.83635000  1.0
  C  C121  1  0.42664000  0.42673000  0.87393000  1.0
  C  C122  1  0.54949000  0.49142000  0.99772000  1.0
  C  C123  1  0.49768000  0.49279000  0.93797000  1.0
  C  C124  1  0.94507000  0.17679000  0.39180000  1.0
  C  C125  1  0.27108000  0.30518000  0.75909000  1.0
  C  C126  1  0.98565000  0.81725000  0.76134000  1.0
  C  C127  1  0.06988000  0.85605000  0.48341000  1.0
  C  C128  1  0.06191000  0.83056000  0.81054000  1.0
  C  C129  1  0.06506000  0.80810000  0.87196000  1.0
  C  C130  1  0.99192000  0.77108000  0.88749000  1.0
  C  C131  1  0.91493000  0.75129000  0.83450000  1.0
  C  C132  1  0.91179000  0.77411000  0.77329000  1.0
  C  C133  1  0.98445000  0.76539000  0.10826000  1.0
  C  C134  1  0.97750000  0.79119000  0.17671000  1.0
  C  C135  1  0.12176000  0.89908000  0.22374000  1.0
  C  C136  1  0.05151000  0.91472000  0.69826000  1.0
  C  C137  1  0.12881000  0.87175000  0.15627000  1.0
  C  C138  1  0.96136000  0.90561000  0.30366000  1.0
  C  C139  1  0.05772000  0.80766000  0.09529000  1.0
  C  C140  1  0.99243000  0.76186000  0.95778000  1.0
  C  C141  1  0.06046000  0.79699000  0.02157000  1.0
  C  C142  1  0.04571000  0.86361000  0.23475000  1.0
  C  C143  1  0.98386000  0.85125000  0.70332000  1.0
  C  C144  1  0.09911000  0.97198000  0.36470000  1.0
  S  S145  1  0.88071000  0.27033000  0.62008000  1.0
  S  S146  1  0.16643000  0.70261000  0.64878000  1.0
  S  S147  1  0.71278000  0.71481000  0.39896000  1.0
  N  N148  1  0.93877000  0.88203000  0.60463000  1.0
  N  N149  1  0.09140000  0.10954000  0.62710000  1.0
  N  N150  1  0.89898000  0.04150000  0.49711000  1.0
  N  N151  1  0.09938000  0.15437000  0.58287000  1.0
  N  N152  1  0.89657000  0.99763000  0.54185000  1.0
  N  N153  1  0.97221000  0.12298000  0.39803000  1.0
  N  N154  1  0.02393000  0.93272000  0.63949000  1.0
  N  N155  1  0.78664000  0.85840000  0.39364000  1.0
  N  N156  1  0.27263000  0.01214000  0.66647000  1.0
  N  N157  1  0.07792000  0.38766000  0.56230000  1.0
  N  N158  1  0.23177000  0.41021000  0.74913000  1.0
  N  N159  1  0.21769000  0.10464000  0.54474000  1.0
  N  N160  1  0.46567000  0.32044000  0.88102000  1.0
  N  N161  1  0.90172000  0.74988000  0.18544000  1.0
  N  N162  1  0.03195000  0.90185000  0.49224000  1.0
  N  N163  1  0.97973000  0.96579000  0.36543000  1.0
  N  N164  1  0.06418000  0.00652000  0.40281000  1.0
  N  N165  1  0.94761000  0.85264000  0.45487000  1.0
  N  N166  1  0.80032000  0.90126000  0.34907000  1.0
  N  N167  1  0.20051000  0.05442000  0.58488000  1.0
  N  N168  1  0.05810000  0.16564000  0.43437000  1.0
  O  O169  1  0.87432000  0.26237000  0.54512000  1.0
  O  O170  1  0.89318000  0.34433000  0.67102000  1.0
  O  O171  1  0.96231000  0.26085000  0.65443000  1.0
  O  O172  1  0.19332000  0.67490000  0.70616000  1.0
  O  O173  1  0.22584000  0.76991000  0.63716000  1.0
  O  O174  1  0.10109000  0.73236000  0.66649000  1.0
  O  O175  1  0.71286000  0.63970000  0.36917000  1.0
  O  O176  1  0.76059000  0.76527000  0.47701000  1.0
  O  O177  1  0.61773000  0.69384000  0.38966000  1.0
