# generated using pymatgen
data_CaH14C18(NO2)4
_symmetry_space_group_name_H-M   'P 1'
_cell_length_a   5.51399000
_cell_length_b   12.51770000
_cell_length_c   14.99470000
_cell_angle_alpha   113.07100000
_cell_angle_beta   95.42380000
_cell_angle_gamma   97.44170000
_symmetry_Int_Tables_number   1
_chemical_formula_structural   CaH14C18(NO2)4
_chemical_formula_sum   'Ca2 H28 C36 N8 O16'
_cell_volume   932.12529370
_cell_formula_units_Z   2
loop_
 _symmetry_equiv_pos_site_id
 _symmetry_equiv_pos_as_xyz
  1  'x, y, z'
loop_
 _atom_site_type_symbol
 _atom_site_label
 _atom_site_symmetry_multiplicity
 _atom_site_fract_x
 _atom_site_fract_y
 _atom_site_fract_z
 _atom_site_occupancy
  Ca  Ca0  1  0.63084000  0.36145000  0.48851000  1.0
  Ca  Ca1  1  0.36918000  0.63854000  0.51148000  1.0
  H  H2  1  0.32941000  0.45118000  0.26423000  1.0
  H  H3  1  0.67059000  0.54881000  0.73576000  1.0
  H  H4  1  0.16440000  0.49407000  0.12238000  1.0
  H  H5  1  0.83561000  0.50594000  0.87761000  1.0
  H  H6  1  0.87327000  0.70231000  0.14670000  1.0
  H  H7  1  0.12673000  0.29770000  0.85332000  1.0
  H  H8  1  0.04243000  0.65240000  0.28483000  1.0
  H  H9  1  0.95757000  0.34761000  0.71518000  1.0
  H  H10  1  0.75504000  0.28624000  0.21268000  1.0
  H  H11  1  0.24497000  0.71377000  0.78734000  1.0
  H  H12  1  0.77415000  0.22999000  0.03454000  1.0
  H  H13  1  0.22584000  0.77003000  0.96548000  1.0
  H  H14  1  0.42342000  0.08022000  0.06330000  1.0
  H  H15  1  0.57660000  0.91977000  0.93669000  1.0
  H  H16  1  0.41404000  0.14554000  0.24296000  1.0
  H  H17  1  0.58598000  0.85444000  0.75703000  1.0
  H  H18  1  0.33437000  0.21271000  0.63625000  1.0
  H  H19  1  0.66562000  0.78729000  0.36375000  1.0
  H  H20  1  0.97308000  0.14988000  0.50480000  1.0
  H  H21  1  0.02693000  0.85011000  0.49520000  1.0
  H  H22  1  0.30431000  0.08046000  0.72126000  1.0
  H  H23  1  0.69566000  0.91954000  0.27874000  1.0
  H  H24  1  0.59763000  0.05884000  0.76449000  1.0
  H  H25  1  0.40234000  0.94115000  0.23551000  1.0
  H  H26  1  0.40852000  0.94565000  0.65662000  1.0
  H  H27  1  0.59146000  0.05434000  0.34338000  1.0
  H  H28  1  0.88900000  0.00440000  0.60593000  1.0
  H  H29  1  0.11099000  0.99558000  0.39407000  1.0
  C  C30  1  0.79146000  0.52852000  0.37083000  1.0
  C  C31  1  0.20851000  0.47148000  0.62917000  1.0
  C  C32  1  0.69546000  0.55025000  0.28314000  1.0
  C  C33  1  0.30453000  0.44975000  0.71686000  1.0
  C  C34  1  0.44807000  0.50506000  0.23776000  1.0
  C  C35  1  0.55194000  0.49494000  0.76224000  1.0
  C  C36  1  0.35376000  0.53018000  0.16034000  1.0
  C  C37  1  0.64626000  0.46982000  0.83966000  1.0
  C  C38  1  0.50932000  0.60314000  0.13096000  1.0
  C  C39  1  0.49069000  0.39688000  0.86904000  1.0
  C  C40  1  0.75785000  0.64732000  0.17319000  1.0
  C  C41  1  0.24216000  0.35267000  0.82680000  1.0
  C  C42  1  0.85051000  0.61914000  0.24921000  1.0
  C  C43  1  0.14950000  0.38086000  0.75079000  1.0
  C  C44  1  0.05938000  0.24575000  0.34488000  1.0
  C  C45  1  0.94064000  0.75424000  0.65513000  1.0
  C  C46  1  0.08004000  0.21727000  0.23845000  1.0
  C  C47  1  0.91998000  0.78272000  0.76155000  1.0
  C  C48  1  0.90262000  0.24256000  0.17981000  1.0
  C  C49  1  0.09740000  0.75746000  0.82020000  1.0
  C  C50  1  0.91081000  0.21046000  0.08038000  1.0
  C  C51  1  0.08918000  0.78956000  0.91963000  1.0
  C  C52  1  0.09745000  0.15065000  0.04000000  1.0
  C  C53  1  0.90254000  0.84936000  0.96001000  1.0
  C  C54  1  0.27980000  0.12647000  0.09692000  1.0
  C  C55  1  0.72021000  0.87352000  0.90307000  1.0
  C  C56  1  0.27200000  0.16181000  0.19669000  1.0
  C  C57  1  0.72804000  0.83819000  0.80331000  1.0
  C  C58  1  0.49860000  0.17787000  0.61303000  1.0
  C  C59  1  0.50140000  0.82212000  0.38697000  1.0
  C  C60  1  0.79098000  0.06994000  0.59677000  1.0
  C  C61  1  0.20900000  0.93004000  0.40323000  1.0
  C  C62  1  0.82769000  0.14109000  0.54681000  1.0
  C  C63  1  0.17231000  0.85890000  0.45319000  1.0
  C  C64  1  0.46671000  0.04127000  0.69860000  1.0
  C  C65  1  0.53326000  0.95872000  0.30139000  1.0
  N  N66  1  0.40626000  0.63288000  0.05159000  1.0
  N  N67  1  0.59375000  0.36713000  0.94842000  1.0
  N  N68  1  0.10115000  0.11093000  0.93434000  1.0
  N  N69  1  0.89882000  0.88908000  0.06567000  1.0
  N  N70  1  0.64344000  0.20848000  0.55747000  1.0
  N  N71  1  0.35659000  0.79152000  0.44253000  1.0
  N  N72  1  0.58104000  0.09464000  0.63856000  1.0
  N  N73  1  0.41894000  0.90536000  0.36144000  1.0
  O  O74  1  0.62694000  0.50308000  0.41835000  1.0
  O  O75  1  0.37304000  0.49690000  0.58164000  1.0
  O  O76  1  0.02116000  0.53738000  0.39288000  1.0
  O  O77  1  0.97883000  0.46262000  0.60711000  1.0
  O  O78  1  0.17931000  0.60449000  0.02324000  1.0
  O  O79  1  0.82070000  0.39554000  0.97677000  1.0
  O  O80  1  0.55115000  0.68410000  0.01620000  1.0
  O  O81  1  0.44888000  0.31591000  0.98380000  1.0
  O  O82  1  0.25069000  0.25007000  0.40138000  1.0
  O  O83  1  0.74932000  0.74991000  0.59862000  1.0
  O  O84  1  0.84826000  0.26017000  0.36999000  1.0
  O  O85  1  0.15176000  0.73982000  0.63001000  1.0
  O  O86  1  0.94309000  0.13696000  0.88510000  1.0
  O  O87  1  0.05688000  0.86307000  0.11492000  1.0
  O  O88  1  0.26092000  0.05279000  0.89870000  1.0
  O  O89  1  0.73905000  0.94724000  0.10130000  1.0
