# generated using pymatgen
data_ZnH14C15S2(NO2)2
_symmetry_space_group_name_H-M   'P 1'
_cell_length_a   9.50441000
_cell_length_b   11.25430000
_cell_length_c   19.68520000
_cell_angle_alpha   89.99990000
_cell_angle_beta   89.99970000
_cell_angle_gamma   89.99940000
_symmetry_Int_Tables_number   1
_chemical_formula_structural   ZnH14C15S2(NO2)2
_chemical_formula_sum   'Zn4 H56 C60 S8 N8 O16'
_cell_volume   2105.63689555
_cell_formula_units_Z   4
loop_
 _symmetry_equiv_pos_site_id
 _symmetry_equiv_pos_as_xyz
  1  'x, y, z'
loop_
 _atom_site_type_symbol
 _atom_site_label
 _atom_site_symmetry_multiplicity
 _atom_site_fract_x
 _atom_site_fract_y
 _atom_site_fract_z
 _atom_site_occupancy
  Zn  Zn0  1  0.67458000  0.02186000  0.26978000  1.0
  Zn  Zn1  1  0.32543000  0.52186000  0.73022000  1.0
  Zn  Zn2  1  0.32543000  0.02187000  0.76978000  1.0
  Zn  Zn3  1  0.67457000  0.52186000  0.23022000  1.0
  H  H4  1  0.41103000  0.99517000  0.35912000  1.0
  H  H5  1  0.58897000  0.49516000  0.64088000  1.0
  H  H6  1  0.58896000  0.99517000  0.85912000  1.0
  H  H7  1  0.41104000  0.49517000  0.14087000  1.0
  H  H8  1  0.30709000  0.84153000  0.43558000  1.0
  H  H9  1  0.69291000  0.34152000  0.56442000  1.0
  H  H10  1  0.69290000  0.84152000  0.93558000  1.0
  H  H11  1  0.30710000  0.34153000  0.06442000  1.0
  H  H12  1  0.68023000  0.62891000  0.39819000  1.0
  H  H13  1  0.31975000  0.12891000  0.60181000  1.0
  H  H14  1  0.31975000  0.62891000  0.89819000  1.0
  H  H15  1  0.68025000  0.12890000  0.10181000  1.0
  H  H16  1  0.76555000  0.78794000  0.32356000  1.0
  H  H17  1  0.23444000  0.28795000  0.67644000  1.0
  H  H18  1  0.23444000  0.78794000  0.82355000  1.0
  H  H19  1  0.76556000  0.28794000  0.17644000  1.0
  H  H20  1  0.05202000  0.75375000  0.60963000  1.0
  H  H21  1  0.94798000  0.25375000  0.39038000  1.0
  H  H22  1  0.94798000  0.75374000  0.10962000  1.0
  H  H23  1  0.05202000  0.25376000  0.89038000  1.0
  H  H24  1  0.09131000  0.89630000  0.70435000  1.0
  H  H25  1  0.90870000  0.39629000  0.29566000  1.0
  H  H26  1  0.90870000  0.89629000  0.20434000  1.0
  H  H27  1  0.09130000  0.39630000  0.79566000  1.0
  H  H28  1  0.51185000  0.93617000  0.65603000  1.0
  H  H29  1  0.48816000  0.43616000  0.34397000  1.0
  H  H30  1  0.48815000  0.93616000  0.15604000  1.0
  H  H31  1  0.51184000  0.43616000  0.84396000  1.0
  H  H32  1  0.49287000  0.79289000  0.55869000  1.0
  H  H33  1  0.50714000  0.29288000  0.44131000  1.0
  H  H34  1  0.50713000  0.79288000  0.05868000  1.0
  H  H35  1  0.49287000  0.29288000  0.94131000  1.0
  H  H36  1  0.35901000  0.32378000  0.25292000  1.0
  H  H37  1  0.64099000  0.82377000  0.74708000  1.0
  H  H38  1  0.64100000  0.32377000  0.75292000  1.0
  H  H39  1  0.35900000  0.82378000  0.24708000  1.0
  H  H40  1  0.32134000  0.25208000  0.32910000  1.0
  H  H41  1  0.67866000  0.75208000  0.67090000  1.0
  H  H42  1  0.67867000  0.25209000  0.82910000  1.0
  H  H43  1  0.32134000  0.75208000  0.17090000  1.0
  H  H44  1  0.16558000  0.20022000  0.19482000  1.0
  H  H45  1  0.83443000  0.70020000  0.80517000  1.0
  H  H46  1  0.83443000  0.20020000  0.69483000  1.0
  H  H47  1  0.16557000  0.70021000  0.30518000  1.0
  H  H48  1  0.10617000  0.30114000  0.25668000  1.0
  H  H49  1  0.89383000  0.80113000  0.74332000  1.0
  H  H50  1  0.89384000  0.30112000  0.75668000  1.0
  H  H51  1  0.10616000  0.80113000  0.24332000  1.0
  H  H52  1  0.15049000  0.03305000  0.27578000  1.0
  H  H53  1  0.84952000  0.53304000  0.72421000  1.0
  H  H54  1  0.84952000  0.03304000  0.77579000  1.0
  H  H55  1  0.15048000  0.53304000  0.22422000  1.0
  H  H56  1  0.10154000  0.12803000  0.34250000  1.0
  H  H57  1  0.89846000  0.62803000  0.65750000  1.0
  H  H58  1  0.89846000  0.12803000  0.84251000  1.0
  H  H59  1  0.10154000  0.62803000  0.15750000  1.0
  C  C60  1  0.46691000  0.91260000  0.36950000  1.0
  C  C61  1  0.53309000  0.41260000  0.63050000  1.0
  C  C62  1  0.53309000  0.91260000  0.86950000  1.0
  C  C63  1  0.46691000  0.41260000  0.13050000  1.0
  C  C64  1  0.40953000  0.82719000  0.41214000  1.0
  C  C65  1  0.59047000  0.32719000  0.58786000  1.0
  C  C66  1  0.59046000  0.82719000  0.91214000  1.0
  C  C67  1  0.40953000  0.32718000  0.08786000  1.0
  C  C68  1  0.48560000  0.72257000  0.42356000  1.0
  C  C69  1  0.51439000  0.22257000  0.57644000  1.0
  C  C70  1  0.51439000  0.72257000  0.92357000  1.0
  C  C71  1  0.48561000  0.22257000  0.07643000  1.0
  C  C72  1  0.61655000  0.70861000  0.39188000  1.0
  C  C73  1  0.38344000  0.20861000  0.60812000  1.0
  C  C74  1  0.38344000  0.70860000  0.89188000  1.0
  C  C75  1  0.61656000  0.20860000  0.10811000  1.0
  C  C76  1  0.66531000  0.79854000  0.34972000  1.0
  C  C77  1  0.33469000  0.29854000  0.65028000  1.0
  C  C78  1  0.33469000  0.79853000  0.84972000  1.0
  C  C79  1  0.66531000  0.29853000  0.15028000  1.0
  C  C80  1  0.27060000  0.76050000  0.57673000  1.0
  C  C81  1  0.72940000  0.26050000  0.42328000  1.0
  C  C82  1  0.72939000  0.76050000  0.07672000  1.0
  C  C83  1  0.27060000  0.26050000  0.92328000  1.0
  C  C84  1  0.15563000  0.79250000  0.61753000  1.0
  C  C85  1  0.84437000  0.29248000  0.38247000  1.0
  C  C86  1  0.84437000  0.79248000  0.11753000  1.0
  C  C87  1  0.15563000  0.29249000  0.88248000  1.0
  C  C88  1  0.17682000  0.87193000  0.67028000  1.0
  C  C89  1  0.82317000  0.37192000  0.32972000  1.0
  C  C90  1  0.82317000  0.87192000  0.17028000  1.0
  C  C91  1  0.17682000  0.37193000  0.82972000  1.0
  C  C92  1  0.41261000  0.89296000  0.64305000  1.0
  C  C93  1  0.58739000  0.39295000  0.35695000  1.0
  C  C94  1  0.58739000  0.89295000  0.14305000  1.0
  C  C95  1  0.41261000  0.39295000  0.85695000  1.0
  C  C96  1  0.40052000  0.81412000  0.58907000  1.0
  C  C97  1  0.59949000  0.31412000  0.41094000  1.0
  C  C98  1  0.59949000  0.81412000  0.08906000  1.0
  C  C99  1  0.40051000  0.31412000  0.91094000  1.0
  C  C100  1  0.42125000  0.14153000  0.25568000  1.0
  C  C101  1  0.57875000  0.64152000  0.74432000  1.0
  C  C102  1  0.57876000  0.14153000  0.75569000  1.0
  C  C103  1  0.42125000  0.64153000  0.24432000  1.0
  C  C104  1  0.31751000  0.23995000  0.27352000  1.0
  C  C105  1  0.68249000  0.73995000  0.72648000  1.0
  C  C106  1  0.68250000  0.23995000  0.77352000  1.0
  C  C107  1  0.31750000  0.73995000  0.22648000  1.0
  C  C108  1  0.16702000  0.21885000  0.24961000  1.0
  C  C109  1  0.83298000  0.71884000  0.75039000  1.0
  C  C110  1  0.83298000  0.21883000  0.74961000  1.0
  C  C111  1  0.16701000  0.71885000  0.25039000  1.0
  C  C112  1  0.09487000  0.11680000  0.28694000  1.0
  C  C113  1  0.90513000  0.61679000  0.71305000  1.0
  C  C114  1  0.90513000  0.11678000  0.78695000  1.0
  C  C115  1  0.09487000  0.61679000  0.21305000  1.0
  C  C116  1  0.94153000  0.09926000  0.26777000  1.0
  C  C117  1  0.05848000  0.59926000  0.73223000  1.0
  C  C118  1  0.05848000  0.09925000  0.76777000  1.0
  C  C119  1  0.94152000  0.59925000  0.23223000  1.0
  S  S120  1  0.43074000  0.60669000  0.47805000  1.0
  S  S121  1  0.56926000  0.10669000  0.52195000  1.0
  S  S122  1  0.56926000  0.60669000  0.97805000  1.0
  S  S123  1  0.43074000  0.10669000  0.02195000  1.0
  S  S124  1  0.23768000  0.65505000  0.51217000  1.0
  S  S125  1  0.76233000  0.15504000  0.48784000  1.0
  S  S126  1  0.76232000  0.65504000  0.01216000  1.0
  S  S127  1  0.23767000  0.15505000  0.98784000  1.0
  N  N128  1  0.59215000  0.89917000  0.33855000  1.0
  N  N129  1  0.40785000  0.39917000  0.66145000  1.0
  N  N130  1  0.40784000  0.89917000  0.83855000  1.0
  N  N131  1  0.59216000  0.39917000  0.16145000  1.0
  N  N132  1  0.30334000  0.92098000  0.68348000  1.0
  N  N133  1  0.69667000  0.42097000  0.31652000  1.0
  N  N134  1  0.69667000  0.92097000  0.18348000  1.0
  N  N135  1  0.30334000  0.42098000  0.81652000  1.0
  O  O136  1  0.54752000  0.15718000  0.27999000  1.0
  O  O137  1  0.45248000  0.65718000  0.72001000  1.0
  O  O138  1  0.45249000  0.15718000  0.78000000  1.0
  O  O139  1  0.54752000  0.65718000  0.22001000  1.0
  O  O140  1  0.38472000  0.05344000  0.22122000  1.0
  O  O141  1  0.61528000  0.55344000  0.77878000  1.0
  O  O142  1  0.61527000  0.05344000  0.72122000  1.0
  O  O143  1  0.38472000  0.55345000  0.27879000  1.0
  O  O144  1  0.89167000  0.14428000  0.21475000  1.0
  O  O145  1  0.10834000  0.64428000  0.78523000  1.0
  O  O146  1  0.10834000  0.14427000  0.71477000  1.0
  O  O147  1  0.89166000  0.64427000  0.28524000  1.0
  O  O148  1  0.86776000  0.03334000  0.30886000  1.0
  O  O149  1  0.13224000  0.53333000  0.69114000  1.0
  O  O150  1  0.13224000  0.03334000  0.80887000  1.0
  O  O151  1  0.86776000  0.53334000  0.19114000  1.0
