# generated using pymatgen
data_CdH13C15N3O5
_symmetry_space_group_name_H-M   'P 1'
_cell_length_a   9.09158000
_cell_length_b   10.57620000
_cell_length_c   16.09190000
_cell_angle_alpha   100.06100000
_cell_angle_beta   90.00000000
_cell_angle_gamma   90.00000000
_symmetry_Int_Tables_number   1
_chemical_formula_structural   CdH13C15N3O5
_chemical_formula_sum   'Cd4 H52 C60 N12 O20'
_cell_volume   1523.51249724
_cell_formula_units_Z   4
loop_
 _symmetry_equiv_pos_site_id
 _symmetry_equiv_pos_as_xyz
  1  'x, y, z'
loop_
 _atom_site_type_symbol
 _atom_site_label
 _atom_site_symmetry_multiplicity
 _atom_site_fract_x
 _atom_site_fract_y
 _atom_site_fract_z
 _atom_site_occupancy
  Cd  Cd0  1  0.85924000  0.30348000  0.84428000  1.0
  Cd  Cd1  1  0.14076000  0.30349000  0.34428000  1.0
  Cd  Cd2  1  0.12097000  0.02753000  0.74547000  1.0
  Cd  Cd3  1  0.87904000  0.02753000  0.24547000  1.0
  H  H4  1  0.34424000  0.78345000  0.78724000  1.0
  H  H5  1  0.65576000  0.78345000  0.28724000  1.0
  H  H6  1  0.60636000  0.53963000  0.80903000  1.0
  H  H7  1  0.39364000  0.53963000  0.30902000  1.0
  H  H8  1  0.78615000  0.28379000  0.54964000  1.0
  H  H9  1  0.21385000  0.28379000  0.04964000  1.0
  H  H10  1  0.97982000  0.28380000  0.55447000  1.0
  H  H11  1  0.02019000  0.28380000  0.05447000  1.0
  H  H12  1  0.78994000  0.03815000  0.53503000  1.0
  H  H13  1  0.21006000  0.03814000  0.03503000  1.0
  H  H14  1  0.98426000  0.04376000  0.53954000  1.0
  H  H15  1  0.01574000  0.04376000  0.03953000  1.0
  H  H16  1  0.11666000  0.72850000  0.50682000  1.0
  H  H17  1  0.88335000  0.72849000  0.00682000  1.0
  H  H18  1  0.29913000  0.76669000  0.48466000  1.0
  H  H19  1  0.70088000  0.76670000  0.98466000  1.0
  H  H20  1  0.22793000  0.57850000  0.60495000  1.0
  H  H21  1  0.77206000  0.57850000  0.10495000  1.0
  H  H22  1  0.39998000  0.60490000  0.56047000  1.0
  H  H23  1  0.60001000  0.60490000  0.06047000  1.0
  H  H24  1  0.73257000  0.17877000  0.98489000  1.0
  H  H25  1  0.26743000  0.17878000  0.48489000  1.0
  H  H26  1  0.57436000  0.99663000  0.01655000  1.0
  H  H27  1  0.42564000  0.99663000  0.51655000  1.0
  H  H28  1  0.48100000  0.90561000  0.74890000  1.0
  H  H29  1  0.51900000  0.90561000  0.24890000  1.0
  H  H30  1  0.64345000  0.08604000  0.72986000  1.0
  H  H31  1  0.35655000  0.08604000  0.22986000  1.0
  H  H32  1  0.10665000  0.45138000  0.97135000  1.0
  H  H33  1  0.89335000  0.45138000  0.47135000  1.0
  H  H34  1  0.29153000  0.62479000  0.97967000  1.0
  H  H35  1  0.70847000  0.62479000  0.47967000  1.0
  H  H36  1  0.18827000  0.64608000  0.72066000  1.0
  H  H37  1  0.81172000  0.64608000  0.22066000  1.0
  H  H38  1  0.01167000  0.46496000  0.72157000  1.0
  H  H39  1  0.98833000  0.46496000  0.22157000  1.0
  H  H40  1  0.87681000  0.91346000  0.62104000  1.0
  H  H41  1  0.12319000  0.91346000  0.12103000  1.0
  H  H42  1  0.69094000  0.73805000  0.59023000  1.0
  H  H43  1  0.30906000  0.73804000  0.09023000  1.0
  H  H44  1  0.78408000  0.64801000  0.83740000  1.0
  H  H45  1  0.21592000  0.64801000  0.33740000  1.0
  H  H46  1  0.96247000  0.82944000  0.85763000  1.0
  H  H47  1  0.03754000  0.82943000  0.35763000  1.0
  H  H48  1  0.31587000  0.22264000  0.87506000  1.0
  H  H49  1  0.68413000  0.22264000  0.37506000  1.0
  H  H50  1  0.48240000  0.40992000  0.87899000  1.0
  H  H51  1  0.51760000  0.40992000  0.37899000  1.0
  H  H52  1  0.43886000  0.36269000  0.60778000  1.0
  H  H53  1  0.56114000  0.36268000  0.10777000  1.0
  H  H54  1  0.27362000  0.17597000  0.61584000  1.0
  H  H55  1  0.72637000  0.17597000  0.11584000  1.0
  C  C56  1  0.87376000  0.24013000  0.66380000  1.0
  C  C57  1  0.12624000  0.24013000  0.16379000  1.0
  C  C58  1  0.88092000  0.23090000  0.56869000  1.0
  C  C59  1  0.11908000  0.23090000  0.06869000  1.0
  C  C60  1  0.88622000  0.09319000  0.52044000  1.0
  C  C61  1  0.11378000  0.09319000  0.02044000  1.0
  C  C62  1  0.89310000  0.08276000  0.42541000  1.0
  C  C63  1  0.10691000  0.08275000  0.92541000  1.0
  C  C64  1  0.22803000  0.83895000  0.61024000  1.0
  C  C65  1  0.77196000  0.83895000  0.11024000  1.0
  C  C66  1  0.22938000  0.73364000  0.53238000  1.0
  C  C67  1  0.77062000  0.73364000  0.03238000  1.0
  C  C68  1  0.28081000  0.60267000  0.54870000  1.0
  C  C69  1  0.71919000  0.60267000  0.04870000  1.0
  C  C70  1  0.24925000  0.49448000  0.47613000  1.0
  C  C71  1  0.75075000  0.49448000  0.97612000  1.0
  C  C72  1  0.67437000  0.11450000  0.93535000  1.0
  C  C73  1  0.32563000  0.11450000  0.43535000  1.0
  C  C74  1  0.58639000  0.01482000  0.95239000  1.0
  C  C75  1  0.41362000  0.01483000  0.45239000  1.0
  C  C76  1  0.51426000  0.93578000  0.88591000  1.0
  C  C77  1  0.48573000  0.93579000  0.38591000  1.0
  C  C78  1  0.53459000  0.96130000  0.80408000  1.0
  C  C79  1  0.46541000  0.96131000  0.30408000  1.0
  C  C80  1  0.62484000  0.06335000  0.79258000  1.0
  C  C81  1  0.37516000  0.06335000  0.29258000  1.0
  C  C82  1  0.12820000  0.49657000  0.91663000  1.0
  C  C83  1  0.87179000  0.49657000  0.41663000  1.0
  C  C84  1  0.23029000  0.59564000  0.92180000  1.0
  C  C85  1  0.76971000  0.59564000  0.42180000  1.0
  C  C86  1  0.25329000  0.65250000  0.85011000  1.0
  C  C87  1  0.74671000  0.65250000  0.35011000  1.0
  C  C88  1  0.17368000  0.60314000  0.77680000  1.0
  C  C89  1  0.82632000  0.60314000  0.27680000  1.0
  C  C90  1  0.07621000  0.50323000  0.77735000  1.0
  C  C91  1  0.92378000  0.50323000  0.27735000  1.0
  C  C92  1  0.42320000  0.82790000  0.90906000  1.0
  C  C93  1  0.57680000  0.82790000  0.40906000  1.0
  C  C94  1  0.85236000  0.85185000  0.66683000  1.0
  C  C95  1  0.14764000  0.85185000  0.16683000  1.0
  C  C96  1  0.75052000  0.75306000  0.64972000  1.0
  C  C97  1  0.24948000  0.75305000  0.14972000  1.0
  C  C98  1  0.72489000  0.67487000  0.71005000  1.0
  C  C99  1  0.27510000  0.67486000  0.21004000  1.0
  C  C100  1  0.79881000  0.70436000  0.78732000  1.0
  C  C101  1  0.20119000  0.70436000  0.28732000  1.0
  C  C102  1  0.89941000  0.80557000  0.79930000  1.0
  C  C103  1  0.10059000  0.80556000  0.29930000  1.0
  C  C104  1  0.34597000  0.25628000  0.81712000  1.0
  C  C105  1  0.65403000  0.25629000  0.31712000  1.0
  C  C106  1  0.43808000  0.36059000  0.81924000  1.0
  C  C107  1  0.56192000  0.36059000  0.31924000  1.0
  C  C108  1  0.47455000  0.40270000  0.74347000  1.0
  C  C109  1  0.52545000  0.40270000  0.24346000  1.0
  C  C110  1  0.41515000  0.33439000  0.66797000  1.0
  C  C111  1  0.58485000  0.33439000  0.16797000  1.0
  C  C112  1  0.32327000  0.23093000  0.67250000  1.0
  C  C113  1  0.67673000  0.23093000  0.17250000  1.0
  C  C114  1  0.62406000  0.56167000  0.68463000  1.0
  C  C115  1  0.37593000  0.56166000  0.18462000  1.0
  N  N116  1  0.69365000  0.13870000  0.85674000  1.0
  N  N117  1  0.30636000  0.13870000  0.35674000  1.0
  N  N118  1  0.34955000  0.75281000  0.84430000  1.0
  N  N119  1  0.65045000  0.75282000  0.34430000  1.0
  N  N120  1  0.05152000  0.45015000  0.84635000  1.0
  N  N121  1  0.94847000  0.45016000  0.34635000  1.0
  N  N122  1  0.92792000  0.87686000  0.73988000  1.0
  N  N123  1  0.07208000  0.87686000  0.23987000  1.0
  N  N124  1  0.56400000  0.51024000  0.74954000  1.0
  N  N125  1  0.43600000  0.51023000  0.24954000  1.0
  N  N126  1  0.28807000  0.19139000  0.74510000  1.0
  N  N127  1  0.71193000  0.19138000  0.24510000  1.0
  O  O128  1  0.93049000  0.15307000  0.69938000  1.0
  O  O129  1  0.06951000  0.15308000  0.19937000  1.0
  O  O130  1  0.81024000  0.33794000  0.70643000  1.0
  O  O131  1  0.18976000  0.33794000  0.20643000  1.0
  O  O132  1  0.82580000  0.98846000  0.38062000  1.0
  O  O133  1  0.17421000  0.98846000  0.88062000  1.0
  O  O134  1  0.96378000  0.16500000  0.39221000  1.0
  O  O135  1  0.03623000  0.16499000  0.89221000  1.0
  O  O136  1  0.16740000  0.94530000  0.60200000  1.0
  O  O137  1  0.83260000  0.94530000  0.10200000  1.0
  O  O138  1  0.28007000  0.81837000  0.68012000  1.0
  O  O139  1  0.71993000  0.81837000  0.18012000  1.0
  O  O140  1  0.28729000  0.50682000  0.40132000  1.0
  O  O141  1  0.71271000  0.50683000  0.90131000  1.0
  O  O142  1  0.18388000  0.39410000  0.49098000  1.0
  O  O143  1  0.81611000  0.39410000  0.99097000  1.0
  O  O144  1  0.59806000  0.52241000  0.60909000  1.0
  O  O145  1  0.40194000  0.52241000  0.10908000  1.0
  O  O146  1  0.42147000  0.80914000  0.98285000  1.0
  O  O147  1  0.57853000  0.80914000  0.48284000  1.0
