# generated using pymatgen
data_AgH9C7N3O2
_symmetry_space_group_name_H-M   'P 1'
_cell_length_a   6.82644000
_cell_length_b   7.23965000
_cell_length_c   10.07020000
_cell_angle_alpha   104.92200000
_cell_angle_beta   95.01560000
_cell_angle_gamma   67.79100000
_symmetry_Int_Tables_number   1
_chemical_formula_structural   AgH9C7N3O2
_chemical_formula_sum   'Ag2 H18 C14 N6 O4'
_cell_volume   445.19217716
_cell_formula_units_Z   2
loop_
 _symmetry_equiv_pos_site_id
 _symmetry_equiv_pos_as_xyz
  1  'x, y, z'
loop_
 _atom_site_type_symbol
 _atom_site_label
 _atom_site_symmetry_multiplicity
 _atom_site_fract_x
 _atom_site_fract_y
 _atom_site_fract_z
 _atom_site_occupancy
  Ag  Ag0  1  0.21768000  0.86200000  0.98420000  1.0
  Ag  Ag1  1  0.78234000  0.13799000  0.01580000  1.0
  H  H2  1  0.29064000  0.74718000  0.23944000  1.0
  H  H3  1  0.70937000  0.25282000  0.76056000  1.0
  H  H4  1  0.38805000  0.52768000  0.30739000  1.0
  H  H5  1  0.61195000  0.47232000  0.69261000  1.0
  H  H6  1  0.19631000  0.47971000  0.78450000  1.0
  H  H7  1  0.80370000  0.52029000  0.21549000  1.0
  H  H8  1  0.33196000  0.21094000  0.19291000  1.0
  H  H9  1  0.66804000  0.78907000  0.80709000  1.0
  H  H10  1  0.20594000  0.12081000  0.77544000  1.0
  H  H11  1  0.79407000  0.87919000  0.22456000  1.0
  H  H12  1  0.76844000  0.51903000  0.50036000  1.0
  H  H13  1  0.23155000  0.48096000  0.49965000  1.0
  H  H14  1  0.94086000  0.49674000  0.64245000  1.0
  H  H15  1  0.05913000  0.50325000  0.35754000  1.0
  H  H16  1  0.18167000  0.14996000  0.50694000  1.0
  H  H17  1  0.81831000  0.85003000  0.49306000  1.0
  H  H18  1  0.92163000  0.16233000  0.53020000  1.0
  H  H19  1  0.07836000  0.83766000  0.46979000  1.0
  C  C20  1  0.22546000  0.41786000  0.87536000  1.0
  C  C21  1  0.77455000  0.58215000  0.12464000  1.0
  C  C22  1  0.30495000  0.27032000  0.10107000  1.0
  C  C23  1  0.69505000  0.72968000  0.89892000  1.0
  C  C24  1  0.30074000  0.47099000  0.10763000  1.0
  C  C25  1  0.69927000  0.52901000  0.89237000  1.0
  C  C26  1  0.23179000  0.22250000  0.86963000  1.0
  C  C27  1  0.76822000  0.77751000  0.13037000  1.0
  C  C28  1  0.99096000  0.14881000  0.32398000  1.0
  C  C29  1  0.00904000  0.85119000  0.67601000  1.0
  C  C30  1  0.93569000  0.45363000  0.52951000  1.0
  C  C31  1  0.06429000  0.54637000  0.47050000  1.0
  C  C32  1  0.01482000  0.22020000  0.47965000  1.0
  C  C33  1  0.98517000  0.77980000  0.52035000  1.0
  N  N34  1  0.34014000  0.58936000  0.22517000  1.0
  N  N35  1  0.65986000  0.41064000  0.77483000  1.0
  N  N36  1  0.25443000  0.54456000  0.99282000  1.0
  N  N37  1  0.74558000  0.45544000  0.00718000  1.0
  N  N38  1  0.26631000  0.15237000  0.98515000  1.0
  N  N39  1  0.73369000  0.84763000  0.01485000  1.0
  O  O40  1  0.15197000  0.01070000  0.25527000  1.0
  O  O41  1  0.84802000  0.98930000  0.74473000  1.0
  O  O42  1  0.81145000  0.23354000  0.27421000  1.0
  O  O43  1  0.18854000  0.76648000  0.72579000  1.0
