# generated using pymatgen
data_ZnH10C15NO5
_symmetry_space_group_name_H-M   'P 1'
_cell_length_a   10.87970000
_cell_length_b   14.78640000
_cell_length_c   16.23970000
_cell_angle_alpha   90.00110000
_cell_angle_beta   90.02140000
_cell_angle_gamma   89.95280000
_symmetry_Int_Tables_number   1
_chemical_formula_structural   ZnH10C15NO5
_chemical_formula_sum   'Zn2 H20 C30 N2 O10'
_cell_volume   2612.50538969
_cell_formula_units_Z   2
loop_
 _symmetry_equiv_pos_site_id
 _symmetry_equiv_pos_as_xyz
  1  'x, y, z'
loop_
 _atom_site_type_symbol
 _atom_site_label
 _atom_site_symmetry_multiplicity
 _atom_site_fract_x
 _atom_site_fract_y
 _atom_site_fract_z
 _atom_site_occupancy
  Zn  Zn0  1  0.50022000  0.40660000  0.50002000  1.0
  Zn  Zn1  1  0.50007000  0.59323000  0.50001000  1.0
  H  H2  1  0.10842000  0.38330000  0.42201000  1.0
  H  H3  1  0.10792000  0.63476000  0.55422000  1.0
  H  H4  1  0.10734000  0.48651000  0.36743000  1.0
  H  H5  1  0.10782000  0.63481000  0.44595000  1.0
  H  H6  1  0.89316000  0.48657000  0.36746000  1.0
  H  H7  1  0.89266000  0.63472000  0.44591000  1.0
  H  H8  1  0.89236000  0.38337000  0.42198000  1.0
  H  H9  1  0.89275000  0.63464000  0.55434000  1.0
  H  H10  1  0.10855000  0.38322000  0.57794000  1.0
  H  H11  1  0.10752000  0.48638000  0.63260000  1.0
  H  H12  1  0.89249000  0.38327000  0.57796000  1.0
  H  H13  1  0.89335000  0.48640000  0.63260000  1.0
  H  H14  1  0.49506000  0.35417000  0.07687000  1.0
  H  H15  1  0.50531000  0.64546000  0.07687000  1.0
  H  H16  1  0.49498000  0.35417000  0.92319000  1.0
  H  H17  1  0.50524000  0.64545000  0.92318000  1.0
  H  H18  1  0.30803000  0.91494000  0.49344000  1.0
  H  H19  1  0.30783000  0.08480000  0.49343000  1.0
  H  H20  1  0.72065000  0.15528000  0.50754000  1.0
  H  H21  1  0.72136000  0.84446000  0.50743000  1.0
  C  C22  1  0.50036000  0.50085000  0.33828000  1.0
  C  C23  1  0.92922000  0.45247000  0.57727000  1.0
  C  C24  1  0.49730000  0.41757000  0.95734000  1.0
  C  C25  1  0.50306000  0.58205000  0.95734000  1.0
  C  C26  1  0.50018000  0.49981000  0.91316000  1.0
  C  C27  1  0.50310000  0.58205000  0.04272000  1.0
  C  C28  1  0.49733000  0.41757000  0.04272000  1.0
  C  C29  1  0.50027000  0.49981000  0.08690000  1.0
  C  C30  1  0.50020000  0.49980000  0.82599000  1.0
  C  C31  1  0.50034000  0.49981000  0.17407000  1.0
  C  C32  1  0.50031000  0.49989000  0.24914000  1.0
  C  C33  1  0.50022000  0.49990000  0.75092000  1.0
  C  C34  1  0.39305000  0.04640000  0.49634000  1.0
  C  C35  1  0.39317000  0.95334000  0.49634000  1.0
  C  C36  1  0.26106000  0.49922000  0.50001000  1.0
  C  C37  1  0.50625000  0.09314000  0.50017000  1.0
  C  C38  1  0.50646000  0.90658000  0.50015000  1.0
  C  C39  1  0.62014000  0.04779000  0.50404000  1.0
  C  C40  1  0.62028000  0.95190000  0.50402000  1.0
  C  C41  1  0.50591000  0.18879000  0.50019000  1.0
  C  C42  1  0.50616000  0.81094000  0.50015000  1.0
  C  C43  1  0.50037000  0.50084000  0.66178000  1.0
  C  C44  1  0.73988000  0.49917000  0.50006000  1.0
  C  C45  1  0.07164000  0.45250000  0.42274000  1.0
  C  C46  1  0.07146000  0.59916000  0.50008000  1.0
  C  C47  1  0.92911000  0.45256000  0.42275000  1.0
  C  C48  1  0.92923000  0.59915000  0.50009000  1.0
  C  C49  1  0.07175000  0.45242000  0.57726000  1.0
  C  C50  1  0.12066000  0.50168000  0.50002000  1.0
  C  C51  1  0.88013000  0.50169000  0.50004000  1.0
  N  N52  1  0.50658000  0.73237000  0.50021000  1.0
  N  N53  1  0.50653000  0.26737000  0.50023000  1.0
  O  O54  1  0.50040000  0.42391000  0.37383000  1.0
  O  O55  1  0.50044000  0.57836000  0.37242000  1.0
  O  O56  1  0.31266000  0.42181000  0.50000000  1.0
  O  O57  1  0.31681000  0.57499000  0.49999000  1.0
  O  O58  1  0.50046000  0.42390000  0.62624000  1.0
  O  O59  1  0.50047000  0.57834000  0.62763000  1.0
  O  O60  1  0.68842000  0.42178000  0.50007000  1.0
  O  O61  1  0.68384000  0.57487000  0.50005000  1.0
  O  O62  1  0.73022000  0.08943000  0.50780000  1.0
  O  O63  1  0.73049000  0.91032000  0.50774000  1.0
