# generated using pymatgen
data_Cs2UH6C8O13
_symmetry_space_group_name_H-M   'P 1'
_cell_length_a   7.08235000
_cell_length_b   11.38990000
_cell_length_c   11.39000000
_cell_angle_alpha   108.71900000
_cell_angle_beta   89.99940000
_cell_angle_gamma   89.99980000
_symmetry_Int_Tables_number   1
_chemical_formula_structural   Cs2UH6C8O13
_chemical_formula_sum   'Cs4 U2 H12 C16 O26'
_cell_volume   870.19913695
_cell_formula_units_Z   2
loop_
 _symmetry_equiv_pos_site_id
 _symmetry_equiv_pos_as_xyz
  1  'x, y, z'
loop_
 _atom_site_type_symbol
 _atom_site_label
 _atom_site_symmetry_multiplicity
 _atom_site_fract_x
 _atom_site_fract_y
 _atom_site_fract_z
 _atom_site_occupancy
  Cs  Cs0  1  0.02973000  0.21322000  0.71322000  1.0
  Cs  Cs1  1  0.97027000  0.71322000  0.21322000  1.0
  Cs  Cs2  1  0.00000000  0.50349000  0.50349000  1.0
  Cs  Cs3  1  0.00000000  0.00349000  0.00349000  1.0
  U  U4  1  0.50801000  0.00132000  0.50132000  1.0
  U  U5  1  0.49198000  0.50133000  0.00133000  1.0
  H  H6  1  0.09109000  0.98825000  0.40095000  1.0
  H  H7  1  0.90891000  0.40096000  0.98826000  1.0
  H  H8  1  0.09109000  0.90095000  0.48825000  1.0
  H  H9  1  0.90891000  0.48826000  0.90096000  1.0
  H  H10  1  0.34842000  0.70652000  0.45426000  1.0
  H  H11  1  0.65158000  0.45426000  0.70652000  1.0
  H  H12  1  0.34842000  0.95426000  0.20651000  1.0
  H  H13  1  0.65158000  0.20652000  0.95426000  1.0
  H  H14  1  0.40186000  0.62443000  0.32090000  1.0
  H  H15  1  0.59814000  0.32090000  0.62444000  1.0
  H  H16  1  0.40186000  0.82089000  0.12443000  1.0
  H  H17  1  0.59814000  0.12444000  0.82090000  1.0
  C  C18  1  0.29180000  0.19775000  0.37783000  1.0
  C  C19  1  0.70820000  0.37783000  0.19775000  1.0
  C  C20  1  0.29181000  0.87783000  0.69775000  1.0
  C  C21  1  0.70820000  0.69775000  0.87783000  1.0
  C  C22  1  0.26475000  0.24358000  0.27392000  1.0
  C  C23  1  0.73524000  0.27393000  0.24359000  1.0
  C  C24  1  0.26477000  0.77392000  0.74359000  1.0
  C  C25  1  0.73525000  0.74359000  0.77393000  1.0
  C  C26  1  0.22636000  0.29076000  0.19472000  1.0
  C  C27  1  0.77364000  0.19472000  0.29077000  1.0
  C  C28  1  0.22637000  0.69472000  0.79077000  1.0
  C  C29  1  0.77364000  0.79077000  0.69473000  1.0
  C  C30  1  0.16577000  0.34796000  0.10487000  1.0
  C  C31  1  0.83422000  0.10487000  0.34797000  1.0
  C  C32  1  0.16577000  0.60487000  0.84797000  1.0
  C  C33  1  0.83422000  0.84797000  0.60487000  1.0
  O  O34  1  0.56727000  0.86854000  0.36854000  1.0
  O  O35  1  0.43275000  0.36854000  0.86854000  1.0
  O  O36  1  0.46596000  0.13649000  0.63649000  1.0
  O  O37  1  0.53401000  0.63650000  0.13650000  1.0
  O  O38  1  0.38796000  0.09630000  0.35589000  1.0
  O  O39  1  0.61204000  0.35589000  0.09631000  1.0
  O  O40  1  0.38796000  0.85589000  0.59631000  1.0
  O  O41  1  0.61204000  0.59631000  0.85589000  1.0
  O  O42  1  0.21801000  0.25899000  0.47845000  1.0
  O  O43  1  0.78199000  0.47846000  0.25899000  1.0
  O  O44  1  0.21801000  0.97845000  0.75899000  1.0
  O  O45  1  0.78199000  0.75899000  0.97846000  1.0
  O  O46  1  0.24415000  0.45209000  0.11177000  1.0
  O  O47  1  0.75585000  0.11177000  0.45210000  1.0
  O  O48  1  0.24415000  0.61177000  0.95210000  1.0
  O  O49  1  0.75584000  0.95210000  0.61177000  1.0
  O  O50  1  0.03811000  0.29547000  0.02937000  1.0
  O  O51  1  0.96189000  0.02937000  0.29547000  1.0
  O  O52  1  0.03811000  0.52937000  0.79547000  1.0
  O  O53  1  0.96189000  0.79548000  0.52937000  1.0
  O  O54  1  0.16583000  0.96428000  0.46428000  1.0
  O  O55  1  0.83417000  0.46429000  0.96429000  1.0
  O  O56  1  0.30618000  0.63479000  0.38508000  1.0
  O  O57  1  0.69383000  0.38509000  0.63479000  1.0
  O  O58  1  0.30618000  0.88508000  0.13478000  1.0
  O  O59  1  0.69382000  0.13479000  0.88509000  1.0
