# generated using pymatgen
data_AlH12C10ClO5
_symmetry_space_group_name_H-M   'P 1'
_cell_length_a   6.61955000
_cell_length_b   14.45620000
_cell_length_c   15.23850000
_cell_angle_alpha   90.08260000
_cell_angle_beta   90.83090000
_cell_angle_gamma   90.94790000
_symmetry_Int_Tables_number   1
_chemical_formula_structural   AlH12C10ClO5
_chemical_formula_sum   'Al4 H48 C40 Cl4 O20'
_cell_volume   1457.87105816
_cell_formula_units_Z   4
loop_
 _symmetry_equiv_pos_site_id
 _symmetry_equiv_pos_as_xyz
  1  'x, y, z'
loop_
 _atom_site_type_symbol
 _atom_site_label
 _atom_site_symmetry_multiplicity
 _atom_site_fract_x
 _atom_site_fract_y
 _atom_site_fract_z
 _atom_site_occupancy
  Al  Al0  1  0.00879000  0.74848000  0.49887000  1.0
  Al  Al1  1  0.49531000  0.24974000  0.00125000  1.0
  Al  Al2  1  0.50854000  0.75115000  0.50117000  1.0
  Al  Al3  1  0.99579000  0.25216000  0.00106000  1.0
  H  H4  1  0.73435000  0.66345000  0.79655000  1.0
  H  H5  1  0.41945000  0.41973000  0.20406000  1.0
  H  H6  1  0.17711000  0.84399000  0.20174000  1.0
  H  H7  1  0.28849000  0.16255000  0.70753000  1.0
  H  H8  1  0.70640000  0.54902000  0.90237000  1.0
  H  H9  1  0.43567000  0.51209000  0.32952000  1.0
  H  H10  1  0.22491000  0.95239000  0.09074000  1.0
  H  H11  1  0.30670000  0.04967000  0.59998000  1.0
  H  H12  1  0.96267000  0.52145000  0.88470000  1.0
  H  H13  1  0.44548000  0.60815000  0.25919000  1.0
  H  H14  1  0.46979000  0.98283000  0.13030000  1.0
  H  H15  1  0.05097000  0.01779000  0.61889000  1.0
  H  H16  1  0.04982000  0.51048000  0.65360000  1.0
  H  H17  1  0.86317000  0.54363000  0.09571000  1.0
  H  H18  1  0.55905000  0.98695000  0.32787000  1.0
  H  H19  1  0.95110000  0.00778000  0.84289000  1.0
  H  H20  1  0.04962000  0.40316000  0.76818000  1.0
  H  H21  1  0.78488000  0.65783000  0.19773000  1.0
  H  H22  1  0.52540000  0.11543000  0.23527000  1.0
  H  H23  1  0.96192000  0.89748000  0.73048000  1.0
  H  H24  1  0.48359000  0.50239000  0.63946000  1.0
  H  H25  1  0.94463000  0.35977000  0.26478000  1.0
  H  H26  1  0.00244000  0.00922000  0.36449000  1.0
  H  H27  1  0.51606000  0.00314000  0.86800000  1.0
  H  H28  1  0.44422000  0.58239000  0.72374000  1.0
  H  H29  1  0.68848000  0.34799000  0.29506000  1.0
  H  H30  1  0.92704000  0.91938000  0.29259000  1.0
  H  H31  1  0.56652000  0.08502000  0.78592000  1.0
  H  H32  1  0.42899000  0.46033000  0.82334000  1.0
  H  H33  1  0.76849000  0.45622000  0.40559000  1.0
  H  H34  1  0.92138000  0.02012000  0.17292000  1.0
  H  H35  1  0.58591000  0.96580000  0.68391000  1.0
  H  H36  1  0.48656000  0.38077000  0.74034000  1.0
  H  H37  1  0.99756000  0.49025000  0.35591000  1.0
  H  H38  1  0.95917000  0.11179000  0.24723000  1.0
  H  H39  1  0.52270000  0.88386000  0.76438000  1.0
  H  H40  1  0.84028000  0.45370000  0.60307000  1.0
  H  H41  1  0.04312000  0.49292000  0.16560000  1.0
  H  H42  1  0.38374000  0.03949000  0.39745000  1.0
  H  H43  1  0.15216000  0.95346000  0.89864000  1.0
  H  H44  1  0.85676000  0.34115000  0.71233000  1.0
  H  H45  1  0.01177000  0.62652000  0.25266000  1.0
  H  H46  1  0.31749000  0.15602000  0.29518000  1.0
  H  H47  1  0.15231000  0.84019000  0.78984000  1.0
  H  H48  1  0.25760000  0.63955000  0.54200000  1.0
  H  H49  1  0.25478000  0.37332000  0.01956000  1.0
  H  H50  1  0.76225000  0.86435000  0.46560000  1.0
  H  H51  1  0.74599000  0.13913000  0.95866000  1.0
  C  C52  1  0.26690000  0.86351000  0.61796000  1.0
  C  C53  1  0.23263000  0.13664000  0.11602000  1.0
  C  C54  1  0.74502000  0.63708000  0.38175000  1.0
  C  C55  1  0.75313000  0.36390000  0.88496000  1.0
  C  C56  1  0.25606000  0.86245000  0.38182000  1.0
  C  C57  1  0.24657000  0.13865000  0.88333000  1.0
  C  C58  1  0.76100000  0.63740000  0.61877000  1.0
  C  C59  1  0.74167000  0.36337000  0.11674000  1.0
  C  C60  1  0.82857000  0.60419000  0.78065000  1.0
  C  C61  1  0.52630000  0.47777000  0.19714000  1.0
  C  C62  1  0.29741000  0.89427000  0.21872000  1.0
  C  C63  1  0.18820000  0.10352000  0.72201000  1.0
  C  C64  1  0.81490000  0.52867000  0.85216000  1.0
  C  C65  1  0.52270000  0.54401000  0.27623000  1.0
  C  C66  1  0.31236000  0.97230000  0.14992000  1.0
  C  C67  1  0.19939000  0.02779000  0.65073000  1.0
  C  C68  1  0.89701000  0.48329000  0.66549000  1.0
  C  C69  1  0.88924000  0.51982000  0.16319000  1.0
  C  C70  1  0.40591000  0.01483000  0.33001000  1.0
  C  C71  1  0.10470000  0.98205000  0.83487000  1.0
  C  C72  1  0.54205000  0.52582000  0.70372000  1.0
  C  C73  1  0.80479000  0.39831000  0.27427000  1.0
  C  C74  1  0.03726000  0.97622000  0.30149000  1.0
  C  C75  1  0.46516000  0.02729000  0.80308000  1.0
  C  C76  1  0.75948000  0.56381000  0.69063000  1.0
  C  C77  1  0.73995000  0.44054000  0.18463000  1.0
  C  C78  1  0.25220000  0.93611000  0.30995000  1.0
  C  C79  1  0.24745000  0.06342000  0.81268000  1.0
  C  C80  1  0.74870000  0.43486000  0.81125000  1.0
  C  C81  1  0.73956000  0.56601000  0.30805000  1.0
  C  C82  1  0.23401000  0.06382000  0.18815000  1.0
  C  C83  1  0.26536000  0.93506000  0.69150000  1.0
  C  C84  1  0.89830000  0.40963000  0.73880000  1.0
  C  C85  1  0.86428000  0.60006000  0.22908000  1.0
  C  C86  1  0.37970000  0.09456000  0.26329000  1.0
  C  C87  1  0.11076000  0.90738000  0.76210000  1.0
  C  C88  1  0.53676000  0.44623000  0.77114000  1.0
  C  C89  1  0.83640000  0.47616000  0.34277000  1.0
  C  C90  1  0.02294000  0.04616000  0.22542000  1.0
  C  C91  1  0.47443000  0.94913000  0.73443000  1.0
  Cl  Cl92  1  0.08359000  0.65242000  0.78047000  1.0
  Cl  Cl93  1  0.43785000  0.53430000  0.09681000  1.0
  Cl  Cl94  1  0.52551000  0.82657000  0.21685000  1.0
  Cl  Cl95  1  0.93763000  0.15295000  0.72084000  1.0
  O  O96  1  0.42571000  0.84236000  0.41623000  1.0
  O  O97  1  0.08206000  0.15494000  0.92200000  1.0
  O  O98  1  0.93128000  0.66472000  0.59049000  1.0
  O  O99  1  0.57707000  0.31878000  0.10285000  1.0
  O  O100  1  0.09635000  0.84099000  0.58380000  1.0
  O  O101  1  0.39825000  0.15132000  0.07640000  1.0
  O  O102  1  0.57721000  0.66622000  0.40931000  1.0
  O  O103  1  0.92374000  0.32882000  0.90337000  1.0
  O  O104  1  0.08737000  0.82689000  0.40365000  1.0
  O  O105  1  0.41463000  0.17956000  0.89973000  1.0
  O  O106  1  0.59119000  0.66532000  0.59028000  1.0
  O  O107  1  0.90852000  0.34699000  0.08009000  1.0
  O  O108  1  0.91918000  0.65937000  0.41216000  1.0
  O  O109  1  0.58907000  0.34771000  0.92498000  1.0
  O  O110  1  0.43766000  0.83409000  0.59437000  1.0
  O  O111  1  0.06636000  0.17627000  0.09978000  1.0
  O  O112  1  0.25766000  0.69249000  0.50296000  1.0
  O  O113  1  0.24893000  0.30833000  0.00347000  1.0
  O  O114  1  0.76164000  0.80679000  0.49810000  1.0
  O  O115  1  0.74409000  0.19234000  0.99747000  1.0
