# generated using pymatgen
data_AlH8C13SO5
_symmetry_space_group_name_H-M   'P 1'
_cell_length_a   6.85013000
_cell_length_b   12.75610000
_cell_length_c   17.54180000
_cell_angle_alpha   78.79670000
_cell_angle_beta   82.93350000
_cell_angle_gamma   74.50460000
_symmetry_Int_Tables_number   1
_chemical_formula_structural   AlH8C13SO5
_chemical_formula_sum   'Al2 H16 C26 S2 O10'
_cell_volume   1444.85016717
_cell_formula_units_Z   2
loop_
 _symmetry_equiv_pos_site_id
 _symmetry_equiv_pos_as_xyz
  1  'x, y, z'
loop_
 _atom_site_type_symbol
 _atom_site_label
 _atom_site_symmetry_multiplicity
 _atom_site_fract_x
 _atom_site_fract_y
 _atom_site_fract_z
 _atom_site_occupancy
  Al  Al0  1  0.50011000  0.49998000  0.50000000  1.0
  Al  Al1  1  0.00008000  0.50001000  0.50001000  1.0
  H  H2  1  0.28267000  0.38319000  0.57520000  1.0
  H  H3  1  0.71773000  0.61647000  0.42453000  1.0
  H  H4  1  0.65320000  0.49037000  0.28128000  1.0
  H  H5  1  0.73346000  0.48724000  0.13932000  1.0
  H  H6  1  0.03152000  0.50427000  0.25525000  1.0
  H  H7  1  0.96782000  0.49741000  0.74462000  1.0
  H  H8  1  0.34770000  0.50765000  0.71889000  1.0
  H  H9  1  0.26749000  0.50994000  0.86094000  1.0
  H  H10  1  0.38262000  0.85135000  0.50308000  1.0
  H  H11  1  0.61766000  0.14858000  0.49688000  1.0
  H  H12  1  0.01721000  0.42686000  0.11093000  1.0
  H  H13  1  0.12452000  0.51356000  0.03580000  1.0
  H  H14  1  0.93398000  0.57314000  0.10401000  1.0
  H  H15  1  0.06358000  0.42740000  0.89745000  1.0
  H  H16  1  0.87292000  0.49083000  0.96394000  1.0
  H  H17  1  0.98418000  0.57412000  0.88755000  1.0
  C  C18  1  0.84564000  0.30424000  0.50217000  1.0
  C  C19  1  0.70727000  0.49745000  0.63851000  1.0
  C  C20  1  0.15461000  0.69570000  0.49786000  1.0
  C  C21  1  0.29291000  0.50255000  0.36149000  1.0
  C  C22  1  0.33655000  0.49842000  0.27653000  1.0
  C  C23  1  0.53584000  0.49309000  0.24377000  1.0
  C  C24  1  0.58029000  0.49167000  0.16494000  1.0
  C  C25  1  0.42850000  0.49668000  0.11604000  1.0
  C  C26  1  0.22748000  0.50073000  0.14874000  1.0
  C  C27  1  0.18526000  0.50114000  0.22875000  1.0
  C  C28  1  0.47851000  0.49836000  0.03503000  1.0
  C  C29  1  0.52150000  0.50106000  0.96503000  1.0
  C  C30  1  0.57152000  0.50276000  0.88402000  1.0
  C  C31  1  0.77203000  0.50001000  0.85121000  1.0
  C  C32  1  0.81439000  0.49965000  0.77119000  1.0
  C  C33  1  0.66359000  0.50139000  0.72350000  1.0
  C  C34  1  0.46472000  0.50555000  0.75636000  1.0
  C  C35  1  0.42025000  0.50660000  0.83523000  1.0
  C  C36  1  0.21891000  0.88260000  0.50138000  1.0
  C  C37  1  0.78137000  0.11733000  0.49858000  1.0
  C  C38  1  0.09290000  0.81480000  0.49926000  1.0
  C  C39  1  0.90736000  0.18514000  0.50073000  1.0
  C  C40  1  0.89441000  0.00725000  0.49879000  1.0
  C  C41  1  0.10589000  0.99270000  0.50114000  1.0
  C  C42  1  0.06685000  0.50408000  0.09711000  1.0
  C  C43  1  0.93202000  0.49773000  0.90280000  1.0
  S  S44  1  0.83715000  0.88410000  0.49710000  1.0
  S  S45  1  0.16312000  0.11584000  0.50285000  1.0
  O  O46  1  0.65616000  0.35006000  0.50104000  1.0
  O  O47  1  0.88551000  0.49807000  0.60745000  1.0
  O  O48  1  0.01184000  0.64963000  0.49479000  1.0
  O  O49  1  0.44231000  0.50800000  0.39617000  1.0
  O  O50  1  0.34408000  0.64986000  0.49901000  1.0
  O  O51  1  0.11463000  0.50205000  0.39256000  1.0
  O  O52  1  0.98837000  0.35033000  0.50526000  1.0
  O  O53  1  0.55795000  0.49195000  0.60382000  1.0
  O  O54  1  0.26301000  0.44931000  0.53610000  1.0
  O  O55  1  0.73719000  0.55065000  0.46389000  1.0
