# generated using pymatgen
data_SmH17C22N(O5F)2
_symmetry_space_group_name_H-M   'P 1'
_cell_length_a   9.63990000
_cell_length_b   10.72420000
_cell_length_c   13.08730000
_cell_angle_alpha   68.30550000
_cell_angle_beta   76.47880000
_cell_angle_gamma   63.95550000
_symmetry_Int_Tables_number   1
_chemical_formula_structural   SmH17C22N(O5F)2
_chemical_formula_sum   'Sm2 H34 C44 N2 O20 F4'
_cell_volume   1125.32641427
_cell_formula_units_Z   2
loop_
 _symmetry_equiv_pos_site_id
 _symmetry_equiv_pos_as_xyz
  1  'x, y, z'
loop_
 _atom_site_type_symbol
 _atom_site_label
 _atom_site_symmetry_multiplicity
 _atom_site_fract_x
 _atom_site_fract_y
 _atom_site_fract_z
 _atom_site_occupancy
  Sm  Sm0  1  0.26883000  0.46633000  0.48790000  1.0
  Sm  Sm1  1  0.73117000  0.53367000  0.51210000  1.0
  H  H2  1  0.30143000  0.62047000  0.05263000  1.0
  H  H3  1  0.69857000  0.37953000  0.94737000  1.0
  H  H4  1  0.17232000  0.54145000  0.26191000  1.0
  H  H5  1  0.82768000  0.45855000  0.73809000  1.0
  H  H6  1  0.02389000  0.63272000  0.32231000  1.0
  H  H7  1  0.97612000  0.36728000  0.67768000  1.0
  H  H8  1  0.55318000  0.48150000  0.32763000  1.0
  H  H9  1  0.44682000  0.51850000  0.67237000  1.0
  H  H10  1  0.11144000  0.24651000  0.16829000  1.0
  H  H11  1  0.88856000  0.75348000  0.83171000  1.0
  H  H12  1  0.09608000  0.18999000  0.86168000  1.0
  H  H13  1  0.90392000  0.81001000  0.13832000  1.0
  H  H14  1  0.26914000  0.49940000  0.86055000  1.0
  H  H15  1  0.73086000  0.50060000  0.13945000  1.0
  H  H16  1  0.34959000  0.01700000  0.45310000  1.0
  H  H17  1  0.65041000  0.98301000  0.54690000  1.0
  H  H18  1  0.12064000  0.82944000  0.34039000  1.0
  H  H19  1  0.87936000  0.17056000  0.65961000  1.0
  H  H20  1  0.88240000  0.26960000  0.35643000  1.0
  H  H21  1  0.11760000  0.73040000  0.64357000  1.0
  H  H22  1  0.63176000  0.23582000  0.32929000  1.0
  H  H23  1  0.36824000  0.76418000  0.67071000  1.0
  H  H24  1  0.58238000  0.36843000  0.19657000  1.0
  H  H25  1  0.41762000  0.63156000  0.80343000  1.0
  H  H26  1  0.44508000  0.29582000  0.28463000  1.0
  H  H27  1  0.55492000  0.70417000  0.71537000  1.0
  H  H28  1  0.34121000  0.70319000  0.22161000  1.0
  H  H29  1  0.65879000  0.29681000  0.77839000  1.0
  H  H30  1  0.45072000  0.88565000  0.19096000  1.0
  H  H31  1  0.54928000  0.11435000  0.80904000  1.0
  H  H32  1  0.45400000  0.97354000  0.83926000  1.0
  H  H33  1  0.54600000  0.02646000  0.16074000  1.0
  H  H34  1  0.33991000  0.79115000  0.88652000  1.0
  H  H35  1  0.66009000  0.20884000  0.11348000  1.0
  C  C36  1  0.22585000  0.45841000  0.08104000  1.0
  C  C37  1  0.77415000  0.54159000  0.91896000  1.0
  C  C38  1  0.19459000  0.38082000  0.02031000  1.0
  C  C39  1  0.80541000  0.61918000  0.97969000  1.0
  C  C40  1  0.13299000  0.27496000  0.07878000  1.0
  C  C41  1  0.86701000  0.72504000  0.92122000  1.0
  C  C42  1  0.09917000  0.20936000  0.01940000  1.0
  C  C43  1  0.90083000  0.79064000  0.98060000  1.0
  C  C44  1  0.12438000  0.24377000  0.90524000  1.0
  C  C45  1  0.87562000  0.75623000  0.09476000  1.0
  C  C46  1  0.18776000  0.34852000  0.84800000  1.0
  C  C47  1  0.81224000  0.65148000  0.15200000  1.0
  C  C48  1  0.22216000  0.41678000  0.90552000  1.0
  C  C49  1  0.77784000  0.58322000  0.09448000  1.0
  C  C50  1  0.21854000  0.38738000  0.72554000  1.0
  C  C51  1  0.78146000  0.61262000  0.27446000  1.0
  C  C52  1  0.10894000  0.27807000  0.44182000  1.0
  C  C53  1  0.89106000  0.72193000  0.55818000  1.0
  C  C54  1  0.11611000  0.15616000  0.40754000  1.0
  C  C55  1  0.88389000  0.84384000  0.59247000  1.0
  C  C56  1  0.24933000  0.02715000  0.42096000  1.0
  C  C57  1  0.75067000  0.97285000  0.57904000  1.0
  C  C58  1  0.25053000  0.90831000  0.39904000  1.0
  C  C59  1  0.74947000  0.09169000  0.60096000  1.0
  C  C60  1  0.12222000  0.92096000  0.35720000  1.0
  C  C61  1  0.87778000  0.07904000  0.64280000  1.0
  C  C62  1  0.99485000  0.05227000  0.34012000  1.0
  C  C63  1  0.00515000  0.94773000  0.65988000  1.0
  C  C64  1  0.98643000  0.16947000  0.36670000  1.0
  C  C65  1  0.01357000  0.83053000  0.63330000  1.0
  C  C66  1  0.38393000  0.76329000  0.42735000  1.0
  C  C67  1  0.61607000  0.23671000  0.57265000  1.0
  C  C68  1  0.53814000  0.32925000  0.28264000  1.0
  C  C69  1  0.46185000  0.67075000  0.71736000  1.0
  C  C70  1  0.36770000  0.76646000  0.13850000  1.0
  C  C71  1  0.63230000  0.23354000  0.86150000  1.0
  C  C72  1  0.42989000  0.86874000  0.11987000  1.0
  C  C73  1  0.57011000  0.13126000  0.88013000  1.0
  C  C74  1  0.46545000  0.94624000  0.01154000  1.0
  C  C75  1  0.53455000  0.05376000  0.98846000  1.0
  C  C76  1  0.43180000  0.91760000  0.92572000  1.0
  C  C77  1  0.56821000  0.08240000  0.07428000  1.0
  C  C78  1  0.36835000  0.81508000  0.95117000  1.0
  C  C79  1  0.63166000  0.18492000  0.04883000  1.0
  N  N80  1  0.33855000  0.73919000  0.05540000  1.0
  N  N81  1  0.66145000  0.26080000  0.94460000  1.0
  O  O82  1  0.19339000  0.43571000  0.18219000  1.0
  O  O83  1  0.80661000  0.56429000  0.81781000  1.0
  O  O84  1  0.28800000  0.55101000  0.01625000  1.0
  O  O85  1  0.71200000  0.44899000  0.98375000  1.0
  O  O86  1  0.17081000  0.33710000  0.67236000  1.0
  O  O87  1  0.82919000  0.66290000  0.32764000  1.0
  O  O88  1  0.29244000  0.47055000  0.67466000  1.0
  O  O89  1  0.70756000  0.52945000  0.32535000  1.0
  O  O90  1  0.13851000  0.59986000  0.31403000  1.0
  O  O91  1  0.86149000  0.40014000  0.68597000  1.0
  O  O92  1  0.47270000  0.44565000  0.33111000  1.0
  O  O93  1  0.52730000  0.55435000  0.66889000  1.0
  O  O94  1  0.23620000  0.28451000  0.44471000  1.0
  O  O95  1  0.76380000  0.71549000  0.55529000  1.0
  O  O96  1  0.97643000  0.36688000  0.46795000  1.0
  O  O97  1  0.02357000  0.63312000  0.53205000  1.0
  O  O98  1  0.35986000  0.65089000  0.43800000  1.0
  O  O99  1  0.64014000  0.34911000  0.56201000  1.0
  O  O100  1  0.51219000  0.75860000  0.44072000  1.0
  O  O101  1  0.48781000  0.24140000  0.55928000  1.0
  F  F102  1  0.87074000  0.06422000  0.29800000  1.0
  F  F103  1  0.12926000  0.93579000  0.70200000  1.0
  F  F104  1  0.03931000  0.10593000  0.07512000  1.0
  F  F105  1  0.96069000  0.89407000  0.92488000  1.0
