# generated using pymatgen
data_CuH9(CN)7
_symmetry_space_group_name_H-M   'P 1'
_cell_length_a   5.79257000
_cell_length_b   9.33756000
_cell_length_c   9.83194000
_cell_angle_alpha   80.25720000
_cell_angle_beta   86.02430000
_cell_angle_gamma   78.30490000
_symmetry_Int_Tables_number   1
_chemical_formula_structural   CuH9(CN)7
_chemical_formula_sum   'Cu2 H18 C14 N14'
_cell_volume   512.90574242
_cell_formula_units_Z   2
loop_
 _symmetry_equiv_pos_site_id
 _symmetry_equiv_pos_as_xyz
  1  'x, y, z'
loop_
 _atom_site_type_symbol
 _atom_site_label
 _atom_site_symmetry_multiplicity
 _atom_site_fract_x
 _atom_site_fract_y
 _atom_site_fract_z
 _atom_site_occupancy
  Cu  Cu0  1  0.78323000  0.92998000  0.47145000  1.0
  Cu  Cu1  1  0.21679000  0.07003000  0.52854000  1.0
  H  H2  1  0.11295000  0.49887000  0.22066000  1.0
  H  H3  1  0.88699000  0.50112000  0.77937000  1.0
  H  H4  1  0.79301000  0.55601000  0.04971000  1.0
  H  H5  1  0.20694000  0.44396000  0.95032000  1.0
  H  H6  1  0.47933000  0.93085000  0.24662000  1.0
  H  H7  1  0.52066000  0.06916000  0.75337000  1.0
  H  H8  1  0.29105000  0.56043000  0.40912000  1.0
  H  H9  1  0.70891000  0.43958000  0.59084000  1.0
  H  H10  1  0.07747000  0.62704000  0.53458000  1.0
  H  H11  1  0.92256000  0.37296000  0.46541000  1.0
  H  H12  1  0.22805000  0.75183000  0.42550000  1.0
  H  H13  1  0.77197000  0.24817000  0.57451000  1.0
  H  H14  1  0.29177000  0.89183000  0.04722000  1.0
  H  H15  1  0.70822000  0.10815000  0.95275000  1.0
  H  H16  1  0.31965000  0.70223000  0.03195000  1.0
  H  H17  1  0.68034000  0.29775000  0.96804000  1.0
  H  H18  1  0.49527000  0.81223000  0.92433000  1.0
  H  H19  1  0.50471000  0.18775000  0.07567000  1.0
  C  C20  1  0.96307000  0.68225000  0.32492000  1.0
  C  C21  1  0.03689000  0.31776000  0.67507000  1.0
  C  C22  1  0.96725000  0.59291000  0.22365000  1.0
  C  C23  1  0.03271000  0.40707000  0.77637000  1.0
  C  C24  1  0.79047000  0.62600000  0.12838000  1.0
  C  C25  1  0.20948000  0.37399000  0.87165000  1.0
  C  C26  1  0.60836000  0.74957000  0.13225000  1.0
  C  C27  1  0.39161000  0.25042000  0.86774000  1.0
  C  C28  1  0.61438000  0.83290000  0.23639000  1.0
  C  C29  1  0.38560000  0.16711000  0.76360000  1.0
  C  C30  1  0.15036000  0.65311000  0.42903000  1.0
  C  C31  1  0.84965000  0.34690000  0.57096000  1.0
  C  C32  1  0.41797000  0.79166000  0.02934000  1.0
  C  C33  1  0.58202000  0.20832000  0.97066000  1.0
  N  N34  1  0.52072000  0.87011000  0.59376000  1.0
  N  N35  1  0.47935000  0.12991000  0.40622000  1.0
  N  N36  1  0.51053000  0.74686000  0.65288000  1.0
  N  N37  1  0.48952000  0.25315000  0.34715000  1.0
  N  N38  1  0.49202000  0.63024000  0.71234000  1.0
  N  N39  1  0.50802000  0.36980000  0.28772000  1.0
  N  N40  1  0.03174000  0.03776000  0.37081000  1.0
  N  N41  1  0.96832000  0.96222000  0.62918000  1.0
  N  N42  1  0.04953000  0.08504000  0.24836000  1.0
  N  N43  1  0.95051000  0.91498000  0.75162000  1.0
  N  N44  1  0.07038000  0.13000000  0.13151000  1.0
  N  N45  1  0.92966000  0.87005000  0.86850000  1.0
  N  N46  1  0.78480000  0.80022000  0.32957000  1.0
  N  N47  1  0.21518000  0.19979000  0.67042000  1.0
