# generated using pymatgen
data_VHC4O5
_symmetry_space_group_name_H-M   'P 1'
_cell_length_a   7.17757000
_cell_length_b   9.98093000
_cell_length_c   10.03550000
_cell_angle_alpha   90.04420000
_cell_angle_beta   89.97540000
_cell_angle_gamma   89.97390000
_symmetry_Int_Tables_number   1
_chemical_formula_structural   VHC4O5
_chemical_formula_sum   'V4 H4 C16 O20'
_cell_volume   718.93106076
_cell_formula_units_Z   4
loop_
 _symmetry_equiv_pos_site_id
 _symmetry_equiv_pos_as_xyz
  1  'x, y, z'
loop_
 _atom_site_type_symbol
 _atom_site_label
 _atom_site_symmetry_multiplicity
 _atom_site_fract_x
 _atom_site_fract_y
 _atom_site_fract_z
 _atom_site_occupancy
  V  V0  1  0.49986000  0.10839000  0.60980000  1.0
  V  V1  1  0.50000000  0.39031000  0.11077000  1.0
  V  V2  1  0.50014000  0.89131000  0.38988000  1.0
  V  V3  1  0.49999000  0.60984000  0.88951000  1.0
  H  H4  1  0.49998000  0.15133000  0.33769000  1.0
  H  H5  1  0.50006000  0.65687000  0.15295000  1.0
  H  H6  1  0.49995000  0.34337000  0.84723000  1.0
  H  H7  1  0.50002000  0.84846000  0.66198000  1.0
  C  C8  1  0.50006000  0.58618000  0.44222000  1.0
  C  C9  1  0.49999000  0.55850000  0.58609000  1.0
  C  C10  1  0.50002000  0.91408000  0.94196000  1.0
  C  C11  1  0.49988000  0.41384000  0.55810000  1.0
  C  C12  1  0.49993000  0.05867000  0.91417000  1.0
  C  C13  1  0.49996000  0.44154000  0.41422000  1.0
  C  C14  1  0.50006000  0.08605000  0.05816000  1.0
  C  C15  1  0.50014000  0.94145000  0.08591000  1.0
  C  C16  1  0.89789000  0.05411000  0.55024000  1.0
  C  C17  1  0.89783000  0.44788000  0.05259000  1.0
  C  C18  1  0.10217000  0.44793000  0.05265000  1.0
  C  C19  1  0.89804000  0.94577000  0.44925000  1.0
  C  C20  1  0.10209000  0.94576000  0.44926000  1.0
  C  C21  1  0.89782000  0.55217000  0.94746000  1.0
  C  C22  1  0.10217000  0.55222000  0.94751000  1.0
  C  C23  1  0.10198000  0.05410000  0.55025000  1.0
  O  O24  1  0.49979000  0.31204000  0.63195000  1.0
  O  O25  1  0.49995000  0.36759000  0.31282000  1.0
  O  O26  1  0.50006000  0.18785000  0.13256000  1.0
  O  O27  1  0.50018000  0.68798000  0.36830000  1.0
  O  O28  1  0.50024000  0.86744000  0.18744000  1.0
  O  O29  1  0.50002000  0.63243000  0.68752000  1.0
  O  O30  1  0.49995000  0.81231000  0.86754000  1.0
  O  O31  1  0.49978000  0.13257000  0.81260000  1.0
  O  O32  1  0.77723000  0.11970000  0.61479000  1.0
  O  O33  1  0.77830000  0.38289000  0.11824000  1.0
  O  O34  1  0.22170000  0.38301000  0.11836000  1.0
  O  O35  1  0.77767000  0.87997000  0.38475000  1.0
  O  O36  1  0.22262000  0.87996000  0.38478000  1.0
  O  O37  1  0.77828000  0.61714000  0.88181000  1.0
  O  O38  1  0.22171000  0.61726000  0.88193000  1.0
  O  O39  1  0.22247000  0.11968000  0.61481000  1.0
  O  O40  1  0.50003000  0.91656000  0.59113000  1.0
  O  O41  1  0.50002000  0.41427000  0.91538000  1.0
  O  O42  1  0.49999000  0.58591000  0.08487000  1.0
  O  O43  1  0.49998000  0.08330000  0.40860000  1.0
