# generated using pymatgen
data_ZnSiH16C24S4N4(O2F)6
_symmetry_space_group_name_H-M   'P 1'
_cell_length_a   7.61375000
_cell_length_b   13.98620000
_cell_length_c   14.00700000
_cell_angle_alpha   88.98530000
_cell_angle_beta   86.81900000
_cell_angle_gamma   86.85420000
_symmetry_Int_Tables_number   1
_chemical_formula_structural   ZnSiH16C24S4N4(O2F)6
_chemical_formula_sum   'Zn1 Si1 H16 C24 S4 N4 O12 F6'
_cell_volume   1486.86624481
_cell_formula_units_Z   1
loop_
 _symmetry_equiv_pos_site_id
 _symmetry_equiv_pos_as_xyz
  1  'x, y, z'
loop_
 _atom_site_type_symbol
 _atom_site_label
 _atom_site_symmetry_multiplicity
 _atom_site_fract_x
 _atom_site_fract_y
 _atom_site_fract_z
 _atom_site_occupancy
  Zn  Zn0  1  0.50474000  0.50193000  0.50331000  1.0
  Si  Si1  1  0.00451000  0.50215000  0.50367000  1.0
  H  H2  1  0.73877000  0.54878000  0.66139000  1.0
  H  H3  1  0.74190000  0.55108000  0.83736000  1.0
  H  H4  1  0.22040000  0.46424000  0.67295000  1.0
  H  H5  1  0.78886000  0.53720000  0.33263000  1.0
  H  H6  1  0.26757000  0.45732000  0.34580000  1.0
  H  H7  1  0.26217000  0.45556000  0.16997000  1.0
  H  H8  1  0.75195000  0.66196000  0.45804000  1.0
  H  H9  1  0.75308000  0.83808000  0.45290000  1.0
  H  H10  1  0.21607000  0.66933000  0.54134000  1.0
  H  H11  1  0.79392000  0.33478000  0.46391000  1.0
  H  H12  1  0.25725000  0.34172000  0.54524000  1.0
  H  H13  1  0.25410000  0.16573000  0.54452000  1.0
  H  H14  1  0.97789000  0.57475000  0.95109000  1.0
  H  H15  1  0.02822000  0.42718000  0.05438000  1.0
  H  H16  1  0.99457000  0.95136000  0.42667000  1.0
  H  H17  1  0.01432000  0.05259000  0.57299000  1.0
  C  C18  1  0.62216000  0.53017000  0.70512000  1.0
  C  C19  1  0.62387000  0.53142000  0.80404000  1.0
  C  C20  1  0.47502000  0.50587000  0.86073000  1.0
  C  C21  1  0.32620000  0.48287000  0.81097000  1.0
  C  C22  1  0.33483000  0.48231000  0.71125000  1.0
  C  C23  1  0.48594000  0.50313000  0.96110000  1.0
  C  C24  1  0.51832000  0.50142000  0.04540000  1.0
  C  C25  1  0.53029000  0.49853000  0.14568000  1.0
  C  C26  1  0.68052000  0.52016000  0.19493000  1.0
  C  C27  1  0.67325000  0.52038000  0.29468000  1.0
  C  C28  1  0.38429000  0.47509000  0.30173000  1.0
  C  C29  1  0.38129000  0.47411000  0.20287000  1.0
  C  C30  1  0.63039000  0.70478000  0.47495000  1.0
  C  C31  1  0.63132000  0.80385000  0.47232000  1.0
  C  C32  1  0.47638000  0.85952000  0.49634000  1.0
  C  C33  1  0.32335000  0.80877000  0.51974000  1.0
  C  C34  1  0.33292000  0.70882000  0.52188000  1.0
  C  C35  1  0.48654000  0.95999000  0.49776000  1.0
  C  C36  1  0.52049000  0.04411000  0.49872000  1.0
  C  C37  1  0.53125000  0.14446000  0.50199000  1.0
  C  C38  1  0.68498000  0.19525000  0.48074000  1.0
  C  C39  1  0.67645000  0.29519000  0.48170000  1.0
  C  C40  1  0.37849000  0.29898000  0.52740000  1.0
  C  C41  1  0.37648000  0.19998000  0.52679000  1.0
  S  S42  1  0.11971000  0.46020000  0.86930000  1.0
  S  S43  1  0.88691000  0.54197000  0.13611000  1.0
  S  S44  1  0.11226000  0.86681000  0.54169000  1.0
  S  S45  1  0.89607000  0.13734000  0.45819000  1.0
  N  N46  1  0.48123000  0.50467000  0.65911000  1.0
  N  N47  1  0.52675000  0.49917000  0.34728000  1.0
  N  N48  1  0.48458000  0.65769000  0.50023000  1.0
  N  N49  1  0.52511000  0.34619000  0.50440000  1.0
  O  O50  1  0.04638000  0.56633000  0.88625000  1.0
  O  O51  1  0.01494000  0.41297000  0.80476000  1.0
  O  O52  1  0.14940000  0.41434000  0.96224000  1.0
  O  O53  1  0.95922000  0.43567000  0.11909000  1.0
  O  O54  1  0.85703000  0.58790000  0.04322000  1.0
  O  O55  1  0.99265000  0.58892000  0.20037000  1.0
  O  O56  1  0.06005000  0.88607000  0.43545000  1.0
  O  O57  1  0.99761000  0.80128000  0.58933000  1.0
  O  O58  1  0.13279000  0.95903000  0.58647000  1.0
  O  O59  1  0.94909000  0.11800000  0.56424000  1.0
  O  O60  1  0.87568000  0.04519000  0.41327000  1.0
  O  O61  1  0.01007000  0.20318000  0.41048000  1.0
  F  F62  1  0.77351000  0.50426000  0.50774000  1.0
  F  F63  1  0.23563000  0.50000000  0.49945000  1.0
  F  F64  1  0.00913000  0.40305000  0.57526000  1.0
  F  F65  1  0.00031000  0.60113000  0.43188000  1.0
  F  F66  1  0.99707000  0.57243000  0.60150000  1.0
  F  F67  1  0.01192000  0.43181000  0.40577000  1.0
