# generated using pymatgen
data_ZnH12C16NO4
_symmetry_space_group_name_H-M   'P 1'
_cell_length_a   5.85214000
_cell_length_b   14.68210000
_cell_length_c   16.31340000
_cell_angle_alpha   97.37260000
_cell_angle_beta   89.99880000
_cell_angle_gamma   89.99970000
_symmetry_Int_Tables_number   1
_chemical_formula_structural   ZnH12C16NO4
_chemical_formula_sum   'Zn4 H48 C64 N4 O16'
_cell_volume   1390.08698635
_cell_formula_units_Z   4
loop_
 _symmetry_equiv_pos_site_id
 _symmetry_equiv_pos_as_xyz
  1  'x, y, z'
loop_
 _atom_site_type_symbol
 _atom_site_label
 _atom_site_symmetry_multiplicity
 _atom_site_fract_x
 _atom_site_fract_y
 _atom_site_fract_z
 _atom_site_occupancy
  Zn  Zn0  1  0.60543000  0.94273000  0.34499000  1.0
  Zn  Zn1  1  0.10543000  0.05727000  0.15501000  1.0
  Zn  Zn2  1  0.39457000  0.05727000  0.65499000  1.0
  Zn  Zn3  1  0.89457000  0.94274000  0.84499000  1.0
  H  H4  1  0.04047000  0.86014000  0.40280000  1.0
  H  H5  1  0.54045000  0.13986000  0.09719000  1.0
  H  H6  1  0.95957000  0.13984000  0.59717000  1.0
  H  H7  1  0.45958000  0.86017000  0.90282000  1.0
  H  H8  1  0.68109000  0.10061000  0.47864000  1.0
  H  H9  1  0.18111000  0.89939000  0.02136000  1.0
  H  H10  1  0.31894000  0.89937000  0.52133000  1.0
  H  H11  1  0.81894000  0.10064000  0.97866000  1.0
  H  H12  1  0.13175000  0.38541000  0.70312000  1.0
  H  H13  1  0.63172000  0.61456000  0.79689000  1.0
  H  H14  1  0.86827000  0.61458000  0.29689000  1.0
  H  H15  1  0.36825000  0.38543000  0.20313000  1.0
  H  H16  1  0.22734000  0.54930000  0.69398000  1.0
  H  H17  1  0.72735000  0.45068000  0.80604000  1.0
  H  H18  1  0.77266000  0.45069000  0.30604000  1.0
  H  H19  1  0.27265000  0.54932000  0.19398000  1.0
  H  H20  1  0.59976000  0.58834000  0.63109000  1.0
  H  H21  1  0.09977000  0.41166000  0.86893000  1.0
  H  H22  1  0.40023000  0.41165000  0.36891000  1.0
  H  H23  1  0.90025000  0.58835000  0.13108000  1.0
  H  H24  1  0.87506000  0.46491000  0.58315000  1.0
  H  H25  1  0.37505000  0.53511000  0.91686000  1.0
  H  H26  1  0.12493000  0.53509000  0.41685000  1.0
  H  H27  1  0.62497000  0.46491000  0.08314000  1.0
  H  H28  1  0.78006000  0.30138000  0.59592000  1.0
  H  H29  1  0.28001000  0.69863000  0.90407000  1.0
  H  H30  1  0.21995000  0.69862000  0.40407000  1.0
  H  H31  1  0.71997000  0.30138000  0.09593000  1.0
  H  H32  1  0.37581000  0.21234000  0.45208000  1.0
  H  H33  1  0.87581000  0.78766000  0.04791000  1.0
  H  H34  1  0.62416000  0.78765000  0.54792000  1.0
  H  H35  1  0.12416000  0.21234000  0.95207000  1.0
  H  H36  1  0.15666000  0.35347000  0.50213000  1.0
  H  H37  1  0.65667000  0.64653000  0.99786000  1.0
  H  H38  1  0.84331000  0.64652000  0.49788000  1.0
  H  H39  1  0.34330000  0.35347000  0.00212000  1.0
  H  H40  1  0.77937000  0.38184000  0.43896000  1.0
  H  H41  1  0.27937000  0.61816000  0.06104000  1.0
  H  H42  1  0.22061000  0.61815000  0.56105000  1.0
  H  H43  1  0.72061000  0.38184000  0.93896000  1.0
  H  H44  1  0.62335000  0.26831000  0.32513000  1.0
  H  H45  1  0.12336000  0.73168000  0.17487000  1.0
  H  H46  1  0.37662000  0.73167000  0.67488000  1.0
  H  H47  1  0.87666000  0.26832000  0.82513000  1.0
  H  H48  1  0.83878000  0.12712000  0.27817000  1.0
  H  H49  1  0.33879000  0.87287000  0.22184000  1.0
  H  H50  1  0.16119000  0.87287000  0.72184000  1.0
  H  H51  1  0.66123000  0.12713000  0.77816000  1.0
  C  C52  1  0.02314000  0.92221000  0.44671000  1.0
  C  C53  1  0.52315000  0.07780000  0.05328000  1.0
  C  C54  1  0.97687000  0.07777000  0.55326000  1.0
  C  C55  1  0.47688000  0.92224000  0.94673000  1.0
  C  C56  1  0.17546000  0.94386000  0.51169000  1.0
  C  C57  1  0.67547000  0.05614000  0.98830000  1.0
  C  C58  1  0.82457000  0.05611000  0.48828000  1.0
  C  C59  1  0.32458000  0.94390000  0.01171000  1.0
  C  C60  1  0.38399000  0.23649000  0.65604000  1.0
  C  C61  1  0.88390000  0.76350000  0.84395000  1.0
  C  C62  1  0.61602000  0.76350000  0.34394000  1.0
  C  C63  1  0.11604000  0.23650000  0.15606000  1.0
  C  C64  1  0.44831000  0.33370000  0.64915000  1.0
  C  C65  1  0.94827000  0.66629000  0.85086000  1.0
  C  C66  1  0.55169000  0.66629000  0.35085000  1.0
  C  C67  1  0.05171000  0.33371000  0.14915000  1.0
  C  C68  1  0.29363000  0.40391000  0.67681000  1.0
  C  C69  1  0.79360000  0.59607000  0.82320000  1.0
  C  C70  1  0.70638000  0.59608000  0.32319000  1.0
  C  C71  1  0.20638000  0.40393000  0.17681000  1.0
  C  C72  1  0.34746000  0.49526000  0.67089000  1.0
  C  C73  1  0.84746000  0.50473000  0.82913000  1.0
  C  C74  1  0.65256000  0.50474000  0.32912000  1.0
  C  C75  1  0.15256000  0.49527000  0.17089000  1.0
  C  C76  1  0.55565000  0.51705000  0.63604000  1.0
  C  C77  1  0.05565000  0.48294000  0.86398000  1.0
  C  C78  1  0.44436000  0.48294000  0.36397000  1.0
  C  C79  1  0.94436000  0.51706000  0.13604000  1.0
  C  C80  1  0.71102000  0.44745000  0.60884000  1.0
  C  C81  1  0.21102000  0.55256000  0.89118000  1.0
  C  C82  1  0.28897000  0.55254000  0.39117000  1.0
  C  C83  1  0.78900000  0.44746000  0.10883000  1.0
  C  C84  1  0.65882000  0.35602000  0.61577000  1.0
  C  C85  1  0.15877000  0.64398000  0.88423000  1.0
  C  C86  1  0.34118000  0.64397000  0.38423000  1.0
  C  C87  1  0.84121000  0.35603000  0.11577000  1.0
  C  C88  1  0.75659000  0.92311000  0.16791000  1.0
  C  C89  1  0.25659000  0.07689000  0.33210000  1.0
  C  C90  1  0.24343000  0.07689000  0.83209000  1.0
  C  C91  1  0.74339000  0.92310000  0.66790000  1.0
  C  C92  1  0.12500000  0.16206000  0.36022000  1.0
  C  C93  1  0.62500000  0.83794000  0.13977000  1.0
  C  C94  1  0.87498000  0.83793000  0.63978000  1.0
  C  C95  1  0.37500000  0.16207000  0.86021000  1.0
  C  C96  1  0.21175000  0.22557000  0.42437000  1.0
  C  C97  1  0.71176000  0.77443000  0.07563000  1.0
  C  C98  1  0.78822000  0.77442000  0.57563000  1.0
  C  C99  1  0.28825000  0.22558000  0.92437000  1.0
  C  C100  1  0.08812000  0.30454000  0.45221000  1.0
  C  C101  1  0.58812000  0.69546000  0.04778000  1.0
  C  C102  1  0.91187000  0.69545000  0.54780000  1.0
  C  C103  1  0.41187000  0.30454000  0.95220000  1.0
  C  C104  1  0.87661000  0.32041000  0.41661000  1.0
  C  C105  1  0.37663000  0.67959000  0.08338000  1.0
  C  C106  1  0.12338000  0.67958000  0.58340000  1.0
  C  C107  1  0.62340000  0.32041000  0.91661000  1.0
  C  C108  1  0.78837000  0.25703000  0.35332000  1.0
  C  C109  1  0.28839000  0.74297000  0.14668000  1.0
  C  C110  1  0.21160000  0.74296000  0.64669000  1.0
  C  C111  1  0.71162000  0.25703000  0.85332000  1.0
  C  C112  1  0.91172000  0.17780000  0.32556000  1.0
  C  C113  1  0.41171000  0.82219000  0.17445000  1.0
  C  C114  1  0.08824000  0.82219000  0.67445000  1.0
  C  C115  1  0.58828000  0.17781000  0.82555000  1.0
  N  N116  1  0.84831000  0.97861000  0.43543000  1.0
  N  N117  1  0.34830000  0.02139000  0.06457000  1.0
  N  N118  1  0.15172000  0.02137000  0.56454000  1.0
  N  N119  1  0.65174000  0.97864000  0.93545000  1.0
  O  O120  1  0.53474000  0.17344000  0.63071000  1.0
  O  O121  1  0.03466000  0.82656000  0.86928000  1.0
  O  O122  1  0.46528000  0.82655000  0.36927000  1.0
  O  O123  1  0.96530000  0.17345000  0.13073000  1.0
  O  O124  1  0.19345000  0.21748000  0.68493000  1.0
  O  O125  1  0.69339000  0.78249000  0.81507000  1.0
  O  O126  1  0.80654000  0.78250000  0.31505000  1.0
  O  O127  1  0.30655000  0.21751000  0.18496000  1.0
  O  O128  1  0.90567000  0.94824000  0.11787000  1.0
  O  O129  1  0.40566000  0.05176000  0.38213000  1.0
  O  O130  1  0.09435000  0.05176000  0.88213000  1.0
  O  O131  1  0.59434000  0.94823000  0.61786000  1.0
  O  O132  1  0.71784000  0.97111000  0.23730000  1.0
  O  O133  1  0.21784000  0.02889000  0.26270000  1.0
  O  O134  1  0.28215000  0.02891000  0.76269000  1.0
  O  O135  1  0.78214000  0.97110000  0.73730000  1.0
