# generated using pymatgen
data_AlH6C27N7(ClO)6
_symmetry_space_group_name_H-M   'P 1'
_cell_length_a   3.98366000
_cell_length_b   18.07196880
_cell_length_c   18.12490000
_cell_angle_alpha   119.03504934
_cell_angle_beta   94.19820000
_cell_angle_gamma   95.46251351
_symmetry_Int_Tables_number   1
_chemical_formula_structural   AlH6C27N7(ClO)6
_chemical_formula_sum   'Al1 H6 C27 N7 Cl6 O6'
_cell_volume   1124.94739311
_cell_formula_units_Z   1
loop_
 _symmetry_equiv_pos_site_id
 _symmetry_equiv_pos_as_xyz
  1  'x, y, z'
loop_
 _atom_site_type_symbol
 _atom_site_label
 _atom_site_symmetry_multiplicity
 _atom_site_fract_x
 _atom_site_fract_y
 _atom_site_fract_z
 _atom_site_occupancy
  Al  Al0  1  0.99336000  0.99978000  0.50127000  1.0
  H  H1  1  0.92847000  0.31023000  0.89839000  1.0
  H  H2  1  0.60196000  0.08221000  0.18714000  1.0
  H  H3  1  0.26308000  0.60066000  0.42148000  1.0
  H  H4  1  0.60594000  0.31871000  0.42031000  1.0
  H  H5  1  0.05417000  0.60407000  0.18659000  1.0
  H  H6  1  0.45335000  0.08494000  0.89684000  1.0
  C  C7  1  0.56447000  0.06523000  0.63214000  1.0
  C  C8  1  0.50333000  0.06562000  0.43514000  1.0
  C  C9  1  0.41042000  0.86803000  0.43568000  1.0
  C  C10  1  0.80890000  0.24364000  0.86290000  1.0
  C  C11  1  0.69475000  0.20226000  0.90682000  1.0
  C  C12  1  0.58465000  0.11574000  0.25503000  1.0
  C  C13  1  0.60773000  0.20508000  0.29909000  1.0
  C  C14  1  0.14825000  0.59316000  0.29948000  1.0
  C  C15  1  0.25434000  0.63636000  0.38750000  1.0
  C  C16  1  0.58690000  0.24930000  0.38664000  1.0
  C  C17  1  0.54054000  0.20342000  0.42937000  1.0
  C  C18  1  0.52596000  0.11385000  0.38705000  1.0
  C  C19  1  0.55013000  0.07118000  0.29932000  1.0
  C  C20  1  0.35075000  0.72471000  0.43028000  1.0
  C  C21  1  0.33202000  0.77197000  0.38748000  1.0
  C  C22  1  0.22242000  0.72702000  0.29918000  1.0
  C  C23  1  0.13680000  0.63835000  0.25494000  1.0
  C  C24  1  0.54087000  0.11640000  0.86208000  1.0
  C  C25  1  0.50085000  0.07260000  0.77348000  1.0
  C  C26  1  0.61253000  0.11276000  0.72802000  1.0
  C  C27  1  0.76736000  0.19876000  0.77433000  1.0
  C  C28  1  0.90737000  0.37650000  0.12428000  1.0
  C  C29  1  0.67881000  0.24624000  0.12389000  1.0
  C  C30  1  0.73692000  0.24938000  0.00069000  1.0
  C  C31  1  0.04019000  0.49976000  0.25314000  1.0
  C  C32  1  0.85295000  0.37915000  0.25886000  1.0
  C  C33  1  0.66538000  0.25235000  0.25280000  1.0
  N  N34  1  0.81296000  0.33400000  0.16906000  1.0
  N  N35  1  0.63121000  0.20528000  0.03905000  1.0
  N  N36  1  0.87775000  0.33228000  0.03960000  1.0
  N  N37  1  0.02451000  0.46011000  0.16778000  1.0
  N  N38  1  0.96511000  0.46303000  0.30034000  1.0
  N  N39  1  0.60371000  0.20609000  0.16719000  1.0
  N  N40  1  0.77835000  0.33687000  0.30020000  1.0
  Cl  Cl41  1  0.30647000  0.96737000  0.71879000  1.0
  Cl  Cl42  1  0.91177000  0.24975000  0.72066000  1.0
  Cl  Cl43  1  0.17702000  0.78195000  0.24432000  1.0
  Cl  Cl44  1  0.50282000  0.77634000  0.53753000  1.0
  Cl  Cl45  1  0.49612000  0.25787000  0.53606000  1.0
  Cl  Cl46  1  0.55362000  0.96222000  0.24552000  1.0
  O  O47  1  0.66259000  0.90371000  0.41977000  1.0
  O  O48  1  0.76788000  0.01276000  0.59573000  1.0
  O  O49  1  0.76153000  0.08079000  0.48860000  1.0
  O  O50  1  0.21254000  0.90663000  0.48944000  1.0
  O  O51  1  0.23497000  0.01375000  0.41930000  1.0
  O  O52  1  0.32321000  0.08131000  0.59502000  1.0
