# generated using pymatgen
data_Cd3H28C32(NO7)2
_symmetry_space_group_name_H-M   'P 1'
_cell_length_a   7.62574000
_cell_length_b   10.84310000
_cell_length_c   10.96380000
_cell_angle_alpha   62.87080000
_cell_angle_beta   76.37290000
_cell_angle_gamma   86.86300000
_symmetry_Int_Tables_number   1
_chemical_formula_structural   Cd3H28C32(NO7)2
_chemical_formula_sum   'Cd3 H28 C32 N2 O14'
_cell_volume   782.65107629
_cell_formula_units_Z   1
loop_
 _symmetry_equiv_pos_site_id
 _symmetry_equiv_pos_as_xyz
  1  'x, y, z'
loop_
 _atom_site_type_symbol
 _atom_site_label
 _atom_site_symmetry_multiplicity
 _atom_site_fract_x
 _atom_site_fract_y
 _atom_site_fract_z
 _atom_site_occupancy
  Cd  Cd0  1  0.50000000  0.50000000  0.00000000  1.0
  Cd  Cd1  1  0.05642000  0.14189000  0.35266000  1.0
  Cd  Cd2  1  0.94358000  0.85811000  0.64734000  1.0
  H  H3  1  0.28318000  0.71207000  0.81599000  1.0
  H  H4  1  0.71681000  0.28793000  0.18401000  1.0
  H  H5  1  0.49138000  0.73158000  0.72557000  1.0
  H  H6  1  0.50862000  0.26842000  0.27443000  1.0
  H  H7  1  0.94023000  0.41358000  0.90559000  1.0
  H  H8  1  0.05977000  0.58642000  0.09441000  1.0
  H  H9  1  0.14994000  0.50856000  0.85584000  1.0
  H  H10  1  0.85007000  0.49144000  0.14416000  1.0
  H  H11  1  0.34741000  0.94113000  0.09276000  1.0
  H  H12  1  0.65259000  0.05887000  0.90725000  1.0
  H  H13  1  0.25581000  0.43291000  0.31315000  1.0
  H  H14  1  0.74418000  0.56709000  0.68686000  1.0
  H  H15  1  0.11972000  0.55852000  0.45324000  1.0
  H  H16  1  0.88027000  0.44148000  0.54676000  1.0
  H  H17  1  0.45842000  0.38888000  0.51417000  1.0
  H  H18  1  0.54158000  0.61112000  0.48583000  1.0
  H  H19  1  0.48453000  0.80131000  0.96688000  1.0
  H  H20  1  0.51547000  0.19869000  0.03312000  1.0
  H  H21  1  0.22098000  0.99897000  0.85779000  1.0
  H  H22  1  0.77903000  0.00103000  0.14221000  1.0
  H  H23  1  0.06790000  0.12072000  0.99461000  1.0
  H  H24  1  0.93211000  0.87928000  0.00539000  1.0
  H  H25  1  0.49816000  0.01326000  0.66722000  1.0
  H  H26  1  0.50184000  0.98674000  0.33278000  1.0
  H  H27  1  0.57208000  0.17681000  0.51762000  1.0
  H  H28  1  0.42792000  0.82319000  0.48237000  1.0
  H  H29  1  0.30086000  0.51185000  0.64951000  1.0
  H  H30  1  0.69914000  0.48815000  0.35048000  1.0
  C  C31  1  0.08327000  0.40434000  0.90872000  1.0
  C  C32  1  0.91673000  0.59566000  0.09128000  1.0
  C  C33  1  0.32502000  0.08519000  0.52324000  1.0
  C  C34  1  0.67498000  0.91481000  0.47676000  1.0
  C  C35  1  0.22147000  0.75988000  0.28239000  1.0
  C  C36  1  0.77852000  0.24012000  0.71761000  1.0
  C  C37  1  0.32518000  0.82869000  0.14387000  1.0
  C  C38  1  0.67482000  0.17130000  0.85614000  1.0
  C  C39  1  0.27303000  0.54568000  0.26741000  1.0
  C  C40  1  0.72696000  0.45432000  0.73260000  1.0
  C  C41  1  0.09423000  0.33368000  0.06127000  1.0
  C  C42  1  0.90578000  0.66632000  0.93873000  1.0
  C  C43  1  0.19620000  0.61552000  0.34468000  1.0
  C  C44  1  0.80380000  0.38448000  0.65532000  1.0
  C  C45  1  0.14423000  0.84108000  0.36254000  1.0
  C  C46  1  0.85576000  0.15892000  0.63747000  1.0
  C  C47  1  0.37185000  0.33029000  0.61934000  1.0
  C  C48  1  0.62815000  0.66971000  0.38065000  1.0
  C  C49  1  0.39960000  0.75181000  0.07396000  1.0
  C  C50  1  0.60039000  0.24819000  0.92605000  1.0
  C  C51  1  0.24004000  0.11156000  0.81255000  1.0
  C  C52  1  0.75997000  0.88844000  0.18745000  1.0
  C  C53  1  0.15227000  0.18023000  0.88850000  1.0
  C  C54  1  0.84773000  0.81978000  0.11149000  1.0
  C  C55  1  0.45359000  0.11254000  0.59632000  1.0
  C  C56  1  0.54641000  0.88746000  0.40368000  1.0
  C  C57  1  0.28381000  0.39913000  0.69474000  1.0
  C  C58  1  0.71619000  0.60087000  0.30526000  1.0
  C  C59  1  0.35369000  0.18566000  0.67816000  1.0
  C  C60  1  0.64631000  0.81434000  0.32184000  1.0
  C  C61  1  0.17439000  0.32497000  0.83053000  1.0
  C  C62  1  0.82561000  0.67503000  0.16947000  1.0
  N  N63  1  0.37300000  0.61268000  0.13393000  1.0
  N  N64  1  0.62700000  0.38732000  0.86607000  1.0
  O  O65  1  0.95577000  0.25746000  0.15310000  1.0
  O  O66  1  0.04423000  0.74254000  0.84690000  1.0
  O  O67  1  0.16379000  0.97217000  0.29111000  1.0
  O  O68  1  0.83620000  0.02783000  0.70889000  1.0
  O  O69  1  0.39665000  0.66520000  0.80608000  1.0
  O  O70  1  0.60335000  0.33480000  0.19392000  1.0
  O  O71  1  0.32093000  0.17892000  0.39809000  1.0
  O  O72  1  0.67907000  0.82108000  0.60191000  1.0
  O  O73  1  0.23648000  0.34523000  0.09765000  1.0
  O  O74  1  0.76353000  0.65476000  0.90234000  1.0
  O  O75  1  0.07114000  0.77031000  0.49328000  1.0
  O  O76  1  0.92886000  0.22969000  0.50672000  1.0
  O  O77  1  0.22426000  0.97556000  0.59108000  1.0
  O  O78  1  0.77574000  0.02444000  0.40892000  1.0
