# generated using pymatgen
data_ZnH22(C17N3)2
_symmetry_space_group_name_H-M   'P 1'
_cell_length_a   7.35292000
_cell_length_b   10.74280000
_cell_length_c   21.39250000
_cell_angle_alpha   93.69320000
_cell_angle_beta   89.99890000
_cell_angle_gamma   89.99960000
_symmetry_Int_Tables_number   1
_chemical_formula_structural   ZnH22(C17N3)2
_chemical_formula_sum   'Zn2 H44 C68 N12'
_cell_volume   1686.30458859
_cell_formula_units_Z   2
loop_
 _symmetry_equiv_pos_site_id
 _symmetry_equiv_pos_as_xyz
  1  'x, y, z'
loop_
 _atom_site_type_symbol
 _atom_site_label
 _atom_site_symmetry_multiplicity
 _atom_site_fract_x
 _atom_site_fract_y
 _atom_site_fract_z
 _atom_site_occupancy
  Zn  Zn0  1  0.00001000  0.00001000  1.00000000  1.0
  Zn  Zn1  1  0.50000000  0.50000000  0.50000000  1.0
  H  H2  1  0.09773000  0.95863000  0.23771000  1.0
  H  H3  1  0.59773000  0.54137000  0.26229000  1.0
  H  H4  1  0.90226000  0.04138000  0.76229000  1.0
  H  H5  1  0.40226000  0.45862000  0.73771000  1.0
  H  H6  1  0.91985000  0.61684000  0.13863000  1.0
  H  H7  1  0.41987000  0.88316000  0.36137000  1.0
  H  H8  1  0.08012000  0.38317000  0.86137000  1.0
  H  H9  1  0.58013000  0.11683000  0.63863000  1.0
  H  H10  1  0.92589000  0.72991000  0.04112000  1.0
  H  H11  1  0.42592000  0.77008000  0.45888000  1.0
  H  H12  1  0.07409000  0.27008000  0.95888000  1.0
  H  H13  1  0.57410000  0.22992000  0.54112000  1.0
  H  H14  1  0.20338000  0.60907000  0.99483000  1.0
  H  H15  1  0.70340000  0.89093000  0.50517000  1.0
  H  H16  1  0.79663000  0.39094000  0.00518000  1.0
  H  H17  1  0.29665000  0.10904000  0.49482000  1.0
  H  H18  1  0.92597000  0.88145000  0.31274000  1.0
  H  H19  1  0.42598000  0.61855000  0.18726000  1.0
  H  H20  1  0.07403000  0.11856000  0.68727000  1.0
  H  H21  1  0.57402000  0.38144000  0.81274000  1.0
  H  H22  1  0.78524000  0.60437000  0.97020000  1.0
  H  H23  1  0.28523000  0.89561000  0.52980000  1.0
  H  H24  1  0.21477000  0.39562000  0.02981000  1.0
  H  H25  1  0.71477000  0.10436000  0.47020000  1.0
  H  H26  1  0.08848000  0.05814000  0.13562000  1.0
  H  H27  1  0.58849000  0.44185000  0.36438000  1.0
  H  H28  1  0.91151000  0.94185000  0.86438000  1.0
  H  H29  1  0.41151000  0.55815000  0.63562000  1.0
  H  H30  1  0.09512000  0.53622000  0.21616000  1.0
  H  H31  1  0.59515000  0.96378000  0.28383000  1.0
  H  H32  1  0.90487000  0.46379000  0.78383000  1.0
  H  H33  1  0.40488000  0.03621000  0.71617000  1.0
  H  H34  1  0.02714000  0.55906000  0.41651000  1.0
  H  H35  1  0.52715000  0.94093000  0.08349000  1.0
  H  H36  1  0.97285000  0.44094000  0.58349000  1.0
  H  H37  1  0.47285000  0.05907000  0.91651000  1.0
  H  H38  1  0.93526000  0.78166000  0.41318000  1.0
  H  H39  1  0.43526000  0.71834000  0.08682000  1.0
  H  H40  1  0.06475000  0.21833000  0.58682000  1.0
  H  H41  1  0.56474000  0.28166000  0.91318000  1.0
  H  H42  1  0.10657000  0.43660000  0.31763000  1.0
  H  H43  1  0.60660000  0.06340000  0.18237000  1.0
  H  H44  1  0.89340000  0.56340000  0.68236000  1.0
  H  H45  1  0.39342000  0.93660000  0.81764000  1.0
  C  C46  1  0.48827000  0.75454000  0.96338000  1.0
  C  C47  1  0.98827000  0.74546000  0.53662000  1.0
  C  C48  1  0.51171000  0.24549000  0.03662000  1.0
  C  C49  1  0.01172000  0.25453000  0.46338000  1.0
  C  C50  1  0.05501000  0.90443000  0.19546000  1.0
  C  C51  1  0.55502000  0.59557000  0.30455000  1.0
  C  C52  1  0.94497000  0.09558000  0.80454000  1.0
  C  C53  1  0.44498000  0.40442000  0.69546000  1.0
  C  C54  1  0.96180000  0.71431000  0.14051000  1.0
  C  C55  1  0.46181000  0.78570000  0.35949000  1.0
  C  C56  1  0.03818000  0.28570000  0.85949000  1.0
  C  C57  1  0.53819000  0.21430000  0.64051000  1.0
  C  C58  1  0.00847000  0.77796000  0.19763000  1.0
  C  C59  1  0.50850000  0.72204000  0.30238000  1.0
  C  C60  1  0.99151000  0.22204000  0.80237000  1.0
  C  C61  1  0.49150000  0.27796000  0.69763000  1.0
  C  C62  1  0.96386000  0.77715000  0.08580000  1.0
  C  C63  1  0.46387000  0.72285000  0.41421000  1.0
  C  C64  1  0.03614000  0.22285000  0.91421000  1.0
  C  C65  1  0.53615000  0.27714000  0.58579000  1.0
  C  C66  1  0.33408000  0.56117000  0.99633000  1.0
  C  C67  1  0.83409000  0.93884000  0.50367000  1.0
  C  C68  1  0.66592000  0.43885000  0.00367000  1.0
  C  C69  1  0.16593000  0.06114000  0.49633000  1.0
  C  C70  1  0.96707000  0.78407000  0.31355000  1.0
  C  C71  1  0.46708000  0.71593000  0.18645000  1.0
  C  C72  1  0.03292000  0.21593000  0.68645000  1.0
  C  C73  1  0.53292000  0.28407000  0.81355000  1.0
  C  C74  1  0.65933000  0.55931000  0.98365000  1.0
  C  C75  1  0.15933000  0.94069000  0.51635000  1.0
  C  C76  1  0.34067000  0.44071000  0.01635000  1.0
  C  C77  1  0.84068000  0.05930000  0.48365000  1.0
  C  C78  1  0.05254000  0.96040000  0.13881000  1.0
  C  C79  1  0.55254000  0.53961000  0.36119000  1.0
  C  C80  1  0.94747000  0.03961000  0.86119000  1.0
  C  C81  1  0.44748000  0.46039000  0.63882000  1.0
  C  C82  1  0.64586000  0.82560000  0.96233000  1.0
  C  C83  1  0.14586000  0.67439000  0.53767000  1.0
  C  C84  1  0.35413000  0.17443000  0.03767000  1.0
  C  C85  1  0.85413000  0.32559000  0.46233000  1.0
  C  C86  1  0.05786000  0.58983000  0.25931000  1.0
  C  C87  1  0.55788000  0.91016000  0.24069000  1.0
  C  C88  1  0.94212000  0.41017000  0.74069000  1.0
  C  C89  1  0.44213000  0.08983000  0.75931000  1.0
  C  C90  1  0.01030000  0.71629000  0.25715000  1.0
  C  C91  1  0.51032000  0.78371000  0.24285000  1.0
  C  C92  1  0.98969000  0.28371000  0.74284000  1.0
  C  C93  1  0.48969000  0.21629000  0.75715000  1.0
  C  C94  1  0.49354000  0.62407000  0.97981000  1.0
  C  C95  1  0.99355000  0.87593000  0.52019000  1.0
  C  C96  1  0.50646000  0.37597000  0.02018000  1.0
  C  C97  1  0.00646000  0.12405000  0.47982000  1.0
  C  C98  1  0.32547000  0.81803000  0.95749000  1.0
  C  C99  1  0.82547000  0.68198000  0.54251000  1.0
  C  C100  1  0.67450000  0.18199000  0.04252000  1.0
  C  C101  1  0.17452000  0.31804000  0.45749000  1.0
  C  C102  1  0.02151000  0.60252000  0.37196000  1.0
  C  C103  1  0.52152000  0.89748000  0.12804000  1.0
  C  C104  1  0.97849000  0.39748000  0.62803000  1.0
  C  C105  1  0.47849000  0.10252000  0.87197000  1.0
  C  C106  1  0.97122000  0.72754000  0.37024000  1.0
  C  C107  1  0.47121000  0.77246000  0.12975000  1.0
  C  C108  1  0.02879000  0.27246000  0.62975000  1.0
  C  C109  1  0.52879000  0.22754000  0.87025000  1.0
  C  C110  1  0.06495000  0.53380000  0.31632000  1.0
  C  C111  1  0.56497000  0.96619000  0.18368000  1.0
  C  C112  1  0.93504000  0.46619000  0.68367000  1.0
  C  C113  1  0.43505000  0.03381000  0.81633000  1.0
  N  N114  1  0.00796000  0.89829000  0.08438000  1.0
  N  N115  1  0.50797000  0.60170000  0.41562000  1.0
  N  N116  1  0.99204000  0.10171000  0.91562000  1.0
  N  N117  1  0.49205000  0.39829000  0.58438000  1.0
  N  N118  1  0.78080000  0.88453000  0.96247000  1.0
  N  N119  1  0.28081000  0.61547000  0.53752000  1.0
  N  N120  1  0.21918000  0.11547000  0.03752000  1.0
  N  N121  1  0.71918000  0.38451000  0.46248000  1.0
  N  N122  1  0.18655000  0.87121000  0.95265000  1.0
  N  N123  1  0.68655000  0.62879000  0.54735000  1.0
  N  N124  1  0.81345000  0.12879000  0.04735000  1.0
  N  N125  1  0.31346000  0.37121000  0.45266000  1.0
