# generated using pymatgen
data_ZnH5C7NO6
_symmetry_space_group_name_H-M   'P 1'
_cell_length_a   5.65930000
_cell_length_b   5.90415000
_cell_length_c   24.05100000
_cell_angle_alpha   89.99990000
_cell_angle_beta   86.96670000
_cell_angle_gamma   89.99990000
_symmetry_Int_Tables_number   1
_chemical_formula_structural   ZnH5C7NO6
_chemical_formula_sum   'Zn4 H20 C28 N4 O24'
_cell_volume   802.49870812
_cell_formula_units_Z   4
loop_
 _symmetry_equiv_pos_site_id
 _symmetry_equiv_pos_as_xyz
  1  'x, y, z'
loop_
 _atom_site_type_symbol
 _atom_site_label
 _atom_site_symmetry_multiplicity
 _atom_site_fract_x
 _atom_site_fract_y
 _atom_site_fract_z
 _atom_site_occupancy
  Zn  Zn0  1  0.73698000  0.05280000  0.03873000  1.0
  Zn  Zn1  1  0.26302000  0.55280000  0.46127000  1.0
  Zn  Zn2  1  0.26301000  0.94720000  0.96127000  1.0
  Zn  Zn3  1  0.73699000  0.44720000  0.53873000  1.0
  H  H4  1  0.90462000  0.43979000  0.23234000  1.0
  H  H5  1  0.09538000  0.93979000  0.26766000  1.0
  H  H6  1  0.09538000  0.56021000  0.76766000  1.0
  H  H7  1  0.90463000  0.06021000  0.73234000  1.0
  H  H8  1  0.64200000  0.77022000  0.25177000  1.0
  H  H9  1  0.35800000  0.27022000  0.24823000  1.0
  H  H10  1  0.35801000  0.22978000  0.74823000  1.0
  H  H11  1  0.64199000  0.72978000  0.75177000  1.0
  H  H12  1  0.37028000  0.89875000  0.17548000  1.0
  H  H13  1  0.62973000  0.39874000  0.32452000  1.0
  H  H14  1  0.62972000  0.10126000  0.82452000  1.0
  H  H15  1  0.37028000  0.60126000  0.67548000  1.0
  H  H16  1  0.99696000  0.68782000  0.02810000  1.0
  H  H17  1  0.00305000  0.18782000  0.47190000  1.0
  H  H18  1  0.00305000  0.31217000  0.97190000  1.0
  H  H19  1  0.99696000  0.81217000  0.52810000  1.0
  H  H20  1  0.83359000  0.67921000  0.97460000  1.0
  H  H21  1  0.16641000  0.17921000  0.52540000  1.0
  H  H22  1  0.16640000  0.32079000  0.02540000  1.0
  H  H23  1  0.83360000  0.82079000  0.47460000  1.0
  C  C24  1  0.95207000  0.17602000  0.14344000  1.0
  C  C25  1  0.04794000  0.67602000  0.35657000  1.0
  C  C26  1  0.04794000  0.82399000  0.85657000  1.0
  C  C27  1  0.95208000  0.32398000  0.64344000  1.0
  C  C28  1  0.78813000  0.37957000  0.15118000  1.0
  C  C29  1  0.21187000  0.87958000  0.34882000  1.0
  C  C30  1  0.21187000  0.62043000  0.84882000  1.0
  C  C31  1  0.78814000  0.12042000  0.65118000  1.0
  C  C32  1  0.78460000  0.49771000  0.20149000  1.0
  C  C33  1  0.21539000  0.99772000  0.29851000  1.0
  C  C34  1  0.21539000  0.50228000  0.79851000  1.0
  C  C35  1  0.78461000  0.00228000  0.70149000  1.0
  C  C36  1  0.63726000  0.68263000  0.21203000  1.0
  C  C37  1  0.36274000  0.18264000  0.28797000  1.0
  C  C38  1  0.36274000  0.31737000  0.78797000  1.0
  C  C39  1  0.63727000  0.81737000  0.71203000  1.0
  C  C40  1  0.48991000  0.75345000  0.17073000  1.0
  C  C41  1  0.51009000  0.25345000  0.32927000  1.0
  C  C42  1  0.51009000  0.24655000  0.82927000  1.0
  C  C43  1  0.48991000  0.74655000  0.67073000  1.0
  C  C44  1  0.49771000  0.63710000  0.12079000  1.0
  C  C45  1  0.50229000  0.13710000  0.37921000  1.0
  C  C46  1  0.50229000  0.36290000  0.87921000  1.0
  C  C47  1  0.49771000  0.86290000  0.62079000  1.0
  C  C48  1  0.34838000  0.69646000  0.07293000  1.0
  C  C49  1  0.65162000  0.19646000  0.42707000  1.0
  C  C50  1  0.65162000  0.30354000  0.92707000  1.0
  C  C51  1  0.34838000  0.80354000  0.57293000  1.0
  N  N52  1  0.64211000  0.45434000  0.11131000  1.0
  N  N53  1  0.35788000  0.95433000  0.38869000  1.0
  N  N54  1  0.35788000  0.54567000  0.88869000  1.0
  N  N55  1  0.64211000  0.04566000  0.61131000  1.0
  O  O56  1  0.63656000  0.36962000  0.06007000  1.0
  O  O57  1  0.36344000  0.86962000  0.43993000  1.0
  O  O58  1  0.36345000  0.63039000  0.93993000  1.0
  O  O59  1  0.63656000  0.13038000  0.56007000  1.0
  O  O60  1  0.90238000  0.01832000  0.10905000  1.0
  O  O61  1  0.09762000  0.51833000  0.39095000  1.0
  O  O62  1  0.09761000  0.98168000  0.89095000  1.0
  O  O63  1  0.90239000  0.48167000  0.60905000  1.0
  O  O64  1  0.12223000  0.17123000  0.17426000  1.0
  O  O65  1  0.87775000  0.67123000  0.32574000  1.0
  O  O66  1  0.87776000  0.82877000  0.82574000  1.0
  O  O67  1  0.12224000  0.32876000  0.67425000  1.0
  O  O68  1  0.16807000  0.57628000  0.06682000  1.0
  O  O69  1  0.83192000  0.07628000  0.43318000  1.0
  O  O70  1  0.83192000  0.42372000  0.93318000  1.0
  O  O71  1  0.16807000  0.92372000  0.56682000  1.0
  O  O72  1  0.40927000  0.86853000  0.04290000  1.0
  O  O73  1  0.59073000  0.36854000  0.45710000  1.0
  O  O74  1  0.59074000  0.13145000  0.95710000  1.0
  O  O75  1  0.40926000  0.63145000  0.54290000  1.0
  O  O76  1  0.90849000  0.78382000  0.00047000  1.0
  O  O77  1  0.09152000  0.28382000  0.49953000  1.0
  O  O78  1  0.09151000  0.21618000  0.99953000  1.0
  O  O79  1  0.90849000  0.71617000  0.50047000  1.0
