# generated using pymatgen
data_GdH6C7SO8
_symmetry_space_group_name_H-M   'P 1'
_cell_length_a   7.99243000
_cell_length_b   8.25859000
_cell_length_c   18.15960000
_cell_angle_alpha   89.99950000
_cell_angle_beta   89.99950000
_cell_angle_gamma   71.11700000
_symmetry_Int_Tables_number   1
_chemical_formula_structural   GdH6C7SO8
_chemical_formula_sum   'Gd4 H24 C28 S4 O32'
_cell_volume   1134.13680261
_cell_formula_units_Z   4
loop_
 _symmetry_equiv_pos_site_id
 _symmetry_equiv_pos_as_xyz
  1  'x, y, z'
loop_
 _atom_site_type_symbol
 _atom_site_label
 _atom_site_symmetry_multiplicity
 _atom_site_fract_x
 _atom_site_fract_y
 _atom_site_fract_z
 _atom_site_occupancy
  Gd  Gd0  1  0.74996000  0.22829000  0.51999000  1.0
  Gd  Gd1  1  0.75004000  0.77171000  0.01999000  1.0
  Gd  Gd2  1  0.25005000  0.77171000  0.48001000  1.0
  Gd  Gd3  1  0.24995000  0.22828000  0.98001000  1.0
  H  H4  1  0.99004000  0.22795000  0.64779000  1.0
  H  H5  1  0.50997000  0.77205000  0.14779000  1.0
  H  H6  1  0.00998000  0.77205000  0.35221000  1.0
  H  H7  1  0.49003000  0.22795000  0.85221000  1.0
  H  H8  1  0.11819000  0.16068000  0.57862000  1.0
  H  H9  1  0.38181000  0.83932000  0.07863000  1.0
  H  H10  1  0.88182000  0.83931000  0.42137000  1.0
  H  H11  1  0.61819000  0.16068000  0.92138000  1.0
  H  H12  1  0.71955000  0.60926000  0.48771000  1.0
  H  H13  1  0.78045000  0.39074000  0.98771000  1.0
  H  H14  1  0.28045000  0.39074000  0.51229000  1.0
  H  H15  1  0.21955000  0.60926000  0.01229000  1.0
  H  H16  1  0.88454000  0.52096000  0.54036000  1.0
  H  H17  1  0.61545000  0.47905000  0.04035000  1.0
  H  H18  1  0.11546000  0.47904000  0.45965000  1.0
  H  H19  1  0.38454000  0.52095000  0.95965000  1.0
  H  H20  1  0.13206000  0.54232000  0.61594000  1.0
  H  H21  1  0.36793000  0.45768000  0.11594000  1.0
  H  H22  1  0.86794000  0.45769000  0.38406000  1.0
  H  H23  1  0.63207000  0.54232000  0.88406000  1.0
  H  H24  1  0.18150000  0.37610000  0.74396000  1.0
  H  H25  1  0.31850000  0.62390000  0.24396000  1.0
  H  H26  1  0.81850000  0.62391000  0.25604000  1.0
  H  H27  1  0.68150000  0.37610000  0.75604000  1.0
  C  C28  1  0.95214000  0.76006000  0.67322000  1.0
  C  C29  1  0.54786000  0.23993000  0.17322000  1.0
  C  C30  1  0.04785000  0.23994000  0.32677000  1.0
  C  C31  1  0.45215000  0.76007000  0.82677000  1.0
  C  C32  1  0.06852000  0.59419000  0.66750000  1.0
  C  C33  1  0.43147000  0.40580000  0.16751000  1.0
  C  C34  1  0.93148000  0.40581000  0.33250000  1.0
  C  C35  1  0.56853000  0.59420000  0.83249000  1.0
  C  C36  1  0.09439000  0.50643000  0.73499000  1.0
  C  C37  1  0.40561000  0.49357000  0.23499000  1.0
  C  C38  1  0.90562000  0.49358000  0.26501000  1.0
  C  C39  1  0.59439000  0.50643000  0.76501000  1.0
  C  C40  1  0.99855000  0.60617000  0.79189000  1.0
  C  C41  1  0.50145000  0.39383000  0.29189000  1.0
  C  C42  1  0.00144000  0.39384000  0.20810000  1.0
  C  C43  1  0.49855000  0.60617000  0.70811000  1.0
  C  C44  1  0.90808000  0.88997000  0.61412000  1.0
  C  C45  1  0.59192000  0.11003000  0.11412000  1.0
  C  C46  1  0.09192000  0.11004000  0.38588000  1.0
  C  C47  1  0.40808000  0.88997000  0.88588000  1.0
  C  C48  1  0.00389000  0.55272000  0.86969000  1.0
  C  C49  1  0.49612000  0.44728000  0.36969000  1.0
  C  C50  1  0.99611000  0.44728000  0.13031000  1.0
  C  C51  1  0.50389000  0.55272000  0.63031000  1.0
  C  C52  1  0.42551000  0.06747000  0.52114000  1.0
  C  C53  1  0.07448000  0.93251000  0.02114000  1.0
  C  C54  1  0.57450000  0.93252000  0.47886000  1.0
  C  C55  1  0.92552000  0.06748000  0.97886000  1.0
  S  S56  1  0.87312000  0.80632000  0.76174000  1.0
  S  S57  1  0.62688000  0.19367000  0.26173000  1.0
  S  S58  1  0.12688000  0.19368000  0.23826000  1.0
  S  S59  1  0.37312000  0.80632000  0.73826000  1.0
  O  O60  1  0.77639000  0.02581000  0.62142000  1.0
  O  O61  1  0.72361000  0.97419000  0.12142000  1.0
  O  O62  1  0.22361000  0.97420000  0.37858000  1.0
  O  O63  1  0.27640000  0.02580000  0.87858000  1.0
  O  O64  1  0.00781000  0.86114000  0.55708000  1.0
  O  O65  1  0.49218000  0.13886000  0.05708000  1.0
  O  O66  1  0.99219000  0.13887000  0.44292000  1.0
  O  O67  1  0.50781000  0.86114000  0.94292000  1.0
  O  O68  1  0.11304000  0.40679000  0.88527000  1.0
  O  O69  1  0.38696000  0.59320000  0.38527000  1.0
  O  O70  1  0.88696000  0.59321000  0.11473000  1.0
  O  O71  1  0.61304000  0.40679000  0.61473000  1.0
  O  O72  1  0.90197000  0.65352000  0.91576000  1.0
  O  O73  1  0.59804000  0.34648000  0.41576000  1.0
  O  O74  1  0.09804000  0.34648000  0.08424000  1.0
  O  O75  1  0.40196000  0.65351000  0.58424000  1.0
  O  O76  1  0.44755000  0.20958000  0.53413000  1.0
  O  O77  1  0.05245000  0.79042000  0.03414000  1.0
  O  O78  1  0.55246000  0.79041000  0.46586000  1.0
  O  O79  1  0.94754000  0.20957000  0.96587000  1.0
  O  O80  1  0.29236000  0.02453000  0.53883000  1.0
  O  O81  1  0.20765000  0.97547000  0.03884000  1.0
  O  O82  1  0.70765000  0.97546000  0.46117000  1.0
  O  O83  1  0.79234000  0.02454000  0.96116000  1.0
  O  O84  1  0.00056000  0.24165000  0.59503000  1.0
  O  O85  1  0.49943000  0.75835000  0.09503000  1.0
  O  O86  1  0.99945000  0.75834000  0.40497000  1.0
  O  O87  1  0.50056000  0.24166000  0.90497000  1.0
  O  O88  1  0.81236000  0.49939000  0.50067000  1.0
  O  O89  1  0.68763000  0.50061000  0.00067000  1.0
  O  O90  1  0.18763000  0.50061000  0.49933000  1.0
  O  O91  1  0.31237000  0.49939000  0.99933000  1.0
