# generated using pymatgen
data_K2CaZrH16(CO3)8
_symmetry_space_group_name_H-M   'P 1'
_cell_length_a   8.77501000
_cell_length_b   9.19694000
_cell_length_c   9.19688516
_cell_angle_alpha   76.84373756
_cell_angle_beta   61.50664412
_cell_angle_gamma   61.50550000
_symmetry_Int_Tables_number   1
_chemical_formula_structural   K2CaZrH16(CO3)8
_chemical_formula_sum   'K2 Ca1 Zr1 H16 C8 O24'
_cell_volume   573.29574735
_cell_formula_units_Z   1
loop_
 _symmetry_equiv_pos_site_id
 _symmetry_equiv_pos_as_xyz
  1  'x, y, z'
loop_
 _atom_site_type_symbol
 _atom_site_label
 _atom_site_symmetry_multiplicity
 _atom_site_fract_x
 _atom_site_fract_y
 _atom_site_fract_z
 _atom_site_occupancy
  K  K0  1  0.50000000  0.00000000  0.00000000  1.0
  K  K1  1  0.75000000  0.50000000  0.50000000  1.0
  Ca  Ca2  1  0.25000000  0.50000000  0.50000000  1.0
  Zr  Zr3  1  0.99999000  0.00000000  0.00000000  1.0
  H  H4  1  0.27198000  0.15639000  0.34634000  1.0
  H  H5  1  0.77472000  0.84361000  0.65367000  1.0
  H  H6  1  0.57162000  0.65367000  0.15639000  1.0
  H  H7  1  0.38167000  0.34634000  0.84361000  1.0
  H  H8  1  0.12467000  0.07571000  0.42172000  1.0
  H  H9  1  0.62209000  0.92429000  0.57828000  1.0
  H  H10  1  0.79962000  0.57828000  0.07571000  1.0
  H  H11  1  0.45361000  0.42172000  0.92429000  1.0
  H  H12  1  0.79503000  0.07743000  0.57545000  1.0
  H  H13  1  0.44792000  0.92257000  0.42455000  1.0
  H  H14  1  0.12754000  0.42455000  0.07743000  1.0
  H  H15  1  0.62952000  0.57544000  0.92257000  1.0
  H  H16  1  0.86422000  0.14786000  0.66205000  1.0
  H  H17  1  0.67413000  0.85214000  0.33795000  1.0
  H  H18  1  0.98793000  0.33795000  0.14786000  1.0
  H  H19  1  0.47373000  0.66205000  0.85214000  1.0
  C  C20  1  0.57690000  0.21846000  0.22448000  1.0
  C  C21  1  0.01985000  0.78154000  0.77552000  1.0
  C  C22  1  0.20463000  0.77552000  0.21846000  1.0
  C  C23  1  0.19860000  0.22448000  0.78154000  1.0
  C  C24  1  0.69430000  0.27354000  0.26172000  1.0
  C  C25  1  0.22955000  0.72646000  0.73828000  1.0
  C  C26  1  0.03218000  0.73828000  0.27353000  1.0
  C  C27  1  0.04398000  0.26172000  0.72647000  1.0
  O  O28  1  0.67812000  0.10460000  0.11536000  1.0
  O  O29  1  0.89808000  0.89540000  0.88464000  1.0
  O  O30  1  0.21727000  0.88464000  0.10460000  1.0
  O  O31  1  0.20652000  0.11536000  0.89540000  1.0
  O  O32  1  0.87855000  0.19344000  0.17916000  1.0
  O  O33  1  0.25115000  0.80655000  0.82084000  1.0
  O  O34  1  0.92801000  0.82084000  0.19344000  1.0
  O  O35  1  0.94230000  0.17917000  0.80655000  1.0
  O  O36  1  0.39760000  0.28539000  0.30125000  1.0
  O  O37  1  0.98424000  0.71461000  0.69875000  1.0
  O  O38  1  0.31701000  0.69875000  0.28539000  1.0
  O  O39  1  0.30116000  0.30125000  0.71461000  1.0
  O  O40  1  0.60932000  0.38638000  0.36285000  1.0
  O  O41  1  0.35856000  0.61361000  0.63715000  1.0
  O  O42  1  0.00429000  0.63715000  0.38639000  1.0
  O  O43  1  0.02782000  0.36286000  0.61361000  1.0
  O  O44  1  0.26305000  0.05120000  0.35794000  1.0
  O  O45  1  0.67219000  0.94879000  0.64206000  1.0
  O  O46  1  0.68574000  0.64206000  0.05121000  1.0
  O  O47  1  0.37901000  0.35794000  0.94880000  1.0
  O  O48  1  0.87116000  0.13902000  0.55428000  1.0
  O  O49  1  0.56447000  0.86097000  0.44571000  1.0
  O  O50  1  0.98983000  0.44571000  0.13903000  1.0
  O  O51  1  0.57457000  0.55428000  0.86098000  1.0
