# generated using pymatgen
data_NiH12C16O9
_symmetry_space_group_name_H-M   'P 1'
_cell_length_a   7.65610000
_cell_length_b   10.58940000
_cell_length_c   21.49820000
_cell_angle_alpha   90.20960000
_cell_angle_beta   90.02030000
_cell_angle_gamma   77.84300000
_symmetry_Int_Tables_number   1
_chemical_formula_structural   NiH12C16O9
_chemical_formula_sum   'Ni4 H48 C64 O36'
_cell_volume   1703.83620705
_cell_formula_units_Z   4
loop_
 _symmetry_equiv_pos_site_id
 _symmetry_equiv_pos_as_xyz
  1  'x, y, z'
loop_
 _atom_site_type_symbol
 _atom_site_label
 _atom_site_symmetry_multiplicity
 _atom_site_fract_x
 _atom_site_fract_y
 _atom_site_fract_z
 _atom_site_occupancy
  Ni  Ni0  1  0.68157000  0.01969000  0.75289000  1.0
  Ni  Ni1  1  0.81821000  0.98039000  0.25284000  1.0
  Ni  Ni2  1  0.31836000  0.98034000  0.24713000  1.0
  Ni  Ni3  1  0.18172000  0.01961000  0.74719000  1.0
  H  H4  1  0.45207000  0.65446000  0.76179000  1.0
  H  H5  1  0.04710000  0.34758000  0.26093000  1.0
  H  H6  1  0.54742000  0.34616000  0.23856000  1.0
  H  H7  1  0.95154000  0.65192000  0.73853000  1.0
  H  H8  1  0.62379000  0.42679000  0.75961000  1.0
  H  H9  1  0.87620000  0.57549000  0.25935000  1.0
  H  H10  1  0.37641000  0.57401000  0.24077000  1.0
  H  H11  1  0.12282000  0.42402000  0.74009000  1.0
  H  H12  1  0.34595000  0.22844000  0.46065000  1.0
  H  H13  1  0.15446000  0.77195000  0.96066000  1.0
  H  H14  1  0.65491000  0.77214000  0.53975000  1.0
  H  H15  1  0.84597000  0.22713000  0.03888000  1.0
  H  H16  1  0.16709000  0.32033000  0.36778000  1.0
  H  H17  1  0.33311000  0.67924000  0.86772000  1.0
  H  H18  1  0.83339000  0.67998000  0.63258000  1.0
  H  H19  1  0.66758000  0.31978000  0.13191000  1.0
  H  H20  1  0.03675000  0.55804000  0.36356000  1.0
  H  H21  1  0.46342000  0.44143000  0.86312000  1.0
  H  H22  1  0.96322000  0.44216000  0.63678000  1.0
  H  H23  1  0.53737000  0.55756000  0.13661000  1.0
  H  H24  1  0.08356000  0.69967000  0.45188000  1.0
  H  H25  1  0.41632000  0.30057000  0.95120000  1.0
  H  H26  1  0.91604000  0.30075000  0.54845000  1.0
  H  H27  1  0.58422000  0.69854000  0.04850000  1.0
  H  H28  1  0.39087000  0.09194000  0.82013000  1.0
  H  H29  1  0.10978000  0.90683000  0.31993000  1.0
  H  H30  1  0.60921000  0.90773000  0.17995000  1.0
  H  H31  1  0.89014000  0.09385000  0.68032000  1.0
  H  H32  1  0.46777000  0.92512000  0.81179000  1.0
  H  H33  1  0.03288000  0.07362000  0.31177000  1.0
  H  H34  1  0.53221000  0.07451000  0.18811000  1.0
  H  H35  1  0.96667000  0.92678000  0.68819000  1.0
  H  H36  1  0.85448000  0.16734000  0.81304000  1.0
  H  H37  1  0.64655000  0.83091000  0.31368000  1.0
  H  H38  1  0.14581000  0.83236000  0.18693000  1.0
  H  H39  1  0.35350000  0.16895000  0.68605000  1.0
  H  H40  1  0.73265000  0.12017000  0.86307000  1.0
  H  H41  1  0.76897000  0.87867000  0.36351000  1.0
  H  H42  1  0.26873000  0.87902000  0.13709000  1.0
  H  H43  1  0.23103000  0.12144000  0.63611000  1.0
  H  H44  1  0.51081000  0.87538000  0.68510000  1.0
  H  H45  1  0.98786000  0.12639000  0.18418000  1.0
  H  H46  1  0.48864000  0.12506000  0.31492000  1.0
  H  H47  1  0.01208000  0.87392000  0.81619000  1.0
  H  H48  1  0.63131000  0.94199000  0.64204000  1.0
  H  H49  1  0.86673000  0.05920000  0.14145000  1.0
  H  H50  1  0.36679000  0.05935000  0.35786000  1.0
  H  H51  1  0.13240000  0.94161000  0.85905000  1.0
  C  C52  1  0.34584000  0.64610000  0.66936000  1.0
  C  C53  1  0.15398000  0.35542000  0.16863000  1.0
  C  C54  1  0.65382000  0.35421000  0.33098000  1.0
  C  C55  1  0.84569000  0.64416000  0.83101000  1.0
  C  C56  1  0.44781000  0.59422000  0.72079000  1.0
  C  C57  1  0.05173000  0.40763000  0.22010000  1.0
  C  C58  1  0.55183000  0.40634000  0.27958000  1.0
  C  C59  1  0.94735000  0.59189000  0.77941000  1.0
  C  C60  1  0.54331000  0.46675000  0.71962000  1.0
  C  C61  1  0.95660000  0.53520000  0.21928000  1.0
  C  C62  1  0.45666000  0.53391000  0.28077000  1.0
  C  C63  1  0.04273000  0.46437000  0.78022000  1.0
  C  C64  1  0.53410000  0.38798000  0.66791000  1.0
  C  C65  1  0.96614000  0.61381000  0.16780000  1.0
  C  C66  1  0.46604000  0.61259000  0.33250000  1.0
  C  C67  1  0.03380000  0.38600000  0.83181000  1.0
  C  C68  1  0.28537000  0.33108000  0.45793000  1.0
  C  C69  1  0.21488000  0.66926000  0.95785000  1.0
  C  C70  1  0.71516000  0.66946000  0.54244000  1.0
  C  C71  1  0.78560000  0.32983000  0.04173000  1.0
  C  C72  1  0.18685000  0.38333000  0.40612000  1.0
  C  C73  1  0.31333000  0.61653000  0.90594000  1.0
  C  C74  1  0.81356000  0.61704000  0.59425000  1.0
  C  C75  1  0.68728000  0.38250000  0.09368000  1.0
  C  C76  1  0.11266000  0.51585000  0.40407000  1.0
  C  C77  1  0.38741000  0.48400000  0.90367000  1.0
  C  C78  1  0.88743000  0.48450000  0.59628000  1.0
  C  C79  1  0.61322000  0.51504000  0.09602000  1.0
  C  C80  1  0.13733000  0.59608000  0.45341000  1.0
  C  C81  1  0.36262000  0.40420000  0.95287000  1.0
  C  C82  1  0.86257000  0.40439000  0.54693000  1.0
  C  C83  1  0.63785000  0.59490000  0.04682000  1.0
  C  C84  1  0.26096000  0.63104000  0.55747000  1.0
  C  C85  1  0.23907000  0.37001000  0.05683000  1.0
  C  C86  1  0.73905000  0.36946000  0.44288000  1.0
  C  C87  1  0.76078000  0.62933000  0.94285000  1.0
  C  C88  1  0.40926000  0.35208000  0.56352000  1.0
  C  C89  1  0.09143000  0.64908000  0.06355000  1.0
  C  C90  1  0.59144000  0.64852000  0.43676000  1.0
  C  C91  1  0.90856000  0.35027000  0.93597000  1.0
  C  C92  1  0.30885000  0.41021000  0.50822000  1.0
  C  C93  1  0.19132000  0.59056000  0.00802000  1.0
  C  C94  1  0.69150000  0.59043000  0.49213000  1.0
  C  C95  1  0.80897000  0.40858000  0.99157000  1.0
  C  C96  1  0.23483000  0.54415000  0.50571000  1.0
  C  C97  1  0.26518000  0.45659000  0.00525000  1.0
  C  C98  1  0.76522000  0.45644000  0.49464000  1.0
  C  C99  1  0.73512000  0.54256000  0.99440000  1.0
  C  C100  1  0.34408000  0.57026000  0.61568000  1.0
  C  C101  1  0.15608000  0.43108000  0.11519000  1.0
  C  C102  1  0.65598000  0.43013000  0.38464000  1.0
  C  C103  1  0.84384000  0.56847000  0.88446000  1.0
  C  C104  1  0.43229000  0.43903000  0.61595000  1.0
  C  C105  1  0.06801000  0.56239000  0.11574000  1.0
  C  C106  1  0.56800000  0.56144000  0.38441000  1.0
  C  C107  1  0.93196000  0.43721000  0.88388000  1.0
  C  C108  1  0.63761000  0.25076000  0.67206000  1.0
  C  C109  1  0.86192000  0.75086000  0.17204000  1.0
  C  C110  1  0.36262000  0.74986000  0.32840000  1.0
  C  C111  1  0.13828000  0.24906000  0.82768000  1.0
  C  C112  1  0.22726000  0.77738000  0.67723000  1.0
  C  C113  1  0.27154000  0.22368000  0.17616000  1.0
  C  C114  1  0.77221000  0.22281000  0.32304000  1.0
  C  C115  1  0.72835000  0.77598000  0.82352000  1.0
  O  O116  1  0.46490000  0.23370000  0.56809000  1.0
  O  O117  1  0.03657000  0.76756000  0.06855000  1.0
  O  O118  1  0.53635000  0.76693000  0.43206000  1.0
  O  O119  1  0.96305000  0.23178000  0.93079000  1.0
  O  O120  1  0.22345000  0.74984000  0.55215000  1.0
  O  O121  1  0.27657000  0.25118000  0.05122000  1.0
  O  O122  1  0.77649000  0.25067000  0.44827000  1.0
  O  O123  1  0.72302000  0.74815000  0.94852000  1.0
  O  O124  1  0.06085000  0.78853000  0.67335000  1.0
  O  O125  1  0.43827000  0.21223000  0.17270000  1.0
  O  O126  1  0.93866000  0.21169000  0.32683000  1.0
  O  O127  1  0.56160000  0.78743000  0.82694000  1.0
  O  O128  1  0.30473000  0.86902000  0.69471000  1.0
  O  O129  1  0.19362000  0.13233000  0.19290000  1.0
  O  O130  1  0.69482000  0.13112000  0.30560000  1.0
  O  O131  1  0.80639000  0.86730000  0.80687000  1.0
  O  O132  1  0.79704000  0.22340000  0.65404000  1.0
  O  O133  1  0.70332000  0.77804000  0.15340000  1.0
  O  O134  1  0.20342000  0.77750000  0.34663000  1.0
  O  O135  1  0.29666000  0.22181000  0.84651000  1.0
  O  O136  1  0.55710000  0.17403000  0.70191000  1.0
  O  O137  1  0.94137000  0.82778000  0.20276000  1.0
  O  O138  1  0.44295000  0.82641000  0.29830000  1.0
  O  O139  1  0.05884000  0.17228000  0.79686000  1.0
  O  O140  1  0.43130000  0.01441000  0.79016000  1.0
  O  O141  1  0.07022000  0.98437000  0.29003000  1.0
  O  O142  1  0.56873000  0.98539000  0.20986000  1.0
  O  O143  1  0.92960000  0.01592000  0.71003000  1.0
  O  O144  1  0.73024000  0.15281000  0.82071000  1.0
  O  O145  1  0.77111000  0.84553000  0.32112000  1.0
  O  O146  1  0.27029000  0.84666000  0.17948000  1.0
  O  O147  1  0.22913000  0.15432000  0.67854000  1.0
  O  O148  1  0.63503000  0.89286000  0.68043000  1.0
  O  O149  1  0.86338000  0.10885000  0.17984000  1.0
  O  O150  1  0.36417000  0.10788000  0.31933000  1.0
  O  O151  1  0.13621000  0.89172000  0.82072000  1.0
