# generated using pymatgen
data_CdH14C17O10
_symmetry_space_group_name_H-M   'P 1'
_cell_length_a   7.67491000
_cell_length_b   11.34704609
_cell_length_c   22.54320000
_cell_angle_alpha   90.00016469
_cell_angle_beta   89.99980000
_cell_angle_gamma   70.22349144
_symmetry_Int_Tables_number   1
_chemical_formula_structural   CdH14C17O10
_chemical_formula_sum   'Cd4 H56 C68 O40'
_cell_volume   1847.43995178
_cell_formula_units_Z   4
loop_
 _symmetry_equiv_pos_site_id
 _symmetry_equiv_pos_as_xyz
  1  'x, y, z'
loop_
 _atom_site_type_symbol
 _atom_site_label
 _atom_site_symmetry_multiplicity
 _atom_site_fract_x
 _atom_site_fract_y
 _atom_site_fract_z
 _atom_site_occupancy
  Cd  Cd0  1  0.90712000  0.00001000  0.41976000  1.0
  Cd  Cd1  1  0.09289000  0.99999000  0.91976000  1.0
  Cd  Cd2  1  0.90712000  0.00001000  0.08024000  1.0
  Cd  Cd3  1  0.09288000  0.99999000  0.58024000  1.0
  H  H4  1  0.56819000  0.47319000  0.25000000  1.0
  H  H5  1  0.43181000  0.52681000  0.75000000  1.0
  H  H6  1  0.04176000  0.52663000  0.25000000  1.0
  H  H7  1  0.95824000  0.47337000  0.75000000  1.0
  H  H8  1  0.54996000  0.32286000  0.25000000  1.0
  H  H9  1  0.45004000  0.67714000  0.75000000  1.0
  H  H10  1  0.87316000  0.67702000  0.25000000  1.0
  H  H11  1  0.12684000  0.32298000  0.75000000  1.0
  H  H12  1  0.08467000  0.54093000  0.45554000  1.0
  H  H13  1  0.91532000  0.45907000  0.95554000  1.0
  H  H14  1  0.62595000  0.45908000  0.04445000  1.0
  H  H15  1  0.37405000  0.54092000  0.54445000  1.0
  H  H16  1  0.91532000  0.45906000  0.54446000  1.0
  H  H17  1  0.08468000  0.54093000  0.04446000  1.0
  H  H18  1  0.37405000  0.54092000  0.95555000  1.0
  H  H19  1  0.62596000  0.45908000  0.45555000  1.0
  H  H20  1  0.28380000  0.65800000  0.29634000  1.0
  H  H21  1  0.71621000  0.34200000  0.79634000  1.0
  H  H22  1  0.94185000  0.34187000  0.20369000  1.0
  H  H23  1  0.05814000  0.65813000  0.70369000  1.0
  H  H24  1  0.71620000  0.34200000  0.70366000  1.0
  H  H25  1  0.28381000  0.65799000  0.20366000  1.0
  H  H26  1  0.05814000  0.65813000  0.79631000  1.0
  H  H27  1  0.94185000  0.34187000  0.29631000  1.0
  H  H28  1  0.40588000  0.26402000  0.33243000  1.0
  H  H29  1  0.59412000  0.73597000  0.83243000  1.0
  H  H30  1  0.67052000  0.73588000  0.16753000  1.0
  H  H31  1  0.32948000  0.26413000  0.66753000  1.0
  H  H32  1  0.59412000  0.73597000  0.66757000  1.0
  H  H33  1  0.40589000  0.26402000  0.16757000  1.0
  H  H34  1  0.32947000  0.26413000  0.83247000  1.0
  H  H35  1  0.67052000  0.73588000  0.33247000  1.0
  H  H36  1  0.08085000  0.28288000  0.51386000  1.0
  H  H37  1  0.91916000  0.71711000  0.01386000  1.0
  H  H38  1  0.36371000  0.71723000  0.98621000  1.0
  H  H39  1  0.63631000  0.28277000  0.48622000  1.0
  H  H40  1  0.91915000  0.71711000  0.48614000  1.0
  H  H41  1  0.08085000  0.28288000  0.98614000  1.0
  H  H42  1  0.63629000  0.28277000  0.01379000  1.0
  H  H43  1  0.36370000  0.71724000  0.51379000  1.0
  H  H44  1  0.21612000  0.07373000  0.45995000  1.0
  H  H45  1  0.78388000  0.92627000  0.95995000  1.0
  H  H46  1  0.28992000  0.92626000  0.04008000  1.0
  H  H47  1  0.71009000  0.07374000  0.54008000  1.0
  H  H48  1  0.78388000  0.92627000  0.54005000  1.0
  H  H49  1  0.21612000  0.07373000  0.04005000  1.0
  H  H50  1  0.71009000  0.07374000  0.95992000  1.0
  H  H51  1  0.28992000  0.92626000  0.45992000  1.0
  H  H52  1  0.58690000  0.92645000  0.40053000  1.0
  H  H53  1  0.41310000  0.07355000  0.90053000  1.0
  H  H54  1  0.51323000  0.07379000  0.09942000  1.0
  H  H55  1  0.48678000  0.92621000  0.59942000  1.0
  H  H56  1  0.41311000  0.07355000  0.59947000  1.0
  H  H57  1  0.58690000  0.92645000  0.09947000  1.0
  H  H58  1  0.48678000  0.92621000  0.90058000  1.0
  H  H59  1  0.51323000  0.07379000  0.40058000  1.0
  C  C60  1  0.46826000  0.42319000  0.25000000  1.0
  C  C61  1  0.53174000  0.57681000  0.75000000  1.0
  C  C62  1  0.89181000  0.57666000  0.25000000  1.0
  C  C63  1  0.10819000  0.42334000  0.75000000  1.0
  C  C64  1  0.35778000  0.45631000  0.30698000  1.0
  C  C65  1  0.64223000  0.54368000  0.80698000  1.0
  C  C66  1  0.81438000  0.54354000  0.19303000  1.0
  C  C67  1  0.18561000  0.45646000  0.69304000  1.0
  C  C68  1  0.64222000  0.54369000  0.69302000  1.0
  C  C69  1  0.35778000  0.45631000  0.19302000  1.0
  C  C70  1  0.18561000  0.45646000  0.80697000  1.0
  C  C71  1  0.81438000  0.54354000  0.30696000  1.0
  C  C72  1  0.16026000  0.51922000  0.41409000  1.0
  C  C73  1  0.83974000  0.48078000  0.91409000  1.0
  C  C74  1  0.67974000  0.48080000  0.08591000  1.0
  C  C75  1  0.32025000  0.51920000  0.58591000  1.0
  C  C76  1  0.83974000  0.48078000  0.58591000  1.0
  C  C77  1  0.16026000  0.51922000  0.08591000  1.0
  C  C78  1  0.32026000  0.51920000  0.91409000  1.0
  C  C79  1  0.67975000  0.48080000  0.41409000  1.0
  C  C80  1  0.07741000  0.74929000  0.39138000  1.0
  C  C81  1  0.92259000  0.25071000  0.89138000  1.0
  C  C82  1  0.82685000  0.25067000  0.10860000  1.0
  C  C83  1  0.17315000  0.74933000  0.60860000  1.0
  C  C84  1  0.92259000  0.25071000  0.60862000  1.0
  C  C85  1  0.07741000  0.74929000  0.10862000  1.0
  C  C86  1  0.17315000  0.74933000  0.89140000  1.0
  C  C87  1  0.82685000  0.25067000  0.39140000  1.0
  C  C88  1  0.22325000  0.29583000  0.43857000  1.0
  C  C89  1  0.77675000  0.70417000  0.93857000  1.0
  C  C90  1  0.51935000  0.70423000  0.06145000  1.0
  C  C91  1  0.48066000  0.29577000  0.56145000  1.0
  C  C92  1  0.77674000  0.70417000  0.56143000  1.0
  C  C93  1  0.22325000  0.29583000  0.06143000  1.0
  C  C94  1  0.48065000  0.29578000  0.93855000  1.0
  C  C95  1  0.51935000  0.70423000  0.43855000  1.0
  C  C96  1  0.27315000  0.58177000  0.32383000  1.0
  C  C97  1  0.72685000  0.41823000  0.82383000  1.0
  C  C98  1  0.85515000  0.41811000  0.17617000  1.0
  C  C99  1  0.14485000  0.58189000  0.67617000  1.0
  C  C100  1  0.72685000  0.41823000  0.67617000  1.0
  C  C101  1  0.27314000  0.58177000  0.17617000  1.0
  C  C102  1  0.14485000  0.58189000  0.82383000  1.0
  C  C103  1  0.85515000  0.41811000  0.32383000  1.0
  C  C104  1  0.17149000  0.61400000  0.37654000  1.0
  C  C105  1  0.82852000  0.38600000  0.87654000  1.0
  C  C106  1  0.78570000  0.38595000  0.12344000  1.0
  C  C107  1  0.21429000  0.61405000  0.62344000  1.0
  C  C108  1  0.82851000  0.38600000  0.62346000  1.0
  C  C109  1  0.17149000  0.61400000  0.12346000  1.0
  C  C110  1  0.21429000  0.61405000  0.87656000  1.0
  C  C111  1  0.78571000  0.38595000  0.37656000  1.0
  C  C112  1  0.24523000  0.39362000  0.39837000  1.0
  C  C113  1  0.75476000  0.60638000  0.89837000  1.0
  C  C114  1  0.63913000  0.60638000  0.10164000  1.0
  C  C115  1  0.36086000  0.39363000  0.60164000  1.0
  C  C116  1  0.75476000  0.60638000  0.60163000  1.0
  C  C117  1  0.24524000  0.39362000  0.10163000  1.0
  C  C118  1  0.36087000  0.39362000  0.89836000  1.0
  C  C119  1  0.63913000  0.60638000  0.39836000  1.0
  C  C120  1  0.34211000  0.36234000  0.34466000  1.0
  C  C121  1  0.65789000  0.63766000  0.84466000  1.0
  C  C122  1  0.70485000  0.63756000  0.15535000  1.0
  C  C123  1  0.29514000  0.36244000  0.65535000  1.0
  C  C124  1  0.65789000  0.63766000  0.65534000  1.0
  C  C125  1  0.34211000  0.36234000  0.15534000  1.0
  C  C126  1  0.29514000  0.36244000  0.84465000  1.0
  C  C127  1  0.70486000  0.63756000  0.34465000  1.0
  O  O128  1  0.18064000  0.99998000  0.47218000  1.0
  O  O129  1  0.81935000  0.00003000  0.97218000  1.0
  O  O130  1  0.18065000  0.99998000  0.02782000  1.0
  O  O131  1  0.81935000  0.00003000  0.52782000  1.0
  O  O132  1  0.30335000  0.18098000  0.43102000  1.0
  O  O133  1  0.69666000  0.81901000  0.93102000  1.0
  O  O134  1  0.48457000  0.81905000  0.06903000  1.0
  O  O135  1  0.51543000  0.18095000  0.56903000  1.0
  O  O136  1  0.69666000  0.81901000  0.56898000  1.0
  O  O137  1  0.30335000  0.18098000  0.06898000  1.0
  O  O138  1  0.51544000  0.18094000  0.93097000  1.0
  O  O139  1  0.48457000  0.81906000  0.43097000  1.0
  O  O140  1  0.97713000  0.78114000  0.43903000  1.0
  O  O141  1  0.02287000  0.21886000  0.93903000  1.0
  O  O142  1  0.75859000  0.21885000  0.06090000  1.0
  O  O143  1  0.24141000  0.78115000  0.56091000  1.0
  O  O144  1  0.02287000  0.21886000  0.56097000  1.0
  O  O145  1  0.97713000  0.78114000  0.06097000  1.0
  O  O146  1  0.24141000  0.78115000  0.93910000  1.0
  O  O147  1  0.75859000  0.21885000  0.43909000  1.0
  O  O148  1  0.09556000  0.83271000  0.35743000  1.0
  O  O149  1  0.90445000  0.16728000  0.85743000  1.0
  O  O150  1  0.92827000  0.16725000  0.14258000  1.0
  O  O151  1  0.07173000  0.83275000  0.64258000  1.0
  O  O152  1  0.90444000  0.16728000  0.64257000  1.0
  O  O153  1  0.09556000  0.83271000  0.14257000  1.0
  O  O154  1  0.07174000  0.83275000  0.85742000  1.0
  O  O155  1  0.92827000  0.16725000  0.35742000  1.0
  O  O156  1  0.61930000  0.00013000  0.38823000  1.0
  O  O157  1  0.38070000  0.99987000  0.88823000  1.0
  O  O158  1  0.61930000  0.00013000  0.11177000  1.0
  O  O159  1  0.38071000  0.99987000  0.61177000  1.0
  O  O160  1  0.10793000  0.34297000  0.48235000  1.0
  O  O161  1  0.89207000  0.65702000  0.98235000  1.0
  O  O162  1  0.45103000  0.65713000  0.01768000  1.0
  O  O163  1  0.54898000  0.34287000  0.51769000  1.0
  O  O164  1  0.89206000  0.65702000  0.51765000  1.0
  O  O165  1  0.10793000  0.34297000  0.01765000  1.0
  O  O166  1  0.54896000  0.34287000  0.98231000  1.0
  O  O167  1  0.45103000  0.65714000  0.48232000  1.0
