# generated using pymatgen
data_ZnH20C26(S3N5)2
_symmetry_space_group_name_H-M   'P 1'
_cell_length_a   8.75746000
_cell_length_b   8.75914000
_cell_length_c   19.29670000
_cell_angle_alpha   85.38810000
_cell_angle_beta   85.38720000
_cell_angle_gamma   80.84090000
_symmetry_Int_Tables_number   1
_chemical_formula_structural   ZnH20C26(S3N5)2
_chemical_formula_sum   'Zn2 H40 C52 S12 N20'
_cell_volume   1453.16050793
_cell_formula_units_Z   2
loop_
 _symmetry_equiv_pos_site_id
 _symmetry_equiv_pos_as_xyz
  1  'x, y, z'
loop_
 _atom_site_type_symbol
 _atom_site_label
 _atom_site_symmetry_multiplicity
 _atom_site_fract_x
 _atom_site_fract_y
 _atom_site_fract_z
 _atom_site_occupancy
  Zn  Zn0  1  0.74166000  0.25834000  0.75000000  1.0
  Zn  Zn1  1  0.25834000  0.74166000  0.25000000  1.0
  H  H2  1  0.70486000  0.01202000  0.54031000  1.0
  H  H3  1  0.98799000  0.29515000  0.95969000  1.0
  H  H4  1  0.29514000  0.98798000  0.45969000  1.0
  H  H5  1  0.01201000  0.70485000  0.04031000  1.0
  H  H6  1  0.95828000  0.37069000  0.48601000  1.0
  H  H7  1  0.62930000  0.04171000  0.01399000  1.0
  H  H8  1  0.04172000  0.62931000  0.51399000  1.0
  H  H9  1  0.37070000  0.95829000  0.98601000  1.0
  H  H10  1  0.08974000  0.20922000  0.70875000  1.0
  H  H11  1  0.79071000  0.91029000  0.79125000  1.0
  H  H12  1  0.91026000  0.79078000  0.29125000  1.0
  H  H13  1  0.20929000  0.08971000  0.20875000  1.0
  H  H14  1  0.31622000  0.99686000  0.70610000  1.0
  H  H15  1  0.00309000  0.68382000  0.79390000  1.0
  H  H16  1  0.68378000  0.00314000  0.29390000  1.0
  H  H17  1  0.99691000  0.31618000  0.20610000  1.0
  H  H18  1  0.48748000  0.83124000  0.76299000  1.0
  H  H19  1  0.16870000  0.51257000  0.73701000  1.0
  H  H20  1  0.51252000  0.16876000  0.23701000  1.0
  H  H21  1  0.83129000  0.48743000  0.26299000  1.0
  H  H22  1  0.70110000  0.60581000  0.75734000  1.0
  H  H23  1  0.39415000  0.29897000  0.74267000  1.0
  H  H24  1  0.29890000  0.39419000  0.24267000  1.0
  H  H25  1  0.60585000  0.70103000  0.25733000  1.0
  H  H26  1  0.83202000  0.75520000  0.92764000  1.0
  H  H27  1  0.24481000  0.16800000  0.57237000  1.0
  H  H28  1  0.16798000  0.24480000  0.07236000  1.0
  H  H29  1  0.75519000  0.83200000  0.42763000  1.0
  H  H30  1  0.58711000  0.66528000  0.90539000  1.0
  H  H31  1  0.33472000  0.41288000  0.59461000  1.0
  H  H32  1  0.41289000  0.33472000  0.09461000  1.0
  H  H33  1  0.66528000  0.58712000  0.40539000  1.0
  H  H34  1  0.60413000  0.41881000  0.10921000  1.0
  H  H35  1  0.58119000  0.39588000  0.39078000  1.0
  H  H36  1  0.39587000  0.58119000  0.89079000  1.0
  H  H37  1  0.41881000  0.60412000  0.60922000  1.0
  H  H38  1  0.84702000  0.52129000  0.12170000  1.0
  H  H39  1  0.47872000  0.15303000  0.37830000  1.0
  H  H40  1  0.15298000  0.47871000  0.87830000  1.0
  H  H41  1  0.52128000  0.84697000  0.62170000  1.0
  C  C42  1  0.72195000  0.16275000  0.61904000  1.0
  C  C43  1  0.83724000  0.27804000  0.88096000  1.0
  C  C44  1  0.27805000  0.83725000  0.38096000  1.0
  C  C45  1  0.16276000  0.72196000  0.11904000  1.0
  C  C46  1  0.87809000  0.35734000  0.59116000  1.0
  C  C47  1  0.64265000  0.12190000  0.90884000  1.0
  C  C48  1  0.12191000  0.64266000  0.40884000  1.0
  C  C49  1  0.35735000  0.87810000  0.09116000  1.0
  C  C50  1  0.84216000  0.18290000  0.50350000  1.0
  C  C51  1  0.81710000  0.15785000  0.99650000  1.0
  C  C52  1  0.15784000  0.81710000  0.49650000  1.0
  C  C53  1  0.18290000  0.84215000  0.00350000  1.0
  C  C54  1  0.07694000  0.09051000  0.72718000  1.0
  C  C55  1  0.90945000  0.92307000  0.77283000  1.0
  C  C56  1  0.92307000  0.90949000  0.27282000  1.0
  C  C57  1  0.09056000  0.07693000  0.22717000  1.0
  C  C58  1  0.20243000  0.97187000  0.72650000  1.0
  C  C59  1  0.02809000  0.79759000  0.77349000  1.0
  C  C60  1  0.79757000  0.02813000  0.27350000  1.0
  C  C61  1  0.97191000  0.20241000  0.22651000  1.0
  C  C62  1  0.17888000  0.82111000  0.75000000  1.0
  C  C63  1  0.82112000  0.17889000  0.25000000  1.0
  C  C64  1  0.30844000  0.69156000  0.75000000  1.0
  C  C65  1  0.69156000  0.30844000  0.25000000  1.0
  C  C66  1  0.46118000  0.71609000  0.75620000  1.0
  C  C67  1  0.28389000  0.53886000  0.74380000  1.0
  C  C68  1  0.53882000  0.28391000  0.24380000  1.0
  C  C69  1  0.71611000  0.46114000  0.25621000  1.0
  C  C70  1  0.58053000  0.59109000  0.75452000  1.0
  C  C71  1  0.40889000  0.41952000  0.74548000  1.0
  C  C72  1  0.41947000  0.40891000  0.24548000  1.0
  C  C73  1  0.59111000  0.58048000  0.25452000  1.0
  C  C74  1  0.77653000  0.67994000  0.96630000  1.0
  C  C75  1  0.32006000  0.22349000  0.53371000  1.0
  C  C76  1  0.22347000  0.32006000  0.03370000  1.0
  C  C77  1  0.67994000  0.77651000  0.46629000  1.0
  C  C78  1  0.63952000  0.62812000  0.95437000  1.0
  C  C79  1  0.37188000  0.36048000  0.54564000  1.0
  C  C80  1  0.36048000  0.37188000  0.04563000  1.0
  C  C81  1  0.62812000  0.63952000  0.45436000  1.0
  C  C82  1  0.57194000  0.53059000  0.00531000  1.0
  C  C83  1  0.46940000  0.42807000  0.49469000  1.0
  C  C84  1  0.42806000  0.46940000  0.99469000  1.0
  C  C85  1  0.53060000  0.57193000  0.50531000  1.0
  C  C86  1  0.64812000  0.49342000  0.06706000  1.0
  C  C87  1  0.50658000  0.35190000  0.43294000  1.0
  C  C88  1  0.35188000  0.50658000  0.93294000  1.0
  C  C89  1  0.49342000  0.64810000  0.56706000  1.0
  C  C90  1  0.78500000  0.54970000  0.07450000  1.0
  C  C91  1  0.45031000  0.21503000  0.42551000  1.0
  C  C92  1  0.21500000  0.45030000  0.92551000  1.0
  C  C93  1  0.54969000  0.78497000  0.57449000  1.0
  S  S94  1  0.60631000  0.08066000  0.68098000  1.0
  S  S95  1  0.91937000  0.39364000  0.81901000  1.0
  S  S96  1  0.39369000  0.91934000  0.31902000  1.0
  S  S97  1  0.08063000  0.60636000  0.18099000  1.0
  S  S98  1  0.95869000  0.50700000  0.61243000  1.0
  S  S99  1  0.49297000  0.04129000  0.88756000  1.0
  S  S100  1  0.04131000  0.49300000  0.38757000  1.0
  S  S101  1  0.50703000  0.95871000  0.11244000  1.0
  S  S102  1  0.88284000  0.12188000  0.42413000  1.0
  S  S103  1  0.87812000  0.11719000  0.07587000  1.0
  S  S104  1  0.11716000  0.87812000  0.57587000  1.0
  S  S105  1  0.12188000  0.88281000  0.92413000  1.0
  N  N106  1  0.79009000  0.27960000  0.63825000  1.0
  N  N107  1  0.72038000  0.20990000  0.86175000  1.0
  N  N108  1  0.20991000  0.72040000  0.36175000  1.0
  N  N109  1  0.27962000  0.79010000  0.13825000  1.0
  N  N110  1  0.74887000  0.11422000  0.55317000  1.0
  N  N111  1  0.88578000  0.25113000  0.94683000  1.0
  N  N112  1  0.25113000  0.88578000  0.44683000  1.0
  N  N113  1  0.11422000  0.74887000  0.05317000  1.0
  N  N114  1  0.89784000  0.30869000  0.52434000  1.0
  N  N115  1  0.69131000  0.10215000  0.97565000  1.0
  N  N116  1  0.10216000  0.69131000  0.47566000  1.0
  N  N117  1  0.30869000  0.89785000  0.02435000  1.0
  N  N118  1  0.93302000  0.06696000  0.75000000  1.0
  N  N119  1  0.06698000  0.93304000  0.25000000  1.0
  N  N120  1  0.55516000  0.44486000  0.75000000  1.0
  N  N121  1  0.44484000  0.55514000  0.25000000  1.0
  N  N122  1  0.84960000  0.64100000  0.02521000  1.0
  N  N123  1  0.35901000  0.15044000  0.47479000  1.0
  N  N124  1  0.15040000  0.35900000  0.97479000  1.0
  N  N125  1  0.64099000  0.84956000  0.52521000  1.0
