# generated using pymatgen
data_EuH11C18N3O7
_symmetry_space_group_name_H-M   'P 1'
_cell_length_a   7.32507000
_cell_length_b   12.04950000
_cell_length_c   19.17050000
_cell_angle_alpha   82.78790000
_cell_angle_beta   89.99750000
_cell_angle_gamma   89.99690000
_symmetry_Int_Tables_number   1
_chemical_formula_structural   EuH11C18N3O7
_chemical_formula_sum   'Eu4 H44 C72 N12 O28'
_cell_volume   1678.66692417
_cell_formula_units_Z   4
loop_
 _symmetry_equiv_pos_site_id
 _symmetry_equiv_pos_as_xyz
  1  'x, y, z'
loop_
 _atom_site_type_symbol
 _atom_site_label
 _atom_site_symmetry_multiplicity
 _atom_site_fract_x
 _atom_site_fract_y
 _atom_site_fract_z
 _atom_site_occupancy
  Eu  Eu0  1  0.74575000  0.55392000  0.52558000  1.0
  Eu  Eu1  1  0.74577000  0.44608000  0.97442000  1.0
  Eu  Eu2  1  0.25425000  0.44608000  0.47442000  1.0
  Eu  Eu3  1  0.25424000  0.55392000  0.02558000  1.0
  H  H4  1  0.25853000  0.12428000  0.73530000  1.0
  H  H5  1  0.25849000  0.87571000  0.76469000  1.0
  H  H6  1  0.74146000  0.87572000  0.26470000  1.0
  H  H7  1  0.74151000  0.12429000  0.23531000  1.0
  H  H8  1  0.13343000  0.21218000  0.83680000  1.0
  H  H9  1  0.13339000  0.78781000  0.66318000  1.0
  H  H10  1  0.86657000  0.78782000  0.16319000  1.0
  H  H11  1  0.86661000  0.21219000  0.33682000  1.0
  H  H12  1  0.41496000  0.24816000  0.63802000  1.0
  H  H13  1  0.41493000  0.75184000  0.86198000  1.0
  H  H14  1  0.58504000  0.75184000  0.36198000  1.0
  H  H15  1  0.58507000  0.24816000  0.13802000  1.0
  H  H16  1  0.65728000  0.09111000  0.78758000  1.0
  H  H17  1  0.65724000  0.90891000  0.71243000  1.0
  H  H18  1  0.34272000  0.90889000  0.21242000  1.0
  H  H19  1  0.34275000  0.09110000  0.28757000  1.0
  H  H20  1  0.84163000  0.85814000  0.52434000  1.0
  H  H21  1  0.84161000  0.14182000  0.97570000  1.0
  H  H22  1  0.15837000  0.14186000  0.47566000  1.0
  H  H23  1  0.15839000  0.85818000  0.02430000  1.0
  H  H24  1  0.91798000  0.39875000  0.70168000  1.0
  H  H25  1  0.91799000  0.60123000  0.79833000  1.0
  H  H26  1  0.08202000  0.60125000  0.29832000  1.0
  H  H27  1  0.08201000  0.39877000  0.20167000  1.0
  H  H28  1  0.75973000  0.28646000  0.80370000  1.0
  H  H29  1  0.75970000  0.71354000  0.69631000  1.0
  H  H30  1  0.24027000  0.71354000  0.19630000  1.0
  H  H31  1  0.24030000  0.28647000  0.30369000  1.0
  H  H32  1  0.57486000  0.13245000  0.39900000  1.0
  H  H33  1  0.57481000  0.86754000  0.10100000  1.0
  H  H34  1  0.42514000  0.86755000  0.60100000  1.0
  H  H35  1  0.42519000  0.13246000  0.89900000  1.0
  H  H36  1  0.68234000  0.93172000  0.41311000  1.0
  H  H37  1  0.68228000  0.06826000  0.08692000  1.0
  H  H38  1  0.31766000  0.06828000  0.58689000  1.0
  H  H39  1  0.31772000  0.93174000  0.91308000  1.0
  H  H40  1  0.02812000  0.62083000  0.63102000  1.0
  H  H41  1  0.02818000  0.37916000  0.86899000  1.0
  H  H42  1  0.97188000  0.37917000  0.36898000  1.0
  H  H43  1  0.97183000  0.62084000  0.13101000  1.0
  H  H44  1  0.06095000  0.67196000  0.55468000  1.0
  H  H45  1  0.06094000  0.32799000  0.94533000  1.0
  H  H46  1  0.93905000  0.32804000  0.44532000  1.0
  H  H47  1  0.93906000  0.67201000  0.05467000  1.0
  C  C48  1  0.27383000  0.21369000  0.73741000  1.0
  C  C49  1  0.27380000  0.78631000  0.76258000  1.0
  C  C50  1  0.72617000  0.78631000  0.26259000  1.0
  C  C51  1  0.72620000  0.21369000  0.23742000  1.0
  C  C52  1  0.37961000  0.39617000  0.68902000  1.0
  C  C53  1  0.37960000  0.60382000  0.81098000  1.0
  C  C54  1  0.62039000  0.60383000  0.31098000  1.0
  C  C55  1  0.62040000  0.39618000  0.18902000  1.0
  C  C56  1  0.49225000  0.46338000  0.63427000  1.0
  C  C57  1  0.49227000  0.53661000  0.86574000  1.0
  C  C58  1  0.50775000  0.53663000  0.36574000  1.0
  C  C59  1  0.50774000  0.46338000  0.13426000  1.0
  C  C60  1  0.20524000  0.26239000  0.79403000  1.0
  C  C61  1  0.20520000  0.73760000  0.70596000  1.0
  C  C62  1  0.79476000  0.73761000  0.20597000  1.0
  C  C63  1  0.79479000  0.26240000  0.29404000  1.0
  C  C64  1  0.30241000  0.43885000  0.74720000  1.0
  C  C65  1  0.30239000  0.56114000  0.75281000  1.0
  C  C66  1  0.69759000  0.56115000  0.25280000  1.0
  C  C67  1  0.69760000  0.43886000  0.24719000  1.0
  C  C68  1  0.35997000  0.28211000  0.68364000  1.0
  C  C69  1  0.35994000  0.71789000  0.81635000  1.0
  C  C70  1  0.64003000  0.71789000  0.31636000  1.0
  C  C71  1  0.64006000  0.28211000  0.18365000  1.0
  C  C72  1  0.77782000  0.11486000  0.55978000  1.0
  C  C73  1  0.77778000  0.88512000  0.94024000  1.0
  C  C74  1  0.22218000  0.88513000  0.44022000  1.0
  C  C75  1  0.22222000  0.11488000  0.05976000  1.0
  C  C76  1  0.71161000  0.14841000  0.74378000  1.0
  C  C77  1  0.71157000  0.85160000  0.75623000  1.0
  C  C78  1  0.28839000  0.85160000  0.25622000  1.0
  C  C79  1  0.28843000  0.14840000  0.24377000  1.0
  C  C80  1  0.69141000  0.16458000  0.49764000  1.0
  C  C81  1  0.69134000  0.83540000  0.00238000  1.0
  C  C82  1  0.30859000  0.83542000  0.50236000  1.0
  C  C83  1  0.30866000  0.16460000  0.99762000  1.0
  C  C84  1  0.79576000  0.16922000  0.62595000  1.0
  C  C85  1  0.79572000  0.83079000  0.87406000  1.0
  C  C86  1  0.20424000  0.83079000  0.37405000  1.0
  C  C87  1  0.20428000  0.16921000  0.12594000  1.0
  C  C88  1  0.62634000  0.28325000  0.48581000  1.0
  C  C89  1  0.62631000  0.71674000  0.01419000  1.0
  C  C90  1  0.37367000  0.71675000  0.51419000  1.0
  C  C91  1  0.37370000  0.28326000  0.98581000  1.0
  C  C92  1  0.79604000  0.94479000  0.51589000  1.0
  C  C93  1  0.79600000  0.05518000  0.98414000  1.0
  C  C94  1  0.20396000  0.05521000  0.48411000  1.0
  C  C95  1  0.20400000  0.94481000  0.01586000  1.0
  C  C96  1  0.88189000  0.27224000  0.63304000  1.0
  C  C97  1  0.88186000  0.72776000  0.86697000  1.0
  C  C98  1  0.11812000  0.72776000  0.36696000  1.0
  C  C99  1  0.11814000  0.27224000  0.13303000  1.0
  C  C100  1  0.86041000  0.31682000  0.69671000  1.0
  C  C101  1  0.86039000  0.68317000  0.80330000  1.0
  C  C102  1  0.13959000  0.68318000  0.30330000  1.0
  C  C103  1  0.13961000  0.31683000  0.19670000  1.0
  C  C104  1  0.77450000  0.25466000  0.75326000  1.0
  C  C105  1  0.77447000  0.74534000  0.74675000  1.0
  C  C106  1  0.22550000  0.74534000  0.24674000  1.0
  C  C107  1  0.22553000  0.25467000  0.25325000  1.0
  C  C108  1  0.65189000  0.09678000  0.44509000  1.0
  C  C109  1  0.65184000  0.90321000  0.05492000  1.0
  C  C110  1  0.34811000  0.90322000  0.55491000  1.0
  C  C111  1  0.34816000  0.09679000  0.94508000  1.0
  C  C112  1  0.70826000  0.98623000  0.45324000  1.0
  C  C113  1  0.70821000  0.01375000  0.04678000  1.0
  C  C114  1  0.29174000  0.01377000  0.54676000  1.0
  C  C115  1  0.29179000  0.98624000  0.95322000  1.0
  C  C116  1  0.00883000  0.33225000  0.58060000  1.0
  C  C117  1  0.00881000  0.66774000  0.91940000  1.0
  C  C118  1  0.99116000  0.66775000  0.41940000  1.0
  C  C119  1  0.99118000  0.33226000  0.08059000  1.0
  N  N120  1  0.21554000  0.37269000  0.79863000  1.0
  N  N121  1  0.21553000  0.62729000  0.70138000  1.0
  N  N122  1  0.78446000  0.62731000  0.20137000  1.0
  N  N123  1  0.78447000  0.37271000  0.29862000  1.0
  N  N124  1  0.71432000  0.10928000  0.68133000  1.0
  N  N125  1  0.71428000  0.89073000  0.81869000  1.0
  N  N126  1  0.28567000  0.89072000  0.31868000  1.0
  N  N127  1  0.28572000  0.10927000  0.18131000  1.0
  N  N128  1  0.82559000  0.00596000  0.56829000  1.0
  N  N129  1  0.82557000  0.99402000  0.93174000  1.0
  N  N130  1  0.17441000  0.99405000  0.43171000  1.0
  N  N131  1  0.17443000  0.00598000  0.06826000  1.0
  O  O132  1  0.62420000  0.52276000  0.64980000  1.0
  O  O133  1  0.62424000  0.47725000  0.85020000  1.0
  O  O134  1  0.37580000  0.47724000  0.35020000  1.0
  O  O135  1  0.37576000  0.52275000  0.14980000  1.0
  O  O136  1  0.46017000  0.45002000  0.56964000  1.0
  O  O137  1  0.46017000  0.54998000  0.93036000  1.0
  O  O138  1  0.53984000  0.54998000  0.43036000  1.0
  O  O139  1  0.53983000  0.45002000  0.06964000  1.0
  O  O140  1  0.74238000  0.36020000  0.49397000  1.0
  O  O141  1  0.74236000  0.63979000  0.00603000  1.0
  O  O142  1  0.25762000  0.63980000  0.50603000  1.0
  O  O143  1  0.25764000  0.36022000  0.99397000  1.0
  O  O144  1  0.46231000  0.29982000  0.46683000  1.0
  O  O145  1  0.46226000  0.70018000  0.03316000  1.0
  O  O146  1  0.53769000  0.70018000  0.53317000  1.0
  O  O147  1  0.53774000  0.29981000  0.96684000  1.0
  O  O148  1  0.96079000  0.65880000  0.58967000  1.0
  O  O149  1  0.96083000  0.34120000  0.91034000  1.0
  O  O150  1  0.03921000  0.34120000  0.41033000  1.0
  O  O151  1  0.03918000  0.65881000  0.08966000  1.0
  O  O152  1  0.00634000  0.44087000  0.57063000  1.0
  O  O153  1  0.00637000  0.55912000  0.92937000  1.0
  O  O154  1  0.99366000  0.55914000  0.42937000  1.0
  O  O155  1  0.99363000  0.44087000  0.07063000  1.0
  O  O156  1  0.12682000  0.27969000  0.54963000  1.0
  O  O157  1  0.12680000  0.72029000  0.95038000  1.0
  O  O158  1  0.87318000  0.72031000  0.45037000  1.0
  O  O159  1  0.87321000  0.27971000  0.04962000  1.0
