# generated using pymatgen
data_Al2H15C20N4O10F
_symmetry_space_group_name_H-M   'P 1'
_cell_length_a   6.63781000
_cell_length_b   10.90810000
_cell_length_c   10.92147024
_cell_angle_alpha   95.09067444
_cell_angle_beta   104.91776334
_cell_angle_gamma   104.68190000
_symmetry_Int_Tables_number   1
_chemical_formula_structural   Al2H15C20N4O10F
_chemical_formula_sum   'Al2 H15 C20 N4 O10 F1'
_cell_volume   729.07838684
_cell_formula_units_Z   1
loop_
 _symmetry_equiv_pos_site_id
 _symmetry_equiv_pos_as_xyz
  1  'x, y, z'
loop_
 _atom_site_type_symbol
 _atom_site_label
 _atom_site_symmetry_multiplicity
 _atom_site_fract_x
 _atom_site_fract_y
 _atom_site_fract_z
 _atom_site_occupancy
  Al  Al0  1  0.99492000  0.49442000  0.49865000  1.0
  Al  Al1  1  0.49662000  0.49678000  0.49860000  1.0
  H  H2  1  0.64840000  0.44573000  0.33429000  1.0
  H  H3  1  0.34107000  0.55123000  0.66261000  1.0
  H  H4  1  0.60593000  0.89424000  0.46918000  1.0
  H  H5  1  0.26047000  0.86504000  0.54880000  1.0
  H  H6  1  0.74360000  0.12664000  0.45166000  1.0
  H  H7  1  0.48863000  0.67877000  0.24123000  1.0
  H  H8  1  0.22379000  0.65362000  0.76970000  1.0
  H  H9  1  0.50989000  0.38196000  0.78199000  1.0
  H  H10  1  0.46581000  0.37950000  0.92665000  1.0
  H  H11  1  0.79095000  0.35005000  0.21298000  1.0
  H  H12  1  0.62118000  0.28628000  0.06429000  1.0
  H  H13  1  0.80570000  0.83826000  0.23571000  1.0
  H  H14  1  0.81332000  0.90261000  0.10187000  1.0
  H  H15  1  0.57571000  0.78128000  0.77918000  1.0
  H  H16  1  0.78628000  0.80386000  0.91042000  1.0
  C  C17  1  0.15212000  0.51587000  0.27485000  1.0
  C  C18  1  0.14616000  0.26493000  0.47655000  1.0
  C  C19  1  0.84851000  0.48591000  0.72534000  1.0
  C  C20  1  0.85009000  0.72730000  0.52212000  1.0
  C  C21  1  0.07559000  0.12601000  0.48717000  1.0
  C  C22  1  0.92491000  0.86596000  0.51071000  1.0
  C  C23  1  0.21846000  0.05003000  0.51546000  1.0
  C  C24  1  0.77796000  0.93902000  0.48222000  1.0
  C  C25  1  0.14649000  0.92198000  0.52722000  1.0
  C  C26  1  0.85382000  0.06728000  0.47126000  1.0
  C  C27  1  0.07916000  0.51425000  0.13474000  1.0
  C  C28  1  0.22160000  0.58512000  0.07034000  1.0
  C  C29  1  0.86524000  0.44294000  0.06833000  1.0
  C  C30  1  0.43115000  0.66828000  0.13698000  1.0
  C  C31  1  0.56513000  0.73933000  0.07431000  1.0
  C  C32  1  0.92493000  0.50186000  0.86716000  1.0
  C  C33  1  0.78323000  0.44192000  0.93327000  1.0
  C  C34  1  0.14426000  0.57712000  0.93386000  1.0
  C  C35  1  0.28337000  0.65173000  0.87189000  1.0
  C  C36  1  0.49116000  0.72845000  0.93768000  1.0
  N  N37  1  0.56851000  0.36891000  0.87402000  1.0
  N  N38  1  0.72170000  0.36783000  0.12449000  1.0
  N  N39  1  0.77311000  0.82022000  0.13861000  1.0
  N  N40  1  0.62780000  0.80338000  0.87678000  1.0
  O  O41  1  0.01938000  0.53218000  0.33710000  1.0
  O  O42  1  0.34708000  0.31842000  0.49346000  1.0
  O  O43  1  0.66103000  0.49963000  0.67189000  1.0
  O  O44  1  0.99661000  0.66952000  0.54586000  1.0
  O  O45  1  0.97356000  0.45926000  0.66238000  1.0
  O  O46  1  0.64807000  0.67762000  0.50723000  1.0
  O  O47  1  0.33581000  0.49808000  0.32648000  1.0
  O  O48  1  0.99534000  0.32010000  0.45104000  1.0
  O  O49  1  0.69336000  0.44561000  0.42654000  1.0
  O  O50  1  0.29821000  0.54779000  0.56995000  1.0
  F  F51  1  0.43480000  0.09945000  0.53279000  1.0
