# generated using pymatgen
data_CaH8C12(NO3)2
_symmetry_space_group_name_H-M   'P 1'
_cell_length_a   7.04497000
_cell_length_b   8.07727000
_cell_length_c   10.86070000
_cell_angle_alpha   90.00000000
_cell_angle_beta   90.00000000
_cell_angle_gamma   107.67700000
_symmetry_Int_Tables_number   1
_chemical_formula_structural   CaH8C12(NO3)2
_chemical_formula_sum   'Ca2 H16 C24 N4 O12'
_cell_volume   588.83792182
_cell_formula_units_Z   2
loop_
 _symmetry_equiv_pos_site_id
 _symmetry_equiv_pos_as_xyz
  1  'x, y, z'
loop_
 _atom_site_type_symbol
 _atom_site_label
 _atom_site_symmetry_multiplicity
 _atom_site_fract_x
 _atom_site_fract_y
 _atom_site_fract_z
 _atom_site_occupancy
  Ca  Ca0  1  0.00000000  0.00000000  0.00000000  1.0
  Ca  Ca1  1  0.00000000  0.50000000  0.50000000  1.0
  H  H2  1  0.56268000  0.48948000  0.66254000  1.0
  H  H3  1  0.43731000  0.01052000  0.16254000  1.0
  H  H4  1  0.43732000  0.51052000  0.33746000  1.0
  H  H5  1  0.56268000  0.98948000  0.83746000  1.0
  H  H6  1  0.89628000  0.57932000  0.00279000  1.0
  H  H7  1  0.10372000  0.92068000  0.50279000  1.0
  H  H8  1  0.10372000  0.42068000  0.99721000  1.0
  H  H9  1  0.89628000  0.07932000  0.49721000  1.0
  H  H10  1  0.30176000  0.25034000  0.77197000  1.0
  H  H11  1  0.69824000  0.24966000  0.27197000  1.0
  H  H12  1  0.69824000  0.74966000  0.22803000  1.0
  H  H13  1  0.30176000  0.75034000  0.72802000  1.0
  H  H14  1  0.64276000  0.31308000  0.08773000  1.0
  H  H15  1  0.35725000  0.18692000  0.58773000  1.0
  H  H16  1  0.35725000  0.68692000  0.91227000  1.0
  H  H17  1  0.64275000  0.81308000  0.41227000  1.0
  C  C18  1  0.58491000  0.45895000  0.75809000  1.0
  C  C19  1  0.41509000  0.04105000  0.25809000  1.0
  C  C20  1  0.41509000  0.54105000  0.24191000  1.0
  C  C21  1  0.58491000  0.95895000  0.74191000  1.0
  C  C22  1  0.91668000  0.69871000  0.76454000  1.0
  C  C23  1  0.08333000  0.80129000  0.26454000  1.0
  C  C24  1  0.08333000  0.30129000  0.23546000  1.0
  C  C25  1  0.91667000  0.19871000  0.73546000  1.0
  C  C26  1  0.75444000  0.55355000  0.82338000  1.0
  C  C27  1  0.24556000  0.94645000  0.32338000  1.0
  C  C28  1  0.24556000  0.44645000  0.17662000  1.0
  C  C29  1  0.75444000  0.05355000  0.67662000  1.0
  C  C30  1  0.77261000  0.50540000  0.94552000  1.0
  C  C31  1  0.22739000  0.99460000  0.44552000  1.0
  C  C32  1  0.22739000  0.49460000  0.05448000  1.0
  C  C33  1  0.77261000  0.00540000  0.55448000  1.0
  C  C34  1  0.44283000  0.32228000  0.81358000  1.0
  C  C35  1  0.55717000  0.17772000  0.31358000  1.0
  C  C36  1  0.55717000  0.67772000  0.18642000  1.0
  C  C37  1  0.44283000  0.82228000  0.68642000  1.0
  C  C38  1  0.63386000  0.36238000  0.99582000  1.0
  C  C39  1  0.36614000  0.13762000  0.49582000  1.0
  C  C40  1  0.36614000  0.63762000  0.00418000  1.0
  C  C41  1  0.63386000  0.86238000  0.50418000  1.0
  N  N42  1  0.47084000  0.27099000  0.93014000  1.0
  N  N43  1  0.52916000  0.22901000  0.43014000  1.0
  N  N44  1  0.52916000  0.72901000  0.06986000  1.0
  N  N45  1  0.47084000  0.77099000  0.56986000  1.0
  O  O46  1  0.02075000  0.81808000  0.83428000  1.0
  O  O47  1  0.97925000  0.68192000  0.33428000  1.0
  O  O48  1  0.97925000  0.18192000  0.16572000  1.0
  O  O49  1  0.02075000  0.31808000  0.66572000  1.0
  O  O50  1  0.34285000  0.13510000  0.97998000  1.0
  O  O51  1  0.65715000  0.36490000  0.47998000  1.0
  O  O52  1  0.65715000  0.86490000  0.02002000  1.0
  O  O53  1  0.34285000  0.63510000  0.52002000  1.0
  O  O54  1  0.94204000  0.68907000  0.64921000  1.0
  O  O55  1  0.05796000  0.81093000  0.14921000  1.0
  O  O56  1  0.05796000  0.31093000  0.35079000  1.0
  O  O57  1  0.94204000  0.18907000  0.85080000  1.0
