# generated using pymatgen
data_Cd3H62C72S2(N8O7)2
_symmetry_space_group_name_H-M   'P 1'
_cell_length_a   10.20750000
_cell_length_b   13.10650000
_cell_length_c   17.44890000
_cell_angle_alpha   79.67280000
_cell_angle_beta   85.61700000
_cell_angle_gamma   78.05080000
_symmetry_Int_Tables_number   1
_chemical_formula_structural   Cd3H62C72S2(N8O7)2
_chemical_formula_sum   'Cd3 H62 C72 S2 N16 O14'
_cell_volume   2244.93935968
_cell_formula_units_Z   1
loop_
 _symmetry_equiv_pos_site_id
 _symmetry_equiv_pos_as_xyz
  1  'x, y, z'
loop_
 _atom_site_type_symbol
 _atom_site_label
 _atom_site_symmetry_multiplicity
 _atom_site_fract_x
 _atom_site_fract_y
 _atom_site_fract_z
 _atom_site_occupancy
  Cd  Cd0  1  0.95387000  0.90141000  0.79940000  1.0
  Cd  Cd1  1  0.04613000  0.09859000  0.20060000  1.0
  Cd  Cd2  1  0.50000000  0.50000000  0.50000000  1.0
  H  H3  1  0.59733000  0.19415000  0.69651000  1.0
  H  H4  1  0.46788000  0.90557000  0.79956000  1.0
  H  H5  1  0.17765000  0.18043000  0.70922000  1.0
  H  H6  1  0.22313000  0.73909000  0.72723000  1.0
  H  H7  1  0.19470000  0.56556000  0.66123000  1.0
  H  H8  1  0.81474000  0.72007000  0.73974000  1.0
  H  H9  1  0.82616000  0.58408000  0.64199000  1.0
  H  H10  1  0.98720000  0.51752000  0.61520000  1.0
  H  H11  1  0.07890000  0.45962000  0.79245000  1.0
  H  H12  1  0.06109000  0.30115000  0.88829000  1.0
  H  H13  1  0.72885000  0.25575000  0.76892000  1.0
  H  H14  1  0.74126000  0.41963000  0.67465000  1.0
  H  H15  1  0.90501000  0.09970000  0.85489000  1.0
  H  H16  1  0.78300000  0.16700000  0.91526000  1.0
  H  H17  1  0.16540000  0.09510000  0.89031000  1.0
  H  H18  1  0.26197000  0.07162000  0.03946000  1.0
  H  H19  1  0.84152000  0.16743000  0.05144000  1.0
  H  H20  1  0.40267000  0.80585000  0.30348000  1.0
  H  H21  1  0.53212000  0.09443000  0.20044000  1.0
  H  H22  1  0.82235000  0.81957000  0.29078000  1.0
  H  H23  1  0.77687000  0.26091000  0.27277000  1.0
  H  H24  1  0.80531000  0.43444000  0.33877000  1.0
  H  H25  1  0.18526000  0.27994000  0.26026000  1.0
  H  H26  1  0.17384000  0.41593000  0.35801000  1.0
  H  H27  1  0.01280000  0.48249000  0.38480000  1.0
  H  H28  1  0.92110000  0.54038000  0.20755000  1.0
  H  H29  1  0.93891000  0.69885000  0.11171000  1.0
  H  H30  1  0.27115000  0.74426000  0.23108000  1.0
  H  H31  1  0.25874000  0.58037000  0.32535000  1.0
  H  H32  1  0.09500000  0.90030000  0.14511000  1.0
  H  H33  1  0.21701000  0.83300000  0.08474000  1.0
  H  H34  1  0.83461000  0.90490000  0.10969000  1.0
  H  H35  1  0.73803000  0.92839000  0.96054000  1.0
  H  H36  1  0.15849000  0.83257000  0.94855000  1.0
  H  H37  1  0.84305000  0.51300000  0.47774000  1.0
  H  H38  1  0.04353000  0.34532000  0.54517000  1.0
  H  H39  1  0.67179000  0.24669000  0.56194000  1.0
  H  H40  1  0.03467000  0.17000000  0.62428000  1.0
  H  H41  1  0.87847000  0.13520000  0.65116000  1.0
  H  H42  1  0.03466000  0.95322000  0.64188000  1.0
  H  H43  1  0.91647000  0.18680000  0.43958000  1.0
  H  H44  1  0.64549000  0.70678000  0.50757000  1.0
  H  H45  1  0.51957000  0.71551000  0.74397000  1.0
  H  H46  1  0.45558000  0.53794000  0.69775000  1.0
  H  H47  1  0.75056000  0.82734000  0.60513000  1.0
  H  H48  1  0.62594000  0.86205000  0.67704000  1.0
  H  H49  1  0.37092000  0.90028000  0.60299000  1.0
  H  H50  1  0.74897000  0.96308000  0.49836000  1.0
  H  H51  1  0.15695000  0.48700000  0.52226000  1.0
  H  H52  1  0.95647000  0.65468000  0.45483000  1.0
  H  H53  1  0.32820000  0.75331000  0.43807000  1.0
  H  H54  1  0.96533000  0.83000000  0.37572000  1.0
  H  H55  1  0.12153000  0.86480000  0.34885000  1.0
  H  H56  1  0.96534000  0.04678000  0.35812000  1.0
  H  H57  1  0.08352000  0.81319000  0.56042000  1.0
  H  H58  1  0.35451000  0.29321000  0.49243000  1.0
  H  H59  1  0.48042000  0.28450000  0.25603000  1.0
  H  H60  1  0.54442000  0.46207000  0.30226000  1.0
  H  H61  1  0.24944000  0.17266000  0.39487000  1.0
  H  H62  1  0.37406000  0.13796000  0.32296000  1.0
  H  H63  1  0.62909000  0.09971000  0.39700000  1.0
  H  H64  1  0.25103000  0.03692000  0.50164000  1.0
  C  C65  1  0.38414000  0.19871000  0.69871000  1.0
  C  C66  1  0.51697000  0.15051000  0.71365000  1.0
  C  C67  1  0.54740000  0.04457000  0.75037000  1.0
  C  C68  1  0.68910000  0.99083000  0.76721000  1.0
  C  C69  1  0.44454000  0.98791000  0.77124000  1.0
  C  C70  1  0.31159000  0.03615000  0.75619000  1.0
  C  C71  1  0.20279000  0.97294000  0.77685000  1.0
  C  C72  1  0.28132000  0.14240000  0.72039000  1.0
  C  C73  1  0.13443000  0.70994000  0.71846000  1.0
  C  C74  1  0.12155000  0.62556000  0.68490000  1.0
  C  C75  1  0.92165000  0.70355000  0.72628000  1.0
  C  C76  1  0.92463000  0.54447000  0.66449000  1.0
  C  C77  1  0.91131000  0.45087000  0.72694000  1.0
  C  C78  1  0.99969000  0.41702000  0.78766000  1.0
  C  C79  1  0.99039000  0.32613000  0.84163000  1.0
  C  C80  1  0.89406000  0.26694000  0.83500000  1.0
  C  C81  1  0.80433000  0.30166000  0.77446000  1.0
  C  C82  1  0.81218000  0.39316000  0.72129000  1.0
  C  C83  1  0.88466000  0.16446000  0.88894000  1.0
  C  C84  1  0.11453000  0.10590000  0.94591000  1.0
  C  C85  1  0.16042000  0.09487000  0.01951000  1.0
  C  C86  1  0.94327000  0.14591000  0.02817000  1.0
  C  C87  1  0.61586000  0.80128000  0.30128000  1.0
  C  C88  1  0.48303000  0.84949000  0.28635000  1.0
  C  C89  1  0.45260000  0.95543000  0.24964000  1.0
  C  C90  1  0.31090000  0.00917000  0.23280000  1.0
  C  C91  1  0.55546000  0.01208000  0.22876000  1.0
  C  C92  1  0.68841000  0.96384000  0.24381000  1.0
  C  C93  1  0.79721000  0.02706000  0.22315000  1.0
  C  C94  1  0.71868000  0.85760000  0.27961000  1.0
  C  C95  1  0.86557000  0.29006000  0.28154000  1.0
  C  C96  1  0.87845000  0.37444000  0.31511000  1.0
  C  C97  1  0.07836000  0.29646000  0.27372000  1.0
  C  C98  1  0.07538000  0.45553000  0.33551000  1.0
  C  C99  1  0.08869000  0.54914000  0.27306000  1.0
  C  C100  1  0.00030000  0.58299000  0.21234000  1.0
  C  C101  1  0.00961000  0.67388000  0.15837000  1.0
  C  C102  1  0.10594000  0.73307000  0.16500000  1.0
  C  C103  1  0.19567000  0.69834000  0.22554000  1.0
  C  C104  1  0.18782000  0.60685000  0.27871000  1.0
  C  C105  1  0.11534000  0.83554000  0.11106000  1.0
  C  C106  1  0.88548000  0.89410000  0.05409000  1.0
  C  C107  1  0.83958000  0.90513000  0.98049000  1.0
  C  C108  1  0.05673000  0.85409000  0.97183000  1.0
  C  C109  1  0.83872000  0.43245000  0.50487000  1.0
  C  C110  1  0.93809000  0.35091000  0.53608000  1.0
  C  C111  1  0.74477000  0.29715000  0.54653000  1.0
  C  C112  1  0.94167000  0.16149000  0.60059000  1.0
  C  C113  1  0.97125000  0.07971000  0.54719000  1.0
  C  C114  1  0.01829000  0.97377000  0.57954000  1.0
  C  C115  1  0.95346000  0.10512000  0.46676000  1.0
  C  C116  1  0.60262000  0.68366000  0.56542000  1.0
  C  C117  1  0.53608000  0.68598000  0.68909000  1.0
  C  C118  1  0.50465000  0.59948000  0.66538000  1.0
  C  C119  1  0.64214000  0.83919000  0.61896000  1.0
  C  C120  1  0.56812000  0.92275000  0.55767000  1.0
  C  C121  1  0.42792000  0.94394000  0.55788000  1.0
  C  C122  1  0.63959000  0.97936000  0.49933000  1.0
  C  C123  1  0.16128000  0.56755000  0.49513000  1.0
  C  C124  1  0.06191000  0.64908000  0.46393000  1.0
  C  C125  1  0.25523000  0.70285000  0.45347000  1.0
  C  C126  1  0.05832000  0.83850000  0.39941000  1.0
  C  C127  1  0.02875000  0.92029000  0.45281000  1.0
  C  C128  1  0.98170000  0.02623000  0.42046000  1.0
  C  C129  1  0.04654000  0.89487000  0.53323000  1.0
  C  C130  1  0.39738000  0.31634000  0.43458000  1.0
  C  C131  1  0.46392000  0.31402000  0.31092000  1.0
  C  C132  1  0.49535000  0.40052000  0.33462000  1.0
  C  C133  1  0.35786000  0.16081000  0.38104000  1.0
  C  C134  1  0.43188000  0.07725000  0.44233000  1.0
  C  C135  1  0.57208000  0.05606000  0.44212000  1.0
  C  C136  1  0.36041000  0.02064000  0.50067000  1.0
  S  S137  1  0.34156000  0.33391000  0.65160000  1.0
  S  S138  1  0.65844000  0.66608000  0.34840000  1.0
  N  N139  1  0.00888000  0.75792000  0.74367000  1.0
  N  N140  1  0.98636000  0.62303000  0.69004000  1.0
  N  N141  1  0.97682000  0.13819000  0.95251000  1.0
  N  N142  1  0.05244000  0.11972000  0.07019000  1.0
  N  N143  1  0.99113000  0.24208000  0.25633000  1.0
  N  N144  1  0.01365000  0.37697000  0.30996000  1.0
  N  N145  1  0.02319000  0.86181000  0.04748000  1.0
  N  N146  1  0.94756000  0.88029000  0.92981000  1.0
  N  N147  1  0.71873000  0.39785000  0.51162000  1.0
  N  N148  1  0.87655000  0.26600000  0.56256000  1.0
  N  N149  1  0.54673000  0.59940000  0.58822000  1.0
  N  N150  1  0.59841000  0.73820000  0.62510000  1.0
  N  N151  1  0.28127000  0.60215000  0.48839000  1.0
  N  N152  1  0.12344000  0.73400000  0.43744000  1.0
  N  N153  1  0.45327000  0.40060000  0.41179000  1.0
  N  N154  1  0.40159000  0.26180000  0.37490000  1.0
  O  O155  1  0.46201000  0.35208000  0.60192000  1.0
  O  O156  1  0.31387000  0.39903000  0.71289000  1.0
  O  O157  1  0.22563000  0.33825000  0.60500000  1.0
  O  O158  1  0.77956000  0.04716000  0.75715000  1.0
  O  O159  1  0.71482000  0.89120000  0.79099000  1.0
  O  O160  1  0.23078000  0.87801000  0.81040000  1.0
  O  O161  1  0.08356000  0.02224000  0.75785000  1.0
  O  O162  1  0.53798000  0.64792000  0.39808000  1.0
  O  O163  1  0.68611000  0.60097000  0.28711000  1.0
  O  O164  1  0.77437000  0.66174000  0.39500000  1.0
  O  O165  1  0.22044000  0.95284000  0.24285000  1.0
  O  O166  1  0.28518000  0.10880000  0.20901000  1.0
  O  O167  1  0.76922000  0.12198000  0.18960000  1.0
  O  O168  1  0.91644000  0.97776000  0.24215000  1.0
