# generated using pymatgen
data_Al3H24C48(NO7)2
_symmetry_space_group_name_H-M   'P 1'
_cell_length_a   12.02950000
_cell_length_b   12.09378065
_cell_length_c   27.93810000
_cell_angle_alpha   90.16656824
_cell_angle_beta   90.40940000
_cell_angle_gamma   60.91723341
_symmetry_Int_Tables_number   1
_chemical_formula_structural   Al3H24C48(NO7)2
_chemical_formula_sum   'Al6 H48 C96 N4 O28'
_cell_volume   3551.94529326
_cell_formula_units_Z   2
loop_
 _symmetry_equiv_pos_site_id
 _symmetry_equiv_pos_as_xyz
  1  'x, y, z'
loop_
 _atom_site_type_symbol
 _atom_site_label
 _atom_site_symmetry_multiplicity
 _atom_site_fract_x
 _atom_site_fract_y
 _atom_site_fract_z
 _atom_site_occupancy
  Al  Al0  1  0.60757000  0.59986000  0.50264000  1.0
  Al  Al1  1  0.58628000  0.34612000  0.50275000  1.0
  Al  Al2  1  0.34395000  0.59351000  0.49906000  1.0
  Al  Al3  1  0.06805000  0.08965000  0.01645000  1.0
  Al  Al4  1  0.33439000  0.09094000  0.01633000  1.0
  Al  Al5  1  0.09514000  0.34057000  0.01636000  1.0
  H  H6  1  0.55305000  0.19974000  0.78904000  1.0
  H  H7  1  0.40602000  0.15069000  0.72110000  1.0
  H  H8  1  0.52846000  0.00979000  0.22325000  1.0
  H  H9  1  0.55192000  0.02511000  0.30864000  1.0
  H  H10  1  0.13623000  0.64899000  0.21068000  1.0
  H  H11  1  0.15779000  0.66288000  0.29630000  1.0
  H  H12  1  0.24636000  0.56265000  0.37435000  1.0
  H  H13  1  0.12372000  0.94125000  0.13852000  1.0
  H  H14  1  0.17885000  0.82077000  0.37825000  1.0
  H  H15  1  0.48930000  0.42911000  0.74059000  1.0
  H  H16  1  0.51251000  0.85512000  0.13508000  1.0
  H  H17  1  0.50779000  0.68948000  0.79264000  1.0
  H  H18  1  0.67030000  0.72973000  0.29485000  1.0
  H  H19  1  0.57299000  0.72264000  0.37270000  1.0
  H  H20  1  0.96970000  0.46691000  0.15080000  1.0
  H  H21  1  0.82920000  0.50598000  0.38717000  1.0
  H  H22  1  0.96592000  0.55578000  0.23145000  1.0
  H  H23  1  0.91813000  0.56779000  0.31780000  1.0
  H  H24  1  0.83938000  0.19782000  0.13043000  1.0
  H  H25  1  0.27329000  0.55777000  0.80049000  1.0
  H  H26  1  0.68314000  0.16180000  0.28562000  1.0
  H  H27  1  0.69672000  0.23660000  0.36732000  1.0
  H  H28  1  0.81055000  0.55345000  0.78067000  1.0
  H  H29  1  0.12588000  0.50866000  0.73249000  1.0
  H  H30  1  0.18922000  0.28005000  0.78107000  1.0
  H  H31  1  0.12749000  0.86716000  0.78625000  1.0
  H  H32  1  0.13166000  0.03637000  0.71646000  1.0
  H  H33  1  0.32528000  0.66278000  0.73524000  1.0
  H  H34  1  0.51133000  0.85919000  0.72299000  1.0
  H  H35  1  0.31373000  0.06326000  0.77391000  1.0
  H  H36  1  0.56688000  0.05324000  0.37541000  1.0
  H  H37  1  0.53993000  0.15376000  0.42422000  1.0
  H  H38  1  0.12010000  0.62136000  0.14524000  1.0
  H  H39  1  0.99900000  0.37481000  0.71832000  1.0
  H  H40  1  0.14781000  0.52283000  0.09551000  1.0
  H  H41  1  0.98422000  0.96975000  0.17980000  1.0
  H  H42  1  0.92243000  0.95989000  0.23175000  1.0
  H  H43  1  0.04318000  0.89533000  0.30509000  1.0
  H  H44  1  0.64954000  0.77232000  0.20789000  1.0
  H  H45  1  0.65401000  0.11513000  0.20521000  1.0
  H  H46  1  0.70368000  0.16303000  0.15751000  1.0
  H  H47  1  0.62671000  0.50715000  0.73418000  1.0
  H  H48  1  0.67708000  0.31267000  0.80244000  1.0
  H  H49  1  0.86557000  0.13406000  0.74014000  1.0
  H  H50  1  0.04915000  0.18109000  0.78675000  1.0
  H  H51  1  0.44091000  0.11133000  0.14436000  1.0
  H  H52  1  0.70637000  0.70989000  0.53428000  1.0
  H  H53  1  0.95186000  0.99354000  0.98795000  1.0
  C  C54  1  0.73378000  0.37878000  0.57114000  1.0
  C  C55  1  0.34799000  0.38054000  0.66177000  1.0
  C  C56  1  0.21466000  0.95980000  0.73413000  1.0
  C  C57  1  0.38861000  0.40585000  0.57042000  1.0
  C  C58  1  0.21264000  0.86508000  0.77169000  1.0
  C  C59  1  0.30553000  0.91773000  0.89647000  1.0
  C  C60  1  0.34321000  0.79716000  0.61374000  1.0
  C  C61  1  0.31638000  0.97426000  0.76464000  1.0
  C  C62  1  0.31433000  0.87976000  0.80340000  1.0
  C  C63  1  0.42636000  0.86103000  0.73763000  1.0
  C  C64  1  0.32487000  0.84615000  0.70598000  1.0
  C  C65  1  0.35947000  0.38847000  0.61875000  1.0
  C  C66  1  0.42454000  0.76609000  0.77508000  1.0
  C  C67  1  0.32265000  0.75172000  0.74470000  1.0
  C  C68  1  0.31030000  0.89900000  0.85344000  1.0
  C  C69  1  0.37697000  0.74136000  0.56691000  1.0
  C  C70  1  0.33177000  0.82351000  0.65618000  1.0
  C  C71  1  0.92777000  0.36137000  0.73767000  1.0
  C  C72  1  0.82276000  0.46040000  0.77122000  1.0
  C  C73  1  0.88883000  0.34642000  0.90190000  1.0
  C  C74  1  0.78477000  0.34395000  0.61888000  1.0
  C  C75  1  0.95542000  0.25310000  0.77417000  1.0
  C  C76  1  0.25617000  0.31290000  0.77136000  1.0
  C  C77  1  0.85051000  0.35264000  0.80892000  1.0
  C  C78  1  0.85320000  0.22723000  0.74953000  1.0
  C  C79  1  0.82513000  0.33517000  0.71180000  1.0
  C  C80  1  0.74813000  0.32630000  0.78307000  1.0
  C  C81  1  0.72417000  0.38583000  0.43280000  1.0
  C  C82  1  0.72042000  0.43470000  0.74663000  1.0
  C  C83  1  0.86828000  0.35376000  0.85891000  1.0
  C  C84  1  0.80678000  0.33459000  0.66178000  1.0
  C  C85  1  0.44682000  0.24381000  0.36284000  1.0
  C  C86  1  0.43039000  0.23181000  0.31256000  1.0
  C  C87  1  0.33853000  0.33990000  0.80965000  1.0
  C  C88  1  0.40524000  0.21115000  0.21145000  1.0
  C  C89  1  0.48143000  0.10244000  0.24033000  1.0
  C  C90  1  0.49367000  0.11202000  0.28865000  1.0
  C  C91  1  0.39189000  0.20291000  0.16214000  1.0
  C  C92  1  0.31158000  0.30882000  0.13423000  1.0
  C  C93  1  0.39138000  0.39089000  0.43535000  1.0
  C  C94  1  0.29659000  0.47099000  0.35674000  1.0
  C  C95  1  0.28352000  0.46239000  0.30741000  1.0
  C  C96  1  0.35123000  0.34141000  0.28484000  1.0
  C  C97  1  0.20643000  0.57095000  0.27886000  1.0
  C  C98  1  0.22073000  0.44014000  0.74540000  1.0
  C  C99  1  0.19509000  0.56195000  0.23050000  1.0
  C  C100  1  0.25942000  0.44222000  0.20666000  1.0
  C  C101  1  0.33852000  0.33238000  0.23416000  1.0
  C  C102  1  0.24287000  0.43069000  0.15630000  1.0
  C  C103  1  0.37682000  0.36581000  0.38475000  1.0
  C  C104  1  0.25877000  0.81229000  0.35730000  1.0
  C  C105  1  0.39722000  0.72563000  0.43027000  1.0
  C  C106  1  0.24349000  0.84101000  0.30820000  1.0
  C  C107  1  0.22106000  0.88463000  0.20764000  1.0
  C  C108  1  0.11303000  0.89892000  0.23522000  1.0
  C  C109  1  0.34068000  0.36840000  0.71187000  1.0
  C  C110  1  0.12523000  0.88159000  0.28409000  1.0
  C  C111  1  0.21180000  0.91038000  0.15864000  1.0
  C  C112  1  0.31525000  0.90250000  0.13312000  1.0
  C  C113  1  0.48223000  0.75667000  0.35411000  1.0
  C  C114  1  0.47171000  0.78183000  0.30489000  1.0
  C  C115  1  0.35208000  0.82314000  0.28146000  1.0
  C  C116  1  0.57856000  0.76412000  0.27693000  1.0
  C  C117  1  0.37645000  0.24078000  0.73931000  1.0
  C  C118  1  0.56711000  0.78722000  0.22886000  1.0
  C  C119  1  0.44756000  0.83093000  0.20451000  1.0
  C  C120  1  0.30260000  0.46771000  0.78228000  1.0
  C  C121  1  0.33995000  0.84632000  0.23142000  1.0
  C  C122  1  0.43284000  0.86157000  0.15565000  1.0
  C  C123  1  0.37690000  0.76963000  0.37975000  1.0
  C  C124  1  0.81261000  0.44425000  0.36310000  1.0
  C  C125  1  0.84079000  0.43849000  0.31426000  1.0
  C  C126  1  0.89531000  0.42512000  0.21458000  1.0
  C  C127  1  0.92195000  0.50305000  0.24624000  1.0
  C  C128  1  0.89597000  0.50934000  0.29397000  1.0
  C  C129  1  0.45828000  0.26843000  0.77610000  1.0
  C  C130  1  0.92572000  0.41443000  0.16578000  1.0
  C  C131  1  0.42275000  0.39574000  0.75016000  1.0
  C  C132  1  0.90583000  0.33159000  0.13658000  1.0
  C  C133  1  0.73715000  0.29185000  0.35191000  1.0
  C  C134  1  0.76018000  0.28651000  0.30251000  1.0
  C  C135  1  0.81337000  0.36010000  0.28345000  1.0
  C  C136  1  0.72918000  0.21263000  0.27088000  1.0
  C  C137  1  0.75128000  0.20774000  0.22241000  1.0
  C  C138  1  0.81309000  0.27467000  0.20280000  1.0
  C  C139  1  0.83966000  0.35372000  0.23374000  1.0
  C  C140  1  0.84981000  0.26272000  0.15486000  1.0
  C  C141  1  0.32241000  0.31044000  0.90227000  1.0
  C  C142  1  0.33217000  0.32452000  0.85956000  1.0
  C  C143  1  0.76196000  0.37079000  0.38166000  1.0
  C  C144  1  0.28260000  0.96079000  0.94532000  1.0
  C  C145  1  0.29229000  0.28687000  0.94950000  1.0
  C  C146  1  0.93937000  0.31351000  0.94968000  1.0
  C  C147  1  0.29090000  0.95029000  0.08314000  1.0
  C  C148  1  0.29407000  0.28515000  0.08381000  1.0
  C  C149  1  0.95434000  0.30599000  0.08681000  1.0
  N  N150  1  0.52865000  0.14152000  0.38893000  1.0
  N  N151  1  0.16232000  0.53417000  0.13056000  1.0
  N  N152  1  0.00218000  0.92330000  0.21150000  1.0
  N  N153  1  0.72182000  0.13397000  0.19213000  1.0
  O  O154  1  0.48647000  0.71327000  0.55212000  1.0
  O  O155  1  0.18335000  0.36807000  0.96558000  1.0
  O  O156  1  0.96254000  0.39343000  0.97232000  1.0
  O  O157  1  0.70274000  0.48994000  0.55816000  1.0
  O  O158  1  0.96711000  0.20652000  0.06690000  1.0
  O  O159  1  0.18277000  0.98115000  0.06545000  1.0
  O  O160  1  0.37860000  0.96377000  0.06168000  1.0
  O  O161  1  0.36935000  0.17609000  0.06608000  1.0
  O  O162  1  0.20021000  0.37161000  0.05930000  1.0
  O  O163  1  0.98497000  0.38480000  0.06779000  1.0
  O  O164  1  0.16689000  0.17462000  0.01554000  1.0
  O  O165  1  0.48535000  0.30681000  0.46051000  1.0
  O  O166  1  0.71881000  0.29620000  0.54652000  1.0
  O  O167  1  0.49727000  0.32291000  0.55470000  1.0
  O  O168  1  0.30790000  0.50479000  0.54803000  1.0
  O  O169  1  0.29451000  0.71963000  0.54516000  1.0
  O  O170  1  0.50185000  0.70032000  0.44987000  1.0
  O  O171  1  0.71807000  0.47932000  0.45539000  1.0
  O  O172  1  0.69433000  0.30506000  0.45056000  1.0
  O  O173  1  0.31273000  0.49956000  0.45248000  1.0
  O  O174  1  0.30881000  0.71034000  0.45020000  1.0
  O  O175  1  0.51117000  0.51235000  0.50217000  1.0
  O  O176  1  0.96234000  0.20603000  0.96466000  1.0
  O  O177  1  0.17718000  0.98387000  0.96300000  1.0
  O  O178  1  0.36995000  0.97686000  0.96604000  1.0
  O  O179  1  0.37202000  0.18492000  0.97065000  1.0
  O  O180  1  0.69660000  0.67968000  0.50331000  1.0
  O  O181  1  0.97789000  0.01093000  0.01859000  1.0
