# generated using pymatgen
data_AlH6C24(ClO)6
_symmetry_space_group_name_H-M   'P 1'
_cell_length_a   3.99725000
_cell_length_b   29.21750000
_cell_length_c   29.21804162
_cell_angle_alpha   120.00016035
_cell_angle_beta   90.00069999
_cell_angle_gamma   89.99970000
_symmetry_Int_Tables_number   1
_chemical_formula_structural   AlH6C24(ClO)6
_chemical_formula_sum   'Al2 H12 C48 Cl12 O12'
_cell_volume   2955.18992349
_cell_formula_units_Z   2
loop_
 _symmetry_equiv_pos_site_id
 _symmetry_equiv_pos_as_xyz
  1  'x, y, z'
loop_
 _atom_site_type_symbol
 _atom_site_label
 _atom_site_symmetry_multiplicity
 _atom_site_fract_x
 _atom_site_fract_y
 _atom_site_fract_z
 _atom_site_occupancy
  Al  Al0  1  0.99999000  0.00000000  0.50000000  1.0
  Al  Al1  1  0.00044000  0.33333000  0.16666000  1.0
  H  H2  1  0.49834000  0.57946000  0.36370000  1.0
  H  H3  1  0.50199000  0.57947000  0.21576000  1.0
  H  H4  1  0.50203000  0.75387000  0.45091000  1.0
  H  H5  1  0.49803000  0.75387000  0.30297000  1.0
  H  H6  1  0.49836000  0.13630000  0.21577000  1.0
  H  H7  1  0.50197000  0.28425000  0.36371000  1.0
  H  H8  1  0.50203000  0.04909000  0.30296000  1.0
  H  H9  1  0.49801000  0.19703000  0.45090000  1.0
  H  H10  1  0.49833000  0.28425000  0.92054000  1.0
  H  H11  1  0.50194000  0.13629000  0.92052000  1.0
  H  H12  1  0.50206000  0.19704000  0.74613000  1.0
  H  H13  1  0.49804000  0.04910000  0.74613000  1.0
  C  C14  1  0.49999000  0.04081000  0.58162000  1.0
  C  C15  1  0.49999000  0.91837000  0.45919000  1.0
  C  C16  1  0.49998000  0.04081000  0.45919000  1.0
  C  C17  1  0.50045000  0.41495000  0.20746000  1.0
  C  C18  1  0.50047000  0.29252000  0.20748000  1.0
  C  C19  1  0.50044000  0.29251000  0.08504000  1.0
  C  C20  1  0.50038000  0.47438000  0.23718000  1.0
  C  C21  1  0.50153000  0.50347000  0.29286000  1.0
  C  C22  1  0.50034000  0.55847000  0.32072000  1.0
  C  C23  1  0.50014000  0.58665000  0.29332000  1.0
  C  C24  1  0.50003000  0.55847000  0.23774000  1.0
  C  C25  1  0.49907000  0.50348000  0.21060000  1.0
  C  C26  1  0.50008000  0.64256000  0.32128000  1.0
  C  C27  1  0.50006000  0.69077000  0.34539000  1.0
  C  C28  1  0.50004000  0.74669000  0.37335000  1.0
  C  C29  1  0.49999000  0.77486000  0.42893000  1.0
  C  C30  1  0.49894000  0.82985000  0.45607000  1.0
  C  C31  1  0.49999000  0.85895000  0.42948000  1.0
  C  C32  1  0.50107000  0.82985000  0.37379000  1.0
  C  C33  1  0.50007000  0.77486000  0.34594000  1.0
  C  C34  1  0.50041000  0.26281000  0.23719000  1.0
  C  C35  1  0.50157000  0.20712000  0.21061000  1.0
  C  C36  1  0.50036000  0.17927000  0.23775000  1.0
  C  C37  1  0.50013000  0.20668000  0.29334000  1.0
  C  C38  1  0.50003000  0.26225000  0.32073000  1.0
  C  C39  1  0.49909000  0.28940000  0.29288000  1.0
  C  C40  1  0.50005000  0.17872000  0.32129000  1.0
  C  C41  1  0.50002000  0.15462000  0.34539000  1.0
  C  C42  1  0.50001000  0.12665000  0.37334000  1.0
  C  C43  1  0.49997000  0.07107000  0.34594000  1.0
  C  C44  1  0.49893000  0.04394000  0.37379000  1.0
  C  C45  1  0.49999000  0.07052000  0.42948000  1.0
  C  C46  1  0.50106000  0.12621000  0.45606000  1.0
  C  C47  1  0.50005000  0.15406000  0.42893000  1.0
  C  C48  1  0.50036000  0.26280000  0.02561000  1.0
  C  C49  1  0.50151000  0.28939000  0.99651000  1.0
  C  C50  1  0.50031000  0.26225000  0.94152000  1.0
  C  C51  1  0.50009000  0.20667000  0.91333000  1.0
  C  C52  1  0.49996000  0.17926000  0.94151000  1.0
  C  C53  1  0.49902000  0.20711000  0.99650000  1.0
  C  C54  1  0.50006000  0.17872000  0.85743000  1.0
  C  C55  1  0.50005000  0.15462000  0.80922000  1.0
  C  C56  1  0.50005000  0.12666000  0.75331000  1.0
  C  C57  1  0.50001000  0.15407000  0.72513000  1.0
  C  C58  1  0.49895000  0.12622000  0.67015000  1.0
  C  C59  1  0.50000000  0.07052000  0.64104000  1.0
  C  C60  1  0.50108000  0.04394000  0.67015000  1.0
  C  C61  1  0.50008000  0.07107000  0.72513000  1.0
  Cl  Cl62  1  0.49054000  0.47160000  0.32905000  1.0
  Cl  Cl63  1  0.51011000  0.47162000  0.14254000  1.0
  Cl  Cl64  1  0.51010000  0.86172000  0.52412000  1.0
  Cl  Cl65  1  0.48986000  0.86172000  0.33761000  1.0
  Cl  Cl66  1  0.49064000  0.17093000  0.14255000  1.0
  Cl  Cl67  1  0.51015000  0.35746000  0.32907000  1.0
  Cl  Cl68  1  0.51013000  0.97588000  0.33761000  1.0
  Cl  Cl69  1  0.48988000  0.16239000  0.52411000  1.0
  Cl  Cl70  1  0.49057000  0.35745000  0.02839000  1.0
  Cl  Cl71  1  0.51007000  0.17091000  0.02836000  1.0
  Cl  Cl72  1  0.51011000  0.16239000  0.63827000  1.0
  Cl  Cl73  1  0.48986000  0.97588000  0.63827000  1.0
  O  O74  1  0.26285000  0.00831000  0.44975000  1.0
  O  O75  1  0.26285000  0.05025000  0.55856000  1.0
  O  O76  1  0.26285000  0.94143000  0.49168000  1.0
  O  O77  1  0.73712000  0.05025000  0.49168000  1.0
  O  O78  1  0.73712000  0.94143000  0.44975000  1.0
  O  O79  1  0.73713000  0.00831000  0.55856000  1.0
  O  O80  1  0.26334000  0.28308000  0.10811000  1.0
  O  O81  1  0.26334000  0.39188000  0.17496000  1.0
  O  O82  1  0.26335000  0.32502000  0.21691000  1.0
  O  O83  1  0.73760000  0.32501000  0.10810000  1.0
  O  O84  1  0.73761000  0.28308000  0.17498000  1.0
  O  O85  1  0.73760000  0.39189000  0.21690000  1.0
