# generated using pymatgen
data_Zn2H16C23N11Cl3
_symmetry_space_group_name_H-M   'P 1'
_cell_length_a   14.63640000
_cell_length_b   14.86430000
_cell_length_c   14.98830000
_cell_angle_alpha   110.34600000
_cell_angle_beta   112.53300000
_cell_angle_gamma   103.90000000
_symmetry_Int_Tables_number   1
_chemical_formula_structural   Zn2H16C23N11Cl3
_chemical_formula_sum   'Zn4 H32 C46 N22 Cl6'
_cell_volume   2547.91995323
_cell_formula_units_Z   2
loop_
 _symmetry_equiv_pos_site_id
 _symmetry_equiv_pos_as_xyz
  1  'x, y, z'
loop_
 _atom_site_type_symbol
 _atom_site_label
 _atom_site_symmetry_multiplicity
 _atom_site_fract_x
 _atom_site_fract_y
 _atom_site_fract_z
 _atom_site_occupancy
  Zn  Zn0  1  0.86838000  0.00030000  0.87018000  1.0
  Zn  Zn1  1  0.01441000  0.86458000  0.87340000  1.0
  Zn  Zn2  1  0.14904000  0.99560000  0.14510000  1.0
  Zn  Zn3  1  0.00100000  0.13315000  0.13460000  1.0
  H  H4  1  0.64692000  0.82999000  0.81273000  1.0
  H  H5  1  0.58018000  0.53403000  0.80188000  1.0
  H  H6  1  0.95199000  0.05105000  0.55715000  1.0
  H  H7  1  0.27211000  0.49768000  0.17147000  1.0
  H  H8  1  0.29516000  0.66842000  0.17544000  1.0
  H  H9  1  0.05029000  0.50226000  0.82784000  1.0
  H  H10  1  0.02877000  0.33212000  0.82306000  1.0
  H  H11  1  0.97998000  0.79404000  0.61279000  1.0
  H  H12  1  0.02225000  0.83614000  0.20005000  1.0
  H  H13  1  0.16438000  0.34422000  0.38046000  1.0
  H  H14  1  0.08198000  0.66649000  0.83308000  1.0
  H  H15  1  0.99166000  0.17215000  0.82019000  1.0
  H  H16  1  0.22866000  0.80886000  0.18869000  1.0
  H  H17  1  0.18386000  0.34367000  0.17965000  1.0
  H  H18  1  0.65357000  0.05810000  0.81380000  1.0
  H  H19  1  0.15124000  0.02355000  0.82210000  1.0
  H  H20  1  0.81993000  0.00542000  0.15918000  1.0
  H  H21  1  0.37030000  0.17842000  0.39426000  1.0
  H  H22  1  0.02478000  0.14620000  0.48463000  1.0
  H  H23  1  0.00440000  0.09047000  0.35616000  1.0
  H  H24  1  0.34970000  0.27494000  0.59451000  1.0
  H  H25  1  0.44915000  0.35205000  0.72949000  1.0
  H  H26  1  0.78312000  0.68448000  0.42619000  1.0
  H  H27  1  0.46285000  0.11051000  0.02825000  1.0
  H  H28  1  0.75697000  0.62338000  0.29331000  1.0
  H  H29  1  0.56418000  0.62491000  0.47748000  1.0
  H  H30  1  0.66286000  0.70638000  0.61396000  1.0
  H  H31  1  0.86920000  0.22495000  0.24904000  1.0
  H  H32  1  0.78129000  0.27797000  0.21162000  1.0
  H  H33  1  0.39922000  0.10349000  0.22947000  1.0
  H  H34  1  0.61859000  0.22422000  0.07027000  1.0
  H  H35  1  0.46959000  0.17897000  0.19535000  1.0
  C  C36  1  0.70719000  0.79811000  0.81903000  1.0
  C  C37  1  0.11059000  0.30076000  0.99914000  1.0
  C  C38  1  0.16517000  0.69734000  0.00906000  1.0
  C  C39  1  0.70139000  0.16340000  0.99022000  1.0
  C  C40  1  0.30350000  0.10121000  0.99032000  1.0
  C  C41  1  0.41853000  0.15976000  0.91162000  1.0
  C  C42  1  0.51609000  0.16630000  0.90361000  1.0
  C  C43  1  0.93387000  0.83784000  0.63091000  1.0
  C  C44  1  0.39846000  0.12726000  0.97925000  1.0
  C  C45  1  0.61284000  0.18886000  0.98976000  1.0
  C  C46  1  0.92188000  0.98846000  0.39074000  1.0
  C  C47  1  0.44890000  0.42221000  0.63297000  1.0
  C  C48  1  0.91566000  0.97925000  0.47806000  1.0
  C  C49  1  0.54217000  0.51808000  0.71625000  1.0
  C  C50  1  0.86937000  0.88085000  0.46996000  1.0
  C  C51  1  0.58811000  0.59408000  0.69275000  1.0
  C  C52  1  0.82206000  0.78589000  0.36924000  1.0
  C  C53  1  0.54145000  0.57663000  0.58250000  1.0
  C  C54  1  0.83039000  0.79595000  0.28220000  1.0
  C  C55  1  0.44991000  0.47944000  0.50007000  1.0
  C  C56  1  0.98027000  0.88382000  0.18072000  1.0
  C  C57  1  0.19913000  0.28720000  0.36817000  1.0
  C  C58  1  0.88024000  0.89419000  0.29060000  1.0
  C  C59  1  0.90301000  0.90647000  0.20694000  1.0
  C  C60  1  0.40240000  0.40206000  0.52227000  1.0
  C  C61  1  0.22324000  0.49779000  0.09529000  1.0
  C  C62  1  0.23592000  0.59462000  0.09775000  1.0
  C  C63  1  0.17089000  0.59887000  0.00311000  1.0
  C  C64  1  0.14496000  0.40088000  0.99786000  1.0
  C  C65  1  0.30671000  0.30198000  0.43023000  1.0
  C  C66  1  0.10102000  0.50203000  0.90328000  1.0
  C  C67  1  0.08871000  0.40551000  0.90069000  1.0
  C  C68  1  0.11602000  0.71655000  0.92113000  1.0
  C  C69  1  0.03147000  0.19950000  0.90854000  1.0
  C  C70  1  0.79741000  0.18729000  0.08637000  1.0
  C  C71  1  0.30637000  0.10118000  0.08605000  1.0
  C  C72  1  0.19116000  0.78931000  0.10228000  1.0
  C  C73  1  0.13008000  0.28681000  0.09184000  1.0
  C  C74  1  0.70926000  0.09620000  0.90239000  1.0
  C  C75  1  0.19104000  0.04526000  0.90905000  1.0
  C  C76  1  0.87705000  0.97022000  0.15998000  1.0
  C  C77  1  0.30386000  0.20245000  0.37498000  1.0
  C  C78  1  0.79785000  0.70041000  0.80932000  1.0
  C  C79  1  0.83780000  0.93017000  0.63575000  1.0
  C  C80  1  0.69083000  0.69155000  0.77606000  1.0
  C  C81  1  0.87596000  0.87911000  0.56969000  1.0
  N  N82  1  0.81471000  0.86346000  0.87215000  1.0
  N  N83  1  0.00549000  0.13250000  0.94547000  1.0
  N  N84  1  0.11221000  0.81121000  0.95856000  1.0
  N  N85  1  0.85539000  0.13836000  0.05685000  1.0
  N  N86  1  0.20389000  0.05086000  0.06259000  1.0
  N  N87  1  0.15935000  0.85678000  0.07183000  1.0
  N  N88  1  0.06603000  0.18583000  0.05804000  1.0
  N  N89  1  0.93025000  0.86301000  0.72470000  1.0
  N  N90  1  0.79913000  0.08069000  0.94195000  1.0
  N  N91  1  0.13300000  0.01285000  0.95204000  1.0
  N  N92  1  0.93706000  0.98681000  0.11286000  1.0
  N  N93  1  0.20293000  0.13402000  0.28623000  1.0
  N  N94  1  0.87157000  0.80325000  0.86668000  1.0
  N  N95  1  0.86993000  0.92063000  0.72755000  1.0
  N  N96  1  0.97048000  0.08972000  0.40406000  1.0
  N  N97  1  0.39953000  0.35016000  0.65883000  1.0
  N  N98  1  0.76583000  0.68780000  0.35545000  1.0
  N  N99  1  0.58367000  0.65267000  0.55759000  1.0
  N  N100  1  0.83493000  0.25211000  0.19717000  1.0
  N  N101  1  0.39725000  0.14785000  0.19092000  1.0
  N  N102  1  0.00055000  0.93358000  0.12560000  1.0
  N  N103  1  0.13738000  0.18714000  0.28224000  1.0
  Cl  Cl104  1  0.77736000  0.67968000  0.15931000  1.0
  Cl  Cl105  1  0.49617000  0.12381000  0.77065000  1.0
  Cl  Cl106  1  0.32406000  0.18804000  0.82615000  1.0
  Cl  Cl107  1  0.39818000  0.45313000  0.36313000  1.0
  Cl  Cl108  1  0.83584000  0.59868000  0.78036000  1.0
  Cl  Cl109  1  0.76093000  0.99904000  0.61368000  1.0
