# generated using pymatgen
data_CuH7C5SNO5
_symmetry_space_group_name_H-M   'P 1'
_cell_length_a   5.65883000
_cell_length_b   7.66725000
_cell_length_c   18.08200000
_cell_angle_alpha   90.00010000
_cell_angle_beta   89.99980000
_cell_angle_gamma   89.99970000
_symmetry_Int_Tables_number   1
_chemical_formula_structural   CuH7C5SNO5
_chemical_formula_sum   'Cu4 H28 C20 S4 N4 O20'
_cell_volume   784.53574617
_cell_formula_units_Z   4
loop_
 _symmetry_equiv_pos_site_id
 _symmetry_equiv_pos_as_xyz
  1  'x, y, z'
loop_
 _atom_site_type_symbol
 _atom_site_label
 _atom_site_symmetry_multiplicity
 _atom_site_fract_x
 _atom_site_fract_y
 _atom_site_fract_z
 _atom_site_occupancy
  Cu  Cu0  1  0.87411000  0.65174000  0.59367000  1.0
  Cu  Cu1  1  0.62590000  0.34825000  0.09366000  1.0
  Cu  Cu2  1  0.37410000  0.84826000  0.40633000  1.0
  Cu  Cu3  1  0.12590000  0.15174000  0.90632000  1.0
  H  H4  1  0.66010000  0.83946000  0.68647000  1.0
  H  H5  1  0.83991000  0.16054000  0.18646000  1.0
  H  H6  1  0.16009000  0.66054000  0.31354000  1.0
  H  H7  1  0.33989000  0.33947000  0.81353000  1.0
  H  H8  1  0.91863000  0.22780000  0.55066000  1.0
  H  H9  1  0.58137000  0.77220000  0.05066000  1.0
  H  H10  1  0.41865000  0.27219000  0.44934000  1.0
  H  H11  1  0.08136000  0.72780000  0.94934000  1.0
  H  H12  1  0.05685000  0.02183000  0.53295000  1.0
  H  H13  1  0.44315000  0.97817000  0.03295000  1.0
  H  H14  1  0.55686000  0.47817000  0.46705000  1.0
  H  H15  1  0.94313000  0.52183000  0.96705000  1.0
  H  H16  1  0.96309000  0.94356000  0.75422000  1.0
  H  H17  1  0.53693000  0.05645000  0.25421000  1.0
  H  H18  1  0.46308000  0.55645000  0.24579000  1.0
  H  H19  1  0.03690000  0.44356000  0.74578000  1.0
  H  H20  1  0.60701000  0.09817000  0.62282000  1.0
  H  H21  1  0.89301000  0.90182000  0.12281000  1.0
  H  H22  1  0.10701000  0.40183000  0.37719000  1.0
  H  H23  1  0.39298000  0.59817000  0.87719000  1.0
  H  H24  1  0.45096000  0.52124000  0.63659000  1.0
  H  H25  1  0.04904000  0.47876000  0.13658000  1.0
  H  H26  1  0.95096000  0.97877000  0.36341000  1.0
  H  H27  1  0.54904000  0.02125000  0.86341000  1.0
  H  H28  1  0.62144000  0.40711000  0.68380000  1.0
  H  H29  1  0.87855000  0.59290000  0.18379000  1.0
  H  H30  1  0.12146000  0.09289000  0.31620000  1.0
  H  H31  1  0.37856000  0.90710000  0.81620000  1.0
  C  C32  1  0.61150000  0.91533000  0.53214000  1.0
  C  C33  1  0.88849000  0.08468000  0.03213000  1.0
  C  C34  1  0.11152000  0.58469000  0.46787000  1.0
  C  C35  1  0.38848000  0.41531000  0.96786000  1.0
  C  C36  1  0.20181000  0.77779000  0.69491000  1.0
  C  C37  1  0.29820000  0.22221000  0.19490000  1.0
  C  C38  1  0.70181000  0.72222000  0.30509000  1.0
  C  C39  1  0.79819000  0.27779000  0.80509000  1.0
  C  C40  1  0.95622000  0.09829000  0.57331000  1.0
  C  C41  1  0.54378000  0.90171000  0.07330000  1.0
  C  C42  1  0.45623000  0.40172000  0.42670000  1.0
  C  C43  1  0.04376000  0.59828000  0.92669000  1.0
  C  C44  1  0.01096000  0.91966000  0.69622000  1.0
  C  C45  1  0.48905000  0.08034000  0.19621000  1.0
  C  C46  1  0.51096000  0.58035000  0.30378000  1.0
  C  C47  1  0.98903000  0.41966000  0.80378000  1.0
  C  C48  1  0.73093000  0.00501000  0.59768000  1.0
  C  C49  1  0.76908000  0.99499000  0.09767000  1.0
  C  C50  1  0.23093000  0.49499000  0.40233000  1.0
  C  C51  1  0.26906000  0.50501000  0.90232000  1.0
  S  S52  1  0.12467000  0.12455000  0.65776000  1.0
  S  S53  1  0.37534000  0.87545000  0.15776000  1.0
  S  S54  1  0.62468000  0.37546000  0.34224000  1.0
  S  S55  1  0.87531000  0.62455000  0.84224000  1.0
  N  N56  1  0.80193000  0.86955000  0.65232000  1.0
  N  N57  1  0.69808000  0.13045000  0.15232000  1.0
  N  N58  1  0.30193000  0.63046000  0.34768000  1.0
  N  N59  1  0.19806000  0.36955000  0.84768000  1.0
  O  O60  1  0.49945000  0.00752000  0.48564000  1.0
  O  O61  1  0.00056000  0.99247000  0.98562000  1.0
  O  O62  1  0.99945000  0.49247000  0.51438000  1.0
  O  O63  1  0.50055000  0.50752000  0.01437000  1.0
  O  O64  1  0.60560000  0.46189000  0.63424000  1.0
  O  O65  1  0.89441000  0.53810000  0.13423000  1.0
  O  O66  1  0.10560000  0.03811000  0.36577000  1.0
  O  O67  1  0.39440000  0.96190000  0.86576000  1.0
  O  O68  1  0.63237000  0.75027000  0.52566000  1.0
  O  O69  1  0.86760000  0.24972000  0.02565000  1.0
  O  O70  1  0.13240000  0.74973000  0.47435000  1.0
  O  O71  1  0.36762000  0.25026000  0.97434000  1.0
  O  O72  1  0.16695000  0.64216000  0.65404000  1.0
  O  O73  1  0.33305000  0.35783000  0.15403000  1.0
  O  O74  1  0.66695000  0.85784000  0.34597000  1.0
  O  O75  1  0.83304000  0.14216000  0.84596000  1.0
  O  O76  1  0.38522000  0.79945000  0.73292000  1.0
  O  O77  1  0.11480000  0.20055000  0.23292000  1.0
  O  O78  1  0.88521000  0.70056000  0.26708000  1.0
  O  O79  1  0.61477000  0.29945000  0.76708000  1.0
