# generated using pymatgen
data_ZnH16C20N9O4
_symmetry_space_group_name_H-M   'P 1'
_cell_length_a   10.23270000
_cell_length_b   10.99180000
_cell_length_c   12.26020000
_cell_angle_alpha   70.24270000
_cell_angle_beta   77.58970000
_cell_angle_gamma   80.99410000
_symmetry_Int_Tables_number   1
_chemical_formula_structural   ZnH16C20N9O4
_chemical_formula_sum   'Zn2 H32 C40 N18 O8'
_cell_volume   1262.18465921
_cell_formula_units_Z   2
loop_
 _symmetry_equiv_pos_site_id
 _symmetry_equiv_pos_as_xyz
  1  'x, y, z'
loop_
 _atom_site_type_symbol
 _atom_site_label
 _atom_site_symmetry_multiplicity
 _atom_site_fract_x
 _atom_site_fract_y
 _atom_site_fract_z
 _atom_site_occupancy
  Zn  Zn0  1  0.49515000  0.80806000  0.43242000  1.0
  Zn  Zn1  1  0.50485000  0.19194000  0.56758000  1.0
  H  H2  1  0.74970000  0.27230000  0.11184000  1.0
  H  H3  1  0.25030000  0.72770000  0.88816000  1.0
  H  H4  1  0.65251000  0.30838000  0.23532000  1.0
  H  H5  1  0.34749000  0.69162000  0.76468000  1.0
  H  H6  1  0.62465000  0.07663000  0.36963000  1.0
  H  H7  1  0.37534000  0.92337000  0.63037000  1.0
  H  H8  1  0.42643000  0.95877000  0.15889000  1.0
  H  H9  1  0.57357000  0.04124000  0.84111000  1.0
  H  H10  1  0.31035000  0.45749000  0.27786000  1.0
  H  H11  1  0.68965000  0.54251000  0.72215000  1.0
  H  H12  1  0.43937000  0.33232000  0.30048000  1.0
  H  H13  1  0.56063000  0.66768000  0.69952000  1.0
  H  H14  1  0.32141000  0.62023000  0.38083000  1.0
  H  H15  1  0.67859000  0.37977000  0.61917000  1.0
  H  H16  1  0.74094000  0.61978000  0.32948000  1.0
  H  H17  1  0.25906000  0.38021000  0.67053000  1.0
  H  H18  1  0.70147000  0.33805000  0.81637000  1.0
  H  H19  1  0.29853000  0.66195000  0.18363000  1.0
  H  H20  1  0.70709000  0.23472000  0.95965000  1.0
  H  H21  1  0.29291000  0.76528000  0.04035000  1.0
  H  H22  1  0.95213000  0.18849000  0.98877000  1.0
  H  H23  1  0.04787000  0.81150000  0.01124000  1.0
  H  H24  1  0.07531000  0.56095000  0.80585000  1.0
  H  H25  1  0.92470000  0.43904000  0.19415000  1.0
  H  H26  1  0.00614000  0.81165000  0.39912000  1.0
  H  H27  1  0.99385000  0.18836000  0.60088000  1.0
  H  H28  1  0.71148000  0.82908000  0.70285000  1.0
  H  H29  1  0.28852000  0.17092000  0.29716000  1.0
  H  H30  1  0.89139000  0.84408000  0.80410000  1.0
  H  H31  1  0.10862000  0.15591000  0.19590000  1.0
  H  H32  1  0.13049000  0.84380000  0.70081000  1.0
  H  H33  1  0.86952000  0.15619000  0.29918000  1.0
  C  C34  1  0.56858000  0.39606000  0.07520000  1.0
  C  C35  1  0.43143000  0.60394000  0.92480000  1.0
  C  C36  1  0.46160000  0.47059000  0.12245000  1.0
  C  C37  1  0.53840000  0.52941000  0.87755000  1.0
  C  C38  1  0.60584000  0.42381000  0.95278000  1.0
  C  C39  1  0.39416000  0.57619000  0.04722000  1.0
  C  C40  1  0.64593000  0.28674000  0.15578000  1.0
  C  C41  1  0.35408000  0.71326000  0.84422000  1.0
  C  C42  1  0.58167000  0.07039000  0.29807000  1.0
  C  C43  1  0.41832000  0.92961000  0.70193000  1.0
  C  C44  1  0.48268000  0.01461000  0.18763000  1.0
  C  C45  1  0.51732000  0.98539000  0.81237000  1.0
  C  C46  1  0.41904000  0.43593000  0.25437000  1.0
  C  C47  1  0.58096000  0.56407000  0.74563000  1.0
  C  C48  1  0.42845000  0.59547000  0.35864000  1.0
  C  C49  1  0.57155000  0.40453000  0.64136000  1.0
  C  C50  1  0.64289000  0.59307000  0.33044000  1.0
  C  C51  1  0.35711000  0.40692000  0.66956000  1.0
  C  C52  1  0.71433000  0.33586000  0.90344000  1.0
  C  C53  1  0.28567000  0.66414000  0.09656000  1.0
  C  C54  1  0.95667000  0.29069000  0.93825000  1.0
  C  C55  1  0.04333000  0.70931000  0.06176000  1.0
  C  C56  1  0.01506000  0.47883000  0.84509000  1.0
  C  C57  1  0.98495000  0.52116000  0.15491000  1.0
  C  C58  1  0.08341000  0.82657000  0.54396000  1.0
  C  C59  1  0.91659000  0.17344000  0.45603000  1.0
  C  C60  1  0.98136000  0.81853000  0.48791000  1.0
  C  C61  1  0.01863000  0.18148000  0.51208000  1.0
  C  C62  1  0.84743000  0.81909000  0.54472000  1.0
  C  C63  1  0.15256000  0.18092000  0.45528000  1.0
  C  C64  1  0.81573000  0.82864000  0.65874000  1.0
  C  C65  1  0.18427000  0.17136000  0.34125000  1.0
  C  C66  1  0.91701000  0.83753000  0.71511000  1.0
  C  C67  1  0.08300000  0.16247000  0.28489000  1.0
  C  C68  1  0.05042000  0.83647000  0.65805000  1.0
  C  C69  1  0.94959000  0.16353000  0.34194000  1.0
  C  C70  1  0.22537000  0.82215000  0.48066000  1.0
  C  C71  1  0.77463000  0.17786000  0.51933000  1.0
  C  C72  1  0.74213000  0.80835000  0.48119000  1.0
  C  C73  1  0.25786000  0.19166000  0.51882000  1.0
  N  N74  1  0.51742000  0.97425000  0.29669000  1.0
  N  N75  1  0.48257000  0.02575000  0.70331000  1.0
  N  N76  1  0.58437000  0.16399000  0.19386000  1.0
  N  N77  1  0.41563000  0.83601000  0.80614000  1.0
  N  N78  1  0.52250000  0.13008000  0.12134000  1.0
  N  N79  1  0.47750000  0.86992000  0.87866000  1.0
  N  N80  1  0.52574000  0.65045000  0.37760000  1.0
  N  N81  1  0.47427000  0.34954000  0.62240000  1.0
  N  N82  1  0.48554000  0.50981000  0.30264000  1.0
  N  N83  1  0.51446000  0.49019000  0.69736000  1.0
  N  N84  1  0.62221000  0.50669000  0.28382000  1.0
  N  N85  1  0.37779000  0.49330000  0.71619000  1.0
  N  N86  1  0.06288000  0.35824000  0.90877000  1.0
  N  N87  1  0.93712000  0.64175000  0.09123000  1.0
  N  N88  1  0.85032000  0.36762000  0.89451000  1.0
  N  N89  1  0.14968000  0.63238000  0.10549000  1.0
  N  N90  1  0.88658000  0.48931000  0.83375000  1.0
  N  N91  1  0.11343000  0.51069000  0.16625000  1.0
  O  O92  1  0.31910000  0.81655000  0.54007000  1.0
  O  O93  1  0.68090000  0.18345000  0.45991000  1.0
  O  O94  1  0.25102000  0.82091000  0.37616000  1.0
  O  O95  1  0.74897000  0.17911000  0.62383000  1.0
  O  O96  1  0.77425000  0.79409000  0.38159000  1.0
  O  O97  1  0.22573000  0.20592000  0.61842000  1.0
  O  O98  1  0.61755000  0.81520000  0.53571000  1.0
  O  O99  1  0.38244000  0.18481000  0.46429000  1.0
