# generated using pymatgen
data_Zr3H24C44Br2O21
_symmetry_space_group_name_H-M   'P 1'
_cell_length_a   19.07279132
_cell_length_b   19.18650611
_cell_length_c   19.18670000
_cell_angle_alpha   89.79004290
_cell_angle_beta   60.20208149
_cell_angle_gamma   119.79690705
_symmetry_Int_Tables_number   1
_chemical_formula_structural   Zr3H24C44Br2O21
_chemical_formula_sum   'Zr6 H48 C88 Br4 O42'
_cell_volume   4985.97309614
_cell_formula_units_Z   2
loop_
 _symmetry_equiv_pos_site_id
 _symmetry_equiv_pos_as_xyz
  1  'x, y, z'
loop_
 _atom_site_type_symbol
 _atom_site_label
 _atom_site_symmetry_multiplicity
 _atom_site_fract_x
 _atom_site_fract_y
 _atom_site_fract_z
 _atom_site_occupancy
  Zr  Zr0  1  0.31503000  0.90769000  0.09233000  1.0
  Zr  Zr1  1  0.68442000  0.09233000  0.90767000  1.0
  Zr  Zr2  1  0.49860000  0.09189000  0.90819000  1.0
  Zr  Zr3  1  0.50083000  0.90816000  0.09190000  1.0
  Zr  Zr4  1  0.49976000  0.90821000  0.90822000  1.0
  Zr  Zr5  1  0.49978000  0.09182000  0.09184000  1.0
  H  H6  1  0.35366000  0.92706000  0.92782000  1.0
  H  H7  1  0.64574000  0.92776000  0.92703000  1.0
  H  H8  1  0.64394000  0.21706000  0.92774000  1.0
  H  H9  1  0.35555000  0.92772000  0.21707000  1.0
  H  H10  1  0.93194000  0.31831000  0.88953000  1.0
  H  H11  1  0.06779000  0.67873000  0.11320000  1.0
  H  H12  1  0.29071000  0.67832000  0.89012000  1.0
  H  H13  1  0.16227000  0.55258000  0.88941000  1.0
  H  H14  1  0.70913000  0.31914000  0.11235000  1.0
  H  H15  1  0.83759000  0.44833000  0.10952000  1.0
  H  H16  1  0.93184000  0.11313000  0.67894000  1.0
  H  H17  1  0.06773000  0.88954000  0.31846000  1.0
  H  H18  1  0.29061000  0.11228000  0.31926000  1.0
  H  H19  1  0.16221000  0.10939000  0.44856000  1.0
  H  H20  1  0.70904000  0.89002000  0.67843000  1.0
  H  H21  1  0.83754000  0.88930000  0.55279000  1.0
  H  H22  1  0.49715000  0.31781000  0.11314000  1.0
  H  H23  1  0.49725000  0.67964000  0.88955000  1.0
  H  H24  1  0.49860000  0.67816000  0.11214000  1.0
  H  H25  1  0.50165000  0.55238000  0.10942000  1.0
  H  H26  1  0.49634000  0.31960000  0.89030000  1.0
  H  H27  1  0.50072000  0.44904000  0.88934000  1.0
  H  H28  1  0.50266000  0.88961000  0.67956000  1.0
  H  H29  1  0.50270000  0.11317000  0.31774000  1.0
  H  H30  1  0.50355000  0.89034000  0.31940000  1.0
  H  H31  1  0.49942000  0.88944000  0.44873000  1.0
  H  H32  1  0.50131000  0.11220000  0.67794000  1.0
  H  H33  1  0.49846000  0.10951000  0.55208000  1.0
  H  H34  1  0.93216000  0.11232000  0.89013000  1.0
  H  H35  1  0.70987000  0.88988000  0.11254000  1.0
  H  H36  1  0.06707000  0.89014000  0.11228000  1.0
  H  H37  1  0.28934000  0.11254000  0.88985000  1.0
  H  H38  1  0.70699000  0.31865000  0.67860000  1.0
  H  H39  1  0.29277000  0.67870000  0.31856000  1.0
  H  H40  1  0.06744000  0.67795000  0.31963000  1.0
  H  H41  1  0.94130000  0.55267000  0.44845000  1.0
  H  H42  1  0.93210000  0.31951000  0.67807000  1.0
  H  H43  1  0.05842000  0.44836000  0.55276000  1.0
  H  H44  1  0.07996000  0.41508000  0.83739000  1.0
  H  H45  1  0.91988000  0.58482000  0.16251000  1.0
  H  H46  1  0.07984000  0.16243000  0.58508000  1.0
  H  H47  1  0.91978000  0.83731000  0.41533000  1.0
  H  H48  1  0.50050000  0.41551000  0.16330000  1.0
  H  H49  1  0.49962000  0.58475000  0.83656000  1.0
  H  H50  1  0.50038000  0.83661000  0.58461000  1.0
  H  H51  1  0.49952000  0.16336000  0.41533000  1.0
  H  H52  1  0.75131000  0.41608000  0.58401000  1.0
  H  H53  1  0.24854000  0.58408000  0.41601000  1.0
  C  C54  1  0.26488000  0.76388000  0.00311000  1.0
  C  C55  1  0.73471000  0.00306000  0.76393000  1.0
  C  C56  1  0.73476000  0.23157000  0.00145000  1.0
  C  C57  1  0.26486000  0.00149000  0.23155000  1.0
  C  C58  1  0.26339000  0.00198000  0.00201000  1.0
  C  C59  1  0.26690000  0.76380000  0.23183000  1.0
  C  C60  1  0.73593000  0.00202000  0.00197000  1.0
  C  C61  1  0.73265000  0.23183000  0.76380000  1.0
  C  C62  1  0.50320000  0.00134000  0.76438000  1.0
  C  C63  1  0.49412000  0.23117000  0.00330000  1.0
  C  C64  1  0.50544000  0.00322000  0.23118000  1.0
  C  C65  1  0.49647000  0.76442000  0.00131000  1.0
  C  C66  1  0.81188000  0.30958000  0.00120000  1.0
  C  C67  1  0.18790000  0.68691000  0.00217000  1.0
  C  C68  1  0.91157000  0.34738000  0.93830000  1.0
  C  C69  1  0.98549000  0.42100000  0.93604000  1.0
  C  C70  1  0.08818000  0.65027000  0.06385000  1.0
  C  C71  1  0.01428000  0.57868000  0.06404000  1.0
  C  C72  1  0.21316000  0.65032000  0.93910000  1.0
  C  C73  1  0.13981000  0.57906000  0.93926000  1.0
  C  C74  1  0.78667000  0.34759000  0.06287000  1.0
  C  C75  1  0.86003000  0.42082000  0.06068000  1.0
  C  C76  1  0.96252000  0.46147000  0.99844000  1.0
  C  C77  1  0.03729000  0.53891000  0.00096000  1.0
  C  C78  1  0.81177000  0.00209000  0.68706000  1.0
  C  C79  1  0.18780000  0.00119000  0.30969000  1.0
  C  C80  1  0.91148000  0.06376000  0.65049000  1.0
  C  C81  1  0.98543000  0.06395000  0.57894000  1.0
  C  C82  1  0.08811000  0.93828000  0.34754000  1.0
  C  C83  1  0.01423000  0.93596000  0.42124000  1.0
  C  C84  1  0.21307000  0.06281000  0.34773000  1.0
  C  C85  1  0.13975000  0.06059000  0.42103000  1.0
  C  C86  1  0.78658000  0.93900000  0.65048000  1.0
  C  C87  1  0.85996000  0.93915000  0.57928000  1.0
  C  C88  1  0.96246000  0.00086000  0.53916000  1.0
  C  C89  1  0.03724000  0.99835000  0.46171000  1.0
  C  C90  1  0.49588000  0.30947000  0.00223000  1.0
  C  C91  1  0.49716000  0.68733000  0.00114000  1.0
  C  C92  1  0.49762000  0.34714000  0.06383000  1.0
  C  C93  1  0.49995000  0.42093000  0.06404000  1.0
  C  C94  1  0.49801000  0.65093000  0.93826000  1.0
  C  C95  1  0.49996000  0.57925000  0.93593000  1.0
  C  C96  1  0.49867000  0.65035000  0.06278000  1.0
  C  C97  1  0.50047000  0.57904000  0.06061000  1.0
  C  C98  1  0.49728000  0.34790000  0.93916000  1.0
  C  C99  1  0.49975000  0.42132000  0.93921000  1.0
  C  C100  1  0.50056000  0.46170000  0.00088000  1.0
  C  C101  1  0.50074000  0.53918000  0.99841000  1.0
  C  C102  1  0.50269000  0.00119000  0.68720000  1.0
  C  C103  1  0.50391000  0.00223000  0.30937000  1.0
  C  C104  1  0.50192000  0.93831000  0.65081000  1.0
  C  C105  1  0.50008000  0.93600000  0.57908000  1.0
  C  C106  1  0.50226000  0.06385000  0.34703000  1.0
  C  C107  1  0.50009000  0.06411000  0.42075000  1.0
  C  C108  1  0.50263000  0.93919000  0.34772000  1.0
  C  C109  1  0.50033000  0.93930000  0.42106000  1.0
  C  C110  1  0.50127000  0.06285000  0.65014000  1.0
  C  C111  1  0.49960000  0.06069000  0.57877000  1.0
  C  C112  1  0.49935000  0.99848000  0.53894000  1.0
  C  C113  1  0.49952000  0.00095000  0.46147000  1.0
  C  C114  1  0.91372000  0.06383000  0.93806000  1.0
  C  C115  1  0.98859000  0.06453000  0.93588000  1.0
  C  C116  1  0.09200000  0.12824000  0.87147000  1.0
  C  C117  1  0.78780000  0.93787000  0.06401000  1.0
  C  C118  1  0.85992000  0.93579000  0.06461000  1.0
  C  C119  1  0.83515000  0.87131000  0.12840000  1.0
  C  C120  1  0.08555000  0.93808000  0.06378000  1.0
  C  C121  1  0.01065000  0.93589000  0.06450000  1.0
  C  C122  1  0.90727000  0.87149000  0.12823000  1.0
  C  C123  1  0.21143000  0.06398000  0.93784000  1.0
  C  C124  1  0.13929000  0.06459000  0.93579000  1.0
  C  C125  1  0.16411000  0.12840000  0.87130000  1.0
  C  C126  1  0.81449000  0.00135000  0.00153000  1.0
  C  C127  1  0.96231000  0.99997000  0.00003000  1.0
  C  C128  1  0.18480000  0.00152000  0.00131000  1.0
  C  C129  1  0.03689000  0.00004000  0.99995000  1.0
  C  C130  1  0.81048000  0.30976000  0.68690000  1.0
  C  C131  1  0.18917000  0.68690000  0.30977000  1.0
  C  C132  1  0.78515000  0.34763000  0.65019000  1.0
  C  C133  1  0.85659000  0.42121000  0.57869000  1.0
  C  C134  1  0.21460000  0.65026000  0.34759000  1.0
  C  C135  1  0.14324000  0.57875000  0.42117000  1.0
  C  C136  1  0.08896000  0.65014000  0.34791000  1.0
  C  C137  1  0.01798000  0.57908000  0.42099000  1.0
  C  C138  1  0.91067000  0.34784000  0.65021000  1.0
  C  C139  1  0.98175000  0.42094000  0.57913000  1.0
  C  C140  1  0.95993000  0.46164000  0.53896000  1.0
  C  C141  1  0.03987000  0.53896000  0.46165000  1.0
  Br  Br142  1  0.29976000  0.21303000  0.78612000  1.0
  Br  Br143  1  0.12624000  0.21308000  0.78608000  1.0
  Br  Br144  1  0.87309000  0.78615000  0.21307000  1.0
  Br  Br145  1  0.69953000  0.78614000  0.21310000  1.0
  O  O146  1  0.23563000  0.79469000  0.06191000  1.0
  O  O147  1  0.76392000  0.06190000  0.79472000  1.0
  O  O148  1  0.76385000  0.20158000  0.94175000  1.0
  O  O149  1  0.23571000  0.94186000  0.20151000  1.0
  O  O150  1  0.35285000  0.06070000  0.94247000  1.0
  O  O151  1  0.35705000  0.79480000  0.20186000  1.0
  O  O152  1  0.64650000  0.94245000  0.06069000  1.0
  O  O153  1  0.64253000  0.20191000  0.79477000  1.0
  O  O154  1  0.50228000  0.94154000  0.79556000  1.0
  O  O155  1  0.49561000  0.20123000  0.06191000  1.0
  O  O156  1  0.50392000  0.06184000  0.20128000  1.0
  O  O157  1  0.49735000  0.79555000  0.94150000  1.0
  O  O158  1  0.49291000  0.20019000  0.94467000  1.0
  O  O159  1  0.50653000  0.94455000  0.20023000  1.0
  O  O160  1  0.49680000  0.79495000  0.06037000  1.0
  O  O161  1  0.50276000  0.06037000  0.79492000  1.0
  O  O162  1  0.23454000  0.94291000  0.06124000  1.0
  O  O163  1  0.76173000  0.20121000  0.79420000  1.0
  O  O164  1  0.76480000  0.06126000  0.94292000  1.0
  O  O165  1  0.23777000  0.79418000  0.20125000  1.0
  O  O166  1  0.35476000  0.06062000  0.20087000  1.0
  O  O167  1  0.35485000  0.79459000  0.94407000  1.0
  O  O168  1  0.64477000  0.94406000  0.79455000  1.0
  O  O169  1  0.64486000  0.20091000  0.06059000  1.0
  O  O170  1  0.39644000  0.94813000  0.15531000  1.0
  O  O171  1  0.60304000  0.15530000  0.94814000  1.0
  O  O172  1  0.60461000  0.94872000  0.94810000  1.0
  O  O173  1  0.39485000  0.94812000  0.94872000  1.0
  O  O174  1  0.57596000  0.03841000  0.88548000  1.0
  O  O175  1  0.42349000  0.88547000  0.03843000  1.0
  O  O176  1  0.57720000  0.03833000  0.03791000  1.0
  O  O177  1  0.42231000  0.03788000  0.03833000  1.0
  O  O178  1  0.08172000  0.45307000  0.87105000  1.0
  O  O179  1  0.91803000  0.54791000  0.12773000  1.0
  O  O180  1  0.08167000  0.12761000  0.54821000  1.0
  O  O181  1  0.91801000  0.87092000  0.45335000  1.0
  O  O182  1  0.50153000  0.45296000  0.12782000  1.0
  O  O183  1  0.50112000  0.54857000  0.87080000  1.0
  O  O184  1  0.49898000  0.87089000  0.54837000  1.0
  O  O185  1  0.49859000  0.12792000  0.45274000  1.0
  O  O186  1  0.82320000  0.45340000  0.54785000  1.0
  O  O187  1  0.17664000  0.54791000  0.45334000  1.0
