# generated using pymatgen
data_Mn3H8C32(N3O8)2
_symmetry_space_group_name_H-M   'P 1'
_cell_length_a   9.40877000
_cell_length_b   17.61395463
_cell_length_c   18.27710000
_cell_angle_alpha   82.87113839
_cell_angle_beta   89.98910000
_cell_angle_gamma   74.52470099
_symmetry_Int_Tables_number   1
_chemical_formula_structural   Mn3H8C32(N3O8)2
_chemical_formula_sum   'Mn6 H16 C64 N12 O32'
_cell_volume   2894.88654463
_cell_formula_units_Z   2
loop_
 _symmetry_equiv_pos_site_id
 _symmetry_equiv_pos_as_xyz
  1  'x, y, z'
loop_
 _atom_site_type_symbol
 _atom_site_label
 _atom_site_symmetry_multiplicity
 _atom_site_fract_x
 _atom_site_fract_y
 _atom_site_fract_z
 _atom_site_occupancy
  Mn  Mn0  1  0.54644000  0.28721000  0.53270000  1.0
  Mn  Mn1  1  0.83364000  0.71289000  0.96730000  1.0
  Mn  Mn2  1  0.45314000  0.71303000  0.46718000  1.0
  Mn  Mn3  1  0.16627000  0.28687000  0.03270000  1.0
  Mn  Mn4  1  0.49989000  0.50014000  0.49996000  1.0
  Mn  Mn5  1  0.00023000  0.49990000  0.99999000  1.0
  H  H6  1  0.39986000  0.11819000  0.40468000  1.0
  H  H7  1  0.51887000  0.88185000  0.09560000  1.0
  H  H8  1  0.59978000  0.88195000  0.59525000  1.0
  H  H9  1  0.48141000  0.11796000  0.90466000  1.0
  H  H10  1  0.20954000  0.49609000  0.41476000  1.0
  H  H11  1  0.70583000  0.50396000  0.08516000  1.0
  H  H12  1  0.79013000  0.50421000  0.58520000  1.0
  H  H13  1  0.29446000  0.49559000  0.91497000  1.0
  H  H14  1  0.75688000  0.50165000  0.34029000  1.0
  H  H15  1  0.25782000  0.49829000  0.15966000  1.0
  H  H16  1  0.24368000  0.49838000  0.65970000  1.0
  H  H17  1  0.74267000  0.50168000  0.84032000  1.0
  H  H18  1  0.93916000  0.25283000  0.22212000  1.0
  H  H19  1  0.19224000  0.74703000  0.27786000  1.0
  H  H20  1  0.06035000  0.74714000  0.77785000  1.0
  H  H21  1  0.80748000  0.25313000  0.72193000  1.0
  C  C22  1  0.51046000  0.07797000  0.50924000  1.0
  C  C23  1  0.58869000  0.92205000  0.99089000  1.0
  C  C24  1  0.48921000  0.92219000  0.49070000  1.0
  C  C25  1  0.41156000  0.07776000  0.00938000  1.0
  C  C26  1  0.57146000  0.01008000  0.56685000  1.0
  C  C27  1  0.58156000  0.98989000  0.93321000  1.0
  C  C28  1  0.42815000  0.99006000  0.43312000  1.0
  C  C29  1  0.41879000  0.00992000  0.06710000  1.0
  C  C30  1  0.44375000  0.06775000  0.44694000  1.0
  C  C31  1  0.51207000  0.93224000  0.05328000  1.0
  C  C32  1  0.55593000  0.93239000  0.55301000  1.0
  C  C33  1  0.48823000  0.06757000  0.94700000  1.0
  C  C34  1  0.52375000  0.15767000  0.51944000  1.0
  C  C35  1  0.68163000  0.84242000  0.98067000  1.0
  C  C36  1  0.47589000  0.84252000  0.48051000  1.0
  C  C37  1  0.31838000  0.15739000  0.01949000  1.0
  C  C38  1  0.14069000  0.44358000  0.51447000  1.0
  C  C39  1  0.58434000  0.55640000  0.98550000  1.0
  C  C40  1  0.85894000  0.55675000  0.48547000  1.0
  C  C41  1  0.41592000  0.44314000  0.01466000  1.0
  C  C42  1  0.01955000  0.44265000  0.56561000  1.0
  C  C43  1  0.46223000  0.55728000  0.93445000  1.0
  C  C44  1  0.98010000  0.55768000  0.43434000  1.0
  C  C45  1  0.53801000  0.44228000  0.06573000  1.0
  C  C46  1  0.11983000  0.49674000  0.45260000  1.0
  C  C47  1  0.61670000  0.50329000  0.04739000  1.0
  C  C48  1  0.87980000  0.50359000  0.54735000  1.0
  C  C49  1  0.38357000  0.49626000  0.95276000  1.0
  C  C50  1  0.28662000  0.38559000  0.53152000  1.0
  C  C51  1  0.67224000  0.61446000  0.96838000  1.0
  C  C52  1  0.71303000  0.61473000  0.46835000  1.0
  C  C53  1  0.32800000  0.38510000  0.03183000  1.0
  C  C54  1  0.91469000  0.37885000  0.21097000  1.0
  C  C55  1  0.29338000  0.62098000  0.28898000  1.0
  C  C56  1  0.08543000  0.62108000  0.78902000  1.0
  C  C57  1  0.70668000  0.37921000  0.71088000  1.0
  C  C58  1  0.86276000  0.45177000  0.24431000  1.0
  C  C59  1  0.31409000  0.54806000  0.25565000  1.0
  C  C60  1  0.13771000  0.54816000  0.75571000  1.0
  C  C61  1  0.68622000  0.45208000  0.74426000  1.0
  C  C62  1  0.79758000  0.44718000  0.31542000  1.0
  C  C63  1  0.24425000  0.55274000  0.18454000  1.0
  C  C64  1  0.20277000  0.55285000  0.68457000  1.0
  C  C65  1  0.75610000  0.44729000  0.81538000  1.0
  C  C66  1  0.78350000  0.37539000  0.35124000  1.0
  C  C67  1  0.15862000  0.62459000  0.14876000  1.0
  C  C68  1  0.21647000  0.62471000  0.64872000  1.0
  C  C69  1  0.84157000  0.37539000  0.85112000  1.0
  C  C70  1  0.83593000  0.30854000  0.31545000  1.0
  C  C71  1  0.14446000  0.69139000  0.18456000  1.0
  C  C72  1  0.16378000  0.69152000  0.68453000  1.0
  C  C73  1  0.85553000  0.30862000  0.81529000  1.0
  C  C74  1  0.90068000  0.30701000  0.24791000  1.0
  C  C75  1  0.20774000  0.69288000  0.25206000  1.0
  C  C76  1  0.09909000  0.69299000  0.75208000  1.0
  C  C77  1  0.79216000  0.30725000  0.74777000  1.0
  C  C78  1  0.98024000  0.38214000  0.13731000  1.0
  C  C79  1  0.36224000  0.61769000  0.36263000  1.0
  C  C80  1  0.01992000  0.61772000  0.86269000  1.0
  C  C81  1  0.63768000  0.38257000  0.63724000  1.0
  C  C82  1  0.70849000  0.37257000  0.42327000  1.0
  C  C83  1  0.08081000  0.62757000  0.07672000  1.0
  C  C84  1  0.29130000  0.62763000  0.57664000  1.0
  C  C85  1  0.91942000  0.37227000  0.92319000  1.0
  N  N86  1  0.63583000  0.01480000  0.62712000  1.0
  N  N87  1  0.65039000  0.98513000  0.87285000  1.0
  N  N88  1  0.36369000  0.98533000  0.37287000  1.0
  N  N89  1  0.35006000  0.01472000  0.12748000  1.0
  N  N90  1  0.02812000  0.39221000  0.62332000  1.0
  N  N91  1  0.42016000  0.60775000  0.87680000  1.0
  N  N92  1  0.97161000  0.60814000  0.37666000  1.0
  N  N93  1  0.58003000  0.39182000  0.12340000  1.0
  N  N94  1  0.87148000  0.52210000  0.21355000  1.0
  N  N95  1  0.39299000  0.47771000  0.28639000  1.0
  N  N96  1  0.12935000  0.47777000  0.78651000  1.0
  N  N97  1  0.60748000  0.52248000  0.71356000  1.0
  O  O98  1  0.59476000  0.16887000  0.57516000  1.0
  O  O99  1  0.76413000  0.83123000  0.92505000  1.0
  O  O100  1  0.40467000  0.83134000  0.42486000  1.0
  O  O101  1  0.23560000  0.16859000  0.07502000  1.0
  O  O102  1  0.46517000  0.21886000  0.47200000  1.0
  O  O103  1  0.68396000  0.78114000  0.02796000  1.0
  O  O104  1  0.53465000  0.78128000  0.52786000  1.0
  O  O105  1  0.31613000  0.21864000  0.97216000  1.0
  O  O106  1  0.39970000  0.39892000  0.49492000  1.0
  O  O107  1  0.79862000  0.60120000  0.00497000  1.0
  O  O108  1  0.59990000  0.60145000  0.50496000  1.0
  O  O109  1  0.20163000  0.39839000  0.99520000  1.0
  O  O110  1  0.30456000  0.32499000  0.57795000  1.0
  O  O111  1  0.62960000  0.67504000  0.92193000  1.0
  O  O112  1  0.69510000  0.67528000  0.42187000  1.0
  O  O113  1  0.37052000  0.32455000  0.07831000  1.0
  O  O114  1  0.68376000  0.30738000  0.44925000  1.0
  O  O115  1  0.99109000  0.69280000  0.05080000  1.0
  O  O116  1  0.31592000  0.69285000  0.55070000  1.0
  O  O117  1  0.00898000  0.30698000  0.94910000  1.0
  O  O118  1  0.67511000  0.43680000  0.45294000  1.0
  O  O119  1  0.11160000  0.56339000  0.04694000  1.0
  O  O120  1  0.32464000  0.56344000  0.54691000  1.0
  O  O121  1  0.88884000  0.43640000  0.95302000  1.0
  O  O122  1  0.03994000  0.31563000  0.11363000  1.0
  O  O123  1  0.35570000  0.68421000  0.38625000  1.0
  O  O124  1  0.95995000  0.68422000  0.88634000  1.0
  O  O125  1  0.64406000  0.31606000  0.61361000  1.0
  O  O126  1  0.97235000  0.45049000  0.10333000  1.0
  O  O127  1  0.42252000  0.54933000  0.39661000  1.0
  O  O128  1  0.02807000  0.54935000  0.89668000  1.0
  O  O129  1  0.57745000  0.45093000  0.60327000  1.0
