# generated using pymatgen
data_Zn2H36C48N2O13
_symmetry_space_group_name_H-M   'P 1'
_cell_length_a   10.79650000
_cell_length_b   11.74460000
_cell_length_c   13.03150000
_cell_angle_alpha   82.95060000
_cell_angle_beta   88.54250000
_cell_angle_gamma   85.60190000
_symmetry_Int_Tables_number   1
_chemical_formula_structural   Zn2H36C48N2O13
_chemical_formula_sum   'Zn2 H36 C48 N2 O13'
_cell_volume   1634.86723245
_cell_formula_units_Z   1
loop_
 _symmetry_equiv_pos_site_id
 _symmetry_equiv_pos_as_xyz
  1  'x, y, z'
loop_
 _atom_site_type_symbol
 _atom_site_label
 _atom_site_symmetry_multiplicity
 _atom_site_fract_x
 _atom_site_fract_y
 _atom_site_fract_z
 _atom_site_occupancy
  Zn  Zn0  1  0.47709000  0.61826000  0.49623000  1.0
  Zn  Zn1  1  0.50788000  0.38049000  0.49855000  1.0
  H  H2  1  0.08382000  0.67776000  0.48205000  1.0
  H  H3  1  0.30370000  0.98196000  0.65315000  1.0
  H  H4  1  0.62900000  0.23251000  0.34860000  1.0
  H  H5  1  0.38064000  0.18383000  0.59432000  1.0
  H  H6  1  0.87747000  0.67560000  0.48508000  1.0
  H  H7  1  0.07637000  0.56853000  0.34745000  1.0
  H  H8  1  0.11848000  0.31090000  0.54966000  1.0
  H  H9  1  0.90280000  0.38734000  0.66508000  1.0
  H  H10  1  0.23717000  0.51007000  0.24275000  1.0
  H  H11  1  0.35343000  0.36067000  0.15342000  1.0
  H  H12  1  0.31196000  0.15389000  0.19798000  1.0
  H  H13  1  0.90421000  0.30982000  0.55856000  1.0
  H  H14  1  0.14990000  0.10043000  0.33160000  1.0
  H  H15  1  0.03079000  0.24977000  0.41778000  1.0
  H  H16  1  0.61921000  0.15279000  0.00898000  1.0
  H  H17  1  0.77144000  0.01215000  0.10507000  1.0
  H  H18  1  0.95657000  0.08076000  0.18362000  1.0
  H  H19  1  0.98978000  0.28977000  0.16269000  1.0
  H  H20  1  0.83931000  0.42922000  0.06429000  1.0
  H  H21  1  0.72295000  0.25520000  0.86403000  1.0
  H  H22  1  0.40699000  0.63329000  0.73695000  1.0
  H  H23  1  0.11637000  0.55848000  0.68043000  1.0
  H  H24  1  0.89346000  0.39314000  0.38879000  1.0
  H  H25  1  0.76558000  0.79994000  0.56252000  1.0
  H  H26  1  0.66368000  0.87131000  0.71714000  1.0
  H  H27  1  0.69151000  0.75674000  0.89089000  1.0
  H  H28  1  0.82775000  0.57472000  0.90677000  1.0
  H  H29  1  0.93218000  0.50652000  0.75441000  1.0
  H  H30  1  0.83271000  0.62915000  0.35357000  1.0
  H  H31  1  0.21456000  0.38084000  0.67361000  1.0
  H  H32  1  0.62351000  0.40175000  0.17953000  1.0
  H  H33  1  0.41055000  0.72666000  0.16661000  1.0
  H  H34  1  0.38449000  0.72789000  0.97561000  1.0
  H  H35  1  0.57841000  0.81859000  0.39029000  1.0
  H  H36  1  0.31873000  0.77286000  0.62843000  1.0
  H  H37  1  0.64429000  0.02304000  0.32317000  1.0
  C  C38  1  0.49585000  0.46674000  0.70138000  1.0
  C  C39  1  0.49366000  0.56712000  0.96915000  1.0
  C  C40  1  0.56800000  0.47539000  0.02494000  1.0
  C  C41  1  0.25516000  0.49491000  0.49396000  1.0
  C  C42  1  0.57443000  0.47393000  0.13333000  1.0
  C  C43  1  0.45244000  0.65740000  0.12579000  1.0
  C  C44  1  0.43896000  0.65826000  0.02071000  1.0
  C  C45  1  0.58560000  0.05481000  0.38443000  1.0
  C  C46  1  0.57820000  0.16947000  0.39765000  1.0
  C  C47  1  0.43752000  0.14387000  0.53618000  1.0
  C  C48  1  0.43787000  0.02465000  0.52909000  1.0
  C  C49  1  0.87271000  0.49249000  0.51645000  1.0
  C  C50  1  0.51607000  0.97907000  0.45178000  1.0
  C  C51  1  0.52017000  0.85920000  0.44730000  1.0
  C  C52  1  0.37464000  0.83429000  0.58242000  1.0
  C  C53  1  0.51685000  0.55163000  0.29810000  1.0
  C  C54  1  0.36569000  0.94936000  0.59436000  1.0
  C  C55  1  0.73210000  0.48548000  0.51432000  1.0
  C  C56  1  0.05856000  0.60737000  0.54044000  1.0
  C  C57  1  0.91224000  0.60842000  0.54640000  1.0
  C  C58  1  0.06084000  0.48583000  0.39383000  1.0
  C  C59  1  0.07687000  0.38952000  0.57823000  1.0
  C  C60  1  0.91793000  0.47864000  0.40390000  1.0
  C  C61  1  0.11411000  0.49355000  0.50320000  1.0
  C  C62  1  0.12660000  0.39176000  0.33807000  1.0
  C  C63  1  0.21718000  0.42019000  0.26214000  1.0
  C  C64  1  0.28323000  0.33574000  0.21177000  1.0
  C  C65  1  0.26037000  0.22017000  0.23702000  1.0
  C  C66  1  0.16962000  0.19035000  0.31186000  1.0
  C  C67  1  0.10284000  0.27530000  0.36117000  1.0
  C  C68  1  0.71942000  0.30087000  0.02858000  1.0
  C  C69  1  0.70171000  0.18249000  0.04113000  1.0
  C  C70  1  0.78669000  0.10367000  0.09641000  1.0
  C  C71  1  0.93483000  0.38839000  0.58458000  1.0
  C  C72  1  0.89021000  0.14193000  0.14037000  1.0
  C  C73  1  0.90913000  0.25936000  0.12857000  1.0
  C  C74  1  0.82478000  0.33761000  0.07296000  1.0
  C  C75  1  0.85463000  0.64691000  0.64525000  1.0
  C  C76  1  0.77993000  0.75059000  0.63846000  1.0
  C  C77  1  0.72198000  0.79067000  0.72536000  1.0
  C  C78  1  0.73789000  0.72719000  0.82260000  1.0
  C  C79  1  0.81379000  0.62497000  0.83130000  1.0
  C  C80  1  0.87203000  0.58564000  0.74396000  1.0
  C  C81  1  0.51710000  0.56178000  0.18293000  1.0
  C  C82  1  0.52527000  0.47060000  0.81113000  1.0
  C  C83  1  0.62911000  0.38652000  0.97251000  1.0
  C  C84  1  0.60678000  0.38451000  0.86802000  1.0
  C  C85  1  0.47434000  0.56359000  0.86164000  1.0
  N  N86  1  0.45315000  0.79050000  0.51073000  1.0
  N  N87  1  0.50610000  0.21198000  0.47389000  1.0
  O  O88  1  0.44402000  0.56157000  0.65198000  1.0
  O  O89  1  0.40375000  0.65104000  0.81209000  1.0
  O  O90  1  0.11511000  0.63001000  0.63262000  1.0
  O  O91  1  0.85357000  0.55629000  0.32635000  1.0
  O  O92  1  0.12417000  0.39263000  0.68110000  1.0
  O  O93  1  0.51752000  0.37600000  0.65918000  1.0
  O  O94  1  0.30011000  0.58892000  0.45983000  1.0
  O  O95  1  0.31832000  0.39997000  0.52072000  1.0
  O  O96  1  0.51507000  0.64430000  0.33999000  1.0
  O  O97  1  0.51399000  0.45038000  0.34594000  1.0
  O  O98  1  0.66321000  0.57750000  0.51963000  1.0
  O  O99  1  0.69551000  0.38783000  0.50242000  1.0
  O  O100  1  0.66733000  0.30297000  0.81517000  1.0
