# generated using pymatgen
data_CdH18C24N6Cl2O3
_symmetry_space_group_name_H-M   'P 1'
_cell_length_a   8.55551000
_cell_length_b   10.05170000
_cell_length_c   13.36550000
_cell_angle_alpha   81.62710000
_cell_angle_beta   88.77110000
_cell_angle_gamma   87.63590000
_symmetry_Int_Tables_number   1
_chemical_formula_structural   CdH18C24N6Cl2O3
_chemical_formula_sum   'Cd2 H36 C48 N12 Cl4 O6'
_cell_volume   1136.04097370
_cell_formula_units_Z   2
loop_
 _symmetry_equiv_pos_site_id
 _symmetry_equiv_pos_as_xyz
  1  'x, y, z'
loop_
 _atom_site_type_symbol
 _atom_site_label
 _atom_site_symmetry_multiplicity
 _atom_site_fract_x
 _atom_site_fract_y
 _atom_site_fract_z
 _atom_site_occupancy
  Cd  Cd0  1  0.50000000  0.50000000  0.50000000  1.0
  Cd  Cd1  1  0.50000000  0.00000000  0.50000000  1.0
  H  H2  1  0.64901000  0.72522000  0.17231000  1.0
  H  H3  1  0.35098000  0.27478000  0.82768000  1.0
  H  H4  1  0.55469000  0.36521000  0.17466000  1.0
  H  H5  1  0.44531000  0.63479000  0.82534000  1.0
  H  H6  1  0.81592000  0.42310000  0.72079000  1.0
  H  H7  1  0.18408000  0.57690000  0.27921000  1.0
  H  H8  1  0.81025000  0.12419000  0.41146000  1.0
  H  H9  1  0.18974000  0.87581000  0.58854000  1.0
  H  H10  1  0.97814000  0.14750000  0.25483000  1.0
  H  H11  1  0.02186000  0.85250000  0.74517000  1.0
  H  H12  1  0.94783000  0.98652000  0.13030000  1.0
  H  H13  1  0.05217000  0.01348000  0.86970000  1.0
  H  H14  1  0.59091000  0.79711000  0.33008000  1.0
  H  H15  1  0.40908000  0.20289000  0.66992000  1.0
  H  H16  1  0.97066000  0.71859000  0.90831000  1.0
  H  H17  1  0.02934000  0.28141000  0.09169000  1.0
  H  H18  1  0.75790000  0.34768000  0.86953000  1.0
  H  H19  1  0.24210000  0.65232000  0.13047000  1.0
  H  H20  1  0.64930000  0.53391000  0.13291000  1.0
  H  H21  1  0.35069000  0.46609000  0.86709000  1.0
  H  H22  1  0.39408000  0.09236000  0.04585000  1.0
  H  H23  1  0.60592000  0.90764000  0.95415000  1.0
  H  H24  1  0.24813000  0.90961000  0.14967000  1.0
  H  H25  1  0.75188000  0.09039000  0.85033000  1.0
  H  H26  1  0.23811000  0.89984000  0.33894000  1.0
  H  H27  1  0.76190000  0.10016000  0.66106000  1.0
  H  H28  1  0.49098000  0.24514000  0.32274000  1.0
  H  H29  1  0.50902000  0.75486000  0.67726000  1.0
  H  H30  1  0.84310000  0.28469000  0.59631000  1.0
  H  H31  1  0.15690000  0.71532000  0.40369000  1.0
  H  H32  1  0.00515000  0.20784000  0.45623000  1.0
  H  H33  1  0.99485000  0.79216000  0.54377000  1.0
  H  H34  1  0.27025000  0.30250000  0.41825000  1.0
  H  H35  1  0.72975000  0.69750000  0.58175000  1.0
  H  H36  1  0.22290000  0.53421000  0.65046000  1.0
  H  H37  1  0.77710000  0.46579000  0.34954000  1.0
  C  C38  1  0.80477000  0.05407000  0.35695000  1.0
  C  C39  1  0.19522000  0.94593000  0.64306000  1.0
  C  C40  1  0.89706000  0.06605000  0.26971000  1.0
  C  C41  1  0.10294000  0.93395000  0.73029000  1.0
  C  C42  1  0.87980000  0.97772000  0.20019000  1.0
  C  C43  1  0.12020000  0.02228000  0.79981000  1.0
  C  C44  1  0.77122000  0.87574000  0.22210000  1.0
  C  C45  1  0.22878000  0.12426000  0.77790000  1.0
  C  C46  1  0.67984000  0.87219000  0.31114000  1.0
  C  C47  1  0.32016000  0.12781000  0.68886000  1.0
  C  C48  1  0.84912000  0.75046000  0.08260000  1.0
  C  C49  1  0.15088000  0.24954000  0.91740000  1.0
  C  C50  1  0.80898000  0.63969000  0.02495000  1.0
  C  C51  1  0.19102000  0.36031000  0.97505000  1.0
  C  C52  1  0.88915000  0.63964000  0.93272000  1.0
  C  C53  1  0.11085000  0.36036000  0.06728000  1.0
  C  C54  1  0.87022000  0.53760000  0.87414000  1.0
  C  C55  1  0.12978000  0.46240000  0.12586000  1.0
  C  C56  1  0.77204000  0.43277000  0.90983000  1.0
  C  C57  1  0.22796000  0.56723000  0.09017000  1.0
  C  C58  1  0.69239000  0.43025000  0.00253000  1.0
  C  C59  1  0.30761000  0.56975000  0.99747000  1.0
  C  C60  1  0.70988000  0.53472000  0.06002000  1.0
  C  C61  1  0.29012000  0.46528000  0.93998000  1.0
  C  C62  1  0.59550000  0.30966000  0.03312000  1.0
  C  C63  1  0.40450000  0.69034000  0.96688000  1.0
  C  C64  1  0.44932000  0.18611000  0.17634000  1.0
  C  C65  1  0.55068000  0.81389000  0.82366000  1.0
  C  C66  1  0.38206000  0.08851000  0.12721000  1.0
  C  C67  1  0.61794000  0.91149000  0.87279000  1.0
  C  C68  1  0.30204000  0.98623000  0.18591000  1.0
  C  C69  1  0.69796000  0.01377000  0.81409000  1.0
  C  C70  1  0.29508000  0.98075000  0.29057000  1.0
  C  C71  1  0.70492000  0.01925000  0.70943000  1.0
  C  C72  1  0.43572000  0.17324000  0.28204000  1.0
  C  C73  1  0.56428000  0.82676000  0.71796000  1.0
  C  C74  1  0.97087000  0.53883000  0.78128000  1.0
  C  C75  1  0.02913000  0.46117000  0.21872000  1.0
  C  C76  1  0.02091000  0.41374000  0.63663000  1.0
  C  C77  1  0.97910000  0.58626000  0.36337000  1.0
  C  C78  1  0.96080000  0.32065000  0.58024000  1.0
  C  C79  1  0.03920000  0.67935000  0.41976000  1.0
  C  C80  1  0.04957000  0.27907000  0.50152000  1.0
  C  C81  1  0.95044000  0.72093000  0.49848000  1.0
  C  C82  1  0.19649000  0.33102000  0.47959000  1.0
  C  C83  1  0.80352000  0.66898000  0.52041000  1.0
  C  C84  1  0.17052000  0.46155000  0.61012000  1.0
  C  C85  1  0.82949000  0.53845000  0.38988000  1.0
  N  N86  1  0.69618000  0.96018000  0.37616000  1.0
  N  N87  1  0.30382000  0.03982000  0.62384000  1.0
  N  N88  1  0.74789000  0.77905000  0.15875000  1.0
  N  N89  1  0.25210000  0.22095000  0.84125000  1.0
  N  N90  1  0.53270000  0.29500000  0.12913000  1.0
  N  N91  1  0.46730000  0.70500000  0.87087000  1.0
  N  N92  1  0.36318000  0.07207000  0.33813000  1.0
  N  N93  1  0.63682000  0.92793000  0.66187000  1.0
  N  N94  1  0.93017000  0.45241000  0.71620000  1.0
  N  N95  1  0.06983000  0.54759000  0.28380000  1.0
  N  N96  1  0.25370000  0.42010000  0.53345000  1.0
  N  N97  1  0.74630000  0.57990000  0.46655000  1.0
  Cl  Cl98  1  0.39911000  0.75722000  0.50022000  1.0
  Cl  Cl99  1  0.60089000  0.24278000  0.49978000  1.0
  Cl  Cl100  1  0.45621000  0.53803000  0.29656000  1.0
  Cl  Cl101  1  0.54379000  0.46198000  0.70344000  1.0
  O  O102  1  0.97110000  0.81150000  0.06095000  1.0
  O  O103  1  0.02890000  0.18850000  0.93905000  1.0
  O  O104  1  0.57551000  0.22789000  0.97384000  1.0
  O  O105  1  0.42449000  0.77211000  0.02616000  1.0
  O  O106  1  0.08712000  0.60958000  0.76769000  1.0
  O  O107  1  0.91289000  0.39042000  0.23231000  1.0
