# generated using pymatgen
data_YH15C15NO8
_symmetry_space_group_name_H-M   'P 1'
_cell_length_a   8.58080000
_cell_length_b   10.21850000
_cell_length_c   10.91960000
_cell_angle_alpha   64.23300000
_cell_angle_beta   71.07140000
_cell_angle_gamma   79.90850000
_symmetry_Int_Tables_number   1
_chemical_formula_structural   YH15C15NO8
_chemical_formula_sum   'Y2 H30 C30 N2 O16'
_cell_volume   814.97533929
_cell_formula_units_Z   2
loop_
 _symmetry_equiv_pos_site_id
 _symmetry_equiv_pos_as_xyz
  1  'x, y, z'
loop_
 _atom_site_type_symbol
 _atom_site_label
 _atom_site_symmetry_multiplicity
 _atom_site_fract_x
 _atom_site_fract_y
 _atom_site_fract_z
 _atom_site_occupancy
  Y  Y0  1  0.63764000  0.94129000  0.65179000  1.0
  Y  Y1  1  0.36236000  0.05870000  0.34822000  1.0
  H  H2  1  0.43992000  0.25743000  0.70094000  1.0
  H  H3  1  0.56007000  0.74256000  0.29906000  1.0
  H  H4  1  0.49723000  0.53432000  0.26135000  1.0
  H  H5  1  0.50277000  0.46567000  0.73865000  1.0
  H  H6  1  0.05213000  0.83089000  0.88181000  1.0
  H  H7  1  0.94787000  0.16912000  0.11819000  1.0
  H  H8  1  0.23449000  0.12993000  0.97827000  1.0
  H  H9  1  0.76550000  0.87008000  0.02173000  1.0
  H  H10  1  0.70664000  0.56756000  0.08875000  1.0
  H  H11  1  0.29338000  0.43244000  0.91125000  1.0
  H  H12  1  0.15087000  0.63426000  0.74644000  1.0
  H  H13  1  0.84915000  0.36574000  0.25355000  1.0
  H  H14  1  0.64088000  0.16174000  0.83146000  1.0
  H  H15  1  0.35912000  0.83826000  0.16854000  1.0
  H  H16  1  0.70351000  0.32161000  0.88923000  1.0
  H  H17  1  0.29649000  0.67840000  0.11077000  1.0
  H  H18  1  0.79872000  0.47225000  0.73386000  1.0
  H  H19  1  0.20128000  0.52775000  0.26613000  1.0
  H  H20  1  0.91692000  0.34905000  0.84948000  1.0
  H  H21  1  0.08308000  0.65096000  0.15052000  1.0
  H  H22  1  0.04007000  0.20103000  0.57727000  1.0
  H  H23  1  0.95993000  0.79898000  0.42273000  1.0
  H  H24  1  0.11583000  0.27998000  0.66418000  1.0
  H  H25  1  0.88417000  0.72002000  0.33581000  1.0
  H  H26  1  0.02040000  0.39267000  0.52780000  1.0
  H  H27  1  0.97960000  0.60733000  0.47220000  1.0
  H  H28  1  0.76241000  0.08037000  0.34440000  1.0
  H  H29  1  0.23759000  0.91963000  0.65559000  1.0
  H  H30  1  0.91654000  0.09665000  0.38944000  1.0
  H  H31  1  0.08346000  0.90335000  0.61056000  1.0
  C  C32  1  0.43273000  0.26145000  0.45158000  1.0
  C  C33  1  0.56727000  0.73853000  0.54842000  1.0
  C  C34  1  0.46698000  0.38379000  0.47798000  1.0
  C  C35  1  0.53302000  0.61619000  0.52203000  1.0
  C  C36  1  0.46706000  0.36367000  0.61333000  1.0
  C  C37  1  0.53293000  0.63631000  0.38668000  1.0
  C  C38  1  0.49911000  0.52068000  0.36544000  1.0
  C  C39  1  0.50089000  0.47931000  0.63456000  1.0
  C  C40  1  0.32792000  0.95562000  0.83634000  1.0
  C  C41  1  0.67208000  0.04438000  0.16367000  1.0
  C  C42  1  0.15864000  0.97911000  0.92051000  1.0
  C  C43  1  0.84135000  0.02090000  0.07948000  1.0
  C  C44  1  0.02724000  0.90538000  0.93339000  1.0
  C  C45  1  0.97276000  0.09464000  0.06660000  1.0
  C  C46  1  0.13107000  0.07439000  0.98747000  1.0
  C  C47  1  0.86893000  0.92561000  0.01253000  1.0
  C  C48  1  0.82999000  0.73501000  0.81647000  1.0
  C  C49  1  0.17002000  0.26499000  0.18353000  1.0
  C  C50  1  0.91938000  0.61292000  0.90915000  1.0
  C  C51  1  0.08064000  0.38708000  0.09085000  1.0
  C  C52  1  0.83534000  0.53661000  0.05180000  1.0
  C  C53  1  0.16467000  0.46340000  0.94819000  1.0
  C  C54  1  0.08530000  0.57535000  0.85734000  1.0
  C  C55  1  0.91472000  0.42465000  0.14266000  1.0
  C  C56  1  0.75490000  0.17257000  0.74451000  1.0
  C  C57  1  0.24510000  0.82744000  0.25548000  1.0
  C  C58  1  0.81749000  0.35777000  0.80324000  1.0
  C  C59  1  0.18250000  0.64223000  0.19675000  1.0
  C  C60  1  0.01834000  0.28614000  0.61685000  1.0
  C  C61  1  0.98166000  0.71386000  0.38315000  1.0
  N  N62  1  0.85986000  0.26680000  0.72406000  1.0
  N  N63  1  0.14014000  0.73320000  0.27594000  1.0
  O  O64  1  0.47468000  0.13035000  0.52390000  1.0
  O  O65  1  0.52530000  0.86963000  0.47611000  1.0
  O  O66  1  0.36179000  0.28998000  0.35684000  1.0
  O  O67  1  0.63821000  0.71002000  0.64316000  1.0
  O  O68  1  0.35129000  0.87354000  0.76913000  1.0
  O  O69  1  0.64871000  0.12645000  0.23087000  1.0
  O  O70  1  0.44805000  0.01806000  0.82950000  1.0
  O  O71  1  0.55195000  0.98193000  0.17051000  1.0
  O  O72  1  0.90363000  0.80867000  0.68577000  1.0
  O  O73  1  0.09639000  0.19133000  0.31423000  1.0
  O  O74  1  0.67950000  0.76481000  0.86967000  1.0
  O  O75  1  0.32051000  0.23518000  0.13033000  1.0
  O  O76  1  0.78164000  0.09943000  0.67168000  1.0
  O  O77  1  0.21836000  0.90057000  0.32832000  1.0
  O  O78  1  0.81570000  0.04116000  0.42299000  1.0
  O  O79  1  0.18430000  0.95884000  0.57701000  1.0
