# generated using pymatgen
data_ErH16C18N3O8
_symmetry_space_group_name_H-M   'P 1'
_cell_length_a   9.55765000
_cell_length_b   11.76100000
_cell_length_c   11.76752959
_cell_angle_alpha   119.98293762
_cell_angle_beta   112.59278243
_cell_angle_gamma   89.99700000
_symmetry_Int_Tables_number   1
_chemical_formula_structural   ErH16C18N3O8
_chemical_formula_sum   'Er2 H32 C36 N6 O16'
_cell_volume   1026.89410137
_cell_formula_units_Z   2
loop_
 _symmetry_equiv_pos_site_id
 _symmetry_equiv_pos_as_xyz
  1  'x, y, z'
loop_
 _atom_site_type_symbol
 _atom_site_label
 _atom_site_symmetry_multiplicity
 _atom_site_fract_x
 _atom_site_fract_y
 _atom_site_fract_z
 _atom_site_occupancy
  Er  Er0  1  0.25000000  0.50403000  0.99999000  1.0
  Er  Er1  1  0.75000000  0.49596000  0.00001000  1.0
  H  H2  1  0.50102000  0.70348000  0.07213000  1.0
  H  H3  1  0.99895000  0.63134000  0.92787000  1.0
  H  H4  1  0.49898000  0.29653000  0.92789000  1.0
  H  H5  1  0.00104000  0.36865000  0.07213000  1.0
  H  H6  1  0.44728000  0.79980000  0.19017000  1.0
  H  H7  1  0.05270000  0.60965000  0.80985000  1.0
  H  H8  1  0.55269000  0.20020000  0.80982000  1.0
  H  H9  1  0.94732000  0.39037000  0.19018000  1.0
  H  H10  1  0.40372000  0.07360000  0.36085000  1.0
  H  H11  1  0.09624000  0.71277000  0.63919000  1.0
  H  H12  1  0.59625000  0.92643000  0.63919000  1.0
  H  H13  1  0.90374000  0.28725000  0.36082000  1.0
  H  H14  1  0.59130000  0.27843000  0.60259000  1.0
  H  H15  1  0.90869000  0.67584000  0.39744000  1.0
  H  H16  1  0.40870000  0.72161000  0.39745000  1.0
  H  H17  1  0.09130000  0.32417000  0.60257000  1.0
  H  H18  1  0.94750000  0.05431000  0.58757000  1.0
  H  H19  1  0.55248000  0.46671000  0.41239000  1.0
  H  H20  1  0.05246000  0.94569000  0.41240000  1.0
  H  H21  1  0.44753000  0.53327000  0.58760000  1.0
  H  H22  1  0.74255000  0.85477000  0.35009000  1.0
  H  H23  1  0.75742000  0.50467000  0.64990000  1.0
  H  H24  1  0.25739000  0.14524000  0.64988000  1.0
  H  H25  1  0.24259000  0.49534000  0.35011000  1.0
  H  H26  1  0.35085000  0.83614000  0.85781000  1.0
  H  H27  1  0.14923000  0.97824000  0.14210000  1.0
  H  H28  1  0.64920000  0.16385000  0.14217000  1.0
  H  H29  1  0.85083000  0.02173000  0.85790000  1.0
  H  H30  1  0.35654000  0.04709000  0.85239000  1.0
  H  H31  1  0.14348000  0.19463000  0.14755000  1.0
  H  H32  1  0.64347000  0.95290000  0.14758000  1.0
  H  H33  1  0.85654000  0.80533000  0.85243000  1.0
  C  C34  1  0.52531000  0.07305000  0.41494000  1.0
  C  C35  1  0.97466000  0.65812000  0.58508000  1.0
  C  C36  1  0.47466000  0.92698000  0.58509000  1.0
  C  C37  1  0.02533000  0.34189000  0.41492000  1.0
  C  C38  1  0.62932000  0.18711000  0.54761000  1.0
  C  C39  1  0.87066000  0.63950000  0.45241000  1.0
  C  C40  1  0.37067000  0.81291000  0.45241000  1.0
  C  C41  1  0.12933000  0.36051000  0.54760000  1.0
  C  C42  1  0.78423000  0.18139000  0.61120000  1.0
  C  C43  1  0.71575000  0.57018000  0.38878000  1.0
  C  C44  1  0.21576000  0.81862000  0.38879000  1.0
  C  C45  1  0.28424000  0.42983000  0.61122000  1.0
  C  C46  1  0.82748000  0.06108000  0.53979000  1.0
  C  C47  1  0.67251000  0.52128000  0.46020000  1.0
  C  C48  1  0.17250000  0.93893000  0.46020000  1.0
  C  C49  1  0.32749000  0.47873000  0.53980000  1.0
  C  C50  1  0.71440000  0.95106000  0.40922000  1.0
  C  C51  1  0.78558000  0.54183000  0.59076000  1.0
  C  C52  1  0.28556000  0.04895000  0.59077000  1.0
  C  C53  1  0.21442000  0.45816000  0.40923000  1.0
  C  C54  1  0.90129000  0.30162000  0.75507000  1.0
  C  C55  1  0.59870000  0.54655000  0.24492000  1.0
  C  C56  1  0.09871000  0.69837000  0.24492000  1.0
  C  C57  1  0.40129000  0.45346000  0.75509000  1.0
  C  C58  1  0.30515000  0.91791000  0.92054000  1.0
  C  C59  1  0.19494000  0.99732000  0.07940000  1.0
  C  C60  1  0.69491000  0.08209000  0.07946000  1.0
  C  C61  1  0.80512000  0.00268000  0.92061000  1.0
  C  C62  1  0.30847000  0.03463000  0.91690000  1.0
  C  C63  1  0.19158000  0.11767000  0.08305000  1.0
  C  C64  1  0.69156000  0.96537000  0.08309000  1.0
  C  C65  1  0.80845000  0.88230000  0.91694000  1.0
  C  C66  1  0.25003000  0.13690000  0.99998000  1.0
  C  C67  1  0.74999000  0.86307000  0.00000000  1.0
  C  C68  1  0.25000000  0.26399000  0.99999000  1.0
  C  C69  1  0.74999000  0.73599000  0.99999000  1.0
  N  N70  1  0.56556000  0.95670000  0.34714000  1.0
  N  N71  1  0.93441000  0.60956000  0.65287000  1.0
  N  N72  1  0.43439000  0.04332000  0.65287000  1.0
  N  N73  1  0.06559000  0.39045000  0.34714000  1.0
  N  N74  1  0.25005000  0.89840000  0.99996000  1.0
  N  N75  1  0.75001000  0.10157000  0.00003000  1.0
  O  O76  1  0.84938000  0.37932000  0.84352000  1.0
  O  O77  1  0.65062000  0.53580000  0.15648000  1.0
  O  O78  1  0.15064000  0.62068000  0.15650000  1.0
  O  O79  1  0.34937000  0.46420000  0.84351000  1.0
  O  O80  1  0.04257000  0.31712000  0.77804000  1.0
  O  O81  1  0.45741000  0.53905000  0.22194000  1.0
  O  O82  1  0.95741000  0.68288000  0.22195000  1.0
  O  O83  1  0.54259000  0.46093000  0.77805000  1.0
  O  O84  1  0.32899000  0.29140000  0.94701000  1.0
  O  O85  1  0.17101000  0.34435000  0.05297000  1.0
  O  O86  1  0.67100000  0.70860000  0.05298000  1.0
  O  O87  1  0.82896000  0.65560000  0.94700000  1.0
  O  O88  1  0.41817000  0.70531000  0.10307000  1.0
  O  O89  1  0.08183000  0.60227000  0.89696000  1.0
  O  O90  1  0.58184000  0.29468000  0.89695000  1.0
  O  O91  1  0.91818000  0.39775000  0.10307000  1.0
