# generated using pymatgen
data_ZnPH11C11(NO)4
_symmetry_space_group_name_H-M   'P 1'
_cell_length_a   14.05900000
_cell_length_b   15.62600000
_cell_length_c   18.46540000
_cell_angle_alpha   90.00000000
_cell_angle_beta   90.00000000
_cell_angle_gamma   90.00000000
_symmetry_Int_Tables_number   1
_chemical_formula_structural   ZnPH11C11(NO)4
_chemical_formula_sum   'Zn8 P8 H88 C88 N32 O32'
_cell_volume   4056.58864568
_cell_formula_units_Z   8
loop_
 _symmetry_equiv_pos_site_id
 _symmetry_equiv_pos_as_xyz
  1  'x, y, z'
loop_
 _atom_site_type_symbol
 _atom_site_label
 _atom_site_symmetry_multiplicity
 _atom_site_fract_x
 _atom_site_fract_y
 _atom_site_fract_z
 _atom_site_occupancy
  Zn  Zn0  1  0.16558000  0.04181000  0.35846000  1.0
  Zn  Zn1  1  0.66558000  0.45819000  0.64154000  1.0
  Zn  Zn2  1  0.83442000  0.54181000  0.14154000  1.0
  Zn  Zn3  1  0.33442000  0.95819000  0.85846000  1.0
  Zn  Zn4  1  0.83442000  0.95819000  0.64154000  1.0
  Zn  Zn5  1  0.33442000  0.54181000  0.35846000  1.0
  Zn  Zn6  1  0.16558000  0.45819000  0.85846000  1.0
  Zn  Zn7  1  0.66558000  0.04181000  0.14154000  1.0
  P  P8  1  0.34496000  0.99766000  0.46187000  1.0
  P  P9  1  0.84496000  0.50234000  0.53813000  1.0
  P  P10  1  0.65504000  0.49766000  0.03813000  1.0
  P  P11  1  0.15504000  0.00234000  0.96187000  1.0
  P  P12  1  0.65504000  0.00234000  0.53813000  1.0
  P  P13  1  0.15504000  0.49766000  0.46187000  1.0
  P  P14  1  0.34496000  0.50234000  0.96187000  1.0
  P  P15  1  0.84496000  0.99766000  0.03813000  1.0
  H  H16  1  0.48346000  0.91875000  0.48273000  1.0
  H  H17  1  0.98346000  0.58125000  0.51727000  1.0
  H  H18  1  0.51654000  0.41875000  0.01727000  1.0
  H  H19  1  0.01654000  0.08125000  0.98273000  1.0
  H  H20  1  0.51654000  0.08125000  0.51727000  1.0
  H  H21  1  0.01654000  0.41875000  0.48273000  1.0
  H  H22  1  0.48346000  0.58125000  0.98273000  1.0
  H  H23  1  0.98346000  0.91875000  0.01727000  1.0
  H  H24  1  0.19464000  0.96858000  0.51005000  1.0
  H  H25  1  0.69464000  0.53142000  0.48995000  1.0
  H  H26  1  0.80536000  0.46858000  0.98995000  1.0
  H  H27  1  0.30536000  0.03142000  0.01005000  1.0
  H  H28  1  0.80536000  0.03142000  0.48995000  1.0
  H  H29  1  0.30536000  0.46858000  0.51005000  1.0
  H  H30  1  0.19464000  0.53142000  0.01005000  1.0
  H  H31  1  0.69464000  0.96858000  0.98995000  1.0
  H  H32  1  0.53439000  0.78015000  0.46548000  1.0
  H  H33  1  0.03439000  0.71985000  0.53452000  1.0
  H  H34  1  0.46561000  0.28015000  0.03452000  1.0
  H  H35  1  0.96561000  0.21985000  0.96548000  1.0
  H  H36  1  0.46561000  0.21985000  0.53452000  1.0
  H  H37  1  0.96561000  0.28015000  0.46548000  1.0
  H  H38  1  0.53439000  0.71985000  0.96548000  1.0
  H  H39  1  0.03439000  0.78015000  0.03452000  1.0
  H  H40  1  0.49648000  0.63198000  0.42725000  1.0
  H  H41  1  0.99648000  0.86802000  0.57275000  1.0
  H  H42  1  0.50352000  0.13198000  0.07275000  1.0
  H  H43  1  0.00352000  0.36802000  0.92725000  1.0
  H  H44  1  0.50351000  0.36802000  0.57275000  1.0
  H  H45  1  0.00352000  0.13198000  0.42725000  1.0
  H  H46  1  0.49648000  0.86802000  0.92725000  1.0
  H  H47  1  0.99648000  0.63198000  0.07275000  1.0
  H  H48  1  0.21542000  0.69643000  0.38337000  1.0
  H  H49  1  0.71542000  0.80357000  0.61663000  1.0
  H  H50  1  0.78458000  0.19643000  0.11663000  1.0
  H  H51  1  0.28458000  0.30357000  0.88337000  1.0
  H  H52  1  0.78458000  0.30357000  0.61663000  1.0
  H  H53  1  0.28458000  0.19643000  0.38337000  1.0
  H  H54  1  0.21542000  0.80357000  0.88337000  1.0
  H  H55  1  0.71542000  0.69643000  0.11663000  1.0
  H  H56  1  0.24158000  0.84718000  0.41854000  1.0
  H  H57  1  0.74158000  0.65282000  0.58146000  1.0
  H  H58  1  0.75842000  0.34718000  0.08146000  1.0
  H  H59  1  0.25842000  0.15282000  0.91854000  1.0
  H  H60  1  0.75842000  0.15282000  0.58146000  1.0
  H  H61  1  0.25842000  0.34718000  0.41854000  1.0
  H  H62  1  0.24158000  0.65282000  0.91854000  1.0
  H  H63  1  0.74158000  0.84718000  0.08146000  1.0
  H  H64  1  0.13081000  0.96123000  0.63003000  1.0
  H  H65  1  0.63081000  0.53877000  0.36997000  1.0
  H  H66  1  0.86919000  0.46123000  0.86997000  1.0
  H  H67  1  0.36919000  0.03877000  0.13003000  1.0
  H  H68  1  0.86919000  0.03877000  0.36997000  1.0
  H  H69  1  0.36919000  0.46123000  0.63003000  1.0
  H  H70  1  0.13081000  0.53877000  0.13003000  1.0
  H  H71  1  0.63081000  0.96123000  0.86997000  1.0
  H  H72  1  0.16431000  0.95020000  0.76182000  1.0
  H  H73  1  0.66431000  0.54980000  0.23818000  1.0
  H  H74  1  0.83569000  0.45020000  0.73818000  1.0
  H  H75  1  0.33569000  0.04980000  0.26182000  1.0
  H  H76  1  0.83569000  0.04980000  0.23818000  1.0
  H  H77  1  0.33569000  0.45020000  0.76182000  1.0
  H  H78  1  0.16431000  0.54980000  0.26182000  1.0
  H  H79  1  0.66431000  0.95020000  0.73818000  1.0
  H  H80  1  0.45483000  0.97236000  0.72876000  1.0
  H  H81  1  0.95483000  0.52764000  0.27124000  1.0
  H  H82  1  0.54517000  0.47236000  0.77124000  1.0
  H  H83  1  0.04517000  0.02764000  0.22876000  1.0
  H  H84  1  0.54517000  0.02764000  0.27124000  1.0
  H  H85  1  0.04517000  0.47236000  0.72876000  1.0
  H  H86  1  0.45483000  0.52764000  0.22876000  1.0
  H  H87  1  0.95483000  0.97236000  0.77124000  1.0
  H  H88  1  0.43559000  0.98406000  0.59664000  1.0
  H  H89  1  0.93559000  0.51594000  0.40336000  1.0
  H  H90  1  0.56441000  0.48406000  0.90336000  1.0
  H  H91  1  0.06441000  0.01594000  0.09664000  1.0
  H  H92  1  0.56441000  0.01594000  0.40336000  1.0
  H  H93  1  0.06441000  0.48406000  0.59664000  1.0
  H  H94  1  0.43559000  0.51594000  0.09664000  1.0
  H  H95  1  0.93559000  0.98406000  0.90336000  1.0
  H  H96  1  0.96494000  0.89448000  0.42562000  1.0
  H  H97  1  0.46494000  0.60552000  0.57438000  1.0
  H  H98  1  0.03506000  0.39448000  0.07438000  1.0
  H  H99  1  0.53506000  0.10552000  0.92562000  1.0
  H  H100  1  0.03506000  0.10552000  0.57438000  1.0
  H  H101  1  0.53506000  0.39448000  0.42562000  1.0
  H  H102  1  0.96494000  0.60552000  0.92562000  1.0
  H  H103  1  0.46493000  0.89448000  0.07438000  1.0
  C  C104  1  0.39216000  0.82803000  0.44323000  1.0
  C  C105  1  0.89216000  0.67197000  0.55677000  1.0
  C  C106  1  0.60784000  0.32803000  0.05677000  1.0
  C  C107  1  0.10784000  0.17197000  0.94323000  1.0
  C  C108  1  0.60784000  0.17197000  0.55677000  1.0
  C  C109  1  0.10784000  0.32803000  0.44323000  1.0
  C  C110  1  0.39216000  0.67197000  0.94323000  1.0
  C  C111  1  0.89216000  0.82803000  0.05677000  1.0
  C  C112  1  0.46324000  0.76413000  0.44640000  1.0
  C  C113  1  0.96324000  0.73587000  0.55360000  1.0
  C  C114  1  0.53676000  0.26413000  0.05360000  1.0
  C  C115  1  0.03676000  0.23587000  0.94640000  1.0
  C  C116  1  0.53676000  0.23587000  0.55360000  1.0
  C  C117  1  0.03676000  0.26413000  0.44640000  1.0
  C  C118  1  0.46324000  0.73587000  0.94640000  1.0
  C  C119  1  0.96324000  0.76413000  0.05360000  1.0
  C  C120  1  0.44246000  0.68187000  0.42460000  1.0
  C  C121  1  0.94246000  0.81813000  0.57540000  1.0
  C  C122  1  0.55754000  0.18187000  0.07540000  1.0
  C  C123  1  0.05754000  0.31813000  0.92460000  1.0
  C  C124  1  0.55754000  0.31813000  0.57540000  1.0
  C  C125  1  0.05754000  0.18187000  0.42460000  1.0
  C  C126  1  0.44246000  0.81813000  0.92460000  1.0
  C  C127  1  0.94246000  0.68187000  0.07540000  1.0
  C  C128  1  0.28569000  0.71808000  0.40044000  1.0
  C  C129  1  0.78569000  0.78192000  0.59956000  1.0
  C  C130  1  0.71431000  0.21808000  0.09956000  1.0
  C  C131  1  0.21431000  0.28192000  0.90044000  1.0
  C  C132  1  0.71431000  0.28192000  0.59956000  1.0
  C  C133  1  0.21431000  0.21808000  0.40044000  1.0
  C  C134  1  0.28569000  0.78192000  0.90044000  1.0
  C  C135  1  0.78569000  0.71808000  0.09956000  1.0
  C  C136  1  0.30042000  0.80211000  0.42066000  1.0
  C  C137  1  0.80042000  0.69789000  0.57934000  1.0
  C  C138  1  0.69958000  0.30211000  0.07934000  1.0
  C  C139  1  0.19958000  0.19789000  0.92066000  1.0
  C  C140  1  0.69958000  0.19789000  0.57934000  1.0
  C  C141  1  0.19958000  0.30211000  0.42066000  1.0
  C  C142  1  0.30042000  0.69789000  0.92066000  1.0
  C  C143  1  0.80042000  0.80211000  0.07934000  1.0
  C  C144  1  0.28032000  0.97411000  0.60043000  1.0
  C  C145  1  0.78032000  0.52589000  0.39957000  1.0
  C  C146  1  0.71968000  0.47411000  0.89957000  1.0
  C  C147  1  0.21968000  0.02589000  0.10043000  1.0
  C  C148  1  0.71968000  0.02589000  0.39957000  1.0
  C  C149  1  0.21968000  0.47411000  0.60043000  1.0
  C  C150  1  0.28032000  0.52589000  0.10043000  1.0
  C  C151  1  0.78032000  0.97411000  0.89957000  1.0
  C  C152  1  0.20395000  0.96307000  0.64946000  1.0
  C  C153  1  0.70395000  0.53693000  0.35054000  1.0
  C  C154  1  0.79605000  0.46307000  0.85054000  1.0
  C  C155  1  0.29605000  0.03693000  0.14946000  1.0
  C  C156  1  0.79605000  0.03693000  0.35054000  1.0
  C  C157  1  0.29605000  0.46307000  0.64946000  1.0
  C  C158  1  0.20395000  0.53693000  0.14946000  1.0
  C  C159  1  0.70395000  0.96307000  0.85054000  1.0
  C  C160  1  0.22203000  0.95668000  0.72274000  1.0
  C  C161  1  0.72203000  0.54332000  0.27726000  1.0
  C  C162  1  0.77797000  0.45668000  0.77726000  1.0
  C  C163  1  0.27797000  0.04332000  0.22274000  1.0
  C  C164  1  0.77797000  0.04332000  0.27726000  1.0
  C  C165  1  0.27797000  0.45668000  0.72274000  1.0
  C  C166  1  0.22203000  0.54332000  0.22274000  1.0
  C  C167  1  0.72203000  0.95668000  0.77726000  1.0
  C  C168  1  0.38426000  0.96944000  0.70439000  1.0
  C  C169  1  0.88426000  0.53056000  0.29561000  1.0
  C  C170  1  0.61574000  0.46944000  0.79561000  1.0
  C  C171  1  0.11574000  0.03056000  0.20439000  1.0
  C  C172  1  0.61574000  0.03056000  0.29561000  1.0
  C  C173  1  0.11574000  0.46944000  0.70439000  1.0
  C  C174  1  0.38426000  0.53056000  0.20439000  1.0
  C  C175  1  0.88426000  0.96944000  0.79561000  1.0
  C  C176  1  0.37285000  0.97660000  0.63042000  1.0
  C  C177  1  0.87286000  0.52340000  0.36958000  1.0
  C  C178  1  0.62714000  0.47660000  0.86958000  1.0
  C  C179  1  0.12715000  0.02340000  0.13042000  1.0
  C  C180  1  0.62714000  0.02340000  0.36958000  1.0
  C  C181  1  0.12715000  0.47660000  0.63042000  1.0
  C  C182  1  0.37285000  0.52340000  0.13042000  1.0
  C  C183  1  0.87286000  0.97660000  0.86958000  1.0
  C  C184  1  0.03241000  0.93151000  0.42532000  1.0
  C  C185  1  0.53241000  0.56849000  0.57468000  1.0
  C  C186  1  0.96759000  0.43151000  0.07468000  1.0
  C  C187  1  0.46759000  0.06849000  0.92532000  1.0
  C  C188  1  0.96759000  0.06849000  0.57468000  1.0
  C  C189  1  0.46759000  0.43151000  0.42532000  1.0
  C  C190  1  0.03241000  0.56849000  0.92532000  1.0
  C  C191  1  0.53241000  0.93151000  0.07468000  1.0
  N  N192  1  0.41513000  0.91021000  0.46180000  1.0
  N  N193  1  0.91513000  0.58979000  0.53820000  1.0
  N  N194  1  0.58487000  0.41021000  0.03820000  1.0
  N  N195  1  0.08487000  0.08979000  0.96180000  1.0
  N  N196  1  0.58487000  0.08979000  0.53820000  1.0
  N  N197  1  0.08487000  0.41021000  0.46180000  1.0
  N  N198  1  0.41513000  0.58979000  0.96180000  1.0
  N  N199  1  0.91513000  0.91021000  0.03820000  1.0
  N  N200  1  0.26313000  0.98189000  0.52780000  1.0
  N  N201  1  0.76313000  0.51811000  0.47220000  1.0
  N  N202  1  0.73687000  0.48189000  0.97220000  1.0
  N  N203  1  0.23687000  0.01811000  0.02780000  1.0
  N  N204  1  0.73687000  0.01811000  0.47220000  1.0
  N  N205  1  0.23687000  0.48189000  0.52780000  1.0
  N  N206  1  0.26313000  0.51811000  0.02780000  1.0
  N  N207  1  0.76313000  0.98189000  0.97220000  1.0
  N  N208  1  0.35516000  0.65810000  0.40083000  1.0
  N  N209  1  0.85516000  0.84190000  0.59917000  1.0
  N  N210  1  0.64484000  0.15810000  0.09917000  1.0
  N  N211  1  0.14484000  0.34190000  0.90083000  1.0
  N  N212  1  0.64484000  0.34190000  0.59917000  1.0
  N  N213  1  0.14484000  0.15810000  0.40083000  1.0
  N  N214  1  0.35516000  0.84190000  0.90084000  1.0
  N  N215  1  0.85516000  0.65810000  0.09917000  1.0
  N  N216  1  0.31085000  0.95979000  0.75097000  1.0
  N  N217  1  0.81085000  0.54021000  0.24903000  1.0
  N  N218  1  0.68915000  0.45979000  0.74903000  1.0
  N  N219  1  0.18915000  0.04021000  0.25097000  1.0
  N  N220  1  0.68915000  0.04021000  0.24903000  1.0
  N  N221  1  0.18915000  0.45979000  0.75097000  1.0
  N  N222  1  0.31085000  0.54021000  0.25097000  1.0
  N  N223  1  0.81085000  0.95979000  0.74903000  1.0
  O  O224  1  0.40802000  0.07209000  0.47846000  1.0
  O  O225  1  0.90802000  0.42791000  0.52154000  1.0
  O  O226  1  0.59198000  0.57209000  0.02154000  1.0
  O  O227  1  0.09198000  0.92791000  0.97846000  1.0
  O  O228  1  0.59198000  0.92791000  0.52154000  1.0
  O  O229  1  0.09198000  0.57209000  0.47846000  1.0
  O  O230  1  0.40802000  0.42791000  0.97846000  1.0
  O  O231  1  0.90802000  0.07209000  0.02154000  1.0
  O  O232  1  0.28755000  0.99661000  0.39222000  1.0
  O  O233  1  0.78755000  0.50339000  0.60778000  1.0
  O  O234  1  0.71245000  0.49661000  0.10778000  1.0
  O  O235  1  0.21245000  0.00339000  0.89222000  1.0
  O  O236  1  0.71245000  0.00339000  0.60778000  1.0
  O  O237  1  0.21245000  0.49661000  0.39222000  1.0
  O  O238  1  0.28755000  0.50339000  0.89222000  1.0
  O  O239  1  0.78755000  0.99661000  0.10778000  1.0
  O  O240  1  0.04640000  0.97529000  0.36714000  1.0
  O  O241  1  0.54640000  0.52471000  0.63285000  1.0
  O  O242  1  0.95360000  0.47529000  0.13286000  1.0
  O  O243  1  0.45360000  0.02471000  0.86715000  1.0
  O  O244  1  0.95360000  0.02471000  0.63286000  1.0
  O  O245  1  0.45360000  0.47529000  0.36715000  1.0
  O  O246  1  0.04640000  0.52471000  0.86715000  1.0
  O  O247  1  0.54640000  0.97529000  0.13285000  1.0
  O  O248  1  0.08606000  0.92709000  0.47913000  1.0
  O  O249  1  0.58606000  0.57291000  0.52087000  1.0
  O  O250  1  0.91394000  0.42709000  0.02087000  1.0
  O  O251  1  0.41394000  0.07291000  0.97913000  1.0
  O  O252  1  0.91394000  0.07291000  0.52087000  1.0
  O  O253  1  0.41394000  0.42709000  0.47913000  1.0
  O  O254  1  0.08606000  0.57291000  0.97913000  1.0
  O  O255  1  0.58606000  0.92709000  0.02087000  1.0
