# generated using pymatgen
data_CuH12C6(BrN4)2
_symmetry_space_group_name_H-M   'P 1'
_cell_length_a   6.91140000
_cell_length_b   7.60080000
_cell_length_c   12.31000000
_cell_angle_alpha   102.13400000
_cell_angle_beta   89.99930000
_cell_angle_gamma   89.99990000
_symmetry_Int_Tables_number   1
_chemical_formula_structural   CuH12C6(BrN4)2
_chemical_formula_sum   'Cu2 H24 C12 Br4 N16'
_cell_volume   632.22351444
_cell_formula_units_Z   2
loop_
 _symmetry_equiv_pos_site_id
 _symmetry_equiv_pos_as_xyz
  1  'x, y, z'
loop_
 _atom_site_type_symbol
 _atom_site_label
 _atom_site_symmetry_multiplicity
 _atom_site_fract_x
 _atom_site_fract_y
 _atom_site_fract_z
 _atom_site_occupancy
  Cu  Cu0  1  0.00001000  0.00000000  0.00000000  1.0
  Cu  Cu1  1  0.49999000  0.50001000  0.00000000  1.0
  H  H2  1  0.54105000  0.98632000  0.62288000  1.0
  H  H3  1  0.04098000  0.51370000  0.37715000  1.0
  H  H4  1  0.45897000  0.01369000  0.37713000  1.0
  H  H5  1  0.95898000  0.48630000  0.62287000  1.0
  H  H6  1  0.66248000  0.92396000  0.73643000  1.0
  H  H7  1  0.16245000  0.57601000  0.26359000  1.0
  H  H8  1  0.33753000  0.07602000  0.26358000  1.0
  H  H9  1  0.83753000  0.42397000  0.73642000  1.0
  H  H10  1  0.72934000  0.70085000  0.56010000  1.0
  H  H11  1  0.22931000  0.79914000  0.43990000  1.0
  H  H12  1  0.27067000  0.29914000  0.43990000  1.0
  H  H13  1  0.77068000  0.20085000  0.56010000  1.0
  H  H14  1  0.47886000  0.65711000  0.53901000  1.0
  H  H15  1  0.97884000  0.84292000  0.46100000  1.0
  H  H16  1  0.52115000  0.34290000  0.46099000  1.0
  H  H17  1  0.02116000  0.15709000  0.53900000  1.0
  H  H18  1  0.59791000  0.59761000  0.65496000  1.0
  H  H19  1  0.09790000  0.90239000  0.34504000  1.0
  H  H20  1  0.40209000  0.40238000  0.34503000  1.0
  H  H21  1  0.90210000  0.09760000  0.65496000  1.0
  H  H22  1  0.43938000  0.01943000  0.90176000  1.0
  H  H23  1  0.93937000  0.48059000  0.09824000  1.0
  H  H24  1  0.56064000  0.98058000  0.09823000  1.0
  H  H25  1  0.06062000  0.51944000  0.90176000  1.0
  C  C26  1  0.55026000  0.88301000  0.67306000  1.0
  C  C27  1  0.05022000  0.61700000  0.32695000  1.0
  C  C28  1  0.44975000  0.11699000  0.32694000  1.0
  C  C29  1  0.94977000  0.38299000  0.67306000  1.0
  C  C30  1  0.59030000  0.69758000  0.60259000  1.0
  C  C31  1  0.09028000  0.80244000  0.39742000  1.0
  C  C32  1  0.40970000  0.30242000  0.39741000  1.0
  C  C33  1  0.90971000  0.19757000  0.60258000  1.0
  C  C34  1  0.33233000  0.95599000  0.84165000  1.0
  C  C35  1  0.83231000  0.54403000  0.15835000  1.0
  C  C36  1  0.66768000  0.04402000  0.15835000  1.0
  C  C37  1  0.16768000  0.45599000  0.84165000  1.0
  Br  Br38  1  0.21216000  0.80095000  0.08318000  1.0
  Br  Br39  1  0.71217000  0.69905000  0.91681000  1.0
  Br  Br40  1  0.78785000  0.19906000  0.91681000  1.0
  Br  Br41  1  0.28786000  0.30095000  0.08319000  1.0
  N  N42  1  0.14454000  0.93387000  0.85834000  1.0
  N  N43  1  0.64454000  0.56612000  0.14163000  1.0
  N  N44  1  0.85547000  0.06612000  0.14164000  1.0
  N  N45  1  0.35545000  0.43389000  0.85835000  1.0
  N  N46  1  0.06603000  0.85072000  0.75952000  1.0
  N  N47  1  0.56602000  0.64929000  0.24049000  1.0
  N  N48  1  0.93397000  0.14927000  0.24049000  1.0
  N  N49  1  0.43397000  0.35072000  0.75952000  1.0
  N  N50  1  0.20007000  0.82224000  0.68388000  1.0
  N  N51  1  0.70004000  0.67777000  0.31612000  1.0
  N  N52  1  0.79994000  0.17775000  0.31612000  1.0
  N  N53  1  0.29994000  0.32223000  0.68388000  1.0
  N  N54  1  0.36751000  0.88808000  0.73404000  1.0
  N  N55  1  0.86747000  0.61195000  0.26597000  1.0
  N  N56  1  0.63251000  0.11192000  0.26596000  1.0
  N  N57  1  0.13251000  0.38806000  0.73404000  1.0
