# generated using pymatgen
data_ZnH9IrC17N3O4
_symmetry_space_group_name_H-M   'P 1'
_cell_length_a   13.97650000
_cell_length_b   14.96270000
_cell_length_c   15.21810000
_cell_angle_alpha   85.65370000
_cell_angle_beta   85.40360000
_cell_angle_gamma   86.85370000
_symmetry_Int_Tables_number   1
_chemical_formula_structural   ZnH9IrC17N3O4
_chemical_formula_sum   'Zn4 H36 Ir4 C68 N12 O16'
_cell_volume   3159.32818511
_cell_formula_units_Z   4
loop_
 _symmetry_equiv_pos_site_id
 _symmetry_equiv_pos_as_xyz
  1  'x, y, z'
loop_
 _atom_site_type_symbol
 _atom_site_label
 _atom_site_symmetry_multiplicity
 _atom_site_fract_x
 _atom_site_fract_y
 _atom_site_fract_z
 _atom_site_occupancy
  Zn  Zn0  1  0.69367000  0.61354000  0.35062000  1.0
  Zn  Zn1  1  0.30634000  0.38646000  0.64938000  1.0
  Zn  Zn2  1  0.89895000  0.60267000  0.33554000  1.0
  Zn  Zn3  1  0.10106000  0.39732000  0.66446000  1.0
  H  H4  1  0.20809000  0.64678000  0.47922000  1.0
  H  H5  1  0.79191000  0.35322000  0.52078000  1.0
  H  H6  1  0.03223000  0.63461000  0.47050000  1.0
  H  H7  1  0.96777000  0.36539000  0.52950000  1.0
  H  H8  1  0.06799000  0.57550000  0.20828000  1.0
  H  H9  1  0.93201000  0.42451000  0.79172000  1.0
  H  H10  1  0.24619000  0.57926000  0.20622000  1.0
  H  H11  1  0.75381000  0.42074000  0.79378000  1.0
  H  H12  1  0.95554000  0.58731000  0.04897000  1.0
  H  H13  1  0.04446000  0.41268000  0.95102000  1.0
  H  H14  1  0.64960000  0.63778000  0.07489000  1.0
  H  H15  1  0.35040000  0.36222000  0.92512000  1.0
  H  H16  1  0.64123000  0.33436000  0.38223000  1.0
  H  H17  1  0.35876000  0.66564000  0.61777000  1.0
  H  H18  1  0.94563000  0.32490000  0.30640000  1.0
  H  H19  1  0.05437000  0.67510000  0.69360000  1.0
  H  H20  1  0.64171000  0.89838000  0.38088000  1.0
  H  H21  1  0.35830000  0.10162000  0.61912000  1.0
  H  H22  1  0.94841000  0.88923000  0.30897000  1.0
  H  H23  1  0.05159000  0.11077000  0.69103000  1.0
  H  H24  1  0.52882000  0.58617000  0.48484000  1.0
  H  H25  1  0.47118000  0.41383000  0.51516000  1.0
  H  H26  1  0.35101000  0.57685000  0.48707000  1.0
  H  H27  1  0.64900000  0.42315000  0.51293000  1.0
  H  H28  1  0.37683000  0.65397000  0.20599000  1.0
  H  H29  1  0.62317000  0.34603000  0.79401000  1.0
  H  H30  1  0.55457000  0.65286000  0.21587000  1.0
  H  H31  1  0.44543000  0.34714000  0.78413000  1.0
  H  H32  1  0.63599000  0.61817000  0.64398000  1.0
  H  H33  1  0.36401000  0.38183000  0.35602000  1.0
  H  H34  1  0.94513000  0.61750000  0.61402000  1.0
  H  H35  1  0.05487000  0.38250000  0.38599000  1.0
  H  H36  1  0.64524000  0.64119000  0.91011000  1.0
  H  H37  1  0.35476000  0.35881000  0.08990000  1.0
  H  H38  1  0.95177000  0.59235000  0.88402000  1.0
  H  H39  1  0.04824000  0.40765000  0.11597000  1.0
  Ir  Ir40  1  0.60626000  0.11007000  0.39589000  1.0
  Ir  Ir41  1  0.39374000  0.88993000  0.60410000  1.0
  Ir  Ir42  1  0.98338000  0.09994000  0.30286000  1.0
  Ir  Ir43  1  0.01662000  0.90006000  0.69715000  1.0
  C  C44  1  0.24305000  0.61335000  0.34312000  1.0
  C  C45  1  0.75696000  0.38665000  0.65688000  1.0
  C  C46  1  0.18103000  0.62916000  0.41798000  1.0
  C  C47  1  0.81898000  0.37083000  0.58202000  1.0
  C  C48  1  0.78726000  0.60860000  0.51698000  1.0
  C  C49  1  0.21274000  0.39140000  0.48302000  1.0
  C  C50  1  0.80531000  0.61255000  0.17015000  1.0
  C  C51  1  0.19469000  0.38745000  0.82985000  1.0
  C  C52  1  0.08280000  0.62376000  0.41367000  1.0
  C  C53  1  0.91720000  0.37624000  0.58633000  1.0
  C  C54  1  0.79444000  0.43356000  0.34899000  1.0
  C  C55  1  0.20556000  0.56644000  0.65101000  1.0
  C  C56  1  0.10284000  0.59095000  0.26648000  1.0
  C  C57  1  0.89716000  0.40905000  0.73352000  1.0
  C  C58  1  0.80290000  0.61310000  0.07168000  1.0
  C  C59  1  0.19710000  0.38690000  0.92832000  1.0
  C  C60  1  0.79820000  0.61782000  0.88727000  1.0
  C  C61  1  0.20180000  0.38218000  0.11273000  1.0
  C  C62  1  0.79408000  0.33308000  0.34789000  1.0
  C  C63  1  0.20592000  0.66692000  0.65212000  1.0
  C  C64  1  0.20185000  0.59454000  0.26586000  1.0
  C  C65  1  0.79815000  0.40546000  0.73414000  1.0
  C  C66  1  0.79518000  0.88250000  0.34464000  1.0
  C  C67  1  0.20482000  0.11750000  0.65536000  1.0
  C  C68  1  0.88802000  0.59953000  0.01789000  1.0
  C  C69  1  0.11198000  0.40047000  0.98211000  1.0
  C  C70  1  0.71534000  0.62773000  0.03255000  1.0
  C  C71  1  0.28466000  0.37226000  0.96745000  1.0
  C  C72  1  0.70565000  0.29143000  0.36977000  1.0
  C  C73  1  0.29434000  0.70857000  0.63024000  1.0
  C  C74  1  0.79497000  0.78269000  0.34156000  1.0
  C  C75  1  0.20502000  0.21731000  0.65844000  1.0
  C  C76  1  0.88251000  0.28636000  0.32592000  1.0
  C  C77  1  0.11748000  0.71365000  0.67408000  1.0
  C  C78  1  0.79505000  0.15344000  0.35167000  1.0
  C  C79  1  0.20495000  0.84656000  0.64832000  1.0
  C  C80  1  0.79546000  0.06077000  0.35073000  1.0
  C  C81  1  0.20455000  0.93923000  0.64927000  1.0
  C  C82  1  0.70924000  0.93128000  0.36645000  1.0
  C  C83  1  0.29077000  0.06872000  0.63355000  1.0
  C  C84  1  0.88123000  0.92632000  0.32596000  1.0
  C  C85  1  0.11877000  0.07368000  0.67404000  1.0
  C  C86  1  0.34799000  0.61564000  0.34596000  1.0
  C  C87  1  0.65201000  0.38436000  0.65404000  1.0
  C  C88  1  0.49133000  0.59976000  0.42476000  1.0
  C  C89  1  0.50868000  0.40024000  0.57524000  1.0
  C  C90  1  0.39221000  0.59632000  0.42536000  1.0
  C  C91  1  0.60779000  0.40368000  0.57464000  1.0
  C  C92  1  0.40709000  0.63702000  0.26920000  1.0
  C  C93  1  0.59291000  0.36299000  0.73080000  1.0
  C  C94  1  0.50572000  0.63775000  0.27390000  1.0
  C  C95  1  0.49429000  0.36225000  0.72610000  1.0
  C  C96  1  0.78998000  0.61536000  0.61409000  1.0
  C  C97  1  0.21002000  0.38464000  0.38591000  1.0
  C  C98  1  0.70620000  0.61836000  0.67092000  1.0
  C  C99  1  0.29380000  0.38164000  0.32908000  1.0
  C  C100  1  0.87649000  0.61888000  0.65384000  1.0
  C  C101  1  0.12351000  0.38112000  0.34616000  1.0
  C  C102  1  0.79516000  0.62080000  0.79035000  1.0
  C  C103  1  0.20484000  0.37920000  0.20965000  1.0
  C  C104  1  0.71273000  0.62978000  0.94137000  1.0
  C  C105  1  0.28727000  0.37022000  0.05863000  1.0
  C  C106  1  0.88597000  0.60211000  0.92647000  1.0
  C  C107  1  0.11403000  0.39789000  0.07352000  1.0
  C  C108  1  0.70478000  0.19751000  0.37242000  1.0
  C  C109  1  0.29522000  0.80249000  0.62758000  1.0
  C  C110  1  0.88423000  0.19238000  0.32743000  1.0
  C  C111  1  0.11577000  0.80762000  0.67257000  1.0
  N  N112  1  0.04430000  0.60471000  0.33934000  1.0
  N  N113  1  0.95570000  0.39529000  0.66066000  1.0
  N  N114  1  0.54725000  0.61944000  0.35039000  1.0
  N  N115  1  0.45275000  0.38056000  0.64961000  1.0
  N  N116  1  0.88149000  0.01663000  0.32832000  1.0
  N  N117  1  0.11851000  0.98337000  0.67168000  1.0
  N  N118  1  0.70773000  0.62026000  0.75824000  1.0
  N  N119  1  0.29227000  0.37974000  0.24176000  1.0
  N  N120  1  0.70941000  0.02142000  0.36996000  1.0
  N  N121  1  0.29059000  0.97858000  0.63003000  1.0
  N  N122  1  0.87985000  0.62246000  0.74087000  1.0
  N  N123  1  0.12015000  0.37754000  0.25913000  1.0
  O  O124  1  0.72482000  0.62231000  0.21508000  1.0
  O  O125  1  0.27518000  0.37769000  0.78492000  1.0
  O  O126  1  0.70496000  0.60400000  0.48772000  1.0
  O  O127  1  0.29504000  0.39600000  0.51228000  1.0
  O  O128  1  0.86783000  0.60776000  0.47181000  1.0
  O  O129  1  0.13216000  0.39223000  0.52819000  1.0
  O  O130  1  0.88729000  0.60270000  0.20160000  1.0
  O  O131  1  0.11270000  0.39731000  0.79840000  1.0
  O  O132  1  0.71303000  0.47665000  0.35488000  1.0
  O  O133  1  0.28696000  0.52334000  0.64513000  1.0
  O  O134  1  0.87585000  0.74149000  0.32672000  1.0
  O  O135  1  0.12415000  0.25850000  0.67329000  1.0
  O  O136  1  0.87594000  0.46834000  0.34582000  1.0
  O  O137  1  0.12405000  0.53166000  0.65418000  1.0
  O  O138  1  0.71338000  0.74810000  0.35460000  1.0
  O  O139  1  0.28662000  0.25191000  0.64540000  1.0
