# generated using pymatgen
data_CdH52C52(N5O3)2
_symmetry_space_group_name_H-M   'P 1'
_cell_length_a   9.05125000
_cell_length_b   9.53983000
_cell_length_c   15.16300000
_cell_angle_alpha   95.80160000
_cell_angle_beta   100.80200000
_cell_angle_gamma   115.96400000
_symmetry_Int_Tables_number   1
_chemical_formula_structural   CdH52C52(N5O3)2
_chemical_formula_sum   'Cd1 H52 C52 N10 O6'
_cell_volume   1131.14589668
_cell_formula_units_Z   1
loop_
 _symmetry_equiv_pos_site_id
 _symmetry_equiv_pos_as_xyz
  1  'x, y, z'
loop_
 _atom_site_type_symbol
 _atom_site_label
 _atom_site_symmetry_multiplicity
 _atom_site_fract_x
 _atom_site_fract_y
 _atom_site_fract_z
 _atom_site_occupancy
  Cd  Cd0  1  0.99999000  0.99999000  0.00000000  1.0
  H  H1  1  0.51617000  0.88584000  0.13846000  1.0
  H  H2  1  0.48381000  0.11413000  0.86153000  1.0
  H  H3  1  0.17728000  0.77251000  0.49440000  1.0
  H  H4  1  0.82273000  0.22750000  0.50561000  1.0
  H  H5  1  0.40824000  0.19388000  0.04005000  1.0
  H  H6  1  0.59175000  0.80611000  0.95995000  1.0
  H  H7  1  0.64271000  0.47054000  0.09089000  1.0
  H  H8  1  0.35728000  0.52945000  0.90911000  1.0
  H  H9  1  0.29496000  0.60601000  0.18770000  1.0
  H  H10  1  0.70503000  0.39398000  0.81228000  1.0
  H  H11  1  0.07305000  0.31882000  0.13524000  1.0
  H  H12  1  0.92694000  0.68118000  0.86474000  1.0
  H  H13  1  0.72660000  0.74806000  0.22672000  1.0
  H  H14  1  0.27340000  0.25193000  0.77327000  1.0
  H  H15  1  0.68204000  0.76381000  0.11165000  1.0
  H  H16  1  0.31795000  0.23617000  0.88834000  1.0
  H  H17  1  0.47538000  0.16368000  0.39786000  1.0
  H  H18  1  0.52462000  0.83633000  0.60214000  1.0
  H  H19  1  0.57665000  0.79139000  0.48654000  1.0
  H  H20  1  0.42334000  0.20860000  0.51345000  1.0
  H  H21  1  0.60491000  0.71703000  0.33685000  1.0
  H  H22  1  0.39510000  0.28297000  0.66315000  1.0
  H  H23  1  0.61502000  0.15256000  0.19484000  1.0
  H  H24  1  0.38497000  0.84742000  0.80514000  1.0
  H  H25  1  0.52189000  0.23668000  0.26234000  1.0
  H  H26  1  0.47813000  0.76332000  0.73765000  1.0
  H  H27  1  0.39233000  0.06328000  0.17477000  1.0
  H  H28  1  0.60766000  0.93671000  0.82523000  1.0
  H  H29  1  0.08045000  0.07612000  0.22069000  1.0
  H  H30  1  0.91956000  0.92389000  0.77932000  1.0
  H  H31  1  0.11880000  0.95894000  0.35835000  1.0
  H  H32  1  0.88122000  0.04107000  0.64165000  1.0
  H  H33  1  0.99101000  0.52585000  0.17163000  1.0
  H  H34  1  0.00900000  0.47415000  0.82837000  1.0
  H  H35  1  0.96152000  0.66006000  0.04310000  1.0
  H  H36  1  0.03845000  0.33994000  0.95690000  1.0
  H  H37  1  0.03399000  0.52837000  0.33269000  1.0
  H  H38  1  0.96603000  0.47165000  0.66732000  1.0
  H  H39  1  0.24001000  0.69183000  0.36933000  1.0
  H  H40  1  0.76000000  0.30819000  0.63068000  1.0
  H  H41  1  0.72930000  0.65153000  0.63143000  1.0
  H  H42  1  0.27072000  0.34851000  0.36858000  1.0
  H  H43  1  0.49607000  0.41904000  0.34646000  1.0
  H  H44  1  0.50393000  0.58097000  0.65355000  1.0
  H  H45  1  0.77469000  0.51657000  0.31740000  1.0
  H  H46  1  0.22532000  0.48344000  0.68262000  1.0
  H  H47  1  0.02272000  0.79024000  0.69024000  1.0
  H  H48  1  0.97730000  0.20979000  0.30977000  1.0
  H  H49  1  0.12476000  0.90434000  0.61392000  1.0
  H  H50  1  0.87525000  0.09567000  0.38609000  1.0
  H  H51  1  0.14396000  0.73230000  0.63044000  1.0
  H  H52  1  0.85606000  0.26772000  0.36957000  1.0
  C  C53  1  0.38787000  0.28872000  0.07294000  1.0
  C  C54  1  0.61212000  0.71127000  0.92706000  1.0
  C  C55  1  0.51862000  0.44430000  0.10207000  1.0
  C  C56  1  0.48138000  0.55569000  0.89794000  1.0
  C  C57  1  0.48729000  0.56340000  0.14298000  1.0
  C  C58  1  0.51270000  0.43659000  0.85702000  1.0
  C  C59  1  0.32516000  0.51754000  0.15619000  1.0
  C  C60  1  0.67482000  0.48245000  0.84379000  1.0
  C  C61  1  0.20151000  0.35913000  0.12669000  1.0
  C  C62  1  0.79848000  0.64087000  0.87331000  1.0
  C  C63  1  0.62382000  0.73572000  0.16927000  1.0
  C  C64  1  0.37617000  0.26427000  0.83073000  1.0
  C  C65  1  0.55276000  0.89411000  0.27788000  1.0
  C  C66  1  0.44724000  0.10589000  0.72211000  1.0
  C  C67  1  0.51971000  0.02470000  0.29827000  1.0
  C  C68  1  0.48028000  0.97529000  0.70173000  1.0
  C  C69  1  0.50011000  0.06250000  0.38480000  1.0
  C  C70  1  0.49989000  0.93750000  0.61519000  1.0
  C  C71  1  0.51464000  0.98004000  0.45530000  1.0
  C  C72  1  0.48537000  0.01996000  0.54469000  1.0
  C  C73  1  0.55813000  0.85804000  0.43522000  1.0
  C  C74  1  0.44187000  0.14195000  0.56477000  1.0
  C  C75  1  0.57489000  0.81483000  0.34874000  1.0
  C  C76  1  0.42511000  0.18517000  0.65126000  1.0
  C  C77  1  0.51158000  0.12416000  0.22920000  1.0
  C  C78  1  0.48842000  0.87583000  0.77079000  1.0
  C  C79  1  0.06426000  0.95496000  0.21309000  1.0
  C  C80  1  0.93573000  0.04504000  0.78691000  1.0
  C  C81  1  0.08542000  0.88936000  0.28946000  1.0
  C  C82  1  0.91460000  0.11065000  0.71054000  1.0
  C  C83  1  0.06536000  0.73400000  0.27672000  1.0
  C  C84  1  0.93465000  0.26601000  0.72328000  1.0
  C  C85  1  0.01722000  0.64994000  0.18641000  1.0
  C  C86  1  0.98279000  0.35006000  0.81360000  1.0
  C  C87  1  0.99863000  0.72408000  0.11386000  1.0
  C  C88  1  0.00136000  0.27592000  0.88615000  1.0
  C  C89  1  0.10386000  0.65923000  0.35560000  1.0
  C  C90  1  0.89615000  0.34078000  0.64441000  1.0
  C  C91  1  0.91528000  0.64669000  0.45697000  1.0
  C  C92  1  0.08473000  0.35333000  0.54304000  1.0
  C  C93  1  0.89812000  0.68202000  0.54683000  1.0
  C  C94  1  0.10190000  0.31800000  0.45319000  1.0
  C  C95  1  0.73629000  0.62204000  0.56137000  1.0
  C  C96  1  0.26373000  0.37800000  0.43864000  1.0
  C  C97  1  0.58506000  0.52757000  0.49136000  1.0
  C  C98  1  0.41497000  0.47246000  0.50866000  1.0
  C  C99  1  0.60669000  0.49099000  0.40411000  1.0
  C  C100  1  0.39333000  0.50902000  0.59590000  1.0
  C  C101  1  0.76659000  0.54775000  0.38687000  1.0
  C  C102  1  0.23342000  0.45226000  0.61315000  1.0
  C  C103  1  0.05405000  0.78200000  0.62404000  1.0
  C  C104  1  0.94597000  0.21803000  0.37597000  1.0
  N  N105  1  0.23053000  0.24611000  0.08393000  1.0
  N  N106  1  0.76947000  0.75388000  0.91606000  1.0
  N  N107  1  0.56977000  0.85257000  0.19210000  1.0
  N  N108  1  0.43023000  0.14743000  0.80790000  1.0
  N  N109  1  0.02317000  0.87511000  0.12628000  1.0
  N  N110  1  0.97682000  0.12489000  0.87372000  1.0
  N  N111  1  0.07402000  0.70918000  0.44040000  1.0
  N  N112  1  0.92599000  0.29084000  0.55960000  1.0
  N  N113  1  0.75133000  0.15546000  0.03789000  1.0
  N  N114  1  0.24862000  0.84451000  0.96209000  1.0
  O  O115  1  0.83395000  0.08671000  0.07690000  1.0
  O  O116  1  0.16605000  0.91330000  0.92309000  1.0
  O  O117  1  0.77721000  0.28866000  0.07892000  1.0
  O  O118  1  0.22275000  0.71132000  0.92103000  1.0
  O  O119  1  0.64752000  0.08668000  0.96068000  1.0
  O  O120  1  0.35239000  0.91322000  0.03932000  1.0
