# generated using pymatgen
data_ZnH30C44(N5O2)2
_symmetry_space_group_name_H-M   'P 1'
_cell_length_a   9.30949000
_cell_length_b   20.78890000
_cell_length_c   21.43420000
_cell_angle_alpha   90.00020000
_cell_angle_beta   89.99990000
_cell_angle_gamma   89.99990000
_symmetry_Int_Tables_number   1
_chemical_formula_structural   ZnH30C44(N5O2)2
_chemical_formula_sum   'Zn4 H120 C176 N40 O16'
_cell_volume   4148.24767725
_cell_formula_units_Z   4
loop_
 _symmetry_equiv_pos_site_id
 _symmetry_equiv_pos_as_xyz
  1  'x, y, z'
loop_
 _atom_site_type_symbol
 _atom_site_label
 _atom_site_symmetry_multiplicity
 _atom_site_fract_x
 _atom_site_fract_y
 _atom_site_fract_z
 _atom_site_occupancy
  Zn  Zn0  1  0.92755000  0.50271000  0.14354000  1.0
  Zn  Zn1  1  0.57245000  0.49729000  0.64354000  1.0
  Zn  Zn2  1  0.07245000  0.00271000  0.35646000  1.0
  Zn  Zn3  1  0.42755000  0.99729000  0.85646000  1.0
  H  H4  1  0.61392000  0.56411000  0.14657000  1.0
  H  H5  1  0.88608000  0.43589000  0.64657000  1.0
  H  H6  1  0.38609000  0.06411000  0.35343000  1.0
  H  H7  1  0.11392000  0.93589000  0.85343000  1.0
  H  H8  1  0.84840000  0.49097000  0.99564000  1.0
  H  H9  1  0.65160000  0.50903000  0.49564000  1.0
  H  H10  1  0.15160000  0.99097000  0.50436000  1.0
  H  H11  1  0.34840000  0.00903000  0.00436000  1.0
  H  H12  1  0.81188000  0.51883000  0.75536000  1.0
  H  H13  1  0.68812000  0.48117000  0.25536000  1.0
  H  H14  1  0.18812000  0.01883000  0.74464000  1.0
  H  H15  1  0.31188000  0.98117000  0.24464000  1.0
  H  H16  1  0.48578000  0.64151000  0.69061000  1.0
  H  H17  1  0.01421000  0.35850000  0.19061000  1.0
  H  H18  1  0.51422000  0.14151000  0.80939000  1.0
  H  H19  1  0.98579000  0.85850000  0.30939000  1.0
  H  H20  1  0.51773000  0.66939000  0.20715000  1.0
  H  H21  1  0.98226000  0.33061000  0.70716000  1.0
  H  H22  1  0.48226000  0.16939000  0.29284000  1.0
  H  H23  1  0.01774000  0.83061000  0.79284000  1.0
  H  H24  1  0.57109000  0.83401000  0.31719000  1.0
  H  H25  1  0.92890000  0.16599000  0.81719000  1.0
  H  H26  1  0.42891000  0.33401000  0.18281000  1.0
  H  H27  1  0.07110000  0.66598000  0.68282000  1.0
  H  H28  1  0.47964000  0.61516000  0.94395000  1.0
  H  H29  1  0.02036000  0.38484000  0.44396000  1.0
  H  H30  1  0.52036000  0.11516000  0.55605000  1.0
  H  H31  1  0.97964000  0.88483000  0.05605000  1.0
  H  H32  1  0.24487000  0.66831000  0.92717000  1.0
  H  H33  1  0.25513000  0.33169000  0.42717000  1.0
  H  H34  1  0.75513000  0.16831000  0.57283000  1.0
  H  H35  1  0.74487000  0.83168000  0.07283000  1.0
  H  H36  1  0.12284000  0.62275000  0.11686000  1.0
  H  H37  1  0.37716000  0.37725000  0.61686000  1.0
  H  H38  1  0.87716000  0.12275000  0.38314000  1.0
  H  H39  1  0.62284000  0.87725000  0.88314000  1.0
  H  H40  1  0.35469000  0.56987000  0.13272000  1.0
  H  H41  1  0.14532000  0.43013000  0.63273000  1.0
  H  H42  1  0.64532000  0.06987000  0.36728000  1.0
  H  H43  1  0.85468000  0.93013000  0.86728000  1.0
  H  H44  1  0.76737000  0.72996000  0.83258000  1.0
  H  H45  1  0.73263000  0.27004000  0.33258000  1.0
  H  H46  1  0.23262000  0.22996000  0.66742000  1.0
  H  H47  1  0.26737000  0.77004000  0.16742000  1.0
  H  H48  1  0.88778000  0.75648000  0.93394000  1.0
  H  H49  1  0.61222000  0.24352000  0.43394000  1.0
  H  H50  1  0.11221000  0.25649000  0.56606000  1.0
  H  H51  1  0.38779000  0.74352000  0.06606000  1.0
  H  H52  1  0.03434000  0.56018000  0.94835000  1.0
  H  H53  1  0.46567000  0.43982000  0.44835000  1.0
  H  H54  1  0.96567000  0.06018000  0.55165000  1.0
  H  H55  1  0.53434000  0.93982000  0.05165000  1.0
  H  H56  1  0.90418000  0.53286000  0.85169000  1.0
  H  H57  1  0.59582000  0.46714000  0.35169000  1.0
  H  H58  1  0.09583000  0.03286000  0.64831000  1.0
  H  H59  1  0.40417000  0.96714000  0.14831000  1.0
  H  H60  1  0.94132000  0.78026000  0.19098000  1.0
  H  H61  1  0.55868000  0.21974000  0.69098000  1.0
  H  H62  1  0.05867000  0.28026000  0.30902000  1.0
  H  H63  1  0.44133000  0.71974000  0.80902000  1.0
  H  H64  1  0.09991000  0.74860000  0.10376000  1.0
  H  H65  1  0.40009000  0.25140000  0.60375000  1.0
  H  H66  1  0.90008000  0.24860000  0.39625000  1.0
  H  H67  1  0.59992000  0.75139000  0.89625000  1.0
  H  H68  1  0.74588000  0.65357000  0.01351000  1.0
  H  H69  1  0.75412000  0.34643000  0.51351000  1.0
  H  H70  1  0.25411000  0.15357000  0.48649000  1.0
  H  H71  1  0.24588000  0.84643000  0.98649000  1.0
  H  H72  1  0.58510000  0.68812000  0.09868000  1.0
  H  H73  1  0.91490000  0.31189000  0.59868000  1.0
  H  H74  1  0.41490000  0.18811000  0.40132000  1.0
  H  H75  1  0.08510000  0.81189000  0.90131000  1.0
  H  H76  1  0.34427000  0.44120000  0.14857000  1.0
  H  H77  1  0.15571000  0.55880000  0.64857000  1.0
  H  H78  1  0.65573000  0.94120000  0.35143000  1.0
  H  H79  1  0.84428000  0.05880000  0.85143000  1.0
  H  H80  1  0.59290000  0.39707000  0.13766000  1.0
  H  H81  1  0.90710000  0.60293000  0.63766000  1.0
  H  H82  1  0.40711000  0.89707000  0.36234000  1.0
  H  H83  1  0.09290000  0.10294000  0.86234000  1.0
  H  H84  1  0.51353000  0.36235000  0.94274000  1.0
  H  H85  1  0.98647000  0.63765000  0.44274000  1.0
  H  H86  1  0.48648000  0.86235000  0.55726000  1.0
  H  H87  1  0.01353000  0.13765000  0.05726000  1.0
  H  H88  1  0.27077000  0.41079000  0.95345000  1.0
  H  H89  1  0.22922000  0.58920000  0.45345000  1.0
  H  H90  1  0.72924000  0.91079000  0.54655000  1.0
  H  H91  1  0.77078000  0.08920000  0.04655000  1.0
  H  H92  1  0.26966000  0.17072000  0.18667000  1.0
  H  H93  1  0.23032000  0.82929000  0.68667000  1.0
  H  H94  1  0.73034000  0.67072000  0.31333000  1.0
  H  H95  1  0.76968000  0.32929000  0.81333000  1.0
  H  H96  1  0.18341000  0.24959000  0.10907000  1.0
  H  H97  1  0.31658000  0.75042000  0.60907000  1.0
  H  H98  1  0.81660000  0.74959000  0.39093000  1.0
  H  H99  1  0.68342000  0.25042000  0.89093000  1.0
  H  H100  1  0.74647000  0.21363000  0.16842000  1.0
  H  H101  1  0.75351000  0.78637000  0.66841000  1.0
  H  H102  1  0.25354000  0.71363000  0.33158000  1.0
  H  H103  1  0.24648000  0.28637000  0.83158000  1.0
  H  H104  1  0.83699000  0.13851000  0.24801000  1.0
  H  H105  1  0.66300000  0.86149000  0.74801000  1.0
  H  H106  1  0.16302000  0.63851000  0.25199000  1.0
  H  H107  1  0.33700000  0.36149000  0.75199000  1.0
  H  H108  1  0.09107000  0.26515000  0.02075000  1.0
  H  H109  1  0.40892000  0.73484000  0.52075000  1.0
  H  H110  1  0.90894000  0.76516000  0.47925000  1.0
  H  H111  1  0.59107000  0.23484000  0.97925000  1.0
  H  H112  1  0.99714000  0.33074000  0.93429000  1.0
  H  H113  1  0.50286000  0.66926000  0.43429000  1.0
  H  H114  1  0.00286000  0.83074000  0.56571000  1.0
  H  H115  1  0.49715000  0.16925000  0.06571000  1.0
  H  H116  1  0.75596000  0.38156000  0.94169000  1.0
  H  H117  1  0.74404000  0.61844000  0.44169000  1.0
  H  H118  1  0.24405000  0.88156000  0.55831000  1.0
  H  H119  1  0.25596000  0.11844000  0.05831000  1.0
  H  H120  1  0.70332000  0.30110000  0.12535000  1.0
  H  H121  1  0.79666000  0.69891000  0.62535000  1.0
  H  H122  1  0.29668000  0.80110000  0.37465000  1.0
  H  H123  1  0.20333000  0.19891000  0.87465000  1.0
  C  C124  1  0.64220000  0.54868000  0.09981000  1.0
  C  C125  1  0.85781000  0.45133000  0.59982000  1.0
  C  C126  1  0.35781000  0.04867000  0.40018000  1.0
  C  C127  1  0.14220000  0.95132000  0.90019000  1.0
  C  C128  1  0.76060000  0.51285000  0.02129000  1.0
  C  C129  1  0.73940000  0.48715000  0.52130000  1.0
  C  C130  1  0.23940000  0.01285000  0.47870000  1.0
  C  C131  1  0.26060000  0.98715000  0.97870000  1.0
  C  C132  1  0.74283000  0.56035000  0.74910000  1.0
  C  C133  1  0.75716000  0.43965000  0.24910000  1.0
  C  C134  1  0.25717000  0.06035000  0.75090000  1.0
  C  C135  1  0.24283000  0.93965000  0.25090000  1.0
  C  C136  1  0.57619000  0.62334000  0.71721000  1.0
  C  C137  1  0.92381000  0.37666000  0.21721000  1.0
  C  C138  1  0.42381000  0.12334000  0.78279000  1.0
  C  C139  1  0.07618000  0.87666000  0.28279000  1.0
  C  C140  1  0.55101000  0.71550000  0.22582000  1.0
  C  C141  1  0.94898000  0.28450000  0.72582000  1.0
  C  C142  1  0.44898000  0.21549000  0.27418000  1.0
  C  C143  1  0.05102000  0.78450000  0.77418000  1.0
  C  C144  1  0.58239000  0.79866000  0.28035000  1.0
  C  C145  1  0.91761000  0.20134000  0.78035000  1.0
  C  C146  1  0.41761000  0.29866000  0.21965000  1.0
  C  C147  1  0.08239000  0.70134000  0.71965000  1.0
  C  C148  1  0.43261000  0.58996000  0.03932000  1.0
  C  C149  1  0.06739000  0.41004000  0.53933000  1.0
  C  C150  1  0.56739000  0.08996000  0.46068000  1.0
  C  C151  1  0.93262000  0.91004000  0.96068000  1.0
  C  C152  1  0.40100000  0.61751000  0.98143000  1.0
  C  C153  1  0.09900000  0.38249000  0.48143000  1.0
  C  C154  1  0.59900000  0.11750000  0.51857000  1.0
  C  C155  1  0.90101000  0.88249000  0.01857000  1.0
  C  C156  1  0.26927000  0.64705000  0.97231000  1.0
  C  C157  1  0.23073000  0.35296000  0.47231000  1.0
  C  C158  1  0.73073000  0.14704000  0.52769000  1.0
  C  C159  1  0.76927000  0.85295000  0.02769000  1.0
  C  C160  1  0.16636000  0.64906000  0.02032000  1.0
  C  C161  1  0.33364000  0.35094000  0.52032000  1.0
  C  C162  1  0.83364000  0.14906000  0.47968000  1.0
  C  C163  1  0.66637000  0.85094000  0.97968000  1.0
  C  C164  1  0.20112000  0.62314000  0.07902000  1.0
  C  C165  1  0.29888000  0.37686000  0.57902000  1.0
  C  C166  1  0.79888000  0.12313000  0.42098000  1.0
  C  C167  1  0.70112000  0.87686000  0.92098000  1.0
  C  C168  1  0.33355000  0.59357000  0.08830000  1.0
  C  C169  1  0.16646000  0.40643000  0.58830000  1.0
  C  C170  1  0.66646000  0.09357000  0.41170000  1.0
  C  C171  1  0.83354000  0.90643000  0.91170000  1.0
  C  C172  1  0.82627000  0.63017000  0.83698000  1.0
  C  C173  1  0.67372000  0.36982000  0.33698000  1.0
  C  C174  1  0.17373000  0.13018000  0.66302000  1.0
  C  C175  1  0.32627000  0.86983000  0.16302000  1.0
  C  C176  1  0.82413000  0.69335000  0.85917000  1.0
  C  C177  1  0.67586000  0.30664000  0.35917000  1.0
  C  C178  1  0.17586000  0.19335000  0.64083000  1.0
  C  C179  1  0.32413000  0.80665000  0.14083000  1.0
  C  C180  1  0.89371000  0.70798000  0.91475000  1.0
  C  C181  1  0.60629000  0.29202000  0.41475000  1.0
  C  C182  1  0.10628000  0.20798000  0.58525000  1.0
  C  C183  1  0.39371000  0.79202000  0.08525000  1.0
  C  C184  1  0.96855000  0.66011000  0.94733000  1.0
  C  C185  1  0.53145000  0.33988000  0.44733000  1.0
  C  C186  1  0.03145000  0.16012000  0.55267000  1.0
  C  C187  1  0.46854000  0.83988000  0.05267000  1.0
  C  C188  1  0.97683000  0.59763000  0.92281000  1.0
  C  C189  1  0.52317000  0.40237000  0.42281000  1.0
  C  C190  1  0.02317000  0.09763000  0.57718000  1.0
  C  C191  1  0.47683000  0.90237000  0.07718000  1.0
  C  C192  1  0.90437000  0.58248000  0.86809000  1.0
  C  C193  1  0.59563000  0.41752000  0.36809000  1.0
  C  C194  1  0.09563000  0.08248000  0.63191000  1.0
  C  C195  1  0.40437000  0.91752000  0.13191000  1.0
  C  C196  1  0.75372000  0.73428000  0.15134000  1.0
  C  C197  1  0.74627000  0.26573000  0.65134000  1.0
  C  C198  1  0.24627000  0.23428000  0.34866000  1.0
  C  C199  1  0.25373000  0.76572000  0.84866000  1.0
  C  C200  1  0.89854000  0.75232000  0.15231000  1.0
  C  C201  1  0.60146000  0.24769000  0.65231000  1.0
  C  C202  1  0.10146000  0.25232000  0.34769000  1.0
  C  C203  1  0.39854000  0.74768000  0.84769000  1.0
  C  C204  1  0.98775000  0.73411000  0.10345000  1.0
  C  C205  1  0.51226000  0.26589000  0.60345000  1.0
  C  C206  1  0.01225000  0.23411000  0.39655000  1.0
  C  C207  1  0.48774000  0.76589000  0.89655000  1.0
  C  C208  1  0.93586000  0.69647000  0.05398000  1.0
  C  C209  1  0.56414000  0.30353000  0.55398000  1.0
  C  C210  1  0.06414000  0.19647000  0.44602000  1.0
  C  C211  1  0.43586000  0.80353000  0.94602000  1.0
  C  C212  1  0.78918000  0.68096000  0.05248000  1.0
  C  C213  1  0.71082000  0.31904000  0.55248000  1.0
  C  C214  1  0.21082000  0.18096000  0.44752000  1.0
  C  C215  1  0.28918000  0.81903000  0.94752000  1.0
  C  C216  1  0.69887000  0.70006000  0.10061000  1.0
  C  C217  1  0.80114000  0.29994000  0.60062000  1.0
  C  C218  1  0.30113000  0.20006000  0.39939000  1.0
  C  C219  1  0.19887000  0.79994000  0.89938000  1.0
  C  C220  1  0.14533000  0.45734000  0.05856000  1.0
  C  C221  1  0.35466000  0.54265000  0.55856000  1.0
  C  C222  1  0.85468000  0.95735000  0.44144000  1.0
  C  C223  1  0.64536000  0.04265000  0.94142000  1.0
  C  C224  1  0.11332000  0.10117000  0.26911000  1.0
  C  C225  1  0.38666000  0.89884000  0.76911000  1.0
  C  C226  1  0.88667000  0.60117000  0.23089000  1.0
  C  C227  1  0.61334000  0.39884000  0.73089000  1.0
  C  C228  1  0.29228000  0.42856000  0.05178000  1.0
  C  C229  1  0.20771000  0.57144000  0.55178000  1.0
  C  C230  1  0.70773000  0.92856000  0.44822000  1.0
  C  C231  1  0.79229000  0.07144000  0.94822000  1.0
  C  C232  1  0.38358000  0.42407000  0.10361000  1.0
  C  C233  1  0.11641000  0.57593000  0.60361000  1.0
  C  C234  1  0.61642000  0.92406000  0.39639000  1.0
  C  C235  1  0.88359000  0.07593000  0.89639000  1.0
  C  C236  1  0.52086000  0.39846000  0.09751000  1.0
  C  C237  1  0.97914000  0.60155000  0.59752000  1.0
  C  C238  1  0.47915000  0.89846000  0.40248000  1.0
  C  C239  1  0.02086000  0.10155000  0.90249000  1.0
  C  C240  1  0.57006000  0.37506000  0.03982000  1.0
  C  C241  1  0.92993000  0.62494000  0.53982000  1.0
  C  C242  1  0.42994000  0.87506000  0.46018000  1.0
  C  C243  1  0.07007000  0.12494000  0.96018000  1.0
  C  C244  1  0.47828000  0.38038000  0.98794000  1.0
  C  C245  1  0.02171000  0.61962000  0.48794000  1.0
  C  C246  1  0.52173000  0.88037000  0.51206000  1.0
  C  C247  1  0.97829000  0.11963000  0.01206000  1.0
  C  C248  1  0.34174000  0.40698000  0.99374000  1.0
  C  C249  1  0.15825000  0.59302000  0.49374000  1.0
  C  C250  1  0.65827000  0.90698000  0.50626000  1.0
  C  C251  1  0.84175000  0.09302000  0.00626000  1.0
  C  C252  1  0.05922000  0.14916000  0.22244000  1.0
  C  C253  1  0.44076000  0.85084000  0.72244000  1.0
  C  C254  1  0.94078000  0.64916000  0.27756000  1.0
  C  C255  1  0.55923000  0.35084000  0.77757000  1.0
  C  C256  1  0.15522000  0.18089000  0.18262000  1.0
  C  C257  1  0.34476000  0.81912000  0.68261000  1.0
  C  C258  1  0.84478000  0.68089000  0.31738000  1.0
  C  C259  1  0.65524000  0.31912000  0.81739000  1.0
  C  C260  1  0.10572000  0.22473000  0.13852000  1.0
  C  C261  1  0.39426000  0.77527000  0.63852000  1.0
  C  C262  1  0.89428000  0.72474000  0.36148000  1.0
  C  C263  1  0.60574000  0.27527000  0.86149000  1.0
  C  C264  1  0.95779000  0.23679000  0.13101000  1.0
  C  C265  1  0.54220000  0.76321000  0.63101000  1.0
  C  C266  1  0.04222000  0.73679000  0.36899000  1.0
  C  C267  1  0.45780000  0.26321000  0.86899000  1.0
  C  C268  1  0.86192000  0.20535000  0.17180000  1.0
  C  C269  1  0.63806000  0.79465000  0.67180000  1.0
  C  C270  1  0.13808000  0.70535000  0.32819000  1.0
  C  C271  1  0.36193000  0.29465000  0.82820000  1.0
  C  C272  1  0.91204000  0.16279000  0.21690000  1.0
  C  C273  1  0.58794000  0.83721000  0.71690000  1.0
  C  C274  1  0.08795000  0.66279000  0.28310000  1.0
  C  C275  1  0.41206000  0.33721000  0.78310000  1.0
  C  C276  1  0.90476000  0.27887000  0.08021000  1.0
  C  C277  1  0.59522000  0.72114000  0.58021000  1.0
  C  C278  1  0.09524000  0.77887000  0.41979000  1.0
  C  C279  1  0.40477000  0.22114000  0.91979000  1.0
  C  C280  1  0.98639000  0.28805000  0.02561000  1.0
  C  C281  1  0.51359000  0.71195000  0.52561000  1.0
  C  C282  1  0.01361000  0.78805000  0.47439000  1.0
  C  C283  1  0.48640000  0.21195000  0.97439000  1.0
  C  C284  1  0.93265000  0.32454000  0.97634000  1.0
  C  C285  1  0.56734000  0.67546000  0.47635000  1.0
  C  C286  1  0.06735000  0.82454000  0.52365000  1.0
  C  C287  1  0.43266000  0.17545000  0.02365000  1.0
  C  C288  1  0.79717000  0.35282000  0.98032000  1.0
  C  C289  1  0.70282000  0.64718000  0.48032000  1.0
  C  C290  1  0.20283000  0.85282000  0.51968000  1.0
  C  C291  1  0.29718000  0.14718000  0.01967000  1.0
  C  C292  1  0.71375000  0.34530000  0.03455000  1.0
  C  C293  1  0.78624000  0.65470000  0.53455000  1.0
  C  C294  1  0.28625000  0.84530000  0.46545000  1.0
  C  C295  1  0.21376000  0.15470000  0.96545000  1.0
  C  C296  1  0.76915000  0.30828000  0.08381000  1.0
  C  C297  1  0.73083000  0.69172000  0.58381000  1.0
  C  C298  1  0.23085000  0.80828000  0.41619000  1.0
  C  C299  1  0.26916000  0.19172000  0.91619000  1.0
  N  N300  1  0.76596000  0.52010000  0.08470000  1.0
  N  N301  1  0.73404000  0.47990000  0.58470000  1.0
  N  N302  1  0.23404000  0.02010000  0.41530000  1.0
  N  N303  1  0.26596000  0.97990000  0.91530000  1.0
  N  N304  1  0.56609000  0.55815000  0.04717000  1.0
  N  N305  1  0.93391000  0.44185000  0.54717000  1.0
  N  N306  1  0.43391000  0.05815000  0.45283000  1.0
  N  N307  1  0.06609000  0.94185000  0.95283000  1.0
  N  N308  1  0.64087000  0.53564000  0.99652000  1.0
  N  N309  1  0.85913000  0.46436000  0.49652000  1.0
  N  N310  1  0.35913000  0.03563000  0.50348000  1.0
  N  N311  1  0.14087000  0.96436000  0.00348000  1.0
  N  N312  1  0.63863000  0.56481000  0.70649000  1.0
  N  N313  1  0.86137000  0.43519000  0.20649000  1.0
  N  N314  1  0.36137000  0.06481000  0.79351000  1.0
  N  N315  1  0.13863000  0.93519000  0.29351000  1.0
  N  N316  1  0.74224000  0.61446000  0.78389000  1.0
  N  N317  1  0.75776000  0.38554000  0.28389000  1.0
  N  N318  1  0.25776000  0.11446000  0.71611000  1.0
  N  N319  1  0.24224000  0.88554000  0.21611000  1.0
  N  N320  1  0.63596000  0.65507000  0.76396000  1.0
  N  N321  1  0.86404000  0.34493000  0.26396000  1.0
  N  N322  1  0.36404000  0.15507000  0.73604000  1.0
  N  N323  1  0.13595000  0.84493000  0.23604000  1.0
  N  N324  1  0.49724000  0.74525000  0.27551000  1.0
  N  N325  1  0.00275000  0.25475000  0.77551000  1.0
  N  N326  1  0.50275000  0.24525000  0.22449000  1.0
  N  N327  1  0.99725000  0.75475000  0.72449000  1.0
  N  N328  1  0.66272000  0.74984000  0.20199000  1.0
  N  N329  1  0.83728000  0.25016000  0.70199000  1.0
  N  N330  1  0.33728000  0.24984000  0.29801000  1.0
  N  N331  1  0.16273000  0.75016000  0.79801000  1.0
  N  N332  1  0.68422000  0.80372000  0.23708000  1.0
  N  N333  1  0.81577000  0.19628000  0.73708000  1.0
  N  N334  1  0.31578000  0.30372000  0.26292000  1.0
  N  N335  1  0.18423000  0.69628000  0.76292000  1.0
  N  N336  1  0.02918000  0.67417000  0.00669000  1.0
  N  N337  1  0.47082000  0.32583000  0.50669000  1.0
  N  N338  1  0.97082000  0.17417000  0.49331000  1.0
  N  N339  1  0.52918000  0.82583000  0.99331000  1.0
  O  O340  1  0.10312000  0.46211000  0.11639000  1.0
  O  O341  1  0.39687000  0.53789000  0.61639000  1.0
  O  O342  1  0.89688000  0.96211000  0.38361000  1.0
  O  O343  1  0.60313000  0.03789000  0.88361000  1.0
  O  O344  1  0.07550000  0.47488000  0.01186000  1.0
  O  O345  1  0.42449000  0.52511000  0.51186000  1.0
  O  O346  1  0.92450000  0.97488000  0.48814000  1.0
  O  O347  1  0.57550000  0.02511000  0.98814000  1.0
  O  O348  1  0.01673000  0.07858000  0.30714000  1.0
  O  O349  1  0.48325000  0.92142000  0.80713000  1.0
  O  O350  1  0.98325000  0.57858000  0.19286000  1.0
  O  O351  1  0.51675000  0.42142000  0.69287000  1.0
  O  O352  1  0.24332000  0.08447000  0.26932000  1.0
  O  O353  1  0.25665000  0.91553000  0.76931000  1.0
  O  O354  1  0.75667000  0.58447000  0.23069000  1.0
  O  O355  1  0.74334000  0.41553000  0.73069000  1.0
