# generated using pymatgen
data_CuH11C17N3
_symmetry_space_group_name_H-M   'P 1'
_cell_length_a   7.84622000
_cell_length_b   9.07628000
_cell_length_c   9.79383000
_cell_angle_alpha   91.64140000
_cell_angle_beta   95.99170000
_cell_angle_gamma   108.58300000
_symmetry_Int_Tables_number   1
_chemical_formula_structural   CuH11C17N3
_chemical_formula_sum   'Cu2 H22 C34 N6'
_cell_volume   656.06805071
_cell_formula_units_Z   2
loop_
 _symmetry_equiv_pos_site_id
 _symmetry_equiv_pos_as_xyz
  1  'x, y, z'
loop_
 _atom_site_type_symbol
 _atom_site_label
 _atom_site_symmetry_multiplicity
 _atom_site_fract_x
 _atom_site_fract_y
 _atom_site_fract_z
 _atom_site_occupancy
  Cu  Cu0  1  0.13820000  0.67205000  0.48962000  1.0
  Cu  Cu1  1  0.86179000  0.32794000  0.51038000  1.0
  H  H2  1  0.28682000  0.59946000  0.11479000  1.0
  H  H3  1  0.71316000  0.40054000  0.88521000  1.0
  H  H4  1  0.78787000  0.49598000  0.12832000  1.0
  H  H5  1  0.21210000  0.50402000  0.87168000  1.0
  H  H6  1  0.24528000  0.16840000  0.45826000  1.0
  H  H7  1  0.75475000  0.83160000  0.54174000  1.0
  H  H8  1  0.94361000  0.59606000  0.72936000  1.0
  H  H9  1  0.05638000  0.40393000  0.27064000  1.0
  H  H10  1  0.95497000  0.70740000  0.96247000  1.0
  H  H11  1  0.04503000  0.29259000  0.03754000  1.0
  H  H12  1  0.00099000  0.78548000  0.15844000  1.0
  H  H13  1  0.99902000  0.21452000  0.84156000  1.0
  H  H14  1  0.38797000  0.96212000  0.64771000  1.0
  H  H15  1  0.61203000  0.03787000  0.35229000  1.0
  H  H16  1  0.41918000  0.09056000  0.87684000  1.0
  H  H17  1  0.58082000  0.90943000  0.12316000  1.0
  H  H18  1  0.41035000  0.20020000  0.05363000  1.0
  H  H19  1  0.58967000  0.79980000  0.94638000  1.0
  H  H20  1  0.43928000  0.31311000  0.28823000  1.0
  H  H21  1  0.56074000  0.68689000  0.71177000  1.0
  H  H22  1  0.02383000  0.90512000  0.38925000  1.0
  H  H23  1  0.97619000  0.09489000  0.61076000  1.0
  C  C24  1  0.75296000  0.61509000  0.35758000  1.0
  C  C25  1  0.24703000  0.38493000  0.64241000  1.0
  C  C26  1  0.45948000  0.64428000  0.35787000  1.0
  C  C27  1  0.54049000  0.35572000  0.64213000  1.0
  C  C28  1  0.54438000  0.55654000  0.14082000  1.0
  C  C29  1  0.45561000  0.44348000  0.85917000  1.0
  C  C30  1  0.58816000  0.60948000  0.28742000  1.0
  C  C31  1  0.41183000  0.39053000  0.71256000  1.0
  C  C32  1  0.38095000  0.55534000  0.06528000  1.0
  C  C33  1  0.61903000  0.44467000  0.93471000  1.0
  C  C34  1  0.66214000  0.50007000  0.07196000  1.0
  C  C35  1  0.33784000  0.49994000  0.92803000  1.0
  C  C36  1  0.20484000  0.98214000  0.08610000  1.0
  C  C37  1  0.79517000  0.01786000  0.91390000  1.0
  C  C38  1  0.19144000  0.91090000  0.94595000  1.0
  C  C39  1  0.80856000  0.08909000  0.05405000  1.0
  C  C40  1  0.23434000  0.11650000  0.35474000  1.0
  C  C41  1  0.76568000  0.88350000  0.64526000  1.0
  C  C42  1  0.04883000  0.70500000  0.76717000  1.0
  C  C43  1  0.95117000  0.29500000  0.23283000  1.0
  C  C44  1  0.05760000  0.76863000  0.89894000  1.0
  C  C45  1  0.94241000  0.23136000  0.10107000  1.0
  C  C46  1  0.09719000  0.90189000  0.18412000  1.0
  C  C47  1  0.90282000  0.09811000  0.81588000  1.0
  C  C48  1  0.29405000  0.90932000  0.72072000  1.0
  C  C49  1  0.70595000  0.09067000  0.27928000  1.0
  C  C50  1  0.31051000  0.98072000  0.85085000  1.0
  C  C51  1  0.68949000  0.01926000  0.14915000  1.0
  C  C52  1  0.32640000  0.13223000  0.12627000  1.0
  C  C53  1  0.67361000  0.86777000  0.87373000  1.0
  C  C54  1  0.34242000  0.19776000  0.25920000  1.0
  C  C55  1  0.65760000  0.80225000  0.74080000  1.0
  C  C56  1  0.11048000  0.96901000  0.31614000  1.0
  C  C57  1  0.88954000  0.03099000  0.68386000  1.0
  N  N58  1  0.89581000  0.61499000  0.40975000  1.0
  N  N59  1  0.10419000  0.38503000  0.59024000  1.0
  N  N60  1  0.34038000  0.66943000  0.40791000  1.0
  N  N61  1  0.65959000  0.33055000  0.59209000  1.0
  N  N62  1  0.16578000  0.77226000  0.67754000  1.0
  N  N63  1  0.83422000  0.22773000  0.32246000  1.0
