# generated using pymatgen
data_CoH38C38N3O5
_symmetry_space_group_name_H-M   'P 1'
_cell_length_a   14.92380000
_cell_length_b   14.92550000
_cell_length_c   18.15090000
_cell_angle_alpha   113.29500000
_cell_angle_beta   107.63700000
_cell_angle_gamma   98.64200000
_symmetry_Int_Tables_number   1
_chemical_formula_structural   CoH38C38N3O5
_chemical_formula_sum   'Co4 H152 C152 N12 O20'
_cell_volume   3366.21755442
_cell_formula_units_Z   4
loop_
 _symmetry_equiv_pos_site_id
 _symmetry_equiv_pos_as_xyz
  1  'x, y, z'
loop_
 _atom_site_type_symbol
 _atom_site_label
 _atom_site_symmetry_multiplicity
 _atom_site_fract_x
 _atom_site_fract_y
 _atom_site_fract_z
 _atom_site_occupancy
  Co  Co0  1  0.08058000  0.38606000  0.34116000  1.0
  Co  Co1  1  0.04479000  0.23935000  0.15887000  1.0
  Co  Co2  1  0.91943000  0.61395000  0.65884000  1.0
  Co  Co3  1  0.95521000  0.76065000  0.84113000  1.0
  H  H4  1  0.77711000  0.25550000  0.96021000  1.0
  H  H5  1  0.29566000  0.31739000  0.53990000  1.0
  H  H6  1  0.22289000  0.74450000  0.03979000  1.0
  H  H7  1  0.70435000  0.68262000  0.46011000  1.0
  H  H8  1  0.63130000  0.31609000  0.91877000  1.0
  H  H9  1  0.39756000  0.21298000  0.58146000  1.0
  H  H10  1  0.36870000  0.68391000  0.08123000  1.0
  H  H11  1  0.60245000  0.78702000  0.41854000  1.0
  H  H12  1  0.72786000  0.54302000  0.18692000  1.0
  H  H13  1  0.35602000  0.04087000  0.31329000  1.0
  H  H14  1  0.27213000  0.45698000  0.81309000  1.0
  H  H15  1  0.64396000  0.95911000  0.68671000  1.0
  H  H16  1  0.87078000  0.47869000  0.22841000  1.0
  H  H17  1  0.25050000  0.14244000  0.27169000  1.0
  H  H18  1  0.12922000  0.52131000  0.77159000  1.0
  H  H19  1  0.74948000  0.85755000  0.72831000  1.0
  H  H20  1  0.44462000  0.23945000  0.93932000  1.0
  H  H21  1  0.30005000  0.00513000  0.56060000  1.0
  H  H22  1  0.55538000  0.76055000  0.06067000  1.0
  H  H23  1  0.69995000  0.99486000  0.43940000  1.0
  H  H24  1  0.42491000  0.29461000  0.03643000  1.0
  H  H25  1  0.25818000  0.88833000  0.46352000  1.0
  H  H26  1  0.57508000  0.70538000  0.96356000  1.0
  H  H27  1  0.74182000  0.11166000  0.53648000  1.0
  H  H28  1  0.54648000  0.29944000  0.04150000  1.0
  H  H29  1  0.25789000  0.00480000  0.45841000  1.0
  H  H30  1  0.45352000  0.70055000  0.95849000  1.0
  H  H31  1  0.74211000  0.99519000  0.54159000  1.0
  H  H32  1  0.75089000  0.58746000  0.04784000  1.0
  H  H33  1  0.53964000  0.20346000  0.45267000  1.0
  H  H34  1  0.24911000  0.41254000  0.95216000  1.0
  H  H35  1  0.46035000  0.79653000  0.54732000  1.0
  H  H36  1  0.72343000  0.69811000  0.10753000  1.0
  H  H37  1  0.59058000  0.11649000  0.39280000  1.0
  H  H38  1  0.27657000  0.30189000  0.89247000  1.0
  H  H39  1  0.40941000  0.88350000  0.60719000  1.0
  H  H40  1  0.69559000  0.65552000  0.99621000  1.0
  H  H41  1  0.65936000  0.19975000  0.50415000  1.0
  H  H42  1  0.30441000  0.34448000  0.00379000  1.0
  H  H43  1  0.34063000  0.80025000  0.49584000  1.0
  H  H44  1  0.85155000  0.21345000  0.37002000  1.0
  H  H45  1  0.84347000  0.98189000  0.13030000  1.0
  H  H46  1  0.14844000  0.78655000  0.62998000  1.0
  H  H47  1  0.15654000  0.01811000  0.86970000  1.0
  H  H48  1  0.72432000  0.08675000  0.36998000  1.0
  H  H49  1  0.71679000  0.85472000  0.13038000  1.0
  H  H50  1  0.27567000  0.91326000  0.63002000  1.0
  H  H51  1  0.28322000  0.14528000  0.86963000  1.0
  H  H52  1  0.79293000  0.80190000  0.35330000  1.0
  H  H53  1  0.44865000  0.93978000  0.14683000  1.0
  H  H54  1  0.20707000  0.19810000  0.64671000  1.0
  H  H55  1  0.55135000  0.06022000  0.85317000  1.0
  H  H56  1  0.81338000  0.86108000  0.29005000  1.0
  H  H57  1  0.57105000  0.02349000  0.21010000  1.0
  H  H58  1  0.18663000  0.13892000  0.70996000  1.0
  H  H59  1  0.42894000  0.97651000  0.78990000  1.0
  H  H60  1  0.76715000  0.72571000  0.24184000  1.0
  H  H61  1  0.48381000  0.02547000  0.25827000  1.0
  H  H62  1  0.23286000  0.27429000  0.75817000  1.0
  H  H63  1  0.51619000  0.97452000  0.74173000  1.0
  H  H64  1  0.59702000  0.57626000  0.21064000  1.0
  H  H65  1  0.36543000  0.88630000  0.28928000  1.0
  H  H66  1  0.40298000  0.42374000  0.78936000  1.0
  H  H67  1  0.63458000  0.11370000  0.71072000  1.0
  H  H68  1  0.56146000  0.61006000  0.29997000  1.0
  H  H69  1  0.30998000  0.76151000  0.19986000  1.0
  H  H70  1  0.43854000  0.38994000  0.70003000  1.0
  H  H71  1  0.69002000  0.23849000  0.80014000  1.0
  H  H72  1  0.68629000  0.66071000  0.31789000  1.0
  H  H73  1  0.34277000  0.86853000  0.18210000  1.0
  H  H74  1  0.31371000  0.33929000  0.68211000  1.0
  H  H75  1  0.65723000  0.13148000  0.81791000  1.0
  H  H76  1  0.39859000  0.54108000  0.12825000  1.0
  H  H77  1  0.41242000  0.77014000  0.37138000  1.0
  H  H78  1  0.60142000  0.45892000  0.87175000  1.0
  H  H79  1  0.58758000  0.22986000  0.62862000  1.0
  H  H80  1  0.26826000  0.41343000  0.12735000  1.0
  H  H81  1  0.28556000  0.64067000  0.37212000  1.0
  H  H82  1  0.73174000  0.58658000  0.87264000  1.0
  H  H83  1  0.71444000  0.35933000  0.62788000  1.0
  H  H84  1  0.11007000  0.62477000  0.40174000  1.0
  H  H85  1  0.22273000  0.20822000  0.09783000  1.0
  H  H86  1  0.88993000  0.37523000  0.59827000  1.0
  H  H87  1  0.77726000  0.79178000  0.90216000  1.0
  H  H88  1  0.84904000  0.58661000  0.45038000  1.0
  H  H89  1  0.13626000  0.89877000  0.04968000  1.0
  H  H90  1  0.15096000  0.41340000  0.54962000  1.0
  H  H91  1  0.86375000  0.10123000  0.95032000  1.0
  H  H92  1  0.89585000  0.40448000  0.39985000  1.0
  H  H93  1  0.00465000  0.99609000  0.10028000  1.0
  H  H94  1  0.10415000  0.59553000  0.60015000  1.0
  H  H95  1  0.99536000  0.00390000  0.89972000  1.0
  H  H96  1  0.90985000  0.75718000  0.53603000  1.0
  H  H97  1  0.22100000  0.87396000  0.96375000  1.0
  H  H98  1  0.09015000  0.24283000  0.46397000  1.0
  H  H99  1  0.77899000  0.12603000  0.03625000  1.0
  H  H100  1  0.91651000  0.93371000  0.56891000  1.0
  H  H101  1  0.36474000  0.84766000  0.93098000  1.0
  H  H102  1  0.08350000  0.06630000  0.43109000  1.0
  H  H103  1  0.63525000  0.15233000  0.06901000  1.0
  H  H104  1  0.07538000  0.92502000  0.40424000  1.0
  H  H105  1  0.52089000  0.17104000  0.09593000  1.0
  H  H106  1  0.92464000  0.07498000  0.59576000  1.0
  H  H107  1  0.47911000  0.82895000  0.90406000  1.0
  H  H108  1  0.06213000  0.74642000  0.36683000  1.0
  H  H109  1  0.37961000  0.19526000  0.13326000  1.0
  H  H110  1  0.93788000  0.25358000  0.63318000  1.0
  H  H111  1  0.62039000  0.80474000  0.86674000  1.0
  H  H112  1  0.92941000  0.67819000  0.98329000  1.0
  H  H113  1  0.69488000  0.44611000  0.51650000  1.0
  H  H114  1  0.07058000  0.32183000  0.01671000  1.0
  H  H115  1  0.30513000  0.55388000  0.48351000  1.0
  H  H116  1  0.13214000  0.74318000  0.16550000  1.0
  H  H117  1  0.57729000  0.46644000  0.33430000  1.0
  H  H118  1  0.86785000  0.25682000  0.83449000  1.0
  H  H119  1  0.42272000  0.53356000  0.66571000  1.0
  H  H120  1  0.05839000  0.65551000  0.05491000  1.0
  H  H121  1  0.60038000  0.50323000  0.44494000  1.0
  H  H122  1  0.94159000  0.34449000  0.94508000  1.0
  H  H123  1  0.39961000  0.49675000  0.55507000  1.0
  H  H124  1  0.08600000  0.56793000  0.15037000  1.0
  H  H125  1  0.41734000  0.43528000  0.34963000  1.0
  H  H126  1  0.91400000  0.43207000  0.84962000  1.0
  H  H127  1  0.58267000  0.56471000  0.65036000  1.0
  H  H128  1  0.95781000  0.55174000  0.09962000  1.0
  H  H129  1  0.45209000  0.35799000  0.40047000  1.0
  H  H130  1  0.04218000  0.44826000  0.90038000  1.0
  H  H131  1  0.54790000  0.64199000  0.59952000  1.0
  H  H132  1  0.02680000  0.64130000  0.21142000  1.0
  H  H133  1  0.42966000  0.31504000  0.28861000  1.0
  H  H134  1  0.97321000  0.35870000  0.78857000  1.0
  H  H135  1  0.57034000  0.68495000  0.71139000  1.0
  H  H136  1  0.97823000  0.79001000  0.23916000  1.0
  H  H137  1  0.55096000  0.23918000  0.26055000  1.0
  H  H138  1  0.02177000  0.20999000  0.76085000  1.0
  H  H139  1  0.44904000  0.76081000  0.73944000  1.0
  H  H140  1  0.92805000  0.85512000  0.18182000  1.0
  H  H141  1  0.67337000  0.24626000  0.31794000  1.0
  H  H142  1  0.07196000  0.14489000  0.81819000  1.0
  H  H143  1  0.32664000  0.75373000  0.68205000  1.0
  H  H144  1  0.07968000  0.97928000  0.30578000  1.0
  H  H145  1  0.67371000  0.27414000  0.19407000  1.0
  H  H146  1  0.92033000  0.02073000  0.69423000  1.0
  H  H147  1  0.32628000  0.72586000  0.80593000  1.0
  H  H148  1  0.10482000  0.94796000  0.21136000  1.0
  H  H149  1  0.73684000  0.39354000  0.28855000  1.0
  H  H150  1  0.89519000  0.05204000  0.78864000  1.0
  H  H151  1  0.26316000  0.60646000  0.71145000  1.0
  H  H152  1  0.15084000  0.89491000  0.28174000  1.0
  H  H153  1  0.61346000  0.36937000  0.21820000  1.0
  H  H154  1  0.84916000  0.10509000  0.71825000  1.0
  H  H155  1  0.38653000  0.63063000  0.78180000  1.0
  C  C156  1  0.91648000  0.32595000  0.12416000  1.0
  C  C157  1  0.20210000  0.29266000  0.37593000  1.0
  C  C158  1  0.08352000  0.67405000  0.87584000  1.0
  C  C159  1  0.79791000  0.70735000  0.62407000  1.0
  C  C160  1  0.83246000  0.36395000  0.09672000  1.0
  C  C161  1  0.26752000  0.23605000  0.40339000  1.0
  C  C162  1  0.16754000  0.63605000  0.90329000  1.0
  C  C163  1  0.73248000  0.76395000  0.59661000  1.0
  C  C164  1  0.76552000  0.31842000  0.00932000  1.0
  C  C165  1  0.30941000  0.25658000  0.49081000  1.0
  C  C166  1  0.23448000  0.68159000  0.99068000  1.0
  C  C167  1  0.69059000  0.74343000  0.50919000  1.0
  C  C168  1  0.68476000  0.35265000  0.98636000  1.0
  C  C169  1  0.36649000  0.19873000  0.51384000  1.0
  C  C170  1  0.31524000  0.64735000  0.01364000  1.0
  C  C171  1  0.63351000  0.80127000  0.48617000  1.0
  C  C172  1  0.67017000  0.43375000  0.04986000  1.0
  C  C173  1  0.38396000  0.12048000  0.45035000  1.0
  C  C174  1  0.32983000  0.56625000  0.95014000  1.0
  C  C175  1  0.61604000  0.87952000  0.54965000  1.0
  C  C176  1  0.73861000  0.48002000  0.13710000  1.0
  C  C177  1  0.34293000  0.10156000  0.36306000  1.0
  C  C178  1  0.26139000  0.51998000  0.86290000  1.0
  C  C179  1  0.65706000  0.89844000  0.63694000  1.0
  C  C180  1  0.81848000  0.44508000  0.16059000  1.0
  C  C181  1  0.28466000  0.15806000  0.33954000  1.0
  C  C182  1  0.18151000  0.55492000  0.83941000  1.0
  C  C183  1  0.71533000  0.84194000  0.66046000  1.0
  C  C184  1  0.58255000  0.46847000  0.02470000  1.0
  C  C185  1  0.44379000  0.05795000  0.47548000  1.0
  C  C186  1  0.41744000  0.53153000  0.97530000  1.0
  C  C187  1  0.55621000  0.94204000  0.52452000  1.0
  C  C188  1  0.48820000  0.40532000  0.00233000  1.0
  C  C189  1  0.40296000  0.98577000  0.49763000  1.0
  C  C190  1  0.51180000  0.59468000  0.99767000  1.0
  C  C191  1  0.59704000  0.01423000  0.50237000  1.0
  C  C192  1  0.59523000  0.56289000  0.02263000  1.0
  C  C193  1  0.54032000  0.07282000  0.47759000  1.0
  C  C194  1  0.40477000  0.43711000  0.97737000  1.0
  C  C195  1  0.45968000  0.92718000  0.52241000  1.0
  C  C196  1  0.47579000  0.30504000  0.00552000  1.0
  C  C197  1  0.29947000  0.97011000  0.49441000  1.0
  C  C198  1  0.52420000  0.69496000  0.99448000  1.0
  C  C199  1  0.70052000  0.02988000  0.50559000  1.0
  C  C200  1  0.69596000  0.62842000  0.04434000  1.0
  C  C201  1  0.58412000  0.15203000  0.45603000  1.0
  C  C202  1  0.30403000  0.37158000  0.95566000  1.0
  C  C203  1  0.41588000  0.84797000  0.54396000  1.0
  C  C204  1  0.93230000  0.18234000  0.25018000  1.0
  C  C205  1  0.06770000  0.81766000  0.74982000  1.0
  C  C206  1  0.85585000  0.10598000  0.25018000  1.0
  C  C207  1  0.14415000  0.89403000  0.74983000  1.0
  C  C208  1  0.82192000  0.13473000  0.31761000  1.0
  C  C209  1  0.81717000  0.00465000  0.18273000  1.0
  C  C210  1  0.17808000  0.86527000  0.68240000  1.0
  C  C211  1  0.18284000  0.99536000  0.81727000  1.0
  C  C212  1  0.75025000  0.06316000  0.31730000  1.0
  C  C213  1  0.74587000  0.93331000  0.18304000  1.0
  C  C214  1  0.24974000  0.93685000  0.68270000  1.0
  C  C215  1  0.25414000  0.06669000  0.81696000  1.0
  C  C216  1  0.71119000  0.96134000  0.25019000  1.0
  C  C217  1  0.28881000  0.03866000  0.74981000  1.0
  C  C218  1  0.63459000  0.88471000  0.25015000  1.0
  C  C219  1  0.36541000  0.11529000  0.74985000  1.0
  C  C220  1  0.65899000  0.80386000  0.26527000  1.0
  C  C221  1  0.53857000  0.89391000  0.23489000  1.0
  C  C222  1  0.34101000  0.19614000  0.73474000  1.0
  C  C223  1  0.46143000  0.10609000  0.76511000  1.0
  C  C224  1  0.58548000  0.72960000  0.26225000  1.0
  C  C225  1  0.46726000  0.82330000  0.23773000  1.0
  C  C226  1  0.41452000  0.27040000  0.73775000  1.0
  C  C227  1  0.53275000  0.17670000  0.76227000  1.0
  C  C228  1  0.49062000  0.74070000  0.24993000  1.0
  C  C229  1  0.50938000  0.25930000  0.75008000  1.0
  C  C230  1  0.76327000  0.79807000  0.28834000  1.0
  C  C231  1  0.50973000  0.97511000  0.21181000  1.0
  C  C232  1  0.23673000  0.20194000  0.71167000  1.0
  C  C233  1  0.49027000  0.02489000  0.78819000  1.0
  C  C234  1  0.60896000  0.63993000  0.27384000  1.0
  C  C235  1  0.36597000  0.83516000  0.22608000  1.0
  C  C236  1  0.39104000  0.36008000  0.72617000  1.0
  C  C237  1  0.63403000  0.16484000  0.77392000  1.0
  C  C238  1  0.41404000  0.66413000  0.24984000  1.0
  C  C239  1  0.58597000  0.33587000  0.75017000  1.0
  C  C240  1  0.37331000  0.56305000  0.18143000  1.0
  C  C241  1  0.38122000  0.69174000  0.31817000  1.0
  C  C242  1  0.62670000  0.43695000  0.81857000  1.0
  C  C243  1  0.61878000  0.30827000  0.68183000  1.0
  C  C244  1  0.30111000  0.49162000  0.18088000  1.0
  C  C245  1  0.31026000  0.62008000  0.31861000  1.0
  C  C246  1  0.69889000  0.50839000  0.81911000  1.0
  C  C247  1  0.68974000  0.37992000  0.68139000  1.0
  C  C248  1  0.26937000  0.51954000  0.24973000  1.0
  C  C249  1  0.73063000  0.48046000  0.75026000  1.0
  C  C250  1  0.19281000  0.44295000  0.24980000  1.0
  C  C251  1  0.80719000  0.55705000  0.75020000  1.0
  C  C252  1  0.04345000  0.58781000  0.40389000  1.0
  C  C253  1  0.18373000  0.13953000  0.09588000  1.0
  C  C254  1  0.95655000  0.41219000  0.59611000  1.0
  C  C255  1  0.81626000  0.86047000  0.90411000  1.0
  C  C256  1  0.90709000  0.56603000  0.42952000  1.0
  C  C257  1  0.13647000  0.97762000  0.07047000  1.0
  C  C258  1  0.09292000  0.43398000  0.57048000  1.0
  C  C259  1  0.86353000  0.02237000  0.92953000  1.0
  C  C260  1  0.93208000  0.47724000  0.40607000  1.0
  C  C261  1  0.07111000  0.02605000  0.09394000  1.0
  C  C262  1  0.06792000  0.52277000  0.59393000  1.0
  C  C263  1  0.92888000  0.97395000  0.90606000  1.0
  C  C264  1  0.98438000  0.73937000  0.44845000  1.0
  C  C265  1  0.29084000  0.03597000  0.05145000  1.0
  C  C266  1  0.01563000  0.26064000  0.55155000  1.0
  C  C267  1  0.70916000  0.96402000  0.94854000  1.0
  C  C268  1  0.94396000  0.79361000  0.50553000  1.0
  C  C269  1  0.28800000  0.93850000  0.99435000  1.0
  C  C270  1  0.05605000  0.20640000  0.49447000  1.0
  C  C271  1  0.71200000  0.06150000  0.00564000  1.0
  C  C272  1  0.94973000  0.89474000  0.52480000  1.0
  C  C273  1  0.36988000  0.92498000  0.97512000  1.0
  C  C274  1  0.05027000  0.10527000  0.47520000  1.0
  C  C275  1  0.63011000  0.07501000  0.02487000  1.0
  C  C276  1  0.99699000  0.94617000  0.48977000  1.0
  C  C277  1  0.45639000  0.00722000  0.01025000  1.0
  C  C278  1  0.00302000  0.05384000  0.51023000  1.0
  C  C279  1  0.54360000  0.99277000  0.98974000  1.0
  C  C280  1  0.03801000  0.88981000  0.43349000  1.0
  C  C281  1  0.45635000  0.10449000  0.06659000  1.0
  C  C282  1  0.96200000  0.11019000  0.56651000  1.0
  C  C283  1  0.54364000  0.89550000  0.93340000  1.0
  C  C284  1  0.03140000  0.78818000  0.41231000  1.0
  C  C285  1  0.37588000  0.11909000  0.08775000  1.0
  C  C286  1  0.96861000  0.21182000  0.58770000  1.0
  C  C287  1  0.62412000  0.88091000  0.91225000  1.0
  C  C288  1  0.92276000  0.73642000  0.04089000  1.0
  C  C289  1  0.69558000  0.38189000  0.45890000  1.0
  C  C290  1  0.07723000  0.26360000  0.95912000  1.0
  C  C291  1  0.30442000  0.61810000  0.54110000  1.0
  C  C292  1  0.05714000  0.69049000  0.12033000  1.0
  C  C293  1  0.56995000  0.43659000  0.37951000  1.0
  C  C294  1  0.94285000  0.30951000  0.87966000  1.0
  C  C295  1  0.43005000  0.56340000  0.62049000  1.0
  C  C296  1  0.03021000  0.60825000  0.14681000  1.0
  C  C297  1  0.46128000  0.38311000  0.35319000  1.0
  C  C298  1  0.96978000  0.39175000  0.85318000  1.0
  C  C299  1  0.53872000  0.61687000  0.64681000  1.0
  C  C300  1  0.99117000  0.82747000  0.20019000  1.0
  C  C301  1  0.62737000  0.29105000  0.29960000  1.0
  C  C302  1  0.00883000  0.17254000  0.79981000  1.0
  C  C303  1  0.37263000  0.70895000  0.70040000  1.0
  C  C304  1  0.08735000  0.91664000  0.25255000  1.0
  C  C305  1  0.66431000  0.33497000  0.24734000  1.0
  C  C306  1  0.91265000  0.08336000  0.74745000  1.0
  C  C307  1  0.33569000  0.66503000  0.75266000  1.0
  N  N308  1  0.01729000  0.49215000  0.39085000  1.0
  N  N309  1  0.10117000  0.12643000  0.10904000  1.0
  N  N310  1  0.98271000  0.50785000  0.60916000  1.0
  N  N311  1  0.89883000  0.87357000  0.89096000  1.0
  N  N312  1  0.97835000  0.63614000  0.42782000  1.0
  N  N313  1  0.20818000  0.05054000  0.07201000  1.0
  N  N314  1  0.02165000  0.36387000  0.57219000  1.0
  N  N315  1  0.79182000  0.94945000  0.92798000  1.0
  N  N316  1  0.98866000  0.75074000  0.11810000  1.0
  N  N317  1  0.63263000  0.37052000  0.38171000  1.0
  N  N318  1  0.01133000  0.24926000  0.88190000  1.0
  N  N319  1  0.36737000  0.62947000  0.61829000  1.0
  O  O320  1  0.96988000  0.36450000  0.20497000  1.0
  O  O321  1  0.15979000  0.26521000  0.29511000  1.0
  O  O322  1  0.03012000  0.63551000  0.79503000  1.0
  O  O323  1  0.84022000  0.73479000  0.70489000  1.0
  O  O324  1  0.93305000  0.25337000  0.06668000  1.0
  O  O325  1  0.18699000  0.36669000  0.43342000  1.0
  O  O326  1  0.06695000  0.74663000  0.93332000  1.0
  O  O327  1  0.81302000  0.63332000  0.56659000  1.0
  O  O328  1  0.97200000  0.27065000  0.31725000  1.0
  O  O329  1  0.95361000  0.15488000  0.18313000  1.0
  O  O330  1  0.02801000  0.72936000  0.68276000  1.0
  O  O331  1  0.04639000  0.84513000  0.81687000  1.0
  O  O332  1  0.15381000  0.35456000  0.18281000  1.0
  O  O333  1  0.17148000  0.47102000  0.31685000  1.0
  O  O334  1  0.84619000  0.64544000  0.81718000  1.0
  O  O335  1  0.82852000  0.52898000  0.68315000  1.0
  O  O336  1  0.86088000  0.78271000  0.03319000  1.0
  O  O337  1  0.74982000  0.32794000  0.46663000  1.0
  O  O338  1  0.13912000  0.21732000  0.96682000  1.0
  O  O339  1  0.25018000  0.67205000  0.53336000  1.0
