# generated using pymatgen
data_CoH22C22S2(N4O3)2
_symmetry_space_group_name_H-M   'P 1'
_cell_length_a   8.14214000
_cell_length_b   9.69690000
_cell_length_c   9.70951000
_cell_angle_alpha   60.99570000
_cell_angle_beta   86.32970000
_cell_angle_gamma   75.26880000
_symmetry_Int_Tables_number   1
_chemical_formula_structural   CoH22C22S2(N4O3)2
_chemical_formula_sum   'Co1 H22 C22 S2 N8 O6'
_cell_volume   646.82279230
_cell_formula_units_Z   1
loop_
 _symmetry_equiv_pos_site_id
 _symmetry_equiv_pos_as_xyz
  1  'x, y, z'
loop_
 _atom_site_type_symbol
 _atom_site_label
 _atom_site_symmetry_multiplicity
 _atom_site_fract_x
 _atom_site_fract_y
 _atom_site_fract_z
 _atom_site_occupancy
  Co  Co0  1  0.50000000  0.50000000  0.50000000  1.0
  H  H1  1  0.14224000  0.65193000  0.31034000  1.0
  H  H2  1  0.85776000  0.34807000  0.68965000  1.0
  H  H3  1  0.97459000  0.45280000  0.27264000  1.0
  H  H4  1  0.02541000  0.54720000  0.72735000  1.0
  H  H5  1  0.38983000  0.21246000  0.79567000  1.0
  H  H6  1  0.61017000  0.78754000  0.20434000  1.0
  H  H7  1  0.90070000  0.07033000  0.33226000  1.0
  H  H8  1  0.09930000  0.92967000  0.66774000  1.0
  H  H9  1  0.64803000  0.10843000  0.93496000  1.0
  H  H10  1  0.35197000  0.89157000  0.06504000  1.0
  H  H11  1  0.35501000  0.69792000  0.68315000  1.0
  H  H12  1  0.64499000  0.30208000  0.31685000  1.0
  H  H13  1  0.63347000  0.13830000  0.17286000  1.0
  H  H14  1  0.36654000  0.86170000  0.82714000  1.0
  H  H15  1  0.17886000  0.16444000  0.41738000  1.0
  H  H16  1  0.82113000  0.83556000  0.58262000  1.0
  H  H17  1  0.30163000  0.23581000  0.04069000  1.0
  H  H18  1  0.69836000  0.76419000  0.95931000  1.0
  H  H19  1  0.25831000  0.53096000  0.99016000  1.0
  H  H20  1  0.74169000  0.46904000  0.00985000  1.0
  H  H21  1  0.43955000  0.16516000  0.54471000  1.0
  H  H22  1  0.56044000  0.83484000  0.45529000  1.0
  C  C23  1  0.90693000  0.05734000  0.22666000  1.0
  C  C24  1  0.09307000  0.94266000  0.77334000  1.0
  C  C25  1  0.76449000  0.07808000  0.00363000  1.0
  C  C26  1  0.23551000  0.92193000  0.99637000  1.0
  C  C27  1  0.36741000  0.32287000  0.80443000  1.0
  C  C28  1  0.63259000  0.67712000  0.19558000  1.0
  C  C29  1  0.75683000  0.09621000  0.13624000  1.0
  C  C30  1  0.24317000  0.90379000  0.86376000  1.0
  C  C31  1  0.34948000  0.57215000  0.75295000  1.0
  C  C32  1  0.65052000  0.42784000  0.24706000  1.0
  C  C33  1  0.29911000  0.49156000  0.90354000  1.0
  C  C34  1  0.70089000  0.50844000  0.09646000  1.0
  C  C35  1  0.33824000  0.27241000  0.47544000  1.0
  C  C36  1  0.66176000  0.72759000  0.52456000  1.0
  C  C37  1  0.09618000  0.42537000  0.33197000  1.0
  C  C38  1  0.90383000  0.57463000  0.66802000  1.0
  C  C39  1  0.17927000  0.52220000  0.35175000  1.0
  C  C40  1  0.82073000  0.47779000  0.64825000  1.0
  C  C41  1  0.07721000  0.97946000  0.04573000  1.0
  C  C42  1  0.92279000  0.02054000  0.95427000  1.0
  C  C43  1  0.06277000  0.99928000  0.18311000  1.0
  C  C44  1  0.93723000  0.00073000  0.81689000  1.0
  S  S45  1  0.24717000  0.94349000  0.30748000  1.0
  S  S46  1  0.75284000  0.05651000  0.69253000  1.0
  N  N47  1  0.39324000  0.46494000  0.69308000  1.0
  N  N48  1  0.60676000  0.53506000  0.30692000  1.0
  N  N49  1  0.31057000  0.33513000  0.93317000  1.0
  N  N50  1  0.68943000  0.66487000  0.06683000  1.0
  N  N51  1  0.19828000  0.26905000  0.41083000  1.0
  N  N52  1  0.80172000  0.73095000  0.58917000  1.0
  N  N53  1  0.33074000  0.42521000  0.44168000  1.0
  N  N54  1  0.66926000  0.57480000  0.55831000  1.0
  O  O55  1  0.18716000  0.97590000  0.43766000  1.0
  O  O56  1  0.81284000  0.02410000  0.56235000  1.0
  O  O57  1  0.32434000  0.77019000  0.36131000  1.0
  O  O58  1  0.67566000  0.22981000  0.63868000  1.0
  O  O59  1  0.36025000  0.04677000  0.20942000  1.0
  O  O60  1  0.63975000  0.95323000  0.79058000  1.0
