# generated using pymatgen
data_Cd3H36C48(NO6)4
_symmetry_space_group_name_H-M   'P 1'
_cell_length_a   10.22780000
_cell_length_b   10.24270000
_cell_length_c   11.87060000
_cell_angle_alpha   82.52470000
_cell_angle_beta   78.92600000
_cell_angle_gamma   82.03350000
_symmetry_Int_Tables_number   1
_chemical_formula_structural   Cd3H36C48(NO6)4
_chemical_formula_sum   'Cd3 H36 C48 N4 O24'
_cell_volume   1201.76444115
_cell_formula_units_Z   1
loop_
 _symmetry_equiv_pos_site_id
 _symmetry_equiv_pos_as_xyz
  1  'x, y, z'
loop_
 _atom_site_type_symbol
 _atom_site_label
 _atom_site_symmetry_multiplicity
 _atom_site_fract_x
 _atom_site_fract_y
 _atom_site_fract_z
 _atom_site_occupancy
  Cd  Cd0  1  0.50001000  0.99998000  0.50002000  1.0
  Cd  Cd1  1  0.14237000  0.07548000  0.28529000  1.0
  Cd  Cd2  1  0.85762000  0.92453000  0.71471000  1.0
  H  H3  1  0.72668000  0.81864000  0.44658000  1.0
  H  H4  1  0.27335000  0.18133000  0.55344000  1.0
  H  H5  1  0.61670000  0.75250000  0.39735000  1.0
  H  H6  1  0.38333000  0.24748000  0.60266000  1.0
  H  H7  1  0.71141000  0.13579000  0.53066000  1.0
  H  H8  1  0.28861000  0.86422000  0.46930000  1.0
  H  H9  1  0.74128000  0.11299000  0.40045000  1.0
  H  H10  1  0.25869000  0.88699000  0.59954000  1.0
  H  H11  1  0.84486000  0.09056000  0.96169000  1.0
  H  H12  1  0.15511000  0.90945000  0.03831000  1.0
  H  H13  1  0.57701000  0.07960000  0.97507000  1.0
  H  H14  1  0.42295000  0.92045000  0.02496000  1.0
  H  H15  1  0.17866000  0.40972000  0.61284000  1.0
  H  H16  1  0.82131000  0.59030000  0.38719000  1.0
  H  H17  1  0.17565000  0.68050000  0.57359000  1.0
  H  H18  1  0.82430000  0.31951000  0.42641000  1.0
  H  H19  1  0.00218000  0.44924000  0.22465000  1.0
  H  H20  1  0.99782000  0.55079000  0.77534000  1.0
  H  H21  1  0.85746000  0.35682000  0.11433000  1.0
  H  H22  1  0.14257000  0.64321000  0.88564000  1.0
  H  H23  1  0.74021000  0.76077000  0.97387000  1.0
  H  H24  1  0.25986000  0.23926000  0.02611000  1.0
  H  H25  1  0.88456000  0.83572000  0.09354000  1.0
  H  H26  1  0.11548000  0.16428000  0.90647000  1.0
  H  H27  1  0.70799000  0.38507000  0.98620000  1.0
  H  H28  1  0.29208000  0.61495000  0.01378000  1.0
  H  H29  1  0.64947000  0.66292000  0.85895000  1.0
  H  H30  1  0.35057000  0.33710000  0.14103000  1.0
  H  H31  1  0.60255000  0.29234000  0.89807000  1.0
  H  H32  1  0.39746000  0.70767000  0.10194000  1.0
  H  H33  1  0.48626000  0.19579000  0.77010000  1.0
  H  H34  1  0.51374000  0.80423000  0.22992000  1.0
  H  H35  1  0.41468000  0.55924000  0.58027000  1.0
  H  H36  1  0.58538000  0.44075000  0.41971000  1.0
  H  H37  1  0.52624000  0.67255000  0.70014000  1.0
  H  H38  1  0.47381000  0.32744000  0.29983000  1.0
  C  C39  1  0.43161000  0.08109000  0.22155000  1.0
  C  C40  1  0.56838000  0.91890000  0.77848000  1.0
  C  C41  1  0.57027000  0.08853000  0.16020000  1.0
  C  C42  1  0.42971000  0.91147000  0.83982000  1.0
  C  C43  1  0.78638000  0.09513000  0.15011000  1.0
  C  C44  1  0.21360000  0.90487000  0.84990000  1.0
  C  C45  1  0.76739000  0.09227000  0.03823000  1.0
  C  C46  1  0.23259000  0.90774000  0.96178000  1.0
  C  C47  1  0.62817000  0.08798000  0.04513000  1.0
  C  C48  1  0.37180000  0.91204000  0.95490000  1.0
  C  C49  1  0.90675000  0.09327000  0.20143000  1.0
  C  C50  1  0.09324000  0.90671000  0.79856000  1.0
  C  C51  1  0.13989000  0.77665000  0.33033000  1.0
  C  C52  1  0.86004000  0.22331000  0.66967000  1.0
  C  C53  1  0.14902000  0.64745000  0.40034000  1.0
  C  C54  1  0.85091000  0.35252000  0.59968000  1.0
  C  C55  1  0.15182000  0.43095000  0.43191000  1.0
  C  C56  1  0.84814000  0.56903000  0.56812000  1.0
  C  C57  1  0.16866000  0.47284000  0.53357000  1.0
  C  C58  1  0.83130000  0.52716000  0.46645000  1.0
  C  C59  1  0.16647000  0.61228000  0.51368000  1.0
  C  C60  1  0.83348000  0.38770000  0.48633000  1.0
  C  C61  1  0.14170000  0.30036000  0.39795000  1.0
  C  C62  1  0.85826000  0.69962000  0.60207000  1.0
  C  C63  1  0.93880000  0.51471000  0.17077000  1.0
  C  C64  1  0.06121000  0.48531000  0.82923000  1.0
  C  C65  1  0.85907000  0.46377000  0.10796000  1.0
  C  C66  1  0.14096000  0.53625000  0.89201000  1.0
  C  C67  1  0.78480000  0.55036000  0.03479000  1.0
  C  C68  1  0.21525000  0.44967000  0.96520000  1.0
  C  C69  1  0.79405000  0.68725000  0.02879000  1.0
  C  C70  1  0.20599000  0.31277000  0.97119000  1.0
  C  C71  1  0.87414000  0.73074000  0.09587000  1.0
  C  C72  1  0.12590000  0.26927000  0.90414000  1.0
  C  C73  1  0.70852000  0.49223000  0.96649000  1.0
  C  C74  1  0.29153000  0.50780000  0.03349000  1.0
  C  C75  1  0.64567000  0.55658000  0.88115000  1.0
  C  C76  1  0.35437000  0.44343000  0.11884000  1.0
  C  C77  1  0.57572000  0.49268000  0.81145000  1.0
  C  C78  1  0.42431000  0.50733000  0.18854000  1.0
  C  C79  1  0.56223000  0.35615000  0.82916000  1.0
  C  C80  1  0.43778000  0.64387000  0.17084000  1.0
  C  C81  1  0.49754000  0.30145000  0.75743000  1.0
  C  C82  1  0.50247000  0.69857000  0.24258000  1.0
  C  C83  1  0.45703000  0.50251000  0.65187000  1.0
  C  C84  1  0.54301000  0.49749000  0.34811000  1.0
  C  C85  1  0.51978000  0.56635000  0.71990000  1.0
  C  C86  1  0.48026000  0.43365000  0.28007000  1.0
  N  N87  1  0.93954000  0.64468000  0.16550000  1.0
  N  N88  1  0.06048000  0.35534000  0.83451000  1.0
  N  N89  1  0.44561000  0.37189000  0.66890000  1.0
  N  N90  1  0.55442000  0.62812000  0.33110000  1.0
  O  O91  1  0.64667000  0.83831000  0.40804000  1.0
  O  O92  1  0.35335000  0.16166000  0.59198000  1.0
  O  O93  1  0.66572000  0.13821000  0.46378000  1.0
  O  O94  1  0.33426000  0.86178000  0.53620000  1.0
  O  O95  1  0.40432000  0.07494000  0.33069000  1.0
  O  O96  1  0.59567000  0.92502000  0.66934000  1.0
  O  O97  1  0.34380000  0.08222000  0.15737000  1.0
  O  O98  1  0.65620000  0.91777000  0.84266000  1.0
  O  O99  1  0.66638000  0.09367000  0.22468000  1.0
  O  O100  1  0.33361000  0.90632000  0.77533000  1.0
  O  O101  1  0.01926000  0.09154000  0.13328000  1.0
  O  O102  1  0.98073000  0.90845000  0.86671000  1.0
  O  O103  1  0.89373000  0.09251000  0.31076000  1.0
  O  O104  1  0.10629000  0.90748000  0.68923000  1.0
  O  O105  1  0.17890000  0.87169000  0.37260000  1.0
  O  O106  1  0.82111000  0.12827000  0.62730000  1.0
  O  O107  1  0.09770000  0.79146000  0.23618000  1.0
  O  O108  1  0.90212000  0.20846000  0.76383000  1.0
  O  O109  1  0.13967000  0.53747000  0.35023000  1.0
  O  O110  1  0.86026000  0.46250000  0.64979000  1.0
  O  O111  1  0.12309000  0.29740000  0.29438000  1.0
  O  O112  1  0.87681000  0.70262000  0.70565000  1.0
  O  O113  1  0.15144000  0.19844000  0.46983000  1.0
  O  O114  1  0.84858000  0.80152000  0.53014000  1.0
