# generated using pymatgen
data_MgH4(C2O3)2
_symmetry_space_group_name_H-M   'P 1'
_cell_length_a   4.95486000
_cell_length_b   7.80978000
_cell_length_c   7.80974000
_cell_angle_alpha   73.02520000
_cell_angle_beta   71.51350000
_cell_angle_gamma   71.51300000
_symmetry_Int_Tables_number   1
_chemical_formula_structural   MgH4(C2O3)2
_chemical_formula_sum   'Mg2 H8 C8 O12'
_cell_volume   265.59743178
_cell_formula_units_Z   2
loop_
 _symmetry_equiv_pos_site_id
 _symmetry_equiv_pos_as_xyz
  1  'x, y, z'
loop_
 _atom_site_type_symbol
 _atom_site_label
 _atom_site_symmetry_multiplicity
 _atom_site_fract_x
 _atom_site_fract_y
 _atom_site_fract_z
 _atom_site_occupancy
  Mg  Mg0  1  0.28796000  0.71201000  0.71203000  1.0
  Mg  Mg1  1  0.71205000  0.28797000  0.28799000  1.0
  H  H2  1  0.60137000  0.93808000  0.21437000  1.0
  H  H3  1  0.24619000  0.21426000  0.93788000  1.0
  H  H4  1  0.39863000  0.78563000  0.06192000  1.0
  H  H5  1  0.75379000  0.06212000  0.78574000  1.0
  H  H6  1  0.75932000  0.77748000  0.46188000  1.0
  H  H7  1  0.00136000  0.46182000  0.77746000  1.0
  H  H8  1  0.24068000  0.53812000  0.22252000  1.0
  H  H9  1  0.99864000  0.22254000  0.53819000  1.0
  C  C10  1  0.16258000  0.92068000  0.36383000  1.0
  C  C11  1  0.55275000  0.36388000  0.92075000  1.0
  C  C12  1  0.83742000  0.63616000  0.07933000  1.0
  C  C13  1  0.44724000  0.07925000  0.63612000  1.0
  C  C14  1  0.48685000  0.82996000  0.29706000  1.0
  C  C15  1  0.38607000  0.29707000  0.82989000  1.0
  C  C16  1  0.51316000  0.70294000  0.17004000  1.0
  C  C17  1  0.61392000  0.17011000  0.70292000  1.0
  O  O18  1  0.02661000  0.84751000  0.52471000  1.0
  O  O19  1  0.60107000  0.52475000  0.84757000  1.0
  O  O20  1  0.97339000  0.47529000  0.15249000  1.0
  O  O21  1  0.39893000  0.15244000  0.47524000  1.0
  O  O22  1  0.04512000  0.05454000  0.25354000  1.0
  O  O23  1  0.64639000  0.25363000  0.05473000  1.0
  O  O24  1  0.95489000  0.74646000  0.94545000  1.0
  O  O25  1  0.35362000  0.94528000  0.74635000  1.0
  O  O26  1  0.60682000  0.72554000  0.45292000  1.0
  O  O27  1  0.21467000  0.45292000  0.72551000  1.0
  O  O28  1  0.39319000  0.54708000  0.27446000  1.0
  O  O29  1  0.78533000  0.27449000  0.54708000  1.0
