# generated using pymatgen
data_PrH23C38(NO2)4
_symmetry_space_group_name_H-M   'P 1'
_cell_length_a   9.08208000
_cell_length_b   13.45220000
_cell_length_c   14.28230000
_cell_angle_alpha   96.65280000
_cell_angle_beta   96.69820000
_cell_angle_gamma   104.11900000
_symmetry_Int_Tables_number   1
_chemical_formula_structural   PrH23C38(NO2)4
_chemical_formula_sum   'Pr2 H46 C76 N8 O16'
_cell_volume   1661.69255933
_cell_formula_units_Z   2
loop_
 _symmetry_equiv_pos_site_id
 _symmetry_equiv_pos_as_xyz
  1  'x, y, z'
loop_
 _atom_site_type_symbol
 _atom_site_label
 _atom_site_symmetry_multiplicity
 _atom_site_fract_x
 _atom_site_fract_y
 _atom_site_fract_z
 _atom_site_occupancy
  Pr  Pr0  1  0.86979000  0.85723000  0.51374000  1.0
  Pr  Pr1  1  0.13021000  0.14277000  0.48625000  1.0
  H  H2  1  0.44184000  0.99801000  0.30970000  1.0
  H  H3  1  0.55818000  0.00199000  0.69031000  1.0
  H  H4  1  0.11557000  0.70451000  0.30149000  1.0
  H  H5  1  0.88444000  0.29549000  0.69852000  1.0
  H  H6  1  0.81705000  0.71471000  0.82910000  1.0
  H  H7  1  0.18294000  0.28530000  0.17089000  1.0
  H  H8  1  0.78450000  0.41423000  0.83464000  1.0
  H  H9  1  0.21550000  0.58577000  0.16537000  1.0
  H  H10  1  0.98826000  0.05589000  0.23663000  1.0
  H  H11  1  0.01175000  0.94411000  0.76337000  1.0
  H  H12  1  0.97670000  0.65650000  0.39375000  1.0
  H  H13  1  0.02330000  0.34350000  0.60625000  1.0
  H  H14  1  0.46184000  0.71723000  0.13642000  1.0
  H  H15  1  0.53816000  0.28278000  0.86358000  1.0
  H  H16  1  0.53636000  0.89195000  0.58011000  1.0
  H  H17  1  0.46363000  0.10804000  0.41988000  1.0
  H  H18  1  0.63132000  0.53639000  0.09373000  1.0
  H  H19  1  0.36868000  0.46362000  0.90628000  1.0
  H  H20  1  0.23658000  0.73449000  0.71219000  1.0
  H  H21  1  0.76339000  0.26551000  0.28780000  1.0
  H  H22  1  0.69851000  0.98108000  0.96369000  1.0
  H  H23  1  0.30149000  0.01892000  0.03632000  1.0
  H  H24  1  0.95340000  0.06679000  0.06357000  1.0
  H  H25  1  0.04660000  0.93321000  0.93643000  1.0
  H  H26  1  0.48177000  0.89149000  0.03890000  1.0
  H  H27  1  0.51823000  0.10851000  0.96110000  1.0
  H  H28  1  0.14132000  0.62984000  0.49981000  1.0
  H  H29  1  0.85869000  0.37015000  0.50019000  1.0
  H  H30  1  0.22788000  0.67832000  0.99066000  1.0
  H  H31  1  0.77210000  0.32168000  0.00933000  1.0
  H  H32  1  0.25349000  0.81062000  0.57840000  1.0
  H  H33  1  0.74651000  0.18937000  0.42160000  1.0
  H  H34  1  0.07412000  0.82990000  0.07650000  1.0
  H  H35  1  0.92589000  0.17011000  0.92350000  1.0
  H  H36  1  0.88559000  0.48101000  0.29249000  1.0
  H  H37  1  0.11442000  0.51898000  0.70751000  1.0
  H  H38  1  0.17519000  0.47190000  0.39779000  1.0
  H  H39  1  0.82482000  0.52809000  0.60221000  1.0
  H  H40  1  0.34478000  0.38434000  0.31546000  1.0
  H  H41  1  0.65523000  0.61565000  0.68454000  1.0
  H  H42  1  0.93924000  0.83162000  0.21775000  1.0
  H  H43  1  0.06079000  0.16838000  0.78225000  1.0
  H  H44  1  0.71298000  0.68744000  0.22584000  1.0
  H  H45  1  0.28704000  0.31257000  0.77417000  1.0
  H  H46  1  0.60599000  0.38940000  0.26913000  1.0
  H  H47  1  0.39402000  0.61060000  0.73087000  1.0
  C  C48  1  0.40038000  0.91499000  0.28483000  1.0
  C  C49  1  0.59962000  0.08501000  0.71518000  1.0
  C  C50  1  0.21833000  0.75164000  0.28051000  1.0
  C  C51  1  0.78169000  0.24836000  0.71950000  1.0
  C  C52  1  0.18270000  0.90637000  0.38357000  1.0
  C  C53  1  0.81730000  0.09362000  0.61644000  1.0
  C  C54  1  0.27002000  0.85743000  0.31627000  1.0
  C  C55  1  0.73000000  0.14256000  0.68374000  1.0
  C  C56  1  0.61126000  0.61408000  0.41092000  1.0
  C  C57  1  0.38874000  0.38591000  0.58907000  1.0
  C  C58  1  0.51179000  0.66641000  0.45643000  1.0
  C  C59  1  0.48821000  0.33358000  0.54356000  1.0
  C  C60  1  0.93595000  0.71017000  0.83555000  1.0
  C  C61  1  0.06403000  0.28985000  0.16444000  1.0
  C  C62  1  0.79165000  0.95066000  0.33668000  1.0
  C  C63  1  0.20835000  0.04934000  0.66332000  1.0
  C  C64  1  0.94668000  0.75179000  0.66881000  1.0
  C  C65  1  0.05331000  0.24822000  0.33118000  1.0
  C  C66  1  0.75529000  0.96969000  0.23645000  1.0
  C  C67  1  0.24472000  0.03031000  0.76356000  1.0
  C  C68  1  0.61010000  0.92278000  0.18066000  1.0
  C  C69  1  0.38991000  0.07722000  0.81934000  1.0
  C  C70  1  0.47475000  0.86634000  0.22021000  1.0
  C  C71  1  0.52526000  0.13366000  0.77980000  1.0
  C  C72  1  0.35399000  0.61410000  0.45112000  1.0
  C  C73  1  0.64601000  0.38588000  0.54888000  1.0
  C  C74  1  0.01664000  0.72483000  0.75886000  1.0
  C  C75  1  0.98334000  0.27517000  0.24113000  1.0
  C  C76  1  0.87631000  0.02194000  0.19327000  1.0
  C  C77  1  0.12370000  0.97806000  0.80673000  1.0
  C  C78  1  0.85597000  0.61396000  0.38174000  1.0
  C  C79  1  0.14403000  0.38604000  0.61827000  1.0
  C  C80  1  0.41195000  0.76022000  0.18808000  1.0
  C  C81  1  0.58806000  0.23978000  0.81193000  1.0
  C  C82  1  0.48133000  0.81301000  0.54513000  1.0
  C  C83  1  0.51867000  0.18698000  0.45487000  1.0
  C  C84  1  0.54878000  0.51304000  0.35798000  1.0
  C  C85  1  0.45123000  0.48695000  0.64202000  1.0
  C  C86  1  0.01013000  0.69236000  0.92083000  1.0
  C  C87  1  0.98986000  0.30765000  0.07917000  1.0
  C  C88  1  0.93017000  0.68250000  0.00540000  1.0
  C  C89  1  0.06982000  0.31751000  0.99460000  1.0
  C  C90  1  0.72881000  0.60142000  0.09176000  1.0
  C  C91  1  0.27119000  0.39860000  0.90824000  1.0
  C  C92  1  0.17080000  0.72188000  0.77100000  1.0
  C  C93  1  0.82917000  0.27812000  0.22899000  1.0
  C  C94  1  0.71507000  0.97911000  0.04029000  1.0
  C  C95  1  0.28494000  0.02089000  0.95971000  1.0
  C  C96  1  0.80506000  0.59850000  0.01188000  1.0
  C  C97  1  0.19493000  0.40151000  0.98812000  1.0
  C  C98  1  0.85709000  0.02671000  0.09581000  1.0
  C  C99  1  0.14291000  0.97330000  0.90420000  1.0
  C  C100  1  0.59282000  0.92816000  0.08268000  1.0
  C  C101  1  0.40719000  0.07184000  0.91732000  1.0
  C  C102  1  0.26179000  0.66726000  0.49880000  1.0
  C  C103  1  0.73822000  0.33273000  0.50119000  1.0
  C  C104  1  0.16535000  0.69217000  0.92544000  1.0
  C  C105  1  0.83463000  0.30784000  0.07455000  1.0
  C  C106  1  0.74681000  0.50164000  0.94094000  1.0
  C  C107  1  0.25318000  0.49837000  0.05906000  1.0
  C  C108  1  0.32489000  0.76769000  0.54432000  1.0
  C  C109  1  0.67511000  0.23230000  0.45567000  1.0
  C  C110  1  0.97734000  0.76504000  0.08107000  1.0
  C  C111  1  0.02267000  0.23497000  0.91893000  1.0
  C  C112  1  0.80448000  0.51563000  0.32593000  1.0
  C  C113  1  0.19554000  0.48436000  0.67407000  1.0
  C  C114  1  0.29589000  0.51138000  0.39940000  1.0
  C  C115  1  0.70412000  0.48861000  0.60060000  1.0
  C  C116  1  0.38916000  0.46311000  0.35367000  1.0
  C  C117  1  0.61084000  0.53688000  0.64633000  1.0
  C  C118  1  0.90094000  0.76657000  0.16014000  1.0
  C  C119  1  0.09907000  0.23343000  0.83986000  1.0
  C  C120  1  0.77472000  0.68510000  0.16500000  1.0
  C  C121  1  0.22528000  0.31491000  0.83500000  1.0
  C  C122  1  0.64997000  0.46520000  0.31332000  1.0
  C  C123  1  0.35004000  0.53479000  0.68668000  1.0
  N  N124  1  0.28722000  0.70429000  0.21792000  1.0
  N  N125  1  0.71279000  0.29570000  0.78208000  1.0
  N  N126  1  0.76304000  0.66310000  0.42172000  1.0
  N  N127  1  0.23696000  0.33690000  0.57828000  1.0
  N  N128  1  0.57339000  0.76384000  0.50419000  1.0
  N  N129  1  0.42661000  0.23615000  0.49581000  1.0
  N  N130  1  0.24503000  0.70643000  0.85234000  1.0
  N  N131  1  0.75495000  0.29357000  0.14765000  1.0
  O  O132  1  0.06658000  0.84691000  0.40850000  1.0
  O  O133  1  0.93343000  0.15308000  0.59150000  1.0
  O  O134  1  0.23008000  0.00393000  0.41006000  1.0
  O  O135  1  0.76992000  0.99606000  0.58994000  1.0
  O  O136  1  0.83039000  0.78974000  0.66955000  1.0
  O  O137  1  0.16960000  0.21026000  0.33044000  1.0
  O  O138  1  0.71823000  0.86629000  0.35985000  1.0
  O  O139  1  0.28177000  0.13371000  0.64015000  1.0
  O  O140  1  0.00871000  0.74086000  0.59367000  1.0
  O  O141  1  0.99128000  0.25914000  0.40632000  1.0
  O  O142  1  0.90108000  0.01514000  0.39522000  1.0
  O  O143  1  0.09892000  0.98486000  0.60478000  1.0
  O  O144  1  0.83417000  0.48784000  0.87403000  1.0
  O  O145  1  0.16583000  0.51216000  0.12597000  1.0
  O  O146  1  0.62676000  0.43706000  0.94688000  1.0
  O  O147  1  0.37323000  0.56295000  0.05312000  1.0
