# generated using pymatgen
data_CaCuH4(CO2)4
_symmetry_space_group_name_H-M   'P 1'
_cell_length_a   6.53285000
_cell_length_b   7.37174000
_cell_length_c   8.38765000
_cell_angle_alpha   90.00020000
_cell_angle_beta   90.00030000
_cell_angle_gamma   97.52030000
_symmetry_Int_Tables_number   1
_chemical_formula_structural   CaCuH4(CO2)4
_chemical_formula_sum   'Ca2 Cu2 H8 C8 O16'
_cell_volume   400.46196742
_cell_formula_units_Z   2
loop_
 _symmetry_equiv_pos_site_id
 _symmetry_equiv_pos_as_xyz
  1  'x, y, z'
loop_
 _atom_site_type_symbol
 _atom_site_label
 _atom_site_symmetry_multiplicity
 _atom_site_fract_x
 _atom_site_fract_y
 _atom_site_fract_z
 _atom_site_occupancy
  Ca  Ca0  1  0.75000000  0.00000000  0.13736000  1.0
  Ca  Ca1  1  0.25000000  0.00000000  0.86262000  1.0
  Cu  Cu2  1  0.75000000  0.50000000  0.40462000  1.0
  Cu  Cu3  1  0.25001000  0.50000000  0.59538000  1.0
  H  H4  1  0.27371000  0.15453000  0.44643000  1.0
  H  H5  1  0.22629000  0.84546000  0.44643000  1.0
  H  H6  1  0.72627000  0.84547000  0.55357000  1.0
  H  H7  1  0.77373000  0.15454000  0.55357000  1.0
  H  H8  1  0.40903000  0.42816000  0.15480000  1.0
  H  H9  1  0.09097000  0.57184000  0.15480000  1.0
  H  H10  1  0.59094000  0.57187000  0.84521000  1.0
  H  H11  1  0.90906000  0.42812000  0.84520000  1.0
  C  C12  1  0.12807000  0.19281000  0.39780000  1.0
  C  C13  1  0.37194000  0.80719000  0.39780000  1.0
  C  C14  1  0.87195000  0.80717000  0.60218000  1.0
  C  C15  1  0.62804000  0.19284000  0.60218000  1.0
  C  C16  1  0.50559000  0.31589000  0.14378000  1.0
  C  C17  1  0.99440000  0.68411000  0.14378000  1.0
  C  C18  1  0.49445000  0.68410000  0.85624000  1.0
  C  C19  1  0.00555000  0.31589000  0.85623000  1.0
  O  O20  1  0.08685000  0.35487000  0.43057000  1.0
  O  O21  1  0.41316000  0.64514000  0.43058000  1.0
  O  O22  1  0.91312000  0.64511000  0.56939000  1.0
  O  O23  1  0.58687000  0.35489000  0.56939000  1.0
  O  O24  1  0.46411000  0.19216000  0.04084000  1.0
  O  O25  1  0.03588000  0.80784000  0.04084000  1.0
  O  O26  1  0.53591000  0.80782000  0.95916000  1.0
  O  O27  1  0.96410000  0.19218000  0.95915000  1.0
  O  O28  1  0.65945000  0.31577000  0.23812000  1.0
  O  O29  1  0.84055000  0.68423000  0.23812000  1.0
  O  O30  1  0.34057000  0.68427000  0.76192000  1.0
  O  O31  1  0.15944000  0.31573000  0.76192000  1.0
  O  O32  1  0.01536000  0.07919000  0.31540000  1.0
  O  O33  1  0.48464000  0.92082000  0.31540000  1.0
  O  O34  1  0.98464000  0.92081000  0.68460000  1.0
  O  O35  1  0.51535000  0.07919000  0.68460000  1.0
