# generated using pymatgen
data_ZnH27C28N5O4
_symmetry_space_group_name_H-M   'P 1'
_cell_length_a   7.76903000
_cell_length_b   17.67060000
_cell_length_c   23.01080000
_cell_angle_alpha   90.00030000
_cell_angle_beta   90.00030000
_cell_angle_gamma   85.28290000
_symmetry_Int_Tables_number   1
_chemical_formula_structural   ZnH27C28N5O4
_chemical_formula_sum   'Zn4 H108 C112 N20 O16'
_cell_volume   3148.30146368
_cell_formula_units_Z   4
loop_
 _symmetry_equiv_pos_site_id
 _symmetry_equiv_pos_as_xyz
  1  'x, y, z'
loop_
 _atom_site_type_symbol
 _atom_site_label
 _atom_site_symmetry_multiplicity
 _atom_site_fract_x
 _atom_site_fract_y
 _atom_site_fract_z
 _atom_site_occupancy
  Zn  Zn0  1  0.45764000  0.08012000  0.77420000  1.0
  Zn  Zn1  1  0.54236000  0.91988000  0.27420000  1.0
  Zn  Zn2  1  0.95314000  0.58113000  0.72616000  1.0
  Zn  Zn3  1  0.04687000  0.41887000  0.22616000  1.0
  H  H4  1  0.38041000  0.99371000  0.66788000  1.0
  H  H5  1  0.61959000  0.00629000  0.16788000  1.0
  H  H6  1  0.13174000  0.98377000  0.59864000  1.0
  H  H7  1  0.86825000  0.01623000  0.09864000  1.0
  H  H8  1  0.83914000  0.15164000  0.70374000  1.0
  H  H9  1  0.16086000  0.84836000  0.20374000  1.0
  H  H10  1  0.09533000  0.15335000  0.76804000  1.0
  H  H11  1  0.90467000  0.84665000  0.26804000  1.0
  H  H12  1  0.40429000  0.21295000  0.61358000  1.0
  H  H13  1  0.59571000  0.78706000  0.11358000  1.0
  H  H14  1  0.10139000  0.26167000  0.59628000  1.0
  H  H15  1  0.89859000  0.73833000  0.09628000  1.0
  H  H16  1  0.03273000  0.09746000  0.47222000  1.0
  H  H17  1  0.96728000  0.90253000  0.97222000  1.0
  H  H18  1  0.32836000  0.03844000  0.48612000  1.0
  H  H19  1  0.67165000  0.96156000  0.98612000  1.0
  H  H20  1  0.57433000  0.12054000  0.43167000  1.0
  H  H21  1  0.42567000  0.87946000  0.93168000  1.0
  H  H22  1  0.53473000  0.06816000  0.33196000  1.0
  H  H23  1  0.46525000  0.93185000  0.83196000  1.0
  H  H24  1  0.70582000  0.85076000  0.38408000  1.0
  H  H25  1  0.29415000  0.14924000  0.88408000  1.0
  H  H26  1  0.75694000  0.89453000  0.48627000  1.0
  H  H27  1  0.24304000  0.10547000  0.98627000  1.0
  H  H28  1  0.74631000  0.38973000  0.74958000  1.0
  H  H29  1  0.25370000  0.61027000  0.24958000  1.0
  H  H30  1  0.82048000  0.29763000  0.77341000  1.0
  H  H31  1  0.17952000  0.70236000  0.27341000  1.0
  H  H32  1  0.75961000  0.31194000  0.69948000  1.0
  H  H33  1  0.24039000  0.68806000  0.19948000  1.0
  H  H34  1  0.62255000  0.35739000  0.84373000  1.0
  H  H35  1  0.37745000  0.64261000  0.34373000  1.0
  H  H36  1  0.47102000  0.28878000  0.85105000  1.0
  H  H37  1  0.52898000  0.71122000  0.35105000  1.0
  H  H38  1  0.23224000  0.38120000  0.82919000  1.0
  H  H39  1  0.76776000  0.61880000  0.32919000  1.0
  H  H40  1  0.37515000  0.44375000  0.85772000  1.0
  H  H41  1  0.62485000  0.55625000  0.35771000  1.0
  H  H42  1  0.49444000  0.46363000  0.75874000  1.0
  H  H43  1  0.50558000  0.53636000  0.25874000  1.0
  H  H44  1  0.18589000  0.30530000  0.76199000  1.0
  H  H45  1  0.81411000  0.69470000  0.26199000  1.0
  H  H46  1  0.13224000  0.35857000  0.69846000  1.0
  H  H47  1  0.86775000  0.64143000  0.19846000  1.0
  H  H48  1  0.25452000  0.26970000  0.69312000  1.0
  H  H49  1  0.74548000  0.73030000  0.19312000  1.0
  H  H50  1  0.56847000  0.41586000  0.66185000  1.0
  H  H51  1  0.43154000  0.58414000  0.16185000  1.0
  H  H52  1  0.49582000  0.32830000  0.63743000  1.0
  H  H53  1  0.50417000  0.67170000  0.13743000  1.0
  H  H54  1  0.35289000  0.41263000  0.63872000  1.0
  H  H55  1  0.64711000  0.58737000  0.13872000  1.0
  H  H56  1  0.29282000  0.79032000  0.71706000  1.0
  H  H57  1  0.70719000  0.20968000  0.21705000  1.0
  H  H58  1  0.13196000  0.80114000  0.66215000  1.0
  H  H59  1  0.86805000  0.19886000  0.16215000  1.0
  H  H60  1  0.19188000  0.88171000  0.70184000  1.0
  H  H61  1  0.80812000  0.11830000  0.20184000  1.0
  H  H62  1  0.04725000  0.80306000  0.84626000  1.0
  H  H63  1  0.95275000  0.19695000  0.34626000  1.0
  H  H64  1  0.23299000  0.83368000  0.81362000  1.0
  H  H65  1  0.76701000  0.16632000  0.31362000  1.0
  H  H66  1  0.10862000  0.96212000  0.81984000  1.0
  H  H67  1  0.89137000  0.03788000  0.31984000  1.0
  H  H68  1  0.93262000  0.92848000  0.85610000  1.0
  H  H69  1  0.06737000  0.07152000  0.35610000  1.0
  H  H70  1  0.97578000  0.96062000  0.72836000  1.0
  H  H71  1  0.02422000  0.03938000  0.22835000  1.0
  H  H72  1  0.73917000  0.82925000  0.82368000  1.0
  H  H73  1  0.26084000  0.17075000  0.32367000  1.0
  H  H74  1  0.58856000  0.85953000  0.76828000  1.0
  H  H75  1  0.41144000  0.14047000  0.26828000  1.0
  H  H76  1  0.69392000  0.76675000  0.76626000  1.0
  H  H77  1  0.30610000  0.23325000  0.26626000  1.0
  H  H78  1  0.67490000  0.89279000  0.67166000  1.0
  H  H79  1  0.32510000  0.10721000  0.17166000  1.0
  H  H80  1  0.89214000  0.88477000  0.64797000  1.0
  H  H81  1  0.10786000  0.11523000  0.14797000  1.0
  H  H82  1  0.78475000  0.80092000  0.65999000  1.0
  H  H83  1  0.21525000  0.19907000  0.15999000  1.0
  H  H84  1  0.81812000  0.64519000  0.60969000  1.0
  H  H85  1  0.18188000  0.35481000  0.10969000  1.0
  H  H86  1  0.76734000  0.59215000  0.51000000  1.0
  H  H87  1  0.23266000  0.40785000  0.01000000  1.0
  H  H88  1  0.89685000  0.36861000  0.58075000  1.0
  H  H89  1  0.10315000  0.63139000  0.08075000  1.0
  H  H90  1  0.93270000  0.43061000  0.67778000  1.0
  H  H91  1  0.06730000  0.56939000  0.17778000  1.0
  H  H92  1  0.36127000  0.49269000  0.40991000  1.0
  H  H93  1  0.63874000  0.50731000  0.90991000  1.0
  H  H94  1  0.12148000  0.49206000  0.33614000  1.0
  H  H95  1  0.87853000  0.50794000  0.83613000  1.0
  H  H96  1  0.42175000  0.34849000  0.22766000  1.0
  H  H97  1  0.57824000  0.65151000  0.72766000  1.0
  H  H98  1  0.66927000  0.34134000  0.29625000  1.0
  H  H99  1  0.33073000  0.65866000  0.79625000  1.0
  H  H100  1  0.09590000  0.27331000  0.38895000  1.0
  H  H101  1  0.90411000  0.72669000  0.88895000  1.0
  H  H102  1  0.39867000  0.22513000  0.40478000  1.0
  H  H103  1  0.60134000  0.77488000  0.90478000  1.0
  H  H104  1  0.46365000  0.38183000  0.53462000  1.0
  H  H105  1  0.53637000  0.61817000  0.03462000  1.0
  H  H106  1  0.16553000  0.43893000  0.52382000  1.0
  H  H107  1  0.83448000  0.56107000  0.02382000  1.0
  H  H108  1  0.62345000  0.13672000  0.64389000  1.0
  H  H109  1  0.37655000  0.86328000  0.14389000  1.0
  H  H110  1  0.87504000  0.34582000  0.36270000  1.0
  H  H111  1  0.12497000  0.65418000  0.86270000  1.0
  C  C112  1  0.25717000  0.02704000  0.67375000  1.0
  C  C113  1  0.74283000  0.97295000  0.17375000  1.0
  C  C114  1  0.12020000  0.02162000  0.63596000  1.0
  C  C115  1  0.87980000  0.97838000  0.13596000  1.0
  C  C116  1  0.96465000  0.06650000  0.64563000  1.0
  C  C117  1  0.03535000  0.93351000  0.14563000  1.0
  C  C118  1  0.95589000  0.11545000  0.69388000  1.0
  C  C119  1  0.04411000  0.88455000  0.19388000  1.0
  C  C120  1  0.09851000  0.11672000  0.72988000  1.0
  C  C121  1  0.90149000  0.88328000  0.22988000  1.0
  C  C122  1  0.82332000  0.06218000  0.60506000  1.0
  C  C123  1  0.17668000  0.93782000  0.10506000  1.0
  C  C124  1  0.57403000  0.08997000  0.55959000  1.0
  C  C125  1  0.42596000  0.91003000  0.05959000  1.0
  C  C126  1  0.39701000  0.12163000  0.55033000  1.0
  C  C127  1  0.60299000  0.87836000  0.05033000  1.0
  C  C128  1  0.32711000  0.18508000  0.58175000  1.0
  C  C129  1  0.67287000  0.81492000  0.08176000  1.0
  C  C130  1  0.15667000  0.21267000  0.57161000  1.0
  C  C131  1  0.84332000  0.78732000  0.07161000  1.0
  C  C132  1  0.11888000  0.12231000  0.50308000  1.0
  C  C133  1  0.88112000  0.87769000  0.00308000  1.0
  C  C134  1  0.28628000  0.08932000  0.51061000  1.0
  C  C135  1  0.71371000  0.91068000  0.01060000  1.0
  C  C136  1  0.68476000  0.03896000  0.52677000  1.0
  C  C137  1  0.31523000  0.96104000  0.02677000  1.0
  C  C138  1  0.66309000  0.01083000  0.46768000  1.0
  C  C139  1  0.33690000  0.98918000  0.96768000  1.0
  C  C140  1  0.60308000  0.06024000  0.42293000  1.0
  C  C141  1  0.39691000  0.93977000  0.92293000  1.0
  C  C142  1  0.58222000  0.03160000  0.36763000  1.0
  C  C143  1  0.41777000  0.96840000  0.86763000  1.0
  C  C144  1  0.68018000  0.91014000  0.39666000  1.0
  C  C145  1  0.31979000  0.08986000  0.89666000  1.0
  C  C146  1  0.70653000  0.93448000  0.45316000  1.0
  C  C147  1  0.29345000  0.06552000  0.95316000  1.0
  C  C148  1  0.52530000  0.22816000  0.74916000  1.0
  C  C149  1  0.47470000  0.77184000  0.24917000  1.0
  C  C150  1  0.54272000  0.31272000  0.76058000  1.0
  C  C151  1  0.45728000  0.68728000  0.26058000  1.0
  C  C152  1  0.72808000  0.32913000  0.74426000  1.0
  C  C153  1  0.27192000  0.67086000  0.24425000  1.0
  C  C154  1  0.50481000  0.33702000  0.82478000  1.0
  C  C155  1  0.49519000  0.66298000  0.32478000  1.0
  C  C156  1  0.36060000  0.40188000  0.82341000  1.0
  C  C157  1  0.63940000  0.59812000  0.32341000  1.0
  C  C158  1  0.37479000  0.43455000  0.76227000  1.0
  C  C159  1  0.62522000  0.56545000  0.26227000  1.0
  C  C160  1  0.40147000  0.36211000  0.72339000  1.0
  C  C161  1  0.59853000  0.63789000  0.22338000  1.0
  C  C162  1  0.23406000  0.32152000  0.71937000  1.0
  C  C163  1  0.76594000  0.67848000  0.21937000  1.0
  C  C164  1  0.45890000  0.38052000  0.66186000  1.0
  C  C165  1  0.54110000  0.61948000  0.16186000  1.0
  C  C166  1  0.23094000  0.49213000  0.74268000  1.0
  C  C167  1  0.76906000  0.50787000  0.24268000  1.0
  C  C168  1  0.01041000  0.72314000  0.75214000  1.0
  C  C169  1  0.98960000  0.27686000  0.25214000  1.0
  C  C170  1  0.03198000  0.80844000  0.75146000  1.0
  C  C171  1  0.96803000  0.19156000  0.25146000  1.0
  C  C172  1  0.16940000  0.82132000  0.70498000  1.0
  C  C173  1  0.83060000  0.17868000  0.20497000  1.0
  C  C174  1  0.09119000  0.83828000  0.81089000  1.0
  C  C175  1  0.90881000  0.16172000  0.31089000  1.0
  C  C176  1  0.01163000  0.92074000  0.81666000  1.0
  C  C177  1  0.98836000  0.07926000  0.31666000  1.0
  C  C178  1  0.89787000  0.93604000  0.76246000  1.0
  C  C179  1  0.10213000  0.06396000  0.26246000  1.0
  C  C180  1  0.85469000  0.85685000  0.73972000  1.0
  C  C181  1  0.14532000  0.14315000  0.23972000  1.0
  C  C182  1  0.71142000  0.82616000  0.77692000  1.0
  C  C183  1  0.28858000  0.17383000  0.27692000  1.0
  C  C184  1  0.79878000  0.85868000  0.67591000  1.0
  C  C185  1  0.20123000  0.14132000  0.17591000  1.0
  C  C186  1  0.75024000  0.99649000  0.77300000  1.0
  C  C187  1  0.24975000  0.00350000  0.27301000  1.0
  C  C188  1  0.83178000  0.58426000  0.60114000  1.0
  C  C189  1  0.16822000  0.41574000  0.10114000  1.0
  C  C190  1  0.80591000  0.55474000  0.54615000  1.0
  C  C191  1  0.19408000  0.44526000  0.04615000  1.0
  C  C192  1  0.83430000  0.47614000  0.53709000  1.0
  C  C193  1  0.16571000  0.52386000  0.03709000  1.0
  C  C194  1  0.87959000  0.43016000  0.58532000  1.0
  C  C195  1  0.12042000  0.56984000  0.08533000  1.0
  C  C196  1  0.89916000  0.46396000  0.63898000  1.0
  C  C197  1  0.10084000  0.53604000  0.13898000  1.0
  C  C198  1  0.81097000  0.44325000  0.47952000  1.0
  C  C199  1  0.18904000  0.55675000  0.97952000  1.0
  C  C200  1  0.67234000  0.41814000  0.40164000  1.0
  C  C201  1  0.32767000  0.58186000  0.90164000  1.0
  C  C202  1  0.53444000  0.41659000  0.35933000  1.0
  C  C203  1  0.46556000  0.58341000  0.85933000  1.0
  C  C204  1  0.37750000  0.45989000  0.37000000  1.0
  C  C205  1  0.62251000  0.54010000  0.87000000  1.0
  C  C206  1  0.24558000  0.45969000  0.32976000  1.0
  C  C207  1  0.75443000  0.54031000  0.82976000  1.0
  C  C208  1  0.41198000  0.37856000  0.26905000  1.0
  C  C209  1  0.58802000  0.62144000  0.76905000  1.0
  C  C210  1  0.54983000  0.37462000  0.30752000  1.0
  C  C211  1  0.45017000  0.62538000  0.80753000  1.0
  C  C212  1  0.92142000  0.39130000  0.44754000  1.0
  C  C213  1  0.07859000  0.60871000  0.94754000  1.0
  C  C214  1  0.09887000  0.35996000  0.45623000  1.0
  C  C215  1  0.90114000  0.64005000  0.95623000  1.0
  C  C216  1  0.17098000  0.29907000  0.42243000  1.0
  C  C217  1  0.82903000  0.70094000  0.92243000  1.0
  C  C218  1  0.34194000  0.27181000  0.43156000  1.0
  C  C219  1  0.65807000  0.72820000  0.93157000  1.0
  C  C220  1  0.37790000  0.35812000  0.50314000  1.0
  C  C221  1  0.62210000  0.64188000  0.00314000  1.0
  C  C222  1  0.20904000  0.39018000  0.49718000  1.0
  C  C223  1  0.79097000  0.60982000  0.99718000  1.0
  N  N224  1  0.24721000  0.07360000  0.72039000  1.0
  N  N225  1  0.75279000  0.92640000  0.22039000  1.0
  N  N226  1  0.66666667  0.10340000  0.60883000  1.0
  N  N227  1  0.33333333  0.89660000  0.10883000  1.0
  N  N228  1  0.83541000  0.02138000  0.55604000  1.0
  N  N229  1  0.16458000  0.97862000  0.05604000  1.0
  N  N230  1  0.05203000  0.18333000  0.53270000  1.0
  N  N231  1  0.94796000  0.81667000  0.03270000  1.0
  N  N232  1  0.61761000  0.95764000  0.35451000  1.0
  N  N233  1  0.38237000  0.04236000  0.85451000  1.0
  N  N234  1  0.87874000  0.53966000  0.64684000  1.0
  N  N235  1  0.12127000  0.46034000  0.14684000  1.0
  N  N236  1  0.66008000  0.45996000  0.45020000  1.0
  N  N237  1  0.33993000  0.54004000  0.95020000  1.0
  N  N238  1  0.82847000  0.37678000  0.39855000  1.0
  N  N239  1  0.17154000  0.62322000  0.89855000  1.0
  N  N240  1  0.26192000  0.41985000  0.27964000  1.0
  N  N241  1  0.73808000  0.58015000  0.77964000  1.0
  N  N242  1  0.44633000  0.29933000  0.47141000  1.0
  N  N243  1  0.55368000  0.70068000  0.97141000  1.0
  O  O244  1  0.45902000  0.18939000  0.78964000  1.0
  O  O245  1  0.54097000  0.81060000  0.28964000  1.0
  O  O246  1  0.57478000  0.20030000  0.70082000  1.0
  O  O247  1  0.42521000  0.79970000  0.20082000  1.0
  O  O248  1  0.08026000  0.49018000  0.76682000  1.0
  O  O249  1  0.91974000  0.50982000  0.26682000  1.0
  O  O250  1  0.25771000  0.54046000  0.70419000  1.0
  O  O251  1  0.74230000  0.45954000  0.20418000  1.0
  O  O252  1  0.04765000  0.68324000  0.79680000  1.0
  O  O253  1  0.95235000  0.31676000  0.29680000  1.0
  O  O254  1  0.95645000  0.69270000  0.70542000  1.0
  O  O255  1  0.04357000  0.30729000  0.20542000  1.0
  O  O256  1  0.76097000  0.04424000  0.81279000  1.0
  O  O257  1  0.23901000  0.95575000  0.31278000  1.0
  O  O258  1  0.61546000  0.99788000  0.73885000  1.0
  O  O259  1  0.38454000  0.00212000  0.23885000  1.0
