# generated using pymatgen
data_Ag2H20W5C28(NO4)4
_symmetry_space_group_name_H-M   'P 1'
_cell_length_a   11.08080000
_cell_length_b   13.32340000
_cell_length_c   13.97001252
_cell_angle_alpha   71.33861775
_cell_angle_beta   66.67798410
_cell_angle_gamma   85.66900000
_symmetry_Int_Tables_number   1
_chemical_formula_structural   Ag2H20W5C28(NO4)4
_chemical_formula_sum   'Ag4 H40 W10 C56 N8 O32'
_cell_volume   1791.25786688
_cell_formula_units_Z   2
loop_
 _symmetry_equiv_pos_site_id
 _symmetry_equiv_pos_as_xyz
  1  'x, y, z'
loop_
 _atom_site_type_symbol
 _atom_site_label
 _atom_site_symmetry_multiplicity
 _atom_site_fract_x
 _atom_site_fract_y
 _atom_site_fract_z
 _atom_site_occupancy
  Ag  Ag0  1  0.15681000  0.51858000  0.78282000  1.0
  Ag  Ag1  1  0.84320000  0.48142000  0.21717000  1.0
  Ag  Ag2  1  0.45165000  0.11415000  0.01335000  1.0
  Ag  Ag3  1  0.54835000  0.88585000  0.98665000  1.0
  H  H4  1  0.76618000  0.61914000  0.01633000  1.0
  H  H5  1  0.23382000  0.38086000  0.98367000  1.0
  H  H6  1  0.60909000  0.63775000  0.46054000  1.0
  H  H7  1  0.39091000  0.36225000  0.53946000  1.0
  H  H8  1  0.53678000  0.65926000  0.11512000  1.0
  H  H9  1  0.46322000  0.34074000  0.88488000  1.0
  H  H10  1  0.96992000  0.47775000  0.41402000  1.0
  H  H11  1  0.03008000  0.52225000  0.58598000  1.0
  H  H12  1  0.36726000  0.66229000  0.03692000  1.0
  H  H13  1  0.63274000  0.33771000  0.96308000  1.0
  H  H14  1  0.42921000  0.62605000  0.86118000  1.0
  H  H15  1  0.57079000  0.37395000  0.13882000  1.0
  H  H16  1  0.84319000  0.62461000  0.34492000  1.0
  H  H17  1  0.15681000  0.37539000  0.65508000  1.0
  H  H18  1  0.63442000  0.36267000  0.71984000  1.0
  H  H19  1  0.36558000  0.63733000  0.28016000  1.0
  H  H20  1  0.66021000  0.58409000  0.76207000  1.0
  H  H21  1  0.33979000  0.41591000  0.23793000  1.0
  H  H22  1  0.86456000  0.34825000  0.60414000  1.0
  H  H23  1  0.13544000  0.65175000  0.39586000  1.0
  H  H24  1  0.35931000  0.07975000  0.58983000  1.0
  H  H25  1  0.64069000  0.92025000  0.41017000  1.0
  H  H26  1  0.11997000  0.22704000  0.34358000  1.0
  H  H27  1  0.88003000  0.77296000  0.65642000  1.0
  H  H28  1  0.15138000  0.16921000  0.65441000  1.0
  H  H29  1  0.84862000  0.83079000  0.34559000  1.0
  H  H30  1  0.44990000  0.06571000  0.39959000  1.0
  H  H31  1  0.55010000  0.93429000  0.60041000  1.0
  H  H32  1  0.03205000  0.24367000  0.53212000  1.0
  H  H33  1  0.96795000  0.75633000  0.46788000  1.0
  H  H34  1  0.82725000  0.07816000  0.64593000  1.0
  H  H35  1  0.17275000  0.92184000  0.35407000  1.0
  H  H36  1  0.47444000  0.22356000  0.62221000  1.0
  H  H37  1  0.52556000  0.77644000  0.37779000  1.0
  H  H38  1  0.57397000  0.25635000  0.41783000  1.0
  H  H39  1  0.42603000  0.74365000  0.58217000  1.0
  H  H40  1  0.92403000  0.10894000  0.44339000  1.0
  H  H41  1  0.07597000  0.89106000  0.55661000  1.0
  H  H42  1  0.79878000  0.19955000  0.33044000  1.0
  H  H43  1  0.20122000  0.80045000  0.66956000  1.0
  W  W44  1  0.74702000  0.06860000  0.14807000  1.0
  W  W45  1  0.25298000  0.93140000  0.85193000  1.0
  W  W46  1  0.16662000  0.20337000  0.88688000  1.0
  W  W47  1  0.83338000  0.79663000  0.11312000  1.0
  W  W48  1  0.87664000  0.17751000  0.87808000  1.0
  W  W49  1  0.12336000  0.82249000  0.12192000  1.0
  W  W50  1  0.90513000  0.30473000  0.03758000  1.0
  W  W51  1  0.09487000  0.69527000  0.96242000  1.0
  W  W52  1  0.03639000  0.09500000  0.15727000  1.0
  W  W53  1  0.96360000  0.90500000  0.84274000  1.0
  C  C54  1  0.60719000  0.50140000  0.59734000  1.0
  C  C55  1  0.39281000  0.49860000  0.40266000  1.0
  C  C56  1  0.47337000  0.51023000  0.66230000  1.0
  C  C57  1  0.52663000  0.48977000  0.33770000  1.0
  C  C58  1  0.72604000  0.59929000  0.88380000  1.0
  C  C59  1  0.27396000  0.40071000  0.11620000  1.0
  C  C60  1  0.85779000  0.57574000  0.82981000  1.0
  C  C61  1  0.14221000  0.42426000  0.17019000  1.0
  C  C62  1  0.69187000  0.62071000  0.98336000  1.0
  C  C63  1  0.30813000  0.37929000  0.01664000  1.0
  C  C64  1  0.66605000  0.57515000  0.49125000  1.0
  C  C65  1  0.33395000  0.42485000  0.50875000  1.0
  C  C66  1  0.56279000  0.64326000  0.03773000  1.0
  C  C67  1  0.43721000  0.35674000  0.96227000  1.0
  C  C68  1  0.86814000  0.48469000  0.46611000  1.0
  C  C69  1  0.13186000  0.51531000  0.53389000  1.0
  C  C70  1  0.46842000  0.64465000  0.99416000  1.0
  C  C71  1  0.53158000  0.35535000  0.00584000  1.0
  C  C72  1  0.50314000  0.62396000  0.89485000  1.0
  C  C73  1  0.49686000  0.37604000  0.10515000  1.0
  C  C74  1  0.79672000  0.56654000  0.42626000  1.0
  C  C75  1  0.20328000  0.43346000  0.57374000  1.0
  C  C76  1  0.67966000  0.41968000  0.63793000  1.0
  C  C77  1  0.32034000  0.58032000  0.36207000  1.0
  C  C78  1  0.63160000  0.60087000  0.83930000  1.0
  C  C79  1  0.36840000  0.39913000  0.16070000  1.0
  C  C80  1  0.81005000  0.41196000  0.57157000  1.0
  C  C81  1  0.18994000  0.58804000  0.42844000  1.0
  C  C82  1  0.30855000  0.11375000  0.53514000  1.0
  C  C83  1  0.69145000  0.88625000  0.46486000  1.0
  C  C84  1  0.29050000  0.14653000  0.36152000  1.0
  C  C85  1  0.70950000  0.85347000  0.63848000  1.0
  C  C86  1  0.17248000  0.19726000  0.39749000  1.0
  C  C87  1  0.82752000  0.80275000  0.60251000  1.0
  C  C88  1  0.19133000  0.16371000  0.57154000  1.0
  C  C89  1  0.80866000  0.83630000  0.42846000  1.0
  C  C90  1  0.35948000  0.10507000  0.43002000  1.0
  C  C91  1  0.64052000  0.89493000  0.56998000  1.0
  C  C92  1  0.33869000  0.13373000  0.25621000  1.0
  C  C93  1  0.66131000  0.86627000  0.74379000  1.0
  C  C94  1  0.12407000  0.20575000  0.50267000  1.0
  C  C95  1  0.87594000  0.79425000  0.49732000  1.0
  C  C96  1  0.64608000  0.15104000  0.64398000  1.0
  C  C97  1  0.35392000  0.84896000  0.35602000  1.0
  C  C98  1  0.58678000  0.13300000  0.75860000  1.0
  C  C99  1  0.41322000  0.86700000  0.24140000  1.0
  C  C100  1  0.77343000  0.11839000  0.59523000  1.0
  C  C101  1  0.22657000  0.88161000  0.40477000  1.0
  C  C102  1  0.57335000  0.20095000  0.58065000  1.0
  C  C103  1  0.42665000  0.79905000  0.41935000  1.0
  C  C104  1  0.62936000  0.21869000  0.46789000  1.0
  C  C105  1  0.37064000  0.78131000  0.53211000  1.0
  C  C106  1  0.82698000  0.13608000  0.48232000  1.0
  C  C107  1  0.17302000  0.86392000  0.51768000  1.0
  C  C108  1  0.75587000  0.18659000  0.41866000  1.0
  C  C109  1  0.24413000  0.81341000  0.58134000  1.0
  N  N110  1  0.36317000  0.51958000  0.71311000  1.0
  N  N111  1  0.63682000  0.48042000  0.28689000  1.0
  N  N112  1  0.96719000  0.55718000  0.78750000  1.0
  N  N113  1  0.03281000  0.44282000  0.21250000  1.0
  N  N114  1  0.37794000  0.12111000  0.17072000  1.0
  N  N115  1  0.62206000  0.87889000  0.82928000  1.0
  N  N116  1  0.53475000  0.11932000  0.85259000  1.0
  N  N117  1  0.46525000  0.88068000  0.14741000  1.0
  O  O118  1  0.08345000  0.07862000  0.26548000  1.0
  O  O119  1  0.91655000  0.92138000  0.73452000  1.0
  O  O120  1  0.08374000  0.32984000  0.92713000  1.0
  O  O121  1  0.91626000  0.67016000  0.07287000  1.0
  O  O122  1  0.85376000  0.04698000  0.23289000  1.0
  O  O123  1  0.14624000  0.95302000  0.76711000  1.0
  O  O124  1  0.86329000  0.42842000  0.05588000  1.0
  O  O125  1  0.13671000  0.57158000  0.94412000  1.0
  O  O126  1  0.95740000  0.13970000  0.01608000  1.0
  O  O127  1  0.04260000  0.86030000  0.98392000  1.0
  O  O128  1  0.19110000  0.15799000  0.02388000  1.0
  O  O129  1  0.80890000  0.84201000  0.97612000  1.0
  O  O130  1  0.81514000  0.22447000  0.77643000  1.0
  O  O131  1  0.18486000  0.77553000  0.22357000  1.0
  O  O132  1  0.72282000  0.11283000  0.01071000  1.0
  O  O133  1  0.27718000  0.88717000  0.98929000  1.0
  O  O134  1  0.74623000  0.21704000  0.13986000  1.0
  O  O135  1  0.25377000  0.78296000  0.86014000  1.0
  O  O136  1  0.06127000  0.22430000  0.79993000  1.0
  O  O137  1  0.93873000  0.77570000  0.20007000  1.0
  O  O138  1  0.79912000  0.93423000  0.12540000  1.0
  O  O139  1  0.20088000  0.06577000  0.87460000  1.0
  O  O140  1  0.84975000  0.30544000  0.92286000  1.0
  O  O141  1  0.15025000  0.69456000  0.07714000  1.0
  O  O142  1  0.07861000  0.96033000  0.13451000  1.0
  O  O143  1  0.92139000  0.03967000  0.86549000  1.0
  O  O144  1  0.31531000  0.27037000  0.79063000  1.0
  O  O145  1  0.68469000  0.72963000  0.20937000  1.0
  O  O146  1  0.59145000  0.02835000  0.25027000  1.0
  O  O147  1  0.40855000  0.97165000  0.74973000  1.0
  O  O148  1  0.97950000  0.23975000  0.14494000  1.0
  O  O149  1  0.02050000  0.76025000  0.85506000  1.0
