# generated using pymatgen
data_CdH18C20(N2O3)2
_symmetry_space_group_name_H-M   'P 1'
_cell_length_a   9.77094000
_cell_length_b   11.72670000
_cell_length_c   12.36971967
_cell_angle_alpha   74.72873165
_cell_angle_beta   66.73485573
_cell_angle_gamma   65.37260000
_symmetry_Int_Tables_number   1
_chemical_formula_structural   CdH18C20(N2O3)2
_chemical_formula_sum   'Cd2 H36 C40 N8 O12'
_cell_volume   1175.33259618
_cell_formula_units_Z   2
loop_
 _symmetry_equiv_pos_site_id
 _symmetry_equiv_pos_as_xyz
  1  'x, y, z'
loop_
 _atom_site_type_symbol
 _atom_site_label
 _atom_site_symmetry_multiplicity
 _atom_site_fract_x
 _atom_site_fract_y
 _atom_site_fract_z
 _atom_site_occupancy
  Cd  Cd0  1  0.95328000  0.49994000  0.49999000  1.0
  Cd  Cd1  1  0.66481000  0.00011000  0.00000000  1.0
  H  H2  1  0.85513000  0.31728000  0.76253000  1.0
  H  H3  1  0.93484000  0.68266000  0.23748000  1.0
  H  H4  1  0.72619000  0.38267000  0.12357000  1.0
  H  H5  1  0.23219000  0.61726000  0.87641000  1.0
  H  H6  1  0.82999000  0.55984000  0.05606000  1.0
  H  H7  1  0.44580000  0.44023000  0.94385000  1.0
  H  H8  1  0.00236000  0.80498000  0.61385000  1.0
  H  H9  1  0.42138000  0.19508000  0.38612000  1.0
  H  H10  1  0.29637000  0.72939000  0.49785000  1.0
  H  H11  1  0.52366000  0.27063000  0.50221000  1.0
  H  H12  1  0.30749000  0.57035000  0.55770000  1.0
  H  H13  1  0.43560000  0.42968000  0.44239000  1.0
  H  H14  1  0.25682000  0.68374000  0.65201000  1.0
  H  H15  1  0.59271000  0.31633000  0.34808000  1.0
  H  H16  1  0.68682000  0.81805000  0.26649000  1.0
  H  H17  1  0.77117000  0.18199000  0.73358000  1.0
  H  H18  1  0.36815000  0.87663000  0.62413000  1.0
  H  H19  1  0.86881000  0.12340000  0.37593000  1.0
  H  H20  1  0.15567000  0.04887000  0.55034000  1.0
  H  H21  1  0.75508000  0.95102000  0.44970000  1.0
  H  H22  1  0.23870000  0.09966000  0.04158000  1.0
  H  H23  1  0.37961000  0.90042000  0.95828000  1.0
  H  H24  1  0.07229000  0.32761000  0.02392000  1.0
  H  H25  1  0.42356000  0.67245000  0.97590000  1.0
  H  H26  1  0.10323000  0.34837000  0.14909000  1.0
  H  H27  1  0.60049000  0.65169000  0.85078000  1.0
  H  H28  1  0.99959000  0.24866000  0.16560000  1.0
  H  H29  1  0.41367000  0.75140000  0.83421000  1.0
  H  H30  1  0.08936000  0.75301000  0.41954000  1.0
  H  H31  1  0.26200000  0.24692000  0.58040000  1.0
  H  H32  1  0.36878000  0.28765000  0.99265000  1.0
  H  H33  1  0.64878000  0.71244000  0.00732000  1.0
  H  H34  1  0.97012000  0.70076000  0.83646000  1.0
  H  H35  1  0.50743000  0.29929000  0.16349000  1.0
  H  H36  1  0.10195000  0.18234000  0.32903000  1.0
  H  H37  1  0.61341000  0.81758000  0.67104000  1.0
  C  C38  1  0.89946000  0.47345000  0.78696000  1.0
  C  C39  1  0.15983000  0.52651000  0.21301000  1.0
  C  C40  1  0.84849000  0.37052000  0.82563000  1.0
  C  C41  1  0.04452000  0.62941000  0.17437000  1.0
  C  C42  1  0.78727000  0.33862000  0.94815000  1.0
  C  C43  1  0.07380000  0.66131000  0.05186000  1.0
  C  C44  1  0.77440000  0.41084000  0.02922000  1.0
  C  C45  1  0.21424000  0.58908000  0.97077000  1.0
  C  C46  1  0.82944000  0.51152000  0.99201000  1.0
  C  C47  1  0.33286000  0.48849000  0.00795000  1.0
  C  C48  1  0.89388000  0.54083000  0.86965000  1.0
  C  C49  1  0.30435000  0.45915000  0.13030000  1.0
  C  C50  1  0.99336000  0.62237000  0.68683000  1.0
  C  C51  1  0.30267000  0.37767000  0.31312000  1.0
  C  C52  1  0.06664000  0.70771000  0.58933000  1.0
  C  C53  1  0.36382000  0.29236000  0.41062000  1.0
  C  C54  1  0.24288000  0.66978000  0.57308000  1.0
  C  C55  1  0.48582000  0.33027000  0.42697000  1.0
  C  C56  1  0.74019000  0.22344000  0.99344000  1.0
  C  C57  1  0.95673000  0.77651000  0.00662000  1.0
  C  C58  1  0.45604000  0.96606000  0.28615000  1.0
  C  C59  1  0.70816000  0.03395000  0.71391000  1.0
  C  C60  1  0.57304000  0.86848000  0.32773000  1.0
  C  C61  1  0.76912000  0.13152000  0.67233000  1.0
  C  C62  1  0.53814000  0.83682000  0.45030000  1.0
  C  C63  1  0.82516000  0.16318000  0.54976000  1.0
  C  C64  1  0.39025000  0.90452000  0.52928000  1.0
  C  C65  1  0.82401000  0.09545000  0.47078000  1.0
  C  C66  1  0.27105000  0.00026000  0.48914000  1.0
  C  C67  1  0.76053000  0.99967000  0.51091000  1.0
  C  C68  1  0.30537000  0.02868000  0.36618000  1.0
  C  C69  1  0.70029000  0.97124000  0.63388000  1.0
  C  C70  1  0.30976000  0.10129000  0.18125000  1.0
  C  C71  1  0.59217000  0.89871000  0.81879000  1.0
  C  C72  1  0.25422000  0.16952000  0.07635000  1.0
  C  C73  1  0.49980000  0.83053000  0.92360000  1.0
  C  C74  1  0.09851000  0.28005000  0.10595000  1.0
  C  C75  1  0.48428000  0.72002000  0.89390000  1.0
  C  C76  1  0.65642000  0.72544000  0.49798000  1.0
  C  C77  1  0.87976000  0.27455000  0.50207000  1.0
  N  N78  1  0.96230000  0.52792000  0.67293000  1.0
  N  N79  1  0.16321000  0.47205000  0.32704000  1.0
  N  N80  1  0.95547000  0.63325000  0.80283000  1.0
  N  N81  1  0.39164000  0.36676000  0.19710000  1.0
  N  N82  1  0.45466000  0.01538000  0.17124000  1.0
  N  N83  1  0.64108000  0.98465000  0.82882000  1.0
  N  N84  1  0.21609000  0.11294000  0.29646000  1.0
  N  N85  1  0.62557000  0.88698000  0.70358000  1.0
  O  O86  1  0.04174000  0.69970000  0.48540000  1.0
  O  O87  1  0.22698000  0.30034000  0.51455000  1.0
  O  O88  1  0.77275000  0.15314000  0.91674000  1.0
  O  O89  1  0.84239000  0.84682000  0.08333000  1.0
  O  O90  1  0.67134000  0.19999000  0.10374000  1.0
  O  O91  1  0.97470000  0.79997000  0.89631000  1.0
  O  O92  1  0.37946000  0.20436000  0.98161000  1.0
  O  O93  1  0.56487000  0.79562000  0.01850000  1.0
  O  O94  1  0.77350000  0.65478000  0.42234000  1.0
  O  O95  1  0.85044000  0.34527000  0.57769000  1.0
  O  O96  1  0.63548000  0.70540000  0.60835000  1.0
  O  O97  1  0.94921000  0.29456000  0.39172000  1.0
