# generated using pymatgen
data_Mn2H4C6N14O
_symmetry_space_group_name_H-M   'P 1'
_cell_length_a   7.36347000
_cell_length_b   9.63995000
_cell_length_c   20.15310000
_cell_angle_alpha   89.99990000
_cell_angle_beta   90.00010000
_cell_angle_gamma   89.99980000
_symmetry_Int_Tables_number   1
_chemical_formula_structural   Mn2H4C6N14O
_chemical_formula_sum   'Mn8 H16 C24 N56 O4'
_cell_volume   1430.53722371
_cell_formula_units_Z   4
loop_
 _symmetry_equiv_pos_site_id
 _symmetry_equiv_pos_as_xyz
  1  'x, y, z'
loop_
 _atom_site_type_symbol
 _atom_site_label
 _atom_site_symmetry_multiplicity
 _atom_site_fract_x
 _atom_site_fract_y
 _atom_site_fract_z
 _atom_site_occupancy
  Mn  Mn0  1  0.74999000  0.11692000  0.50000000  1.0
  Mn  Mn1  1  0.25007000  0.88310000  0.99999000  1.0
  Mn  Mn2  1  0.25007000  0.88308000  0.50001000  1.0
  Mn  Mn3  1  0.75001000  0.11692000  0.00001000  1.0
  Mn  Mn4  1  0.47074000  0.50990000  0.24999000  1.0
  Mn  Mn5  1  0.52925000  0.49008000  0.74998000  1.0
  Mn  Mn6  1  0.97073000  0.49006000  0.24999000  1.0
  Mn  Mn7  1  0.02924000  0.50988000  0.75001000  1.0
  H  H8  1  0.42525000  0.35994000  0.40682000  1.0
  H  H9  1  0.57474000  0.64006000  0.90681000  1.0
  H  H10  1  0.92525000  0.64007000  0.09318000  1.0
  H  H11  1  0.07475000  0.35994000  0.59318000  1.0
  H  H12  1  0.57474000  0.64006000  0.59318000  1.0
  H  H13  1  0.42525000  0.35993000  0.09318000  1.0
  H  H14  1  0.07474000  0.35993000  0.90682000  1.0
  H  H15  1  0.92526000  0.64006000  0.40682000  1.0
  H  H16  1  0.21996000  0.29561000  0.29050000  1.0
  H  H17  1  0.78003000  0.70439000  0.79049000  1.0
  H  H18  1  0.71996000  0.70439000  0.20951000  1.0
  H  H19  1  0.28003000  0.29560000  0.70950000  1.0
  H  H20  1  0.78004000  0.70439000  0.70951000  1.0
  H  H21  1  0.21996000  0.29560000  0.20951000  1.0
  H  H22  1  0.28004000  0.29561000  0.79050000  1.0
  H  H23  1  0.71996000  0.70439000  0.29050000  1.0
  C  C24  1  0.56367000  0.35083000  0.38887000  1.0
  C  C25  1  0.43633000  0.64917000  0.88887000  1.0
  C  C26  1  0.06367000  0.64918000  0.11113000  1.0
  C  C27  1  0.93633000  0.35084000  0.61113000  1.0
  C  C28  1  0.43633000  0.64917000  0.61113000  1.0
  C  C29  1  0.56367000  0.35082000  0.11113000  1.0
  C  C30  1  0.93632000  0.35082000  0.88887000  1.0
  C  C31  1  0.06367000  0.64917000  0.38887000  1.0
  C  C32  1  0.84002000  0.29471000  0.37779000  1.0
  C  C33  1  0.15998000  0.70529000  0.87779000  1.0
  C  C34  1  0.34002000  0.70529000  0.12221000  1.0
  C  C35  1  0.65998000  0.29471000  0.62221000  1.0
  C  C36  1  0.15997000  0.70530000  0.62221000  1.0
  C  C37  1  0.84002000  0.29470000  0.12221000  1.0
  C  C38  1  0.65998000  0.29471000  0.87779000  1.0
  C  C39  1  0.34002000  0.70529000  0.37779000  1.0
  C  C40  1  0.00370000  0.21618000  0.39017000  1.0
  C  C41  1  0.99629000  0.78383000  0.89017000  1.0
  C  C42  1  0.50371000  0.78382000  0.10984000  1.0
  C  C43  1  0.49630000  0.21618000  0.60984000  1.0
  C  C44  1  0.99629000  0.78383000  0.60983000  1.0
  C  C45  1  0.00371000  0.21618000  0.10984000  1.0
  C  C46  1  0.49630000  0.21618000  0.89016000  1.0
  C  C47  1  0.50371000  0.78382000  0.39016000  1.0
  N  N48  1  0.00708000  0.12642000  0.44125000  1.0
  N  N49  1  0.99292000  0.87359000  0.94125000  1.0
  N  N50  1  0.50709000  0.87358000  0.05875000  1.0
  N  N51  1  0.49292000  0.12642000  0.55875000  1.0
  N  N52  1  0.99292000  0.87359000  0.55875000  1.0
  N  N53  1  0.00708000  0.12641000  0.05875000  1.0
  N  N54  1  0.49292000  0.12642000  0.94125000  1.0
  N  N55  1  0.50709000  0.87359000  0.44125000  1.0
  N  N56  1  0.80203000  0.37676000  0.32609000  1.0
  N  N57  1  0.19796000  0.62324000  0.82609000  1.0
  N  N58  1  0.30203000  0.62324000  0.17390000  1.0
  N  N59  1  0.69797000  0.37677000  0.67391000  1.0
  N  N60  1  0.19796000  0.62324000  0.67391000  1.0
  N  N61  1  0.80203000  0.37676000  0.17390000  1.0
  N  N62  1  0.69796000  0.37676000  0.82609000  1.0
  N  N63  1  0.30203000  0.62323000  0.32609000  1.0
  N  N64  1  0.16434000  0.05772000  0.43462000  1.0
  N  N65  1  0.83566000  0.94228000  0.93462000  1.0
  N  N66  1  0.66434000  0.94228000  0.06538000  1.0
  N  N67  1  0.33567000  0.05773000  0.56538000  1.0
  N  N68  1  0.83566000  0.94228000  0.56538000  1.0
  N  N69  1  0.16434000  0.05772000  0.06538000  1.0
  N  N70  1  0.33567000  0.05773000  0.93462000  1.0
  N  N71  1  0.66434000  0.94228000  0.43462000  1.0
  N  N72  1  0.62209000  0.41212000  0.33308000  1.0
  N  N73  1  0.37790000  0.58788000  0.83308000  1.0
  N  N74  1  0.12209000  0.58788000  0.16691000  1.0
  N  N75  1  0.87791000  0.41212000  0.66691000  1.0
  N  N76  1  0.37790000  0.58788000  0.66691000  1.0
  N  N77  1  0.62209000  0.41211000  0.16691000  1.0
  N  N78  1  0.87790000  0.41211000  0.83309000  1.0
  N  N79  1  0.12209000  0.58788000  0.33308000  1.0
  N  N80  1  0.69471000  0.27600000  0.41878000  1.0
  N  N81  1  0.30529000  0.72401000  0.91878000  1.0
  N  N82  1  0.19471000  0.72401000  0.08122000  1.0
  N  N83  1  0.80529000  0.27600000  0.58122000  1.0
  N  N84  1  0.30529000  0.72401000  0.58122000  1.0
  N  N85  1  0.69471000  0.27599000  0.08122000  1.0
  N  N86  1  0.80528000  0.27599000  0.91878000  1.0
  N  N87  1  0.19471000  0.72400000  0.41878000  1.0
  N  N88  1  0.15655000  0.20508000  0.35415000  1.0
  N  N89  1  0.84344000  0.79492000  0.85415000  1.0
  N  N90  1  0.65656000  0.79492000  0.14585000  1.0
  N  N91  1  0.34344000  0.20508000  0.64585000  1.0
  N  N92  1  0.84344000  0.79492000  0.64585000  1.0
  N  N93  1  0.15656000  0.20508000  0.14585000  1.0
  N  N94  1  0.34345000  0.20508000  0.85415000  1.0
  N  N95  1  0.65656000  0.79492000  0.35415000  1.0
  N  N96  1  0.25515000  0.10451000  0.38291000  1.0
  N  N97  1  0.74485000  0.89549000  0.88291000  1.0
  N  N98  1  0.75515000  0.89548000  0.11710000  1.0
  N  N99  1  0.24485000  0.10452000  0.61709000  1.0
  N  N100  1  0.74484000  0.89549000  0.61709000  1.0
  N  N101  1  0.25516000  0.10451000  0.11709000  1.0
  N  N102  1  0.24485000  0.10452000  0.88291000  1.0
  N  N103  1  0.75516000  0.89549000  0.38291000  1.0
  O  O104  1  0.23767000  0.35881000  0.25000000  1.0
  O  O105  1  0.76232000  0.64119000  0.75000000  1.0
  O  O106  1  0.73767000  0.64118000  0.25000000  1.0
  O  O107  1  0.26232000  0.35881000  0.75000000  1.0
