# generated using pymatgen
data_LiH8C9N4O2F3
_symmetry_space_group_name_H-M   'P 1'
_cell_length_a   8.50049000
_cell_length_b   10.05830000
_cell_length_c   15.34780000
_cell_angle_alpha   102.76600000
_cell_angle_beta   99.44740000
_cell_angle_gamma   98.64440000
_symmetry_Int_Tables_number   1
_chemical_formula_structural   LiH8C9N4O2F3
_chemical_formula_sum   'Li4 H32 C36 N16 O8 F12'
_cell_volume   1238.48064176
_cell_formula_units_Z   4
loop_
 _symmetry_equiv_pos_site_id
 _symmetry_equiv_pos_as_xyz
  1  'x, y, z'
loop_
 _atom_site_type_symbol
 _atom_site_label
 _atom_site_symmetry_multiplicity
 _atom_site_fract_x
 _atom_site_fract_y
 _atom_site_fract_z
 _atom_site_occupancy
  Li  Li0  1  0.92869000  0.72552000  0.37619000  1.0
  Li  Li1  1  0.07131000  0.27448000  0.62381000  1.0
  Li  Li2  1  0.76735000  0.27442000  0.01845000  1.0
  Li  Li3  1  0.23265000  0.72558000  0.98155000  1.0
  H  H4  1  0.28695000  0.92369000  0.37027000  1.0
  H  H5  1  0.71305000  0.07631000  0.62973000  1.0
  H  H6  1  0.09982000  0.96537000  0.32128000  1.0
  H  H7  1  0.90018000  0.03463000  0.67872000  1.0
  H  H8  1  0.23097000  0.90109000  0.24868000  1.0
  H  H9  1  0.76904000  0.09891000  0.75132000  1.0
  H  H10  1  0.29593000  0.68168000  0.35413000  1.0
  H  H11  1  0.70407000  0.31832000  0.64587000  1.0
  H  H12  1  0.25168000  0.65130000  0.23238000  1.0
  H  H13  1  0.74832000  0.34869000  0.76762000  1.0
  H  H14  1  0.99949000  0.48463000  0.21949000  1.0
  H  H15  1  0.00051000  0.51537000  0.78051000  1.0
  H  H16  1  0.16366000  0.43581000  0.28653000  1.0
  H  H17  1  0.83634000  0.56419000  0.71347000  1.0
  H  H18  1  0.91314000  0.33131000  0.36205000  1.0
  H  H19  1  0.08686000  0.66869000  0.63795000  1.0
  H  H20  1  0.79239000  0.40242000  0.28357000  1.0
  H  H21  1  0.20762000  0.59757000  0.71643000  1.0
  H  H22  1  0.66914000  0.40393000  0.41801000  1.0
  H  H23  1  0.33087000  0.59607000  0.58199000  1.0
  H  H24  1  0.85641000  0.49536000  0.49397000  1.0
  H  H25  1  0.14359000  0.50464000  0.50603000  1.0
  H  H26  1  0.53828000  0.60298000  0.47248000  1.0
  H  H27  1  0.46173000  0.39702000  0.52752000  1.0
  H  H28  1  0.63964000  0.77037000  0.46789000  1.0
  H  H29  1  0.36037000  0.22963000  0.53211000  1.0
  H  H30  1  0.72723000  0.68600000  0.54972000  1.0
  H  H31  1  0.27278000  0.31399000  0.45028000  1.0
  H  H32  1  0.74000000  0.04324000  0.89678000  1.0
  H  H33  1  0.26000000  0.95676000  0.10322000  1.0
  H  H34  1  0.61089000  0.12780000  0.85977000  1.0
  H  H35  1  0.38911000  0.87220000  0.14023000  1.0
  C  C36  1  0.34845000  0.20008000  0.74781000  1.0
  C  C37  1  0.65155000  0.79992000  0.25219000  1.0
  C  C38  1  0.39456000  0.99906000  0.69380000  1.0
  C  C39  1  0.60544000  0.00094000  0.30620000  1.0
  C  C40  1  0.25613000  0.02083000  0.63754000  1.0
  C  C41  1  0.74387000  0.97917000  0.36246000  1.0
  C  C42  1  0.46950000  0.88198000  0.68289000  1.0
  C  C43  1  0.53050000  0.11801000  0.31711000  1.0
  C  C44  1  0.15212000  0.92564000  0.56140000  1.0
  C  C45  1  0.84788000  0.07436000  0.43860000  1.0
  C  C46  1  0.37293000  0.34372000  0.80843000  1.0
  C  C47  1  0.62707000  0.65628000  0.19157000  1.0
  C  C48  1  0.18490000  0.89464000  0.31069000  1.0
  C  C49  1  0.81510000  0.10535000  0.68931000  1.0
  C  C50  1  0.19687000  0.65519000  0.29288000  1.0
  C  C51  1  0.80313000  0.34480000  0.70712000  1.0
  C  C52  1  0.08945000  0.51665000  0.28433000  1.0
  C  C53  1  0.91055000  0.48335000  0.71567000  1.0
  C  C54  1  0.87144000  0.42650000  0.35185000  1.0
  C  C55  1  0.12856000  0.57350000  0.64815000  1.0
  C  C56  1  0.78141000  0.47967000  0.42530000  1.0
  C  C57  1  0.21859000  0.52033000  0.57470000  1.0
  C  C58  1  0.65752000  0.66965000  0.47977000  1.0
  C  C59  1  0.34248000  0.33035000  0.52023000  1.0
  C  C60  1  0.96507000  0.85999000  0.89302000  1.0
  C  C61  1  0.03493000  0.14001000  0.10698000  1.0
  C  C62  1  0.84952000  0.68677000  0.93284000  1.0
  C  C63  1  0.15047000  0.31323000  0.06716000  1.0
  C  C64  1  0.73414000  0.76850000  0.91109000  1.0
  C  C65  1  0.26586000  0.23150000  0.08890000  1.0
  C  C66  1  0.82425000  0.56410000  0.96277000  1.0
  C  C67  1  0.17575000  0.43591000  0.03723000  1.0
  C  C68  1  0.56746000  0.74672000  0.91416000  1.0
  C  C69  1  0.43253000  0.25328000  0.08584000  1.0
  C  C70  1  0.09017000  0.95109000  0.86289000  1.0
  C  C71  1  0.90983000  0.04891000  0.13711000  1.0
  N  N72  1  0.22869000  0.15062000  0.67299000  1.0
  N  N73  1  0.77131000  0.84938000  0.32701000  1.0
  N  N74  1  0.45118000  0.11465000  0.76400000  1.0
  N  N75  1  0.54882000  0.88535000  0.23600000  1.0
  N  N76  1  0.06535000  0.84400000  0.49953000  1.0
  N  N77  1  0.93465000  0.15600000  0.50047000  1.0
  N  N78  1  0.53185000  0.78523000  0.67170000  1.0
  N  N79  1  0.46815000  0.21477000  0.32830000  1.0
  N  N80  1  0.81062000  0.87914000  0.88608000  1.0
  N  N81  1  0.18938000  0.12086000  0.11392000  1.0
  N  N82  1  0.99739000  0.74698000  0.92094000  1.0
  N  N83  1  0.00260000  0.25302000  0.07906000  1.0
  N  N84  1  0.43018000  0.72617000  0.91764000  1.0
  N  N85  1  0.56982000  0.27383000  0.08235000  1.0
  N  N86  1  0.80036000  0.46204000  0.98673000  1.0
  N  N87  1  0.19964000  0.53796000  0.01328000  1.0
  O  O88  1  0.09684000  0.75775000  0.30088000  1.0
  O  O89  1  0.90316000  0.24225000  0.69912000  1.0
  O  O90  1  0.00716000  0.53541000  0.35943000  1.0
  O  O91  1  0.99284000  0.46459000  0.64057000  1.0
  O  O92  1  0.74283000  0.60946000  0.41327000  1.0
  O  O93  1  0.25717000  0.39054000  0.58673000  1.0
  O  O94  1  0.70671000  0.13490000  0.90841000  1.0
  O  O95  1  0.29329000  0.86510000  0.09159000  1.0
  F  F96  1  0.49446000  0.43355000  0.79008000  1.0
  F  F97  1  0.50555000  0.56645000  0.20992000  1.0
  F  F98  1  0.41589000  0.34518000  0.89790000  1.0
  F  F99  1  0.58411000  0.65483000  0.10210000  1.0
  F  F100  1  0.23603000  0.39804000  0.79716000  1.0
  F  F101  1  0.76397000  0.60196000  0.20283000  1.0
  F  F102  1  0.06512000  0.08355000  0.87462000  1.0
  F  F103  1  0.93487000  0.91645000  0.12538000  1.0
  F  F104  1  0.24355000  0.95535000  0.90720000  1.0
  F  F105  1  0.75644000  0.04466000  0.09280000  1.0
  F  F106  1  0.08649000  0.90156000  0.77089000  1.0
  F  F107  1  0.91351000  0.09844000  0.22911000  1.0
