# generated using pymatgen
data_ZnH12C8(NO4)2
_symmetry_space_group_name_H-M   'P 1'
_cell_length_a   6.79402000
_cell_length_b   10.95140000
_cell_length_c   10.95140000
_cell_angle_alpha   71.71100000
_cell_angle_beta   89.99990000
_cell_angle_gamma   89.99970000
_symmetry_Int_Tables_number   1
_chemical_formula_structural   ZnH12C8(NO4)2
_chemical_formula_sum   'Zn2 H24 C16 N4 O16'
_cell_volume   773.66785429
_cell_formula_units_Z   2
loop_
 _symmetry_equiv_pos_site_id
 _symmetry_equiv_pos_as_xyz
  1  'x, y, z'
loop_
 _atom_site_type_symbol
 _atom_site_label
 _atom_site_symmetry_multiplicity
 _atom_site_fract_x
 _atom_site_fract_y
 _atom_site_fract_z
 _atom_site_occupancy
  Zn  Zn0  1  0.10889000  0.00000000  0.50000000  1.0
  Zn  Zn1  1  0.89111000  0.50000000  0.00000000  1.0
  H  H2  1  0.36584000  0.97891000  0.13095000  1.0
  H  H3  1  0.36584000  0.02109000  0.86905000  1.0
  H  H4  1  0.63416000  0.86905000  0.02109000  1.0
  H  H5  1  0.63415000  0.13095000  0.97891000  1.0
  H  H6  1  0.59823000  0.98001000  0.21007000  1.0
  H  H7  1  0.59823000  0.01999000  0.78993000  1.0
  H  H8  1  0.40177000  0.78993000  0.01999000  1.0
  H  H9  1  0.40177000  0.21008000  0.98001000  1.0
  H  H10  1  0.60024000  0.25517000  0.44461000  1.0
  H  H11  1  0.60024000  0.74483000  0.55539000  1.0
  H  H12  1  0.39976000  0.55539000  0.74483000  1.0
  H  H13  1  0.39975000  0.44461000  0.25517000  1.0
  H  H14  1  0.73701000  0.35903000  0.31370000  1.0
  H  H15  1  0.73701000  0.64097000  0.68629000  1.0
  H  H16  1  0.26299000  0.68630000  0.64096000  1.0
  H  H17  1  0.26299000  0.31370000  0.35904000  1.0
  H  H18  1  0.38283000  0.73903000  0.24824000  1.0
  H  H19  1  0.38283000  0.26097000  0.75176000  1.0
  H  H20  1  0.61716000  0.75176000  0.26097000  1.0
  H  H21  1  0.61716000  0.24824000  0.73903000  1.0
  H  H22  1  0.44380000  0.16766000  0.28503000  1.0
  H  H23  1  0.44380000  0.83234000  0.71497000  1.0
  H  H24  1  0.55620000  0.71497000  0.83234000  1.0
  H  H25  1  0.55620000  0.28503000  0.16766000  1.0
  C  C26  1  0.46002000  0.92706000  0.21196000  1.0
  C  C27  1  0.46002000  0.07294000  0.78805000  1.0
  C  C28  1  0.53997000  0.78804000  0.07294000  1.0
  C  C29  1  0.53998000  0.21196000  0.92706000  1.0
  C  C30  1  0.35199000  0.91146000  0.33798000  1.0
  C  C31  1  0.35199000  0.08854000  0.66202000  1.0
  C  C32  1  0.64801000  0.66201000  0.08855000  1.0
  C  C33  1  0.64801000  0.33799000  0.91145000  1.0
  C  C34  1  0.66368000  0.26518000  0.34986000  1.0
  C  C35  1  0.66368000  0.73483000  0.65014000  1.0
  C  C36  1  0.33632000  0.65014000  0.73482000  1.0
  C  C37  1  0.33632000  0.34986000  0.26518000  1.0
  C  C38  1  0.81026000  0.15683000  0.36140000  1.0
  C  C39  1  0.81026000  0.84317000  0.63859000  1.0
  C  C40  1  0.18974000  0.63860000  0.84317000  1.0
  C  C41  1  0.18974000  0.36140000  0.15683000  1.0
  N  N42  1  0.50000000  0.79634000  0.20366000  1.0
  N  N43  1  0.50000000  0.20366000  0.79634000  1.0
  N  N44  1  0.50000000  0.26108000  0.26108000  1.0
  N  N45  1  0.50000000  0.73893000  0.73892000  1.0
  O  O46  1  0.30399000  0.01820000  0.35578000  1.0
  O  O47  1  0.30399000  0.98179000  0.64422000  1.0
  O  O48  1  0.69602000  0.64421000  0.98179000  1.0
  O  O49  1  0.69602000  0.35578000  0.01820000  1.0
  O  O50  1  0.31754000  0.80031000  0.40974000  1.0
  O  O51  1  0.31754000  0.19969000  0.59026000  1.0
  O  O52  1  0.68246000  0.59027000  0.19969000  1.0
  O  O53  1  0.68247000  0.40974000  0.80031000  1.0
  O  O54  1  0.94927000  0.15609000  0.44191000  1.0
  O  O55  1  0.94927000  0.84390000  0.55809000  1.0
  O  O56  1  0.05073000  0.55809000  0.84391000  1.0
  O  O57  1  0.05073000  0.44191000  0.15610000  1.0
  O  O58  1  0.78674000  0.08015000  0.29896000  1.0
  O  O59  1  0.78674000  0.91985000  0.70104000  1.0
  O  O60  1  0.21326000  0.70105000  0.91985000  1.0
  O  O61  1  0.21325000  0.29896000  0.08015000  1.0
