# generated using pymatgen
data_Zn4H11C23O13F
_symmetry_space_group_name_H-M   'P 1'
_cell_length_a   18.39850000
_cell_length_b   18.45920000
_cell_length_c   18.47619537
_cell_angle_alpha   119.84623785
_cell_angle_beta   119.86097500
_cell_angle_gamma   89.99980000
_symmetry_Int_Tables_number   1
_chemical_formula_structural   Zn4H11C23O13F
_chemical_formula_sum   'Zn8 H22 C46 O26 F2'
_cell_volume   4456.60623538
_cell_formula_units_Z   2
loop_
 _symmetry_equiv_pos_site_id
 _symmetry_equiv_pos_as_xyz
  1  'x, y, z'
loop_
 _atom_site_type_symbol
 _atom_site_label
 _atom_site_symmetry_multiplicity
 _atom_site_fract_x
 _atom_site_fract_y
 _atom_site_fract_z
 _atom_site_occupancy
  Zn  Zn0  1  0.62146000  0.70809000  0.41756000  1.0
  Zn  Zn1  1  0.20554000  0.11796000  0.41044000  1.0
  Zn  Zn2  1  0.79510000  0.88204000  0.58956000  1.0
  Zn  Zn3  1  0.20458000  0.29227000  0.40988000  1.0
  Zn  Zn4  1  0.79685000  0.71032000  0.41854000  1.0
  Zn  Zn5  1  0.37831000  0.28967000  0.58146000  1.0
  Zn  Zn6  1  0.20390000  0.29191000  0.58245000  1.0
  Zn  Zn7  1  0.79470000  0.70773000  0.59012000  1.0
  H  H8  1  0.34614000  0.46663000  0.90587000  1.0
  H  H9  1  0.04778000  0.45325000  0.38333000  1.0
  H  H10  1  0.66445000  0.54675000  0.61668000  1.0
  H  H11  1  0.04835000  0.93195000  0.38414000  1.0
  H  H12  1  0.56643000  0.16313000  0.61364000  1.0
  H  H13  1  0.95167000  0.54998000  0.38476000  1.0
  H  H14  1  0.56692000  0.45002000  0.61525000  1.0
  H  H15  1  0.95279000  0.83687000  0.38636000  1.0
  H  H16  1  0.44027000  0.53337000  0.09414000  1.0
  H  H17  1  0.33545000  0.93014000  0.38319000  1.0
  H  H18  1  0.95146000  0.54736000  0.61581000  1.0
  H  H19  1  0.33565000  0.45264000  0.38419000  1.0
  H  H20  1  0.95226000  0.06986000  0.61681000  1.0
  H  H21  1  0.43326000  0.83503000  0.38508000  1.0
  H  H22  1  0.04720000  0.45030000  0.61398000  1.0
  H  H23  1  0.43322000  0.54970000  0.38602000  1.0
  H  H24  1  0.04818000  0.16497000  0.61492000  1.0
  H  H25  1  0.95188000  0.06828000  0.90388000  1.0
  H  H26  1  0.04754000  0.16397000  0.09530000  1.0
  H  H27  1  0.95224000  0.83603000  0.90470000  1.0
  H  H28  1  0.04800000  0.93172000  0.09611000  1.0
  H  H29  1  0.66421000  0.06805000  0.61586000  1.0
  C  C30  1  0.88864000  0.61135000  0.50086000  1.0
  C  C31  1  0.97287000  0.52627000  0.56518000  1.0
  C  C32  1  0.40769000  0.47374000  0.43482000  1.0
  C  C33  1  0.97386000  0.04049000  0.56638000  1.0
  C  C34  1  0.40747000  0.95950000  0.43362000  1.0
  C  C35  1  0.46155000  0.90690000  0.43471000  1.0
  C  C36  1  0.02588000  0.47260000  0.56422000  1.0
  C  C37  1  0.46167000  0.52741000  0.43578000  1.0
  C  C38  1  0.38762000  0.10869000  0.49613000  1.0
  C  C39  1  0.02683000  0.09310000  0.56529000  1.0
  C  C40  1  0.55417000  0.94620000  0.50034000  1.0
  C  C41  1  0.05275000  0.44617000  0.49842000  1.0
  C  C42  1  0.55433000  0.55383000  0.50158000  1.0
  C  C43  1  0.05384000  0.05381000  0.49967000  1.0
  C  C44  1  0.89149000  0.89131000  0.50386000  1.0
  C  C45  1  0.97333000  0.03913000  0.94677000  1.0
  C  C46  1  0.02630000  0.09212000  0.05274000  1.0
  C  C47  1  0.97356000  0.90788000  0.94726000  1.0
  C  C48  1  0.02657000  0.96087000  0.05323000  1.0
  C  C49  1  0.38779000  0.38865000  0.49915000  1.0
  C  C50  1  0.05328000  0.05333000  0.10662000  1.0
  C  C51  1  0.94665000  0.94667000  0.89337000  1.0
  C  C52  1  0.61221000  0.88955000  0.50125000  1.0
  C  C53  1  0.10933000  0.38803000  0.49715000  1.0
  C  C54  1  0.61218000  0.61197000  0.50285000  1.0
  C  C55  1  0.11095000  0.11045000  0.49875000  1.0
  C  C56  1  0.88972000  0.88964000  0.77934000  1.0
  C  C57  1  0.11039000  0.11037000  0.22066000  1.0
  C  C58  1  0.61398000  0.62292000  0.23022000  1.0
  C  C59  1  0.38377000  0.37708000  0.76979000  1.0
  C  C60  1  0.41643000  0.47330000  0.94509000  1.0
  C  C61  1  0.47133000  0.52670000  0.05491000  1.0
  C  C62  1  0.44175000  0.42644000  0.88300000  1.0
  C  C63  1  0.55875000  0.57356000  0.11700000  1.0
  C  C64  1  0.59219000  0.03864000  0.56515000  1.0
  C  C65  1  0.02622000  0.47424000  0.43381000  1.0
  C  C66  1  0.59241000  0.52576000  0.56619000  1.0
  C  C67  1  0.02704000  0.96136000  0.43485000  1.0
  C  C68  1  0.53813000  0.09126000  0.56392000  1.0
  C  C69  1  0.97307000  0.52779000  0.43462000  1.0
  C  C70  1  0.53845000  0.47220000  0.56538000  1.0
  C  C71  1  0.97421000  0.90874000  0.43607000  1.0
  C  C72  1  0.44551000  0.05193000  0.49795000  1.0
  C  C73  1  0.94601000  0.55399000  0.50022000  1.0
  C  C74  1  0.44579000  0.44601000  0.49978000  1.0
  C  C75  1  0.94756000  0.94807000  0.50205000  1.0
  O  O76  1  0.75173000  0.75189000  0.50387000  1.0
  O  O77  1  0.42683000  0.19213000  0.55383000  1.0
  O  O78  1  0.87300000  0.80786000  0.44616000  1.0
  O  O79  1  0.42691000  0.36760000  0.56197000  1.0
  O  O80  1  0.57314000  0.80591000  0.43925000  1.0
  O  O81  1  0.12991000  0.36417000  0.55708000  1.0
  O  O82  1  0.57283000  0.63581000  0.44291000  1.0
  O  O83  1  0.13390000  0.19409000  0.56076000  1.0
  O  O84  1  0.24786000  0.24812000  0.49613000  1.0
  O  O85  1  0.69602000  0.63319000  0.56365000  1.0
  O  O86  1  0.13219000  0.07077000  0.43627000  1.0
  O  O87  1  0.69592000  0.92923000  0.56373000  1.0
  O  O88  1  0.13237000  0.36682000  0.43635000  1.0
  O  O89  1  0.86688000  0.93065000  0.56309000  1.0
  O  O90  1  0.30406000  0.36543000  0.43609000  1.0
  O  O91  1  0.86797000  0.63456000  0.56391000  1.0
  O  O92  1  0.30379000  0.06935000  0.43692000  1.0
  O  O93  1  0.86745000  0.80600000  0.73550000  1.0
  O  O94  1  0.13298000  0.07080000  0.26492000  1.0
  O  O95  1  0.86805000  0.92920000  0.73508000  1.0
  O  O96  1  0.13195000  0.19400000  0.26450000  1.0
  O  O97  1  0.69731000  0.64996000  0.27432000  1.0
  O  O98  1  0.42300000  0.35003000  0.72568000  1.0
  O  O99  1  0.57238000  0.63216000  0.27101000  1.0
  O  O100  1  0.86494000  0.63240000  0.43803000  1.0
  O  O101  1  0.30138000  0.36784000  0.72899000  1.0
  F  F102  1  0.52413000  0.42046000  0.91985000  1.0
  F  F103  1  0.60427000  0.57954000  0.08015000  1.0
