# generated using pymatgen
data_GdH8C9NO7
_symmetry_space_group_name_H-M   'P 1'
_cell_length_a   8.86972000
_cell_length_b   9.09413137
_cell_length_c   18.21412984
_cell_angle_alpha   79.97226929
_cell_angle_beta   75.91882815
_cell_angle_gamma   60.82193246
_symmetry_Int_Tables_number   1
_chemical_formula_structural   GdH8C9NO7
_chemical_formula_sum   'Gd4 H32 C36 N4 O28'
_cell_volume   1241.54693326
_cell_formula_units_Z   4
loop_
 _symmetry_equiv_pos_site_id
 _symmetry_equiv_pos_as_xyz
  1  'x, y, z'
loop_
 _atom_site_type_symbol
 _atom_site_label
 _atom_site_symmetry_multiplicity
 _atom_site_fract_x
 _atom_site_fract_y
 _atom_site_fract_z
 _atom_site_occupancy
  Gd  Gd0  1  0.33549000  0.55352000  0.93012000  1.0
  Gd  Gd1  1  0.81903000  0.94653000  0.56977000  1.0
  Gd  Gd2  1  0.66450000  0.44648000  0.06988000  1.0
  Gd  Gd3  1  0.18097000  0.05347000  0.43023000  1.0
  H  H4  1  0.59051000  0.36232000  0.66967000  1.0
  H  H5  1  0.62267000  0.13755000  0.83015000  1.0
  H  H6  1  0.40949000  0.63768000  0.33033000  1.0
  H  H7  1  0.37733000  0.86245000  0.16985000  1.0
  H  H8  1  0.83728000  0.61463000  0.50170000  1.0
  H  H9  1  0.95382000  0.88544000  0.99814000  1.0
  H  H10  1  0.16272000  0.38537000  0.49830000  1.0
  H  H11  1  0.04618000  0.11456000  0.00186000  1.0
  H  H12  1  0.19595000  0.41971000  0.20815000  1.0
  H  H13  1  0.82361000  0.08075000  0.29169000  1.0
  H  H14  1  0.80405000  0.58029000  0.79185000  1.0
  H  H15  1  0.17638000  0.91926000  0.70831000  1.0
  H  H16  1  0.99608000  0.59690000  0.18955000  1.0
  H  H17  1  0.78229000  0.90360000  0.31028000  1.0
  H  H18  1  0.00392000  0.40310000  0.81045000  1.0
  H  H19  1  0.21770000  0.09641000  0.68972000  1.0
  H  H20  1  0.17492000  0.62455000  0.20345000  1.0
  H  H21  1  0.00269000  0.87590000  0.29632000  1.0
  H  H22  1  0.82508000  0.37545000  0.79655000  1.0
  H  H23  1  0.99730000  0.12411000  0.70368000  1.0
  H  H24  1  0.54706000  0.83958000  0.70390000  1.0
  H  H25  1  0.09068000  0.66039000  0.79594000  1.0
  H  H26  1  0.45293000  0.16042000  0.29610000  1.0
  H  H27  1  0.90933000  0.33960000  0.20406000  1.0
  H  H28  1  0.28791000  0.27834000  0.91840000  1.0
  H  H29  1  0.48439000  0.22165000  0.58150000  1.0
  H  H30  1  0.71210000  0.72165000  0.08160000  1.0
  H  H31  1  0.51561000  0.77835000  0.41850000  1.0
  H  H32  1  0.08124000  0.40710000  0.92604000  1.0
  H  H33  1  0.41431000  0.09260000  0.57403000  1.0
  H  H34  1  0.91876000  0.59290000  0.07396000  1.0
  H  H35  1  0.58568000  0.90741000  0.42597000  1.0
  C  C36  1  0.61529000  0.47001000  0.64899000  1.0
  C  C37  1  0.73449000  0.02990000  0.85084000  1.0
  C  C38  1  0.38471000  0.52999000  0.35101000  1.0
  C  C39  1  0.26552000  0.97010000  0.14915000  1.0
  C  C40  1  0.75358000  0.61033000  0.55594000  1.0
  C  C41  1  0.92005000  0.88971000  0.94390000  1.0
  C  C42  1  0.24642000  0.38967000  0.44406000  1.0
  C  C43  1  0.07995000  0.11029000  0.05610000  1.0
  C  C44  1  0.71507000  0.47528000  0.57721000  1.0
  C  C45  1  0.76777000  0.02469000  0.92262000  1.0
  C  C46  1  0.28493000  0.52471000  0.42280000  1.0
  C  C47  1  0.23224000  0.97530000  0.07738000  1.0
  C  C48  1  0.79243000  0.33088000  0.52729000  1.0
  C  C49  1  0.65071000  0.16906000  0.97256000  1.0
  C  C50  1  0.20757000  0.66912000  0.47271000  1.0
  C  C51  1  0.34928000  0.83094000  0.02744000  1.0
  C  C52  1  0.13894000  0.54616000  0.17921000  1.0
  C  C53  1  0.86414000  0.95428000  0.32060000  1.0
  C  C54  1  0.86106000  0.45384000  0.82079000  1.0
  C  C55  1  0.13585000  0.04573000  0.67940000  1.0
  C  C56  1  0.55459000  0.60153000  0.69582000  1.0
  C  C57  1  0.85212000  0.89836000  0.80401000  1.0
  C  C58  1  0.44541000  0.39847000  0.30418000  1.0
  C  C59  1  0.14789000  0.10164000  0.19598000  1.0
  C  C60  1  0.59408000  0.73452000  0.66873000  1.0
  C  C61  1  0.99751000  0.76545000  0.83112000  1.0
  C  C62  1  0.40591000  0.26548000  0.33127000  1.0
  C  C63  1  0.00251000  0.23454000  0.16888000  1.0
  C  C64  1  0.21486000  0.53578000  0.09603000  1.0
  C  C65  1  0.84672000  0.96453000  0.40380000  1.0
  C  C66  1  0.78513000  0.46422000  0.90398000  1.0
  C  C67  1  0.15328000  0.03547000  0.59620000  1.0
  C  C68  1  0.46221000  0.59300000  0.77573000  1.0
  C  C69  1  0.83100000  0.90678000  0.72415000  1.0
  C  C70  1  0.53778000  0.40700000  0.22428000  1.0
  C  C71  1  0.16901000  0.09321000  0.27585000  1.0
  N  N72  1  0.69404000  0.73784000  0.60047000  1.0
  N  N73  1  0.03254000  0.76221000  0.89938000  1.0
  N  N74  1  0.30596000  0.26216000  0.39953000  1.0
  N  N75  1  0.96746000  0.23779000  0.10062000  1.0
  O  O76  1  0.12045000  0.56211000  0.04734000  1.0
  O  O77  1  0.72978000  0.93848000  0.45247000  1.0
  O  O78  1  0.87956000  0.43789000  0.95266000  1.0
  O  O79  1  0.27023000  0.06152000  0.54752000  1.0
  O  O80  1  0.47250000  0.45062000  0.80467000  1.0
  O  O81  1  0.72765000  0.04910000  0.69522000  1.0
  O  O82  1  0.52750000  0.54938000  0.19533000  1.0
  O  O83  1  0.27236000  0.95090000  0.30477000  1.0
  O  O84  1  0.20279000  0.39274000  0.90441000  1.0
  O  O85  1  0.49990000  0.10720000  0.59554000  1.0
  O  O86  1  0.79721000  0.60725000  0.09559000  1.0
  O  O87  1  0.50010000  0.89281000  0.40445000  1.0
  O  O88  1  0.71389000  0.24094000  0.53878000  1.0
  O  O89  1  0.49381000  0.25898000  0.96099000  1.0
  O  O90  1  0.28611000  0.75906000  0.46122000  1.0
  O  O91  1  0.50620000  0.74101000  0.03901000  1.0
  O  O92  1  0.38159000  0.72406000  0.81376000  1.0
  O  O93  1  0.91954000  0.77576000  0.68610000  1.0
  O  O94  1  0.61841000  0.27594000  0.18624000  1.0
  O  O95  1  0.08046000  0.22424000  0.31390000  1.0
  O  O96  1  0.93306000  0.30516000  0.48011000  1.0
  O  O97  1  0.71827000  0.19481000  0.01982000  1.0
  O  O98  1  0.06694000  0.69484000  0.51990000  1.0
  O  O99  1  0.28174000  0.80519000  0.98017000  1.0
  O  O100  1  0.37529000  0.50252000  0.07218000  1.0
  O  O101  1  0.95035000  0.99736000  0.42765000  1.0
  O  O102  1  0.62471000  0.49748000  0.92782000  1.0
  O  O103  1  0.04965000  0.00264000  0.57235000  1.0
