# generated using pymatgen
data_Cu2H29C42N9O10
_symmetry_space_group_name_H-M   'P 1'
_cell_length_a   13.42960000
_cell_length_b   13.87350000
_cell_length_c   13.87360000
_cell_angle_alpha   68.50410000
_cell_angle_beta   72.37530000
_cell_angle_gamma   72.37450000
_symmetry_Int_Tables_number   1
_chemical_formula_structural   Cu2H29C42N9O10
_chemical_formula_sum   'Cu4 H58 C84 N18 O20'
_cell_volume   2237.89643314
_cell_formula_units_Z   2
loop_
 _symmetry_equiv_pos_site_id
 _symmetry_equiv_pos_as_xyz
  1  'x, y, z'
loop_
 _atom_site_type_symbol
 _atom_site_label
 _atom_site_symmetry_multiplicity
 _atom_site_fract_x
 _atom_site_fract_y
 _atom_site_fract_z
 _atom_site_occupancy
  Cu  Cu0  1  0.05897000  0.79168000  0.30512000  1.0
  Cu  Cu1  1  0.55898000  0.30514000  0.79168000  1.0
  Cu  Cu2  1  0.89642000  0.48279000  0.98553000  1.0
  Cu  Cu3  1  0.39642000  0.98554000  0.48280000  1.0
  H  H4  1  0.94806000  0.61073000  0.46087000  1.0
  H  H5  1  0.44804000  0.46088000  0.61076000  1.0
  H  H6  1  0.97505000  0.47774000  0.63672000  1.0
  H  H7  1  0.47502000  0.63674000  0.47775000  1.0
  H  H8  1  0.13580000  0.46466000  0.70170000  1.0
  H  H9  1  0.63580000  0.70170000  0.46465000  1.0
  H  H10  1  0.26370000  0.58620000  0.58519000  1.0
  H  H11  1  0.76373000  0.58520000  0.58617000  1.0
  H  H12  1  0.26417000  0.06389000  0.06276000  1.0
  H  H13  1  0.76417000  0.06277000  0.06388000  1.0
  H  H14  1  0.13349000  0.16771000  0.94208000  1.0
  H  H15  1  0.63349000  0.94210000  0.16770000  1.0
  H  H16  1  0.96965000  0.09947000  0.97250000  1.0
  H  H17  1  0.46965000  0.97253000  0.09946000  1.0
  H  H18  1  0.94304000  0.93117000  0.12288000  1.0
  H  H19  1  0.44304000  0.12290000  0.93116000  1.0
  H  H20  1  0.98387000  0.55800000  0.11307000  1.0
  H  H21  1  0.48389000  0.11310000  0.55798000  1.0
  H  H22  1  0.66699000  0.60637000  0.10427000  1.0
  H  H23  1  0.16702000  0.10429000  0.60639000  1.0
  H  H24  1  0.60701000  0.72412000  0.22156000  1.0
  H  H25  1  0.10702000  0.22155000  0.72413000  1.0
  H  H26  1  0.74544000  0.76259000  0.28123000  1.0
  H  H27  1  0.24544000  0.28122000  0.76262000  1.0
  H  H28  1  0.81820000  0.83001000  0.36289000  1.0
  H  H29  1  0.31821000  0.36291000  0.82999000  1.0
  H  H30  1  0.01137000  0.95664000  0.44580000  1.0
  H  H31  1  0.51134000  0.44581000  0.95668000  1.0
  H  H32  1  0.85320000  0.07827000  0.52052000  1.0
  H  H33  1  0.35317000  0.52052000  0.07831000  1.0
  H  H34  1  0.66830000  0.07203000  0.51901000  1.0
  H  H35  1  0.16827000  0.51902000  0.07203000  1.0
  H  H36  1  0.03130000  0.31115000  0.13890000  1.0
  H  H37  1  0.53129000  0.13894000  0.31114000  1.0
  H  H38  1  0.01139000  0.13102000  0.26685000  1.0
  H  H39  1  0.51135000  0.26688000  0.13102000  1.0
  H  H40  1  0.85006000  0.06525000  0.28164000  1.0
  H  H41  1  0.35002000  0.28165000  0.06525000  1.0
  H  H42  1  0.71151000  0.18609000  0.17696000  1.0
  H  H43  1  0.21147000  0.17697000  0.18609000  1.0
  H  H44  1  0.68719000  0.71730000  0.71585000  1.0
  H  H45  1  0.18718000  0.71587000  0.71734000  1.0
  H  H46  1  0.82025000  0.83163000  0.60316000  1.0
  H  H47  1  0.32025000  0.60316000  0.83166000  1.0
  H  H48  1  0.99552000  0.79303000  0.65539000  1.0
  H  H49  1  0.49553000  0.65539000  0.79305000  1.0
  H  H50  1  0.02702000  0.64407000  0.82212000  1.0
  H  H51  1  0.52702000  0.82212000  0.64409000  1.0
  H  H52  1  0.48658000  0.71296000  0.12460000  1.0
  H  H53  1  0.98659000  0.12456000  0.71298000  1.0
  H  H54  1  0.34076000  0.86638000  0.85409000  1.0
  H  H55  1  0.84080000  0.85402000  0.86637000  1.0
  H  H56  1  0.18181000  0.77882000  0.96600000  1.0
  H  H57  1  0.68181000  0.96596000  0.77886000  1.0
  H  H58  1  0.18798000  0.66693000  0.15108000  1.0
  H  H59  1  0.68799000  0.15104000  0.66696000  1.0
  H  H60  1  0.65145000  0.85506000  0.92674000  1.0
  H  H61  1  0.15151000  0.92672000  0.85501000  1.0
  C  C62  1  0.01634000  0.60178000  0.49279000  1.0
  C  C63  1  0.51633000  0.49280000  0.60179000  1.0
  C  C64  1  0.03284000  0.52745000  0.58957000  1.0
  C  C65  1  0.53282000  0.58959000  0.52745000  1.0
  C  C66  1  0.12249000  0.52057000  0.62498000  1.0
  C  C67  1  0.62248000  0.62499000  0.52056000  1.0
  C  C68  1  0.19250000  0.58755000  0.56209000  1.0
  C  C69  1  0.69252000  0.56211000  0.58753000  1.0
  C  C70  1  0.17013000  0.66087000  0.46673000  1.0
  C  C71  1  0.67014000  0.46675000  0.66085000  1.0
  C  C72  1  0.24051000  0.73822000  0.39640000  1.0
  C  C73  1  0.74052000  0.39641000  0.73821000  1.0
  C  C74  1  0.24088000  0.88671000  0.23292000  1.0
  C  C75  1  0.74090000  0.23292000  0.88669000  1.0
  C  C76  1  0.16860000  0.94923000  0.15538000  1.0
  C  C77  1  0.66861000  0.15540000  0.94922000  1.0
  C  C78  1  0.19146000  0.03898000  0.07193000  1.0
  C  C79  1  0.69146000  0.07195000  0.03898000  1.0
  C  C80  1  0.11991000  0.09462000  0.00505000  1.0
  C  C81  1  0.61991000  0.00507000  0.09462000  1.0
  C  C82  1  0.02869000  0.05694000  0.02171000  1.0
  C  C83  1  0.52869000  0.02172000  0.05693000  1.0
  C  C84  1  0.01209000  0.96541000  0.10547000  1.0
  C  C85  1  0.51209000  0.10548000  0.96540000  1.0
  C  C86  1  0.96780000  0.67344000  0.23513000  1.0
  C  C87  1  0.46783000  0.23513000  0.67343000  1.0
  C  C88  1  0.87611000  0.66057000  0.20306000  1.0
  C  C89  1  0.37612000  0.20308000  0.66057000  1.0
  C  C90  1  0.90104000  0.59590000  0.13853000  1.0
  C  C91  1  0.40105000  0.13856000  0.59588000  1.0
  C  C92  1  0.72445000  0.62345000  0.13379000  1.0
  C  C93  1  0.22447000  0.13380000  0.62345000  1.0
  C  C94  1  0.69164000  0.68898000  0.19863000  1.0
  C  C95  1  0.19165000  0.19863000  0.68899000  1.0
  C  C96  1  0.76885000  0.70956000  0.23253000  1.0
  C  C97  1  0.26886000  0.23253000  0.70957000  1.0
  C  C98  1  0.62419000  0.93728000  0.43287000  1.0
  C  C99  1  0.12419000  0.43286000  0.93727000  1.0
  C  C100  1  0.72922000  0.94846000  0.44154000  1.0
  C  C101  1  0.22922000  0.44155000  0.94846000  1.0
  C  C102  1  0.82268000  0.88472000  0.40028000  1.0
  C  C103  1  0.32267000  0.40029000  0.88472000  1.0
  C  C104  1  0.93052000  0.95568000  0.44560000  1.0
  C  C105  1  0.43050000  0.44561000  0.95572000  1.0
  C  C106  1  0.84134000  0.02315000  0.48790000  1.0
  C  C107  1  0.34131000  0.48790000  0.02318000  1.0
  C  C108  1  0.73893000  0.01979000  0.48663000  1.0
  C  C109  1  0.23891000  0.48663000  0.01979000  1.0
  C  C110  1  0.96265000  0.27868000  0.15038000  1.0
  C  C111  1  0.46263000  0.15042000  0.27867000  1.0
  C  C112  1  0.95062000  0.17923000  0.22098000  1.0
  C  C113  1  0.45059000  0.22102000  0.17923000  1.0
  C  C114  1  0.86056000  0.14363000  0.22989000  1.0
  C  C115  1  0.36052000  0.22992000  0.14364000  1.0
  C  C116  1  0.78395000  0.20922000  0.17180000  1.0
  C  C117  1  0.28392000  0.17181000  0.20924000  1.0
  C  C118  1  0.80132000  0.30770000  0.10326000  1.0
  C  C119  1  0.30130000  0.10327000  0.30771000  1.0
  C  C120  1  0.72234000  0.38243000  0.03737000  1.0
  C  C121  1  0.22233000  0.03738000  0.38245000  1.0
  C  C122  1  0.71452000  0.54913000  0.89276000  1.0
  C  C123  1  0.21450000  0.89278000  0.54915000  1.0
  C  C124  1  0.78949000  0.62174000  0.82367000  1.0
  C  C125  1  0.28950000  0.82367000  0.62176000  1.0
  C  C126  1  0.76417000  0.70424000  0.73464000  1.0
  C  C127  1  0.26417000  0.73464000  0.70427000  1.0
  C  C128  1  0.83843000  0.76657000  0.67280000  1.0
  C  C129  1  0.33842000  0.67281000  0.76659000  1.0
  C  C130  1  0.93540000  0.74588000  0.70184000  1.0
  C  C131  1  0.43541000  0.70185000  0.74589000  1.0
  C  C132  1  0.95439000  0.66297000  0.79310000  1.0
  C  C133  1  0.45439000  0.79311000  0.66298000  1.0
  C  C134  1  0.51744000  0.84333000  0.91759000  1.0
  C  C135  1  0.01750000  0.91754000  0.84331000  1.0
  C  C136  1  0.42042000  0.72947000  0.08671000  1.0
  C  C137  1  0.92044000  0.08667000  0.72948000  1.0
  C  C138  1  0.42441000  0.79571000  0.98167000  1.0
  C  C139  1  0.92443000  0.98161000  0.79572000  1.0
  C  C140  1  0.33730000  0.81578000  0.93613000  1.0
  C  C141  1  0.83734000  0.93608000  0.81578000  1.0
  C  C142  1  0.25120000  0.76908000  0.99695000  1.0
  C  C143  1  0.75121000  0.99691000  0.76911000  1.0
  C  C144  1  0.25478000  0.70463000  0.10117000  1.0
  C  C145  1  0.75479000  0.10113000  0.70466000  1.0
  N  N146  1  0.08296000  0.66731000  0.43363000  1.0
  N  N147  1  0.58296000  0.43365000  0.66729000  1.0
  N  N148  1  0.19511000  0.81016000  0.31418000  1.0
  N  N149  1  0.69514000  0.31418000  0.81015000  1.0
  N  N150  1  0.07996000  0.91392000  0.17119000  1.0
  N  N151  1  0.57996000  0.17121000  0.91390000  1.0
  N  N152  1  0.82779000  0.57851000  0.10288000  1.0
  N  N153  1  0.32780000  0.10291000  0.57850000  1.0
  N  N154  1  0.89038000  0.34026000  0.09188000  1.0
  N  N155  1  0.39036000  0.09190000  0.34026000  1.0
  N  N156  1  0.76002000  0.47068000  0.97098000  1.0
  N  N157  1  0.26001000  0.97099000  0.47070000  1.0
  N  N158  1  0.88328000  0.60225000  0.85177000  1.0
  N  N159  1  0.38328000  0.85178000  0.60227000  1.0
  N  N160  1  0.92130000  0.88772000  0.40152000  1.0
  N  N161  1  0.42129000  0.40153000  0.88774000  1.0
  N  N162  1  0.33792000  0.68424000  0.14576000  1.0
  N  N163  1  0.83793000  0.14572000  0.68426000  1.0
  O  O164  1  0.32585000  0.73285000  0.41677000  1.0
  O  O165  1  0.82585000  0.41679000  0.73285000  1.0
  O  O166  1  0.32903000  0.90719000  0.21746000  1.0
  O  O167  1  0.82905000  0.21744000  0.90718000  1.0
  O  O168  1  0.94697000  0.75640000  0.26626000  1.0
  O  O169  1  0.44701000  0.26627000  0.75638000  1.0
  O  O170  1  0.05440000  0.60715000  0.22932000  1.0
  O  O171  1  0.55442000  0.22931000  0.60714000  1.0
  O  O172  1  0.54107000  0.98800000  0.48525000  1.0
  O  O173  1  0.04107000  0.48526000  0.98797000  1.0
  O  O174  1  0.62318000  0.88270000  0.37890000  1.0
  O  O175  1  0.12319000  0.37889000  0.88269000  1.0
  O  O176  1  0.62515000  0.56405000  0.87496000  1.0
  O  O177  1  0.12514000  0.87496000  0.56408000  1.0
  O  O178  1  0.63674000  0.35999000  0.04645000  1.0
  O  O179  1  0.13674000  0.04644000  0.36000000  1.0
  O  O180  1  0.59531000  0.81689000  0.97265000  1.0
  O  O181  1  0.09534000  0.97262000  0.81688000  1.0
  O  O182  1  0.52562000  0.90060000  0.82528000  1.0
  O  O183  1  0.02571000  0.82523000  0.90056000  1.0
