# generated using pymatgen
data_Zn6H29C42ClO25
_symmetry_space_group_name_H-M   'P 1'
_cell_length_a   18.74710000
_cell_length_b   18.75610000
_cell_length_c   18.94177021
_cell_angle_alpha   108.95405908
_cell_angle_beta   109.37749942
_cell_angle_gamma   109.51800000
_symmetry_Int_Tables_number   1
_chemical_formula_structural   Zn6H29C42ClO25
_chemical_formula_sum   'Zn6 H29 C42 Cl1 O25'
_cell_volume   5162.42535685
_cell_formula_units_Z   1
loop_
 _symmetry_equiv_pos_site_id
 _symmetry_equiv_pos_as_xyz
  1  'x, y, z'
loop_
 _atom_site_type_symbol
 _atom_site_label
 _atom_site_symmetry_multiplicity
 _atom_site_fract_x
 _atom_site_fract_y
 _atom_site_fract_z
 _atom_site_occupancy
  Zn  Zn0  1  0.99685000  0.93765000  0.44143000  1.0
  Zn  Zn1  1  0.01081000  0.07238000  0.56513000  1.0
  Zn  Zn2  1  0.43897000  0.49633000  0.43907000  1.0
  Zn  Zn3  1  0.56141000  0.49939000  0.56650000  1.0
  Zn  Zn4  1  0.55614000  0.05543000  0.00527000  1.0
  Zn  Zn5  1  0.43668000  0.92535000  0.00377000  1.0
  H  H6  1  0.24711000  0.40210000  0.55394000  1.0
  H  H7  1  0.48167000  0.70172000  0.88593000  1.0
  H  H8  1  0.28331000  0.30497000  0.63556000  1.0
  H  H9  1  0.51509000  0.81036000  0.79674000  1.0
  H  H10  1  0.54900000  0.63270000  0.80659000  1.0
  H  H11  1  0.44614000  0.67191000  0.67397000  1.0
  H  H12  1  0.51347000  0.23599000  0.16267000  1.0
  H  H13  1  0.44371000  0.11439000  0.22926000  1.0
  H  H14  1  0.47368000  0.32927000  0.25380000  1.0
  H  H15  1  0.56211000  0.27934000  0.38338000  1.0
  H  H16  1  0.36812000  0.26254000  0.54103000  1.0
  H  H17  1  0.20728000  0.92707000  0.62962000  1.0
  H  H18  1  0.20568000  0.11055000  0.40760000  1.0
  H  H19  1  0.16842000  0.20869000  0.32744000  1.0
  H  H20  1  0.39890000  0.12262000  0.83030000  1.0
  H  H21  1  0.26401000  0.94183000  0.78299000  1.0
  H  H22  1  0.25953000  0.11700000  0.74021000  1.0
  H  H23  1  0.62013000  0.80421000  0.18571000  1.0
  H  H24  1  0.61382000  0.73523000  0.09027000  1.0
  H  H25  1  0.46251000  0.70846000  0.00345000  1.0
  H  H26  1  0.46868000  0.67697000  0.08363000  1.0
  H  H27  1  0.46992000  0.77653000  0.09920000  1.0
  H  H28  1  0.76188000  0.67604000  0.54872000  1.0
  H  H29  1  0.63662000  0.73387000  0.46656000  1.0
  H  H30  1  0.85262000  0.76737000  0.50462000  1.0
  H  H31  1  0.79722000  0.89506000  0.58517000  1.0
  H  H32  1  0.77749000  0.05190000  0.19094000  1.0
  H  H33  1  0.76998000  0.85867000  0.19303000  1.0
  H  H34  1  0.80317000  0.03229000  0.32378000  1.0
  C  C35  1  0.12900000  0.98534000  0.58865000  1.0
  C  C36  1  0.66068000  0.69949000  0.49592000  1.0
  C  C37  1  0.81147000  0.78563000  0.52738000  1.0
  C  C38  1  0.10985000  0.13701000  0.50545000  1.0
  C  C39  1  0.82944000  0.86867000  0.55467000  1.0
  C  C40  1  0.69548000  0.92262000  0.15557000  1.0
  C  C41  1  0.71077000  0.99872000  0.15467000  1.0
  C  C42  1  0.76296000  0.91614000  0.21572000  1.0
  C  C43  1  0.81286000  0.97716000  0.29904000  1.0
  C  C44  1  0.50553000  0.59543000  0.63998000  1.0
  C  C45  1  0.35261000  0.37669000  0.46585000  1.0
  C  C46  1  0.19507000  0.22928000  0.39585000  1.0
  C  C47  1  0.53078000  0.38406000  0.41824000  1.0
  C  C48  1  0.59513000  0.62501000  0.49200000  1.0
  C  C49  1  0.47042000  0.07545000  0.12193000  1.0
  C  C50  1  0.87958000  0.97364000  0.36426000  1.0
  C  C51  1  0.39763000  0.00628000  0.88559000  1.0
  C  C52  1  0.48020000  0.85052000  0.89494000  1.0
  C  C53  1  0.64297000  0.01226000  0.10506000  1.0
  C  C54  1  0.49384000  0.71747000  0.83889000  1.0
  C  C55  1  0.49460000  0.78903000  0.83730000  1.0
  C  C56  1  0.51328000  0.66289000  0.78249000  1.0
  C  C57  1  0.15067000  0.25425000  0.44926000  1.0
  C  C58  1  0.48713000  0.64748000  0.70102000  1.0
  C  C59  1  0.49552000  0.22046000  0.20737000  1.0
  C  C60  1  0.46971000  0.13847000  0.19301000  1.0
  C  C61  1  0.49744000  0.28899000  0.27310000  1.0
  C  C62  1  0.89777000  0.92880000  0.54723000  1.0
  C  C63  1  0.53074000  0.31117000  0.35679000  1.0
  C  C64  1  0.25951000  0.28392000  0.56728000  1.0
  C  C65  1  0.23860000  0.33722000  0.52297000  1.0
  C  C66  1  0.28458000  0.31188000  0.46994000  1.0
  C  C67  1  0.30477000  0.25886000  0.51472000  1.0
  C  C68  1  0.17143000  0.19957000  0.49366000  1.0
  C  C69  1  0.21618000  0.17599000  0.44052000  1.0
  C  C70  1  0.59045000  0.77876000  0.11587000  1.0
  C  C71  1  0.49204000  0.73241000  0.07287000  1.0
  C  C72  1  0.33604000  0.06272000  0.79274000  1.0
  C  C73  1  0.32719000  0.99967000  0.81419000  1.0
  C  C74  1  0.26408000  0.05781000  0.72682000  1.0
  C  C75  1  0.20301000  0.98627000  0.65038000  1.0
  C  C76  1  0.74443000  0.71839000  0.52725000  1.0
  Cl  Cl77  1  0.05033000  0.25032000  0.40800000  1.0
  O  O78  1  0.08986000  0.92477000  0.50965000  1.0
  O  O79  1  0.42318000  0.99408000  0.09568000  1.0
  O  O80  1  0.47678000  0.06443000  0.91610000  1.0
  O  O81  1  0.10816000  0.04235000  0.61586000  1.0
  O  O82  1  0.37358000  0.95303000  0.91199000  1.0
  O  O83  1  0.51982000  0.92871000  0.91171000  1.0
  O  O84  1  0.43021000  0.82275000  0.92438000  1.0
  O  O85  1  0.66567000  0.07044000  0.08181000  1.0
  O  O86  1  0.56537000  0.96857000  0.08855000  1.0
  O  O87  1  0.08040000  0.05690000  0.45773000  1.0
  O  O88  1  0.09097000  0.16865000  0.56362000  1.0
  O  O89  1  0.56102000  0.57082000  0.66683000  1.0
  O  O90  1  0.90144000  0.91540000  0.33968000  1.0
  O  O91  1  0.91070000  0.02932000  0.44177000  1.0
  O  O92  1  0.92154000  0.89644000  0.49534000  1.0
  O  O93  1  0.92869000  0.01107000  0.59386000  1.0
  O  O94  1  0.46427000  0.57812000  0.56260000  1.0
  O  O95  1  0.61723000  0.84989000  0.09809000  1.0
  O  O96  1  0.32994000  0.40456000  0.41281000  1.0
  O  O97  1  0.43077000  0.40261000  0.51806000  1.0
  O  O98  1  0.48466000  0.41524000  0.38948000  1.0
  O  O99  1  0.57891000  0.41123000  0.49881000  1.0
  O  O100  1  0.51495000  0.59492000  0.43723000  1.0
  O  O101  1  0.62102000  0.59522000  0.54069000  1.0
  O  O102  1  0.51648000  0.10502000  0.09119000  1.0
