# generated using pymatgen
data_Zn4H20C44O29
_symmetry_space_group_name_H-M   'P 1'
_cell_length_a   23.67268255
_cell_length_b   23.67190000
_cell_length_c   23.67040000
_cell_angle_alpha   114.32810000
_cell_angle_beta   107.10329290
_cell_angle_gamma   107.09895703
_symmetry_Int_Tables_number   1
_chemical_formula_structural   Zn4H20C44O29
_chemical_formula_sum   'Zn8 H40 C88 O58'
_cell_volume   10154.82607534
_cell_formula_units_Z   2
loop_
 _symmetry_equiv_pos_site_id
 _symmetry_equiv_pos_as_xyz
  1  'x, y, z'
loop_
 _atom_site_type_symbol
 _atom_site_label
 _atom_site_symmetry_multiplicity
 _atom_site_fract_x
 _atom_site_fract_y
 _atom_site_fract_z
 _atom_site_occupancy
  Zn  Zn0  1  0.94190000  0.89985000  0.45631000  1.0
  Zn  Zn1  1  0.94189000  0.04203000  0.48556000  1.0
  Zn  Zn2  1  0.05811000  0.04368000  0.60015000  1.0
  Zn  Zn3  1  0.05811000  0.01443000  0.45797000  1.0
  Zn  Zn4  1  0.05646000  0.60014000  0.04204000  1.0
  Zn  Zn5  1  0.94353000  0.45796000  0.89984000  1.0
  Zn  Zn6  1  0.05647000  0.45633000  0.01443000  1.0
  Zn  Zn7  1  0.94354000  0.48557000  0.04368000  1.0
  H  H8  1  0.08424000  0.79187000  0.89966000  1.0
  H  H9  1  0.91576000  0.60034000  0.70811000  1.0
  H  H10  1  0.04458000  0.90536000  0.79343000  1.0
  H  H11  1  0.95546000  0.70656000  0.59461000  1.0
  H  H12  1  0.91575000  0.31539000  0.20759000  1.0
  H  H13  1  0.08424000  0.29238000  0.18459000  1.0
  H  H14  1  0.95550000  0.24891000  0.36085000  1.0
  H  H15  1  0.04454000  0.13918000  0.25112000  1.0
  H  H16  1  0.38807000  0.79344000  0.24892000  1.0
  H  H17  1  0.38806000  0.59465000  0.13920000  1.0
  H  H18  1  0.60778000  0.89962000  0.31542000  1.0
  H  H19  1  0.60780000  0.70813000  0.29244000  1.0
  H  H20  1  0.61192000  0.25107000  0.70654000  1.0
  H  H21  1  0.61196000  0.36080000  0.90536000  1.0
  H  H22  1  0.39222000  0.18455000  0.60037000  1.0
  H  H23  1  0.39223000  0.20762000  0.79191000  1.0
  H  H24  1  0.16403000  0.89944000  0.34935000  1.0
  H  H25  1  0.94992000  0.60061000  0.26465000  1.0
  H  H26  1  0.05009000  0.81469000  0.15066000  1.0
  H  H27  1  0.83596000  0.68530000  0.23535000  1.0
  H  H28  1  0.16402000  0.26463000  0.81472000  1.0
  H  H29  1  0.94993000  0.34931000  0.68528000  1.0
  H  H30  1  0.05010000  0.23540000  0.89945000  1.0
  H  H31  1  0.83595000  0.15066000  0.60057000  1.0
  H  H32  1  0.09042000  0.70676000  0.99111000  1.0
  H  H33  1  0.90959000  0.50888000  0.79320000  1.0
  H  H34  1  0.04505000  0.99933000  0.71137000  1.0
  H  H35  1  0.95502000  0.78862000  0.50064000  1.0
  H  H36  1  0.90955000  0.40064000  0.11629000  1.0
  H  H37  1  0.09041000  0.38365000  0.09930000  1.0
  H  H38  1  0.95503000  0.16640000  0.45436000  1.0
  H  H39  1  0.04501000  0.04568000  0.33364000  1.0
  H  H40  1  0.21205000  0.71138000  0.16639000  1.0
  H  H41  1  0.21203000  0.50067000  0.04565000  1.0
  H  H42  1  0.78433000  0.99108000  0.40069000  1.0
  H  H43  1  0.78435000  0.79324000  0.38370000  1.0
  H  H44  1  0.78795000  0.33363000  0.78859000  1.0
  H  H45  1  0.78799000  0.45435000  0.99933000  1.0
  H  H46  1  0.21566000  0.09929000  0.50890000  1.0
  H  H47  1  0.21567000  0.11637000  0.70680000  1.0
  C  C48  1  0.81474000  0.90736000  0.40738000  1.0
  C  C49  1  0.99999000  0.13731000  0.63735000  1.0
  C  C50  1  0.00003000  0.90940000  0.59059000  1.0
  C  C51  1  0.18527000  0.09264000  0.59265000  1.0
  C  C52  1  0.99999000  0.86267000  0.36264000  1.0
  C  C53  1  0.00001000  0.09061000  0.40941000  1.0
  C  C54  1  0.00000000  0.59262000  0.90735000  1.0
  C  C55  1  0.99997000  0.36265000  0.86264000  1.0
  C  C56  1  0.18120000  0.59061000  0.09060000  1.0
  C  C57  1  0.99999000  0.40735000  0.09261000  1.0
  C  C58  1  0.00001000  0.63733000  0.13735000  1.0
  C  C59  1  0.81881000  0.40941000  0.90938000  1.0
  C  C60  1  0.00000000  0.80441000  0.30440000  1.0
  C  C61  1  0.00001000  0.69560000  0.19560000  1.0
  C  C62  1  0.04259000  0.82072000  0.27651000  1.0
  C  C63  1  0.95580000  0.67929000  0.22187000  1.0
  C  C64  1  0.04421000  0.76608000  0.22349000  1.0
  C  C65  1  0.95741000  0.73393000  0.27812000  1.0
  C  C66  1  0.99998000  0.19557000  0.69559000  1.0
  C  C67  1  0.99998000  0.30439000  0.80440000  1.0
  C  C68  1  0.04258000  0.22187000  0.76609000  1.0
  C  C69  1  0.95578000  0.27649000  0.73390000  1.0
  C  C70  1  0.04419000  0.27813000  0.82072000  1.0
  C  C71  1  0.95740000  0.22346000  0.67927000  1.0
  C  C72  1  1.00000000  0.62903000  0.87095000  1.0
  C  C73  1  0.04829000  0.70182000  0.90652000  1.0
  C  C74  1  0.04745000  0.73661000  0.87135000  1.0
  C  C75  1  0.00000000  0.70010000  0.79989000  1.0
  C  C76  1  0.95255000  0.62864000  0.76337000  1.0
  C  C77  1  0.95172000  0.59348000  0.79817000  1.0
  C  C78  1  0.00000000  0.73569000  0.76430000  1.0
  C  C79  1  1.00000000  0.76636000  0.73363000  1.0
  C  C80  1  0.00002000  0.80196000  0.69802000  1.0
  C  C81  1  0.02522000  0.87542000  0.73658000  1.0
  C  C82  1  0.02497000  0.91085000  0.70202000  1.0
  C  C83  1  0.00004000  0.87305000  0.62694000  1.0
  C  C84  1  0.97510000  0.79797000  0.58913000  1.0
  C  C85  1  0.97483000  0.76340000  0.62456000  1.0
  C  C86  1  0.99998000  0.37093000  0.12901000  1.0
  C  C87  1  0.95170000  0.35820000  0.15350000  1.0
  C  C88  1  0.95254000  0.32388000  0.18913000  1.0
  C  C89  1  0.99999000  0.29988000  0.20009000  1.0
  C  C90  1  0.04745000  0.31084000  0.17609000  1.0
  C  C91  1  0.04828000  0.34646000  0.14175000  1.0
  C  C92  1  1.00000000  0.26431000  0.23569000  1.0
  C  C93  1  0.00001000  0.23364000  0.26637000  1.0
  C  C94  1  0.00002000  0.19805000  0.30198000  1.0
  C  C95  1  0.97485000  0.21143000  0.35026000  1.0
  C  C96  1  0.97511000  0.17712000  0.38596000  1.0
  C  C97  1  0.00002000  0.12697000  0.37307000  1.0
  C  C98  1  0.02494000  0.11409000  0.32293000  1.0
  C  C99  1  0.02520000  0.14978000  0.28860000  1.0
  C  C100  1  0.25390000  0.62695000  0.12696000  1.0
  C  C101  1  0.29117000  0.70202000  0.17711000  1.0
  C  C102  1  0.36117000  0.73660000  0.21143000  1.0
  C  C103  1  0.39607000  0.69805000  0.19806000  1.0
  C  C104  1  0.36116000  0.62458000  0.14977000  1.0
  C  C105  1  0.29116000  0.58915000  0.11408000  1.0
  C  C106  1  0.46727000  0.73364000  0.23365000  1.0
  C  C107  1  0.52861000  0.76429000  0.26433000  1.0
  C  C108  1  0.59979000  0.79987000  0.29993000  1.0
  C  C109  1  0.63474000  0.87133000  0.32392000  1.0
  C  C110  1  0.70469000  0.90649000  0.35824000  1.0
  C  C111  1  0.74192000  0.87095000  0.37099000  1.0
  C  C112  1  0.70470000  0.79817000  0.34651000  1.0
  C  C113  1  0.63475000  0.76338000  0.31090000  1.0
  C  C114  1  0.74610000  0.37304000  0.87303000  1.0
  C  C115  1  0.70883000  0.32289000  0.79796000  1.0
  C  C116  1  0.63883000  0.28857000  0.76339000  1.0
  C  C117  1  0.60394000  0.30194000  0.80195000  1.0
  C  C118  1  0.63885000  0.35022000  0.87542000  1.0
  C  C119  1  0.70885000  0.38592000  0.91084000  1.0
  C  C120  1  0.53273000  0.26634000  0.76636000  1.0
  C  C121  1  0.47140000  0.23568000  0.73572000  1.0
  C  C122  1  0.40022000  0.20008000  0.70014000  1.0
  C  C123  1  0.36526000  0.17607000  0.62867000  1.0
  C  C124  1  0.29531000  0.14176000  0.59350000  1.0
  C  C125  1  0.25809000  0.12904000  0.62907000  1.0
  C  C126  1  0.29531000  0.15353000  0.70185000  1.0
  C  C127  1  0.36527000  0.18915000  0.73665000  1.0
  C  C128  1  0.08146000  0.89585000  0.29760000  1.0
  C  C129  1  0.90177000  0.60415000  0.18562000  1.0
  C  C130  1  0.09825000  0.78385000  0.20240000  1.0
  C  C131  1  0.91853000  0.71616000  0.31438000  1.0
  C  C132  1  0.08146000  0.18562000  0.78389000  1.0
  C  C133  1  0.90175000  0.29759000  0.71611000  1.0
  C  C134  1  0.09823000  0.31440000  0.89587000  1.0
  C  C135  1  0.91852000  0.20235000  0.60412000  1.0
  O  O136  1  0.00000000  0.00000000  0.50000000  1.0
  O  O137  1  0.84651000  0.87489000  0.42225000  1.0
  O  O138  1  0.94716000  0.09973000  0.57780000  1.0
  O  O139  1  0.02537000  0.97768000  0.62695000  1.0
  O  O140  1  0.84650000  0.97159000  0.42424000  1.0
  O  O141  1  0.97468000  0.87305000  0.52231000  1.0
  O  O142  1  0.05282000  0.13062000  0.65262000  1.0
  O  O143  1  0.15351000  0.07778000  0.62513000  1.0
  O  O144  1  0.05282000  0.92221000  0.40022000  1.0
  O  O145  1  0.15350000  0.07574000  0.52840000  1.0
  O  O146  1  0.94716000  0.84740000  0.36934000  1.0
  O  O147  1  0.97466000  0.10161000  0.45234000  1.0
  O  O148  1  0.02535000  0.04768000  0.39841000  1.0
  O  O149  1  1.00000000  0.50000000  0.00000000  1.0
  O  O150  1  0.04735000  0.62510000  0.97161000  1.0
  O  O151  1  0.97801000  0.40021000  0.84738000  1.0
  O  O152  1  0.14927000  0.52233000  0.04767000  1.0
  O  O153  1  0.95265000  0.52839000  0.87488000  1.0
  O  O154  1  0.14928000  0.62696000  0.10161000  1.0
  O  O155  1  0.02195000  0.36937000  0.92220000  1.0
  O  O156  1  0.04736000  0.42226000  0.07575000  1.0
  O  O157  1  0.97805000  0.57780000  0.13065000  1.0
  O  O158  1  0.95264000  0.42424000  0.07773000  1.0
  O  O159  1  0.02198000  0.65259000  0.09978000  1.0
  O  O160  1  0.85073000  0.39841000  0.87303000  1.0
  O  O161  1  0.85074000  0.45235000  0.97766000  1.0
  O  O162  1  0.14902000  0.92865000  0.33627000  1.0
  O  O163  1  0.05295000  0.92371000  0.27636000  1.0
  O  O164  1  0.90764000  0.57139000  0.22041000  1.0
  O  O165  1  0.85267000  0.57626000  0.12922000  1.0
  O  O166  1  0.09237000  0.81274000  0.16373000  1.0
  O  O167  1  0.14735000  0.77658000  0.22363000  1.0
  O  O168  1  0.85097000  0.68725000  0.27958000  1.0
  O  O169  1  0.94702000  0.72343000  0.37075000  1.0
  O  O170  1  0.14902000  0.22042000  0.81280000  1.0
  O  O171  1  0.05297000  0.12926000  0.77663000  1.0
  O  O172  1  0.90763000  0.33622000  0.68719000  1.0
  O  O173  1  0.85265000  0.27637000  0.72338000  1.0
  O  O174  1  0.09238000  0.27964000  0.92867000  1.0
  O  O175  1  0.14732000  0.37079000  0.92375000  1.0
  O  O176  1  0.85096000  0.16371000  0.57134000  1.0
  O  O177  1  0.94703000  0.22356000  0.57624000  1.0
  O  O178  1  0.09569000  0.73947000  0.97466000  1.0
  O  O179  1  0.90432000  0.52533000  0.76049000  1.0
  O  O180  1  0.04829000  0.98088000  0.74230000  1.0
  O  O181  1  0.95179000  0.75770000  0.51910000  1.0
  O  O182  1  0.90429000  0.37893000  0.14374000  1.0
  O  O183  1  0.09568000  0.35621000  0.12102000  1.0
  O  O184  1  0.95181000  0.19409000  0.43268000  1.0
  O  O185  1  0.04824000  0.06737000  0.30595000  1.0
  O  O186  1  0.26142000  0.74230000  0.19407000  1.0
  O  O187  1  0.26141000  0.51913000  0.06735000  1.0
  O  O188  1  0.73517000  0.97463000  0.37898000  1.0
  O  O189  1  0.73519000  0.76053000  0.35627000  1.0
  O  O190  1  0.73857000  0.30593000  0.75767000  1.0
  O  O191  1  0.73861000  0.43264000  0.98087000  1.0
  O  O192  1  0.26482000  0.12100000  0.52535000  1.0
  O  O193  1  0.26483000  0.14379000  0.73951000  1.0
