# generated using pymatgen
data_ZnH8C10(NO)5
_symmetry_space_group_name_H-M   'P 1'
_cell_length_a   7.22334000
_cell_length_b   9.29952000
_cell_length_c   20.21900000
_cell_angle_alpha   90.00000000
_cell_angle_beta   90.00000000
_cell_angle_gamma   109.58100000
_symmetry_Int_Tables_number   1
_chemical_formula_structural   ZnH8C10(NO)5
_chemical_formula_sum   'Zn4 H32 C40 N20 O20'
_cell_volume   1279.63734948
_cell_formula_units_Z   4
loop_
 _symmetry_equiv_pos_site_id
 _symmetry_equiv_pos_as_xyz
  1  'x, y, z'
loop_
 _atom_site_type_symbol
 _atom_site_label
 _atom_site_symmetry_multiplicity
 _atom_site_fract_x
 _atom_site_fract_y
 _atom_site_fract_z
 _atom_site_occupancy
  Zn  Zn0  1  0.53648000  0.77600000  0.99061000  1.0
  Zn  Zn1  1  0.96351000  0.22399000  0.49060000  1.0
  Zn  Zn2  1  0.46352000  0.22400000  0.00939000  1.0
  Zn  Zn3  1  0.03649000  0.77601000  0.50940000  1.0
  H  H4  1  0.60076000  0.94005000  0.63943000  1.0
  H  H5  1  0.89922000  0.05994000  0.13943000  1.0
  H  H6  1  0.39924000  0.05996000  0.36056000  1.0
  H  H7  1  0.10079000  0.94007000  0.86057000  1.0
  H  H8  1  0.87808000  0.17089000  0.85616000  1.0
  H  H9  1  0.62190000  0.82910000  0.35616000  1.0
  H  H10  1  0.12192000  0.82910000  0.14384000  1.0
  H  H11  1  0.37809000  0.17090000  0.64384000  1.0
  H  H12  1  0.27025000  0.58717000  0.80478000  1.0
  H  H13  1  0.22973000  0.41282000  0.30478000  1.0
  H  H14  1  0.72975000  0.41283000  0.19522000  1.0
  H  H15  1  0.77027000  0.58718000  0.69522000  1.0
  H  H16  1  0.21002000  0.51877000  0.69206000  1.0
  H  H17  1  0.28996000  0.48121000  0.19206000  1.0
  H  H18  1  0.78998000  0.48123000  0.30794000  1.0
  H  H19  1  0.71004000  0.51878000  0.80794000  1.0
  H  H20  1  0.32034000  0.49892000  0.97162000  1.0
  H  H21  1  0.17966000  0.50107000  0.47162000  1.0
  H  H22  1  0.67966000  0.50108000  0.02838000  1.0
  H  H23  1  0.82034000  0.49893000  0.52838000  1.0
  H  H24  1  0.51629000  0.51030000  0.92977000  1.0
  H  H25  1  0.98371000  0.48970000  0.42977000  1.0
  H  H26  1  0.48371000  0.48971000  0.07023000  1.0
  H  H27  1  0.01629000  0.51030000  0.57023000  1.0
  H  H28  1  0.28913000  0.87954000  0.04872000  1.0
  H  H29  1  0.21087000  0.12046000  0.54872000  1.0
  H  H30  1  0.71087000  0.12046000  0.95128000  1.0
  H  H31  1  0.78913000  0.87954000  0.45128000  1.0
  H  H32  1  0.28085000  0.71568000  0.07382000  1.0
  H  H33  1  0.21914000  0.28431000  0.57382000  1.0
  H  H34  1  0.71915000  0.28432000  0.92618000  1.0
  H  H35  1  0.78086000  0.71569000  0.42618000  1.0
  C  C36  1  0.58501000  0.88933000  0.86679000  1.0
  C  C37  1  0.91497000  0.11066000  0.36678000  1.0
  C  C38  1  0.41499000  0.11067000  0.13321000  1.0
  C  C39  1  0.08502000  0.88934000  0.63322000  1.0
  C  C40  1  0.66330000  0.97764000  0.80779000  1.0
  C  C41  1  0.83668000  0.02235000  0.30779000  1.0
  C  C42  1  0.33670000  0.02236000  0.19221000  1.0
  C  C43  1  0.16331000  0.97765000  0.69222000  1.0
  C  C44  1  0.58906000  0.91294000  0.74546000  1.0
  C  C45  1  0.91093000  0.08705000  0.24546000  1.0
  C  C46  1  0.41094000  0.08706000  0.25454000  1.0
  C  C47  1  0.08906000  0.91295000  0.75454000  1.0
  C  C48  1  0.43800000  0.76170000  0.74319000  1.0
  C  C49  1  0.06198000  0.23830000  0.24318000  1.0
  C  C50  1  0.56200000  0.23830000  0.25681000  1.0
  C  C51  1  0.93801000  0.76170000  0.75682000  1.0
  C  C52  1  0.88087000  0.22213000  0.62901000  1.0
  C  C53  1  0.61911000  0.77785000  0.12901000  1.0
  C  C54  1  0.11913000  0.77787000  0.37099000  1.0
  C  C55  1  0.38089000  0.22215000  0.87099000  1.0
  C  C56  1  0.80251000  0.13596000  0.68919000  1.0
  C  C57  1  0.69748000  0.86402000  0.18919000  1.0
  C  C58  1  0.19749000  0.86404000  0.31081000  1.0
  C  C59  1  0.30252000  0.13597000  0.81081000  1.0
  C  C60  1  0.87890000  0.19927000  0.75117000  1.0
  C  C61  1  0.62109000  0.80072000  0.25117000  1.0
  C  C62  1  0.12111000  0.80073000  0.24883000  1.0
  C  C63  1  0.37891000  0.19928000  0.74883000  1.0
  C  C64  1  0.03473000  0.34807000  0.75327000  1.0
  C  C65  1  0.46526000  0.65192000  0.25327000  1.0
  C  C66  1  0.96528000  0.65193000  0.24673000  1.0
  C  C67  1  0.53474000  0.34808000  0.74673000  1.0
  C  C68  1  0.65867000  0.99158000  0.68679000  1.0
  C  C69  1  0.84133000  0.00841000  0.18678000  1.0
  C  C70  1  0.34133000  0.00843000  0.31321000  1.0
  C  C71  1  0.15868000  0.99159000  0.81322000  1.0
  C  C72  1  0.81062000  0.12049000  0.80975000  1.0
  C  C73  1  0.68937000  0.87950000  0.30975000  1.0
  C  C74  1  0.18938000  0.87951000  0.19025000  1.0
  C  C75  1  0.31063000  0.12050000  0.69025000  1.0
  N  N76  1  0.44698000  0.75483000  0.86349000  1.0
  N  N77  1  0.05299000  0.24516000  0.36349000  1.0
  N  N78  1  0.55301000  0.24517000  0.13651000  1.0
  N  N79  1  0.94700000  0.75483000  0.63651000  1.0
  N  N80  1  0.37886000  0.69608000  0.80313000  1.0
  N  N81  1  0.12112000  0.30391000  0.30312000  1.0
  N  N82  1  0.62114000  0.30392000  0.19687000  1.0
  N  N83  1  0.87887000  0.69608000  0.69688000  1.0
  N  N84  1  0.03141000  0.35288000  0.63231000  1.0
  N  N85  1  0.46857000  0.64711000  0.13232000  1.0
  N  N86  1  0.96859000  0.64713000  0.36769000  1.0
  N  N87  1  0.53143000  0.35289000  0.86768000  1.0
  N  N88  1  0.10011000  0.41042000  0.69361000  1.0
  N  N89  1  0.39987000  0.58956000  0.19361000  1.0
  N  N90  1  0.89989000  0.58958000  0.30639000  1.0
  N  N91  1  0.60013000  0.41043000  0.80639000  1.0
  N  N92  1  0.47084000  0.54404000  0.97443000  1.0
  N  N93  1  0.02916000  0.45596000  0.47443000  1.0
  N  N94  1  0.52916000  0.45596000  0.02557000  1.0
  N  N95  1  0.97084000  0.54405000  0.52557000  1.0
  O  O96  1  0.65240000  0.94025000  0.92656000  1.0
  O  O97  1  0.84757000  0.05974000  0.42656000  1.0
  O  O98  1  0.34760000  0.05976000  0.07344000  1.0
  O  O99  1  0.15242000  0.94025000  0.57345000  1.0
  O  O100  1  0.36545000  0.69602000  0.68996000  1.0
  O  O101  1  0.13452000  0.30397000  0.18996000  1.0
  O  O102  1  0.63455000  0.30398000  0.31005000  1.0
  O  O103  1  0.86547000  0.69603000  0.81005000  1.0
  O  O104  1  0.80583000  0.16717000  0.57217000  1.0
  O  O105  1  0.69416000  0.83280000  0.07217000  1.0
  O  O106  1  0.19417000  0.83283000  0.42783000  1.0
  O  O107  1  0.30585000  0.16719000  0.92783000  1.0
  O  O108  1  0.10614000  0.41332000  0.80683000  1.0
  O  O109  1  0.39383000  0.58667000  0.30683000  1.0
  O  O110  1  0.89386000  0.58668000  0.19317000  1.0
  O  O111  1  0.60616000  0.41333000  0.69317000  1.0
  O  O112  1  0.27294000  0.77257000  0.03323000  1.0
  O  O113  1  0.22705000  0.22744000  0.53322000  1.0
  O  O114  1  0.72705000  0.22743000  0.96677000  1.0
  O  O115  1  0.77295000  0.77256000  0.46678000  1.0
