# generated using pymatgen
data_HgP2H18Au2(C3F2)10
_symmetry_space_group_name_H-M   'P 1'
_cell_length_a   10.47210000
_cell_length_b   10.99930000
_cell_length_c   18.19440000
_cell_angle_alpha   106.97600000
_cell_angle_beta   90.01220000
_cell_angle_gamma   118.42200000
_symmetry_Int_Tables_number   1
_chemical_formula_structural   HgP2H18Au2(C3F2)10
_chemical_formula_sum   'Hg2 P4 H36 Au4 C60 F40'
_cell_volume   1738.51863282
_cell_formula_units_Z   2
loop_
 _symmetry_equiv_pos_site_id
 _symmetry_equiv_pos_as_xyz
  1  'x, y, z'
loop_
 _atom_site_type_symbol
 _atom_site_label
 _atom_site_symmetry_multiplicity
 _atom_site_fract_x
 _atom_site_fract_y
 _atom_site_fract_z
 _atom_site_occupancy
  Hg  Hg0  1  0.00000000  0.00000000  0.00000000  1.0
  Hg  Hg1  1  0.00000000  0.00000000  0.50000000  1.0
  P  P2  1  0.31113000  0.22628000  0.85869000  1.0
  P  P3  1  0.08497000  0.77376000  0.64130000  1.0
  P  P4  1  0.68887000  0.77372000  0.14131000  1.0
  P  P5  1  0.91503000  0.22624000  0.35870000  1.0
  H  H6  1  0.51139000  0.30200000  0.78523000  1.0
  H  H7  1  0.20945000  0.69806000  0.71483000  1.0
  H  H8  1  0.48861000  0.69800000  0.21477000  1.0
  H  H9  1  0.79055000  0.30194000  0.28517000  1.0
  H  H10  1  0.33589000  0.21851000  0.72546000  1.0
  H  H11  1  0.11743000  0.78155000  0.77455000  1.0
  H  H12  1  0.66411000  0.78150000  0.27454000  1.0
  H  H13  1  0.88257000  0.21845000  0.22545000  1.0
  H  H14  1  0.39565000  0.10810000  0.75236000  1.0
  H  H15  1  0.28762000  0.89197000  0.74771000  1.0
  H  H16  1  0.60435000  0.89189000  0.24764000  1.0
  H  H17  1  0.71238000  0.10803000  0.25229000  1.0
  H  H18  1  0.54075000  0.29751000  0.93408000  1.0
  H  H19  1  0.24330000  0.70244000  0.56592000  1.0
  H  H20  1  0.45925000  0.70249000  0.06592000  1.0
  H  H21  1  0.75670000  0.29756000  0.43408000  1.0
  H  H22  1  0.41315000  0.10683000  0.91169000  1.0
  H  H23  1  0.30637000  0.89314000  0.58830000  1.0
  H  H24  1  0.58685000  0.89317000  0.08831000  1.0
  H  H25  1  0.69363000  0.10686000  0.41170000  1.0
  H  H26  1  0.39017000  0.23727000  0.98647000  1.0
  H  H27  1  0.15292000  0.76274000  0.51356000  1.0
  H  H28  1  0.60983000  0.76273000  0.01353000  1.0
  H  H29  1  0.84708000  0.23727000  0.48644000  1.0
  H  H30  1  0.31543000  0.43808000  0.95028000  1.0
  H  H31  1  0.87750000  0.56198000  0.54971000  1.0
  H  H32  1  0.68457000  0.56192000  0.04972000  1.0
  H  H33  1  0.12250000  0.43802000  0.45029000  1.0
  H  H34  1  0.29737000  0.43694000  0.85271000  1.0
  H  H35  1  0.86059000  0.56311000  0.64727000  1.0
  H  H36  1  0.70263000  0.56306000  0.14729000  1.0
  H  H37  1  0.13941000  0.43689000  0.35272000  1.0
  H  H38  1  0.47268000  0.48864000  0.90200000  1.0
  H  H39  1  0.98419000  0.51138000  0.59800000  1.0
  H  H40  1  0.52732000  0.51136000  0.09800000  1.0
  H  H41  1  0.01581000  0.48862000  0.40200000  1.0
  Au  Au42  1  0.06326000  0.06052000  0.83888000  1.0
  Au  Au43  1  0.00284000  0.93948000  0.66108000  1.0
  Au  Au44  1  0.93674000  0.93948000  0.16112000  1.0
  Au  Au45  1  0.99716000  0.06051000  0.33892000  1.0
  C  C46  1  0.39688000  0.21270000  0.77208000  1.0
  C  C47  1  0.18426000  0.78737000  0.72796000  1.0
  C  C48  1  0.60312000  0.78730000  0.22792000  1.0
  C  C49  1  0.81574000  0.21263000  0.27204000  1.0
  C  C50  1  0.42489000  0.21613000  0.92949000  1.0
  C  C51  1  0.20882000  0.78383000  0.57053000  1.0
  C  C52  1  0.57511000  0.78387000  0.07051000  1.0
  C  C53  1  0.79118000  0.21618000  0.42947000  1.0
  C  C54  1  0.35328000  0.41612000  0.89434000  1.0
  C  C55  1  0.93732000  0.58392000  0.60565000  1.0
  C  C56  1  0.64672000  0.58388000  0.10566000  1.0
  C  C57  1  0.06268000  0.41608000  0.39434000  1.0
  C  C58  1  0.83726000  0.92139000  0.82367000  1.0
  C  C59  1  0.91589000  0.07857000  0.67627000  1.0
  C  C60  1  0.16274000  0.07861000  0.17633000  1.0
  C  C61  1  0.08411000  0.92143000  0.32373000  1.0
  C  C62  1  0.74143000  0.97723000  0.83627000  1.0
  C  C63  1  0.76422000  0.02268000  0.66370000  1.0
  C  C64  1  0.25857000  0.02277000  0.16373000  1.0
  C  C65  1  0.23578000  0.97732000  0.33630000  1.0
  C  C66  1  0.58895000  0.88945000  0.82425000  1.0
  C  C67  1  0.69950000  0.11045000  0.67575000  1.0
  C  C68  1  0.41105000  0.11055000  0.17575000  1.0
  C  C69  1  0.30050000  0.88955000  0.32425000  1.0
  C  C70  1  0.52651000  0.73742000  0.79770000  1.0
  C  C71  1  0.78903000  0.26249000  0.70230000  1.0
  C  C72  1  0.47349000  0.26258000  0.20230000  1.0
  C  C73  1  0.21097000  0.73751000  0.29770000  1.0
  C  C74  1  0.61819000  0.67684000  0.78382000  1.0
  C  C75  1  0.94129000  0.32310000  0.71618000  1.0
  C  C76  1  0.38181000  0.32315000  0.21618000  1.0
  C  C77  1  0.05871000  0.67690000  0.28382000  1.0
  C  C78  1  0.77001000  0.76933000  0.79696000  1.0
  C  C79  1  0.00065000  0.23062000  0.70303000  1.0
  C  C80  1  0.22999000  0.23067000  0.20304000  1.0
  C  C81  1  0.99935000  0.76938000  0.29697000  1.0
  C  C82  1  0.98335000  0.19135000  0.03634000  1.0
  C  C83  1  0.79175000  0.80872000  0.46366000  1.0
  C  C84  1  0.01665000  0.80865000  0.96366000  1.0
  C  C85  1  0.20824000  0.19128000  0.53634000  1.0
  C  C86  1  0.10683000  0.33007000  0.06075000  1.0
  C  C87  1  0.77659000  0.67002000  0.43926000  1.0
  C  C88  1  0.89317000  0.66993000  0.93925000  1.0
  C  C89  1  0.22341000  0.32998000  0.56074000  1.0
  C  C90  1  0.09822000  0.45793000  0.08326000  1.0
  C  C91  1  0.64018000  0.54212000  0.41675000  1.0
  C  C92  1  0.90177000  0.54207000  0.91674000  1.0
  C  C93  1  0.35982000  0.45788000  0.58325000  1.0
  C  C94  1  0.96004000  0.44729000  0.08102000  1.0
  C  C95  1  0.51261000  0.55274000  0.41902000  1.0
  C  C96  1  0.03996000  0.55271000  0.91898000  1.0
  C  C97  1  0.48738000  0.44726000  0.58098000  1.0
  C  C98  1  0.83336000  0.30959000  0.05674000  1.0
  C  C99  1  0.52360000  0.69043000  0.44335000  1.0
  C  C100  1  0.16664000  0.69040000  0.94326000  1.0
  C  C101  1  0.47640000  0.30957000  0.55665000  1.0
  C  C102  1  0.84756000  0.18474000  0.03518000  1.0
  C  C103  1  0.66259000  0.81532000  0.46486000  1.0
  C  C104  1  0.15244000  0.81526000  0.96482000  1.0
  C  C105  1  0.33741000  0.18468000  0.53514000  1.0
  F  F106  1  0.79567000  0.12516000  0.86138000  1.0
  F  F107  1  0.67059000  0.87476000  0.63864000  1.0
  F  F108  1  0.20433000  0.87484000  0.13862000  1.0
  F  F109  1  0.32941000  0.12524000  0.36136000  1.0
  F  F110  1  0.50046000  0.94946000  0.83789000  1.0
  F  F111  1  0.55099000  0.05043000  0.66217000  1.0
  F  F112  1  0.49954000  0.05054000  0.16211000  1.0
  F  F113  1  0.44901000  0.94957000  0.33783000  1.0
  F  F114  1  0.37882000  0.64929000  0.78484000  1.0
  F  F115  1  0.72947000  0.35062000  0.71514000  1.0
  F  F116  1  0.62118000  0.35071000  0.21516000  1.0
  F  F117  1  0.27053000  0.64938000  0.28486000  1.0
  F  F118  1  0.55780000  0.52890000  0.75738000  1.0
  F  F119  1  0.02880000  0.47105000  0.74266000  1.0
  F  F120  1  0.44220000  0.47110000  0.24262000  1.0
  F  F121  1  0.97120000  0.52895000  0.25734000  1.0
  F  F122  1  0.85353000  0.70244000  0.78176000  1.0
  F  F123  1  0.15105000  0.29757000  0.71826000  1.0
  F  F124  1  0.14647000  0.29756000  0.21824000  1.0
  F  F125  1  0.84895000  0.70243000  0.28174000  1.0
  F  F126  1  0.24458000  0.34541000  0.06332000  1.0
  F  F127  1  0.89902000  0.65470000  0.43670000  1.0
  F  F128  1  0.75542000  0.65460000  0.93668000  1.0
  F  F129  1  0.10097000  0.34529000  0.56330000  1.0
  F  F130  1  0.22121000  0.59163000  0.10700000  1.0
  F  F131  1  0.62948000  0.40843000  0.39298000  1.0
  F  F132  1  0.77879000  0.40837000  0.89300000  1.0
  F  F133  1  0.37051000  0.59157000  0.60702000  1.0
  F  F134  1  0.94915000  0.56971000  0.10208000  1.0
  F  F135  1  0.37931000  0.43029000  0.39786000  1.0
  F  F136  1  0.05084000  0.43028000  0.89792000  1.0
  F  F137  1  0.62068000  0.56971000  0.60214000  1.0
  F  F138  1  0.69941000  0.29902000  0.05377000  1.0
  F  F139  1  0.40022000  0.70098000  0.44629000  1.0
  F  F140  1  0.30058000  0.70097000  0.94623000  1.0
  F  F141  1  0.59978000  0.29902000  0.55371000  1.0
  F  F142  1  0.72130000  0.05240000  0.01133000  1.0
  F  F143  1  0.66865000  0.94764000  0.48869000  1.0
  F  F144  1  0.27870000  0.94760000  0.98867000  1.0
  F  F145  1  0.33135000  0.05236000  0.51131000  1.0
