# generated using pymatgen
data_CdH20C26N6O5
_symmetry_space_group_name_H-M   'P 1'
_cell_length_a   9.08074000
_cell_length_b   10.08800000
_cell_length_c   14.71100000
_cell_angle_alpha   104.70000000
_cell_angle_beta   99.88340000
_cell_angle_gamma   108.35300000
_symmetry_Int_Tables_number   1
_chemical_formula_structural   CdH20C26N6O5
_chemical_formula_sum   'Cd2 H40 C52 N12 O10'
_cell_volume   1189.86277896
_cell_formula_units_Z   2
loop_
 _symmetry_equiv_pos_site_id
 _symmetry_equiv_pos_as_xyz
  1  'x, y, z'
loop_
 _atom_site_type_symbol
 _atom_site_label
 _atom_site_symmetry_multiplicity
 _atom_site_fract_x
 _atom_site_fract_y
 _atom_site_fract_z
 _atom_site_occupancy
  Cd  Cd0  1  0.01881000  0.18735000  0.27750000  1.0
  Cd  Cd1  1  0.98121000  0.81265000  0.72251000  1.0
  H  H2  1  0.38429000  0.72628000  0.54116000  1.0
  H  H3  1  0.61571000  0.27372000  0.45884000  1.0
  H  H4  1  0.06183000  0.14730000  0.90758000  1.0
  H  H5  1  0.93817000  0.85270000  0.09243000  1.0
  H  H6  1  0.61560000  0.15424000  0.04871000  1.0
  H  H7  1  0.38440000  0.84577000  0.95129000  1.0
  H  H8  1  0.37024000  0.20510000  0.27320000  1.0
  H  H9  1  0.62977000  0.79492000  0.72681000  1.0
  H  H10  1  0.38127000  0.13791000  0.92257000  1.0
  H  H11  1  0.61872000  0.86209000  0.07742000  1.0
  H  H12  1  0.90078000  0.19827000  0.03277000  1.0
  H  H13  1  0.09924000  0.80173000  0.96724000  1.0
  H  H14  1  0.94364000  0.66559000  0.16709000  1.0
  H  H15  1  0.05636000  0.33441000  0.83291000  1.0
  H  H16  1  0.29395000  0.92692000  0.44440000  1.0
  H  H17  1  0.70605000  0.07309000  0.55559000  1.0
  H  H18  1  0.96992000  0.43283000  0.18182000  1.0
  H  H19  1  0.03007000  0.56717000  0.81819000  1.0
  H  H20  1  0.33469000  0.45372000  0.48648000  1.0
  H  H21  1  0.66531000  0.54628000  0.51352000  1.0
  H  H22  1  0.81710000  0.20268000  0.38921000  1.0
  H  H23  1  0.18289000  0.79731000  0.61079000  1.0
  H  H24  1  0.99136000  0.23886000  0.47079000  1.0
  H  H25  1  0.00864000  0.76114000  0.52921000  1.0
  H  H26  1  0.78314000  0.48182000  0.35913000  1.0
  H  H27  1  0.21685000  0.51816000  0.64085000  1.0
  H  H28  1  0.88771000  0.92778000  0.48855000  1.0
  H  H29  1  0.11228000  0.07220000  0.51144000  1.0
  H  H30  1  0.68785000  0.93254000  0.35542000  1.0
  H  H31  1  0.31215000  0.06746000  0.64457000  1.0
  H  H32  1  0.56413000  0.46126000  0.22496000  1.0
  H  H33  1  0.43589000  0.53874000  0.77502000  1.0
  H  H34  1  0.47475000  0.90841000  0.26759000  1.0
  H  H35  1  0.52524000  0.09158000  0.73241000  1.0
  H  H36  1  0.43911000  0.47342000  0.09893000  1.0
  H  H37  1  0.56088000  0.52657000  0.90106000  1.0
  H  H38  1  0.22772000  0.47520000  0.97007000  1.0
  H  H39  1  0.77226000  0.52479000  0.02992000  1.0
  H  H40  1  0.26641000  0.89251000  0.13044000  1.0
  H  H41  1  0.73359000  0.10748000  0.86956000  1.0
  C  C42  1  0.65183000  0.19023000  0.23842000  1.0
  C  C43  1  0.34818000  0.80978000  0.76158000  1.0
  C  C44  1  0.50632000  0.18115000  0.16684000  1.0
  C  C45  1  0.49368000  0.81887000  0.83316000  1.0
  C  C46  1  0.50812000  0.16233000  0.06847000  1.0
  C  C47  1  0.49188000  0.83766000  0.93152000  1.0
  C  C48  1  0.37241000  0.19305000  0.19780000  1.0
  C  C49  1  0.62760000  0.80698000  0.80221000  1.0
  C  C50  1  0.37905000  0.15467000  0.99829000  1.0
  C  C51  1  0.62094000  0.84531000  0.00170000  1.0
  C  C52  1  0.24276000  0.18755000  0.12840000  1.0
  C  C53  1  0.75726000  0.81248000  0.87161000  1.0
  C  C54  1  0.24655000  0.16871000  0.02995000  1.0
  C  C55  1  0.75345000  0.83129000  0.97006000  1.0
  C  C56  1  0.01710000  0.18790000  0.04981000  1.0
  C  C57  1  0.98291000  0.81211000  0.95020000  1.0
  C  C58  1  0.09454000  0.94259000  0.29035000  1.0
  C  C59  1  0.90547000  0.05741000  0.70965000  1.0
  C  C60  1  0.11822000  0.80766000  0.30370000  1.0
  C  C61  1  0.88178000  0.19234000  0.69630000  1.0
  C  C62  1  0.02750000  0.66872000  0.23077000  1.0
  C  C63  1  0.97249000  0.33127000  0.76924000  1.0
  C  C64  1  0.22613000  0.81946000  0.38840000  1.0
  C  C65  1  0.77388000  0.18055000  0.61160000  1.0
  C  C66  1  0.04143000  0.53883000  0.23852000  1.0
  C  C67  1  0.95857000  0.46116000  0.76149000  1.0
  C  C68  1  0.23830000  0.68863000  0.39722000  1.0
  C  C69  1  0.76171000  0.31138000  0.60279000  1.0
  C  C70  1  0.14809000  0.54940000  0.32341000  1.0
  C  C71  1  0.85192000  0.45061000  0.67659000  1.0
  C  C72  1  0.28685000  0.50861000  0.44129000  1.0
  C  C73  1  0.71315000  0.49139000  0.55871000  1.0
  C  C74  1  0.75693000  0.57925000  0.35618000  1.0
  C  C75  1  0.24306000  0.42074000  0.64382000  1.0
  C  C76  1  0.81591000  0.82714000  0.42737000  1.0
  C  C77  1  0.18407000  0.17285000  0.57262000  1.0
  C  C78  1  0.69883000  0.82761000  0.35328000  1.0
  C  C79  1  0.30117000  0.17238000  0.64671000  1.0
  C  C80  1  0.63439000  0.56867000  0.28025000  1.0
  C  C81  1  0.36561000  0.43132000  0.71974000  1.0
  C  C82  1  0.60337000  0.69549000  0.27706000  1.0
  C  C83  1  0.39663000  0.30450000  0.72293000  1.0
  C  C84  1  0.47687000  0.69086000  0.19697000  1.0
  C  C85  1  0.52312000  0.30913000  0.80302000  1.0
  C  C86  1  0.42530000  0.80940000  0.20329000  1.0
  C  C87  1  0.57469000  0.19059000  0.79671000  1.0
  C  C88  1  0.40366000  0.56867000  0.11057000  1.0
  C  C89  1  0.59634000  0.43133000  0.88942000  1.0
  C  C90  1  0.28481000  0.56974000  0.03743000  1.0
  C  C91  1  0.71518000  0.43025000  0.96256000  1.0
  C  C92  1  0.30590000  0.79980000  0.12579000  1.0
  C  C93  1  0.69410000  0.20020000  0.87420000  1.0
  N  N94  1  0.18170000  0.43957000  0.35365000  1.0
  N  N95  1  0.81831000  0.56044000  0.64635000  1.0
  N  N96  1  0.32599000  0.65750000  0.47064000  1.0
  N  N97  1  0.67400000  0.34251000  0.52936000  1.0
  N  N98  1  0.09688000  0.19865000  0.13767000  1.0
  N  N99  1  0.90313000  0.80137000  0.86235000  1.0
  N  N100  1  0.10201000  0.17024000  0.98279000  1.0
  N  N101  1  0.89800000  0.82977000  0.01722000  1.0
  N  N102  1  0.84656000  0.70590000  0.42952000  1.0
  N  N103  1  0.15343000  0.29409000  0.57047000  1.0
  N  N104  1  0.23472000  0.68275000  0.04365000  1.0
  N  N105  1  0.76527000  0.31724000  0.95635000  1.0
  O  O106  1  0.76934000  0.17964000  0.20439000  1.0
  O  O107  1  0.23066000  0.82035000  0.79562000  1.0
  O  O108  1  0.64979000  0.20895000  0.32747000  1.0
  O  O109  1  0.35022000  0.79106000  0.67253000  1.0
  O  O110  1  0.18401000  0.06942000  0.35131000  1.0
  O  O111  1  0.81599000  0.93058000  0.64869000  1.0
  O  O112  1  0.98048000  0.92521000  0.21752000  1.0
  O  O113  1  0.01952000  0.07480000  0.78248000  1.0
  O  O114  1  0.91069000  0.17238000  0.40616000  1.0
  O  O115  1  0.08929000  0.82760000  0.59384000  1.0
