# generated using pymatgen
data_ZnH14C22N2(ClO2)2
_symmetry_space_group_name_H-M   'P 1'
_cell_length_a   9.85145000
_cell_length_b   11.32780000
_cell_length_c   12.75520000
_cell_angle_alpha   103.73400000
_cell_angle_beta   97.70670000
_cell_angle_gamma   95.77220000
_symmetry_Int_Tables_number   1
_chemical_formula_structural   ZnH14C22N2(ClO2)2
_chemical_formula_sum   'Zn2 H28 C44 N4 Cl4 O8'
_cell_volume   1357.20805427
_cell_formula_units_Z   2
loop_
 _symmetry_equiv_pos_site_id
 _symmetry_equiv_pos_as_xyz
  1  'x, y, z'
loop_
 _atom_site_type_symbol
 _atom_site_label
 _atom_site_symmetry_multiplicity
 _atom_site_fract_x
 _atom_site_fract_y
 _atom_site_fract_z
 _atom_site_occupancy
  Zn  Zn0  1  0.48313000  0.79836000  0.17562000  1.0
  Zn  Zn1  1  0.51687000  0.20164000  0.82438000  1.0
  H  H2  1  0.30954000  0.99685000  0.21742000  1.0
  H  H3  1  0.69045000  0.00315000  0.78258000  1.0
  H  H4  1  0.16031000  0.10931000  0.10906000  1.0
  H  H5  1  0.83968000  0.89069000  0.89094000  1.0
  H  H6  1  0.29598000  0.90721000  0.81914000  1.0
  H  H7  1  0.70402000  0.09279000  0.18086000  1.0
  H  H8  1  0.43583000  0.79962000  0.93939000  1.0
  H  H9  1  0.56417000  0.20038000  0.06061000  1.0
  H  H10  1  0.88288000  0.93708000  0.68900000  1.0
  H  H11  1  0.11711000  0.06292000  0.31100000  1.0
  H  H12  1  0.74120000  0.99532000  0.53553000  1.0
  H  H13  1  0.25880000  0.00468000  0.46447000  1.0
  H  H14  1  0.72021000  0.12265000  0.40393000  1.0
  H  H15  1  0.27979000  0.87735000  0.59607000  1.0
  H  H16  1  0.82652000  0.28401000  0.32288000  1.0
  H  H17  1  0.17348000  0.71599000  0.67712000  1.0
  H  H18  1  0.19550000  0.34450000  0.56148000  1.0
  H  H19  1  0.80451000  0.65551000  0.43852000  1.0
  H  H20  1  0.21279000  0.22117000  0.70270000  1.0
  H  H21  1  0.78720000  0.77883000  0.29730000  1.0
  H  H22  1  0.42224000  0.52196000  0.08939000  1.0
  H  H23  1  0.57777000  0.47803000  0.91061000  1.0
  H  H24  1  0.29524000  0.34776000  0.14225000  1.0
  H  H25  1  0.70475000  0.65224000  0.85775000  1.0
  H  H26  1  0.13549000  0.61648000  0.37835000  1.0
  H  H27  1  0.86451000  0.38352000  0.62165000  1.0
  H  H28  1  0.26845000  0.77992000  0.31593000  1.0
  H  H29  1  0.73156000  0.22008000  0.68408000  1.0
  C  C30  1  0.30092000  0.97909000  0.12873000  1.0
  C  C31  1  0.69908000  0.02091000  0.87127000  1.0
  C  C32  1  0.21938000  0.04101000  0.06855000  1.0
  C  C33  1  0.78061000  0.95899000  0.93145000  1.0
  C  C34  1  0.21441000  0.01364000  0.95539000  1.0
  C  C35  1  0.78558000  0.98636000  0.04461000  1.0
  C  C36  1  0.29444000  0.92734000  0.90668000  1.0
  C  C37  1  0.70556000  0.07266000  0.09332000  1.0
  C  C38  1  0.37185000  0.86822000  0.97227000  1.0
  C  C39  1  0.62814000  0.13178000  0.02773000  1.0
  C  C40  1  0.11984000  0.07412000  0.88936000  1.0
  C  C41  1  0.88016000  0.92588000  0.11064000  1.0
  C  C42  1  0.05187000  0.08054000  0.70393000  1.0
  C  C43  1  0.94813000  0.91946000  0.29607000  1.0
  C  C44  1  0.91943000  0.01481000  0.65881000  1.0
  C  C45  1  0.08057000  0.98519000  0.34119000  1.0
  C  C46  1  0.84310000  0.04587000  0.57307000  1.0
  C  C47  1  0.15690000  0.95413000  0.42693000  1.0
  C  C48  1  0.89785000  0.14132000  0.52936000  1.0
  C  C49  1  0.10215000  0.85869000  0.47064000  1.0
  C  C50  1  0.82326000  0.17243000  0.43880000  1.0
  C  C51  1  0.17674000  0.82757000  0.56120000  1.0
  C  C52  1  0.88148000  0.26028000  0.39341000  1.0
  C  C53  1  0.11852000  0.73971000  0.60659000  1.0
  C  C54  1  0.01663000  0.31951000  0.43848000  1.0
  C  C55  1  0.98337000  0.68049000  0.56151000  1.0
  C  C56  1  0.09148000  0.29623000  0.52847000  1.0
  C  C57  1  0.90852000  0.70376000  0.47152000  1.0
  C  C58  1  0.03369000  0.20601000  0.57635000  1.0
  C  C59  1  0.96631000  0.79399000  0.42365000  1.0
  C  C60  1  0.10912000  0.17470000  0.66609000  1.0
  C  C61  1  0.89088000  0.82530000  0.33391000  1.0
  C  C62  1  0.14110000  0.36635000  0.30441000  1.0
  C  C63  1  0.85890000  0.63365000  0.69559000  1.0
  C  C64  1  0.35707000  0.53852000  0.15268000  1.0
  C  C65  1  0.64293000  0.46148000  0.84732000  1.0
  C  C66  1  0.28706000  0.44221000  0.18288000  1.0
  C  C67  1  0.71293000  0.55779000  0.81712000  1.0
  C  C68  1  0.20777000  0.46933000  0.26641000  1.0
  C  C69  1  0.79223000  0.53067000  0.73359000  1.0
  C  C70  1  0.19744000  0.59205000  0.31409000  1.0
  C  C71  1  0.80256000  0.40795000  0.68591000  1.0
  C  C72  1  0.27040000  0.68300000  0.27918000  1.0
  C  C73  1  0.72961000  0.31700000  0.72082000  1.0
  N  N74  1  0.37369000  0.89278000  0.08116000  1.0
  N  N75  1  0.62631000  0.10722000  0.91884000  1.0
  N  N76  1  0.35026000  0.65674000  0.20115000  1.0
  N  N77  1  0.64974000  0.34326000  0.79886000  1.0
  Cl  Cl78  1  0.62539000  0.70364000  0.07304000  1.0
  Cl  Cl79  1  0.37461000  0.29636000  0.92696000  1.0
  Cl  Cl80  1  0.53511000  0.92755000  0.34107000  1.0
  Cl  Cl81  1  0.46489000  0.07246000  0.65893000  1.0
  O  O82  1  0.03847000  0.14069000  0.92565000  1.0
  O  O83  1  0.96154000  0.85931000  0.07436000  1.0
  O  O84  1  0.13477000  0.03921000  0.78226000  1.0
  O  O85  1  0.86523000  0.96079000  0.21774000  1.0
  O  O86  1  0.14661000  0.25808000  0.26501000  1.0
  O  O87  1  0.85338000  0.74193000  0.73499000  1.0
  O  O88  1  0.07616000  0.40877000  0.39127000  1.0
  O  O89  1  0.92384000  0.59123000  0.60873000  1.0
