# generated using pymatgen
data_MnH8C7N4O3
_symmetry_space_group_name_H-M   'P 1'
_cell_length_a   7.29284000
_cell_length_b   7.39847000
_cell_length_c   9.43296000
_cell_angle_alpha   82.66040000
_cell_angle_beta   73.05980000
_cell_angle_gamma   62.59840000
_symmetry_Int_Tables_number   1
_chemical_formula_structural   MnH8C7N4O3
_chemical_formula_sum   'Mn2 H16 C14 N8 O6'
_cell_volume   432.24052731
_cell_formula_units_Z   2
loop_
 _symmetry_equiv_pos_site_id
 _symmetry_equiv_pos_as_xyz
  1  'x, y, z'
loop_
 _atom_site_type_symbol
 _atom_site_label
 _atom_site_symmetry_multiplicity
 _atom_site_fract_x
 _atom_site_fract_y
 _atom_site_fract_z
 _atom_site_occupancy
  Mn  Mn0  1  0.50000000  0.00001000  0.00000000  1.0
  Mn  Mn1  1  0.99999000  0.50000000  0.00000000  1.0
  H  H2  1  0.13069000  0.02996000  0.17160000  1.0
  H  H3  1  0.86931000  0.97004000  0.82840000  1.0
  H  H4  1  0.30340000  0.78604000  0.19245000  1.0
  H  H5  1  0.69660000  0.21396000  0.80755000  1.0
  H  H6  1  0.45004000  0.77174000  0.64382000  1.0
  H  H7  1  0.54996000  0.22826000  0.35619000  1.0
  H  H8  1  0.47629000  0.68225000  0.39350000  1.0
  H  H9  1  0.52370000  0.31775000  0.60650000  1.0
  H  H10  1  0.98783000  0.38395000  0.58945000  1.0
  H  H11  1  0.01218000  0.61605000  0.41055000  1.0
  H  H12  1  0.01374000  0.29581000  0.33700000  1.0
  H  H13  1  0.98626000  0.70419000  0.66300000  1.0
  H  H14  1  0.30244000  0.60970000  0.83098000  1.0
  H  H15  1  0.69756000  0.39030000  0.16903000  1.0
  H  H16  1  0.17641000  0.82206000  0.90149000  1.0
  H  H17  1  0.82358000  0.17794000  0.09851000  1.0
  C  C18  1  0.20684000  0.14635000  0.78102000  1.0
  C  C19  1  0.79315000  0.85366000  0.21898000  1.0
  C  C20  1  0.21562000  0.08445000  0.63488000  1.0
  C  C21  1  0.78438000  0.91555000  0.36512000  1.0
  C  C22  1  0.35026000  0.88602000  0.57872000  1.0
  C  C23  1  0.64974000  0.11397000  0.42128000  1.0
  C  C24  1  0.36788000  0.83597000  0.43676000  1.0
  C  C25  1  0.63212000  0.16403000  0.56324000  1.0
  C  C26  1  0.09566000  0.23099000  0.54552000  1.0
  C  C27  1  0.90434000  0.76901000  0.45447000  1.0
  C  C28  1  0.11077000  0.18207000  0.40426000  1.0
  C  C29  1  0.88923000  0.81793000  0.59573000  1.0
  C  C30  1  0.24874000  0.98400000  0.34800000  1.0
  C  C31  1  0.75126000  0.01600000  0.65200000  1.0
  N  N32  1  0.30271000  0.31658000  0.06514000  1.0
  N  N33  1  0.69729000  0.68342000  0.93486000  1.0
  N  N34  1  0.34964000  0.40663000  0.13439000  1.0
  N  N35  1  0.65036000  0.59337000  0.86561000  1.0
  N  N36  1  0.39290000  0.49687000  0.20201000  1.0
  N  N37  1  0.60710000  0.50312000  0.79800000  1.0
  N  N38  1  0.26870000  0.93653000  0.20174000  1.0
  N  N39  1  0.73130000  0.06347000  0.79826000  1.0
  O  O40  1  0.27709000  0.00923000  0.87759000  1.0
  O  O41  1  0.72291000  0.99078000  0.12241000  1.0
  O  O42  1  0.13078000  0.33669000  0.80485000  1.0
  O  O43  1  0.86922000  0.66332000  0.19515000  1.0
  O  O44  1  0.15502000  0.70442000  0.88312000  1.0
  O  O45  1  0.84498000  0.29558000  0.11688000  1.0
