# generated using pymatgen
data_H12PbC8O3
_symmetry_space_group_name_H-M   'P 1'
_cell_length_a   10.06510000
_cell_length_b   10.36270000
_cell_length_c   10.55620000
_cell_angle_alpha   89.99980000
_cell_angle_beta   73.22900000
_cell_angle_gamma   89.99970000
_symmetry_Int_Tables_number   1
_chemical_formula_structural   H12PbC8O3
_chemical_formula_sum   'H48 Pb4 C32 O12'
_cell_volume   1054.19715392
_cell_formula_units_Z   4
loop_
 _symmetry_equiv_pos_site_id
 _symmetry_equiv_pos_as_xyz
  1  'x, y, z'
loop_
 _atom_site_type_symbol
 _atom_site_label
 _atom_site_symmetry_multiplicity
 _atom_site_fract_x
 _atom_site_fract_y
 _atom_site_fract_z
 _atom_site_occupancy
  H  H0  1  0.73184000  0.09203000  0.00496000  1.0
  H  H1  1  0.76816000  0.59203000  0.49504000  1.0
  H  H2  1  0.26816000  0.90798000  0.99504000  1.0
  H  H3  1  0.23184000  0.40797000  0.50496000  1.0
  H  H4  1  0.90313000  0.02493000  0.97704000  1.0
  H  H5  1  0.59687000  0.52493000  0.52296000  1.0
  H  H6  1  0.09687000  0.97509000  0.02296000  1.0
  H  H7  1  0.40313000  0.47508000  0.47704000  1.0
  H  H8  1  0.87180000  0.14906000  0.86860000  1.0
  H  H9  1  0.62820000  0.64906000  0.63140000  1.0
  H  H10  1  0.12820000  0.85094000  0.13139000  1.0
  H  H11  1  0.37180000  0.35093000  0.36860000  1.0
  H  H12  1  0.04714000  0.87009000  0.65128000  1.0
  H  H13  1  0.45286000  0.37008000  0.84872000  1.0
  H  H14  1  0.95287000  0.12991000  0.34874000  1.0
  H  H15  1  0.54713000  0.62991000  0.15125000  1.0
  H  H16  1  0.93895000  0.73247000  0.64536000  1.0
  H  H17  1  0.56105000  0.23246000  0.85464000  1.0
  H  H18  1  0.06106000  0.26753000  0.35465000  1.0
  H  H19  1  0.43894000  0.76753000  0.14534000  1.0
  H  H20  1  0.93571000  0.87306000  0.54435000  1.0
  H  H21  1  0.56429000  0.37305000  0.95565000  1.0
  H  H22  1  0.06431000  0.12694000  0.45566000  1.0
  H  H23  1  0.43569000  0.62693000  0.04434000  1.0
  H  H24  1  0.53817000  0.80076000  0.77220000  1.0
  H  H25  1  0.96182000  0.30075000  0.72780000  1.0
  H  H26  1  0.46184000  0.19924000  0.22780000  1.0
  H  H27  1  0.03817000  0.69924000  0.27220000  1.0
  H  H28  1  0.51390000  0.84184000  0.94311000  1.0
  H  H29  1  0.98609000  0.34183000  0.55689000  1.0
  H  H30  1  0.48610000  0.15815000  0.05688000  1.0
  H  H31  1  0.01390000  0.65815000  0.44312000  1.0
  H  H32  1  0.50508000  0.96601000  0.82471000  1.0
  H  H33  1  0.99491000  0.46600000  0.67529000  1.0
  H  H34  1  0.49493000  0.03399000  0.17529000  1.0
  H  H35  1  0.00508000  0.53398000  0.32472000  1.0
  H  H36  1  0.81809000  0.65182000  0.20731000  1.0
  H  H37  1  0.68190000  0.15183000  0.29270000  1.0
  H  H38  1  0.18190000  0.34818000  0.79269000  1.0
  H  H39  1  0.31810000  0.84818000  0.70730000  1.0
  H  H40  1  0.82133000  0.40441000  0.30619000  1.0
  H  H41  1  0.67866000  0.90441000  0.19382000  1.0
  H  H42  1  0.17866000  0.59559000  0.69381000  1.0
  H  H43  1  0.32133000  0.09559000  0.80619000  1.0
  H  H44  1  0.81918000  0.24755000  0.09633000  1.0
  H  H45  1  0.68082000  0.74756000  0.40367000  1.0
  H  H46  1  0.18082000  0.75245000  0.90366000  1.0
  H  H47  1  0.31918000  0.25245000  0.59634000  1.0
  Pb  Pb48  1  0.77719000  0.91453000  0.80174000  1.0
  Pb  Pb49  1  0.72280000  0.41452000  0.69826000  1.0
  Pb  Pb50  1  0.22282000  0.08547000  0.19827000  1.0
  Pb  Pb51  1  0.27719000  0.58547000  0.30173000  1.0
  C  C52  1  0.82862000  0.06590000  0.93051000  1.0
  C  C53  1  0.67137000  0.56589000  0.56949000  1.0
  C  C54  1  0.17138000  0.93411000  0.06949000  1.0
  C  C55  1  0.32862000  0.43411000  0.43051000  1.0
  C  C56  1  0.94913000  0.83733000  0.63725000  1.0
  C  C57  1  0.55086000  0.33732000  0.86275000  1.0
  C  C58  1  0.05088000  0.16267000  0.36276000  1.0
  C  C59  1  0.44913000  0.66267000  0.13723000  1.0
  C  C60  1  0.55228000  0.87486000  0.84073000  1.0
  C  C61  1  0.94772000  0.37485000  0.65927000  1.0
  C  C62  1  0.44773000  0.12514000  0.15926000  1.0
  C  C63  1  0.05227000  0.62513000  0.34074000  1.0
  C  C64  1  0.79039000  0.64480000  0.93364000  1.0
  C  C65  1  0.70961000  0.14480000  0.56636000  1.0
  C  C66  1  0.20961000  0.35521000  0.06636000  1.0
  C  C67  1  0.29040000  0.85521000  0.43363000  1.0
  C  C68  1  0.80645000  0.54840000  0.03078000  1.0
  C  C69  1  0.69355000  0.04840000  0.46923000  1.0
  C  C70  1  0.19355000  0.45161000  0.96922000  1.0
  C  C71  1  0.30646000  0.95160000  0.53078000  1.0
  C  C72  1  0.81462000  0.56070000  0.15798000  1.0
  C  C73  1  0.68538000  0.06070000  0.34202000  1.0
  C  C74  1  0.18538000  0.43930000  0.84202000  1.0
  C  C75  1  0.31462000  0.93930000  0.65798000  1.0
  C  C76  1  0.81817000  0.43333000  0.20824000  1.0
  C  C77  1  0.68183000  0.93333000  0.29176000  1.0
  C  C78  1  0.18182000  0.56667000  0.79175000  1.0
  C  C79  1  0.31817000  0.06667000  0.70825000  1.0
  C  C80  1  0.81404000  0.35141000  0.10775000  1.0
  C  C81  1  0.68596000  0.85141000  0.39226000  1.0
  C  C82  1  0.18596000  0.64860000  0.89225000  1.0
  C  C83  1  0.31404000  0.14859000  0.60775000  1.0
  O  O84  1  0.80538000  0.76279000  0.96439000  1.0
  O  O85  1  0.69462000  0.26279000  0.53561000  1.0
  O  O86  1  0.19462000  0.23722000  0.03561000  1.0
  O  O87  1  0.30539000  0.73722000  0.46438000  1.0
  O  O88  1  0.73880000  0.11056000  0.67057000  1.0
  O  O89  1  0.76120000  0.61055000  0.82943000  1.0
  O  O90  1  0.26121000  0.88945000  0.32943000  1.0
  O  O91  1  0.23880000  0.38945000  0.17057000  1.0
  O  O92  1  0.80581000  0.41917000  0.99926000  1.0
  O  O93  1  0.69420000  0.91917000  0.50074000  1.0
  O  O94  1  0.19419000  0.58084000  0.00073000  1.0
  O  O95  1  0.30581000  0.08084000  0.49927000  1.0
