# generated using pymatgen
data_ZnH8C15NO8
_symmetry_space_group_name_H-M   'P 1'
_cell_length_a   4.65149000
_cell_length_b   14.43750000
_cell_length_c   21.20800000
_cell_angle_alpha   95.03020000
_cell_angle_beta   90.00000000
_cell_angle_gamma   90.00000000
_symmetry_Int_Tables_number   1
_chemical_formula_structural   ZnH8C15NO8
_chemical_formula_sum   'Zn4 H32 C60 N4 O32'
_cell_volume   1418.75675270
_cell_formula_units_Z   4
loop_
 _symmetry_equiv_pos_site_id
 _symmetry_equiv_pos_as_xyz
  1  'x, y, z'
loop_
 _atom_site_type_symbol
 _atom_site_label
 _atom_site_symmetry_multiplicity
 _atom_site_fract_x
 _atom_site_fract_y
 _atom_site_fract_z
 _atom_site_occupancy
  Zn  Zn0  1  0.16460000  0.62922000  0.96762000  1.0
  Zn  Zn1  1  0.66460000  0.87078000  0.53238000  1.0
  Zn  Zn2  1  0.83540000  0.37078000  0.03238000  1.0
  Zn  Zn3  1  0.33540000  0.12922000  0.46762000  1.0
  H  H4  1  0.43704000  0.27160000  0.65027000  1.0
  H  H5  1  0.93704000  0.22840000  0.84973000  1.0
  H  H6  1  0.56296000  0.72840000  0.34973000  1.0
  H  H7  1  0.06296000  0.77160000  0.15027000  1.0
  H  H8  1  0.37866000  0.74215000  0.80299000  1.0
  H  H9  1  0.87866000  0.75785000  0.69701000  1.0
  H  H10  1  0.62134000  0.25785000  0.19701000  1.0
  H  H11  1  0.12134000  0.24215000  0.30299000  1.0
  H  H12  1  0.19453000  0.32880000  0.79630000  1.0
  H  H13  1  0.69453000  0.17120000  0.70370000  1.0
  H  H14  1  0.80547000  0.67120000  0.20370000  1.0
  H  H15  1  0.30547000  0.82880000  0.29630000  1.0
  H  H16  1  0.98845000  0.55782000  0.68844000  1.0
  H  H17  1  0.48845000  0.94218000  0.81156000  1.0
  H  H18  1  0.01155000  0.44218000  0.31156000  1.0
  H  H19  1  0.51155000  0.05782000  0.18844000  1.0
  H  H20  1  0.57693000  0.73750000  0.04656000  1.0
  H  H21  1  0.07692000  0.76250000  0.45344000  1.0
  H  H22  1  0.42308000  0.26250000  0.95344000  1.0
  H  H23  1  0.92308000  0.23750000  0.54656000  1.0
  H  H24  1  0.73883000  0.89858000  0.06606000  1.0
  H  H25  1  0.23883000  0.60142000  0.43394000  1.0
  H  H26  1  0.26117000  0.10142000  0.93394000  1.0
  H  H27  1  0.76117000  0.39858000  0.56606000  1.0
  H  H28  1  0.14387000  0.96901000  0.91922000  1.0
  H  H29  1  0.64388000  0.53099000  0.58079000  1.0
  H  H30  1  0.85612000  0.03099000  0.08079000  1.0
  H  H31  1  0.35612000  0.46901000  0.41922000  1.0
  H  H32  1  0.00587000  0.80399000  0.90656000  1.0
  H  H33  1  0.50587000  0.69601000  0.59344000  1.0
  H  H34  1  0.99413000  0.19601000  0.09344000  1.0
  H  H35  1  0.49413000  0.30399000  0.40656000  1.0
  C  C36  1  0.08619000  0.39472000  0.79231000  1.0
  C  C37  1  0.58619000  0.10528000  0.70769000  1.0
  C  C38  1  0.91381000  0.60528000  0.20769000  1.0
  C  C39  1  0.41381000  0.89472000  0.29231000  1.0
  C  C40  1  0.93018000  0.43501000  0.84380000  1.0
  C  C41  1  0.43018000  0.06499000  0.65620000  1.0
  C  C42  1  0.06982000  0.56499000  0.15620000  1.0
  C  C43  1  0.56982000  0.93501000  0.34380000  1.0
  C  C44  1  0.79335000  0.52138000  0.83993000  1.0
  C  C45  1  0.29334000  0.97862000  0.66007000  1.0
  C  C46  1  0.20665000  0.47862000  0.16007000  1.0
  C  C47  1  0.70665000  0.02138000  0.33993000  1.0
  C  C48  1  0.80974000  0.56414000  0.78244000  1.0
  C  C49  1  0.30974000  0.93586000  0.71756000  1.0
  C  C50  1  0.19026000  0.43587000  0.21756000  1.0
  C  C51  1  0.69026000  0.06413000  0.28244000  1.0
  C  C52  1  0.97449000  0.52338000  0.73202000  1.0
  C  C53  1  0.47449000  0.97662000  0.76798000  1.0
  C  C54  1  0.02551000  0.47662000  0.26798000  1.0
  C  C55  1  0.52550000  0.02338000  0.23202000  1.0
  C  C56  1  0.11462000  0.43906000  0.73674000  1.0
  C  C57  1  0.61462000  0.06094000  0.76325000  1.0
  C  C58  1  0.88538000  0.56094000  0.26326000  1.0
  C  C59  1  0.38538000  0.93906000  0.23674000  1.0
  C  C60  1  0.28879000  0.39600000  0.68264000  1.0
  C  C61  1  0.78879000  0.10399000  0.81736000  1.0
  C  C62  1  0.71120000  0.60400000  0.31736000  1.0
  C  C63  1  0.21121000  0.89601000  0.18264000  1.0
  C  C64  1  0.93056000  0.38584000  0.90333000  1.0
  C  C65  1  0.43056000  0.11416000  0.59667000  1.0
  C  C66  1  0.06944000  0.61416000  0.09667000  1.0
  C  C67  1  0.56944000  0.88584000  0.40333000  1.0
  C  C68  1  0.63909000  0.56858000  0.89665000  1.0
  C  C69  1  0.13909000  0.93142000  0.60335000  1.0
  C  C70  1  0.36091000  0.43142000  0.10335000  1.0
  C  C71  1  0.86091000  0.06858000  0.39665000  1.0
  C  C72  1  0.65247000  0.65037000  0.76982000  1.0
  C  C73  1  0.15246000  0.84963000  0.73018000  1.0
  C  C74  1  0.34753000  0.34963000  0.23018000  1.0
  C  C75  1  0.84754000  0.15037000  0.26982000  1.0
  C  C76  1  0.48307000  0.79107000  0.01985000  1.0
  C  C77  1  0.98307000  0.70893000  0.48015000  1.0
  C  C78  1  0.51693000  0.20893000  0.98015000  1.0
  C  C79  1  0.01693000  0.29107000  0.51985000  1.0
  C  C80  1  0.57421000  0.88245000  0.03023000  1.0
  C  C81  1  0.07421000  0.61755000  0.46977000  1.0
  C  C82  1  0.42579000  0.11755000  0.96977000  1.0
  C  C83  1  0.92579000  0.38245000  0.53023000  1.0
  C  C84  1  0.45505000  0.95075000  0.99478000  1.0
  C  C85  1  0.95505000  0.54925000  0.50522000  1.0
  C  C86  1  0.54495000  0.04925000  0.00522000  1.0
  C  C87  1  0.04495000  0.45075000  0.49478000  1.0
  C  C88  1  0.24762000  0.92128000  0.94911000  1.0
  C  C89  1  0.74762000  0.57872000  0.55089000  1.0
  C  C90  1  0.75238000  0.07872000  0.05089000  1.0
  C  C91  1  0.25238000  0.42128000  0.44911000  1.0
  C  C92  1  0.16687000  0.82830000  0.94151000  1.0
  C  C93  1  0.66687000  0.67170000  0.55849000  1.0
  C  C94  1  0.83313000  0.17170000  0.05849000  1.0
  C  C95  1  0.33313000  0.32830000  0.44151000  1.0
  N  N96  1  0.28164000  0.76399000  0.97636000  1.0
  N  N97  1  0.78164000  0.73601000  0.52364000  1.0
  N  N98  1  0.71837000  0.23601000  0.02364000  1.0
  N  N99  1  0.21836000  0.26399000  0.47636000  1.0
  O  O100  1  0.37015000  0.43902000  0.63817000  1.0
  O  O101  1  0.87015000  0.06099000  0.86183000  1.0
  O  O102  1  0.62984000  0.56098000  0.36183000  1.0
  O  O103  1  0.12985000  0.93901000  0.13817000  1.0
  O  O104  1  0.34090000  0.30664000  0.68877000  1.0
  O  O105  1  0.84090000  0.19336000  0.81123000  1.0
  O  O106  1  0.65910000  0.69337000  0.31123000  1.0
  O  O107  1  0.15910000  0.80663000  0.18877000  1.0
  O  O108  1  0.02779000  0.30404000  0.90292000  1.0
  O  O109  1  0.52779000  0.19596000  0.59708000  1.0
  O  O110  1  0.97221000  0.69596000  0.09708000  1.0
  O  O111  1  0.47221000  0.80404000  0.40292000  1.0
  O  O112  1  0.83253000  0.43220000  0.95324000  1.0
  O  O113  1  0.33254000  0.06780000  0.54676000  1.0
  O  O114  1  0.16747000  0.56780000  0.04676000  1.0
  O  O115  1  0.66746000  0.93220000  0.45324000  1.0
  O  O116  1  0.37612000  0.54864000  0.90289000  1.0
  O  O117  1  0.87612000  0.95136000  0.59711000  1.0
  O  O118  1  0.62388000  0.45136000  0.09711000  1.0
  O  O119  1  0.12387000  0.04864000  0.40289000  1.0
  O  O120  1  0.76923000  0.62939000  0.93315000  1.0
  O  O121  1  0.26923000  0.87061000  0.56685000  1.0
  O  O122  1  0.23077000  0.37061000  0.06685000  1.0
  O  O123  1  0.73077000  0.12939000  0.43315000  1.0
  O  O124  1  0.49804000  0.68900000  0.81747000  1.0
  O  O125  1  0.99804000  0.81100000  0.68253000  1.0
  O  O126  1  0.50196000  0.31100000  0.18253000  1.0
  O  O127  1  0.00196000  0.18900000  0.31747000  1.0
  O  O128  1  0.65988000  0.68240000  0.71719000  1.0
  O  O129  1  0.15988000  0.81760000  0.78281000  1.0
  O  O130  1  0.34012000  0.31760000  0.28281000  1.0
  O  O131  1  0.84012000  0.18240000  0.21719000  1.0
