# generated using pymatgen
data_FeH24Pt(C19N3)2
_symmetry_space_group_name_H-M   'P 1'
_cell_length_a   7.32814000
_cell_length_b   13.90530000
_cell_length_c   16.26680000
_cell_angle_alpha   75.37480000
_cell_angle_beta   81.52060000
_cell_angle_gamma   89.87960000
_symmetry_Int_Tables_number   1
_chemical_formula_structural   FeH24Pt(C19N3)2
_chemical_formula_sum   'Fe2 H48 Pt2 C76 N12'
_cell_volume   1585.27670272
_cell_formula_units_Z   2
loop_
 _symmetry_equiv_pos_site_id
 _symmetry_equiv_pos_as_xyz
  1  'x, y, z'
loop_
 _atom_site_type_symbol
 _atom_site_label
 _atom_site_symmetry_multiplicity
 _atom_site_fract_x
 _atom_site_fract_y
 _atom_site_fract_z
 _atom_site_occupancy
  Fe  Fe0  1  0.00000000  0.50000000  0.00000000  1.0
  Fe  Fe1  1  0.00000000  0.00000000  0.00000000  1.0
  H  H2  1  0.05306000  0.97870000  0.82429000  1.0
  H  H3  1  0.94694000  0.02130000  0.17571000  1.0
  H  H4  1  0.06511000  0.08727000  0.67736000  1.0
  H  H5  1  0.93489000  0.91273000  0.32263000  1.0
  H  H6  1  0.00394000  0.33835000  0.79031000  1.0
  H  H7  1  0.99606000  0.66165000  0.20969000  1.0
  H  H8  1  0.99712000  0.21913000  0.93285000  1.0
  H  H9  1  0.00287000  0.78087000  0.06715000  1.0
  H  H10  1  0.27177000  0.52244000  0.12388000  1.0
  H  H11  1  0.72824000  0.47756000  0.87612000  1.0
  H  H12  1  0.28012000  0.48904000  0.28139000  1.0
  H  H13  1  0.71988000  0.51096000  0.71861000  1.0
  H  H14  1  0.70441000  0.39472000  0.32389000  1.0
  H  H15  1  0.29559000  0.60527000  0.67612000  1.0
  H  H16  1  0.71927000  0.43505000  0.16458000  1.0
  H  H17  1  0.28073000  0.56495000  0.83542000  1.0
  H  H18  1  0.98154000  0.08775000  0.52417000  1.0
  H  H19  1  0.01846000  0.91224000  0.47583000  1.0
  H  H20  1  0.29089000  0.14088000  0.54503000  1.0
  H  H21  1  0.70911000  0.85912000  0.45497000  1.0
  H  H22  1  0.51655000  0.23106000  0.41931000  1.0
  H  H23  1  0.48345000  0.76893000  0.58069000  1.0
  H  H24  1  0.43267000  0.26998000  0.27241000  1.0
  H  H25  1  0.56733000  0.73002000  0.72759000  1.0
  H  H26  1  0.20645000  0.26267000  0.17582000  1.0
  H  H27  1  0.79355000  0.73733000  0.82418000  1.0
  H  H28  1  0.90050000  0.20877000  0.15335000  1.0
  H  H29  1  0.09949000  0.79123000  0.84665000  1.0
  H  H30  1  0.67541000  0.11437000  0.27841000  1.0
  H  H31  1  0.32459000  0.88563000  0.72159000  1.0
  H  H32  1  0.75615000  0.07615000  0.42551000  1.0
  H  H33  1  0.24384000  0.92385000  0.57449000  1.0
  H  H34  1  0.63821000  0.16178000  0.54609000  1.0
  H  H35  1  0.36178000  0.83822000  0.45391000  1.0
  H  H36  1  0.67314000  0.98620000  0.62386000  1.0
  H  H37  1  0.32685000  0.01380000  0.37614000  1.0
  H  H38  1  0.62510000  0.93613000  0.78412000  1.0
  H  H39  1  0.37489000  0.06388000  0.21588000  1.0
  H  H40  1  0.54077000  0.06086000  0.86685000  1.0
  H  H41  1  0.45924000  0.93915000  0.13314000  1.0
  H  H42  1  0.47209000  0.23477000  0.86976000  1.0
  H  H43  1  0.52793000  0.76524000  0.13024000  1.0
  H  H44  1  0.42472000  0.40807000  0.79304000  1.0
  H  H45  1  0.57529000  0.59194000  0.20696000  1.0
  H  H46  1  0.46587000  0.45843000  0.63187000  1.0
  H  H47  1  0.53413000  0.54158000  0.36813000  1.0
  H  H48  1  0.55589000  0.33461000  0.54912000  1.0
  H  H49  1  0.44410000  0.66540000  0.45087000  1.0
  Pt  Pt50  1  0.49057000  0.22765000  0.03671000  1.0
  Pt  Pt51  1  0.50942000  0.77235000  0.96329000  1.0
  C  C52  1  0.04389000  0.05877000  0.81389000  1.0
  C  C53  1  0.95611000  0.94123000  0.18611000  1.0
  C  C54  1  0.05073000  0.12004000  0.73194000  1.0
  C  C55  1  0.94928000  0.87996000  0.26806000  1.0
  C  C56  1  0.03375000  0.22341000  0.72078000  1.0
  C  C57  1  0.96626000  0.77659000  0.27922000  1.0
  C  C58  1  0.01580000  0.25925000  0.79502000  1.0
  C  C59  1  0.98421000  0.74075000  0.20498000  1.0
  C  C60  1  0.01117000  0.19298000  0.87473000  1.0
  C  C61  1  0.98883000  0.80701000  0.12527000  1.0
  C  C62  1  0.03056000  0.28652000  0.63842000  1.0
  C  C63  1  0.96945000  0.71348000  0.36158000  1.0
  C  C64  1  0.02094000  0.33431000  0.56478000  1.0
  C  C65  1  0.97908000  0.66569000  0.43522000  1.0
  C  C66  1  0.29101000  0.13219000  0.03677000  1.0
  C  C67  1  0.70900000  0.86781000  0.96323000  1.0
  C  C68  1  0.68843000  0.32443000  0.03133000  1.0
  C  C69  1  0.31156000  0.67557000  0.96867000  1.0
  C  C70  1  0.31699000  0.33602000  0.01563000  1.0
  C  C71  1  0.68301000  0.66397000  0.98437000  1.0
  C  C72  1  0.67752000  0.12439000  0.04476000  1.0
  C  C73  1  0.32248000  0.87561000  0.95524000  1.0
  C  C74  1  0.14891000  0.49445000  0.17052000  1.0
  C  C75  1  0.85110000  0.50555000  0.82948000  1.0
  C  C76  1  0.15358000  0.47547000  0.25796000  1.0
  C  C77  1  0.84642000  0.52453000  0.74204000  1.0
  C  C78  1  0.99276000  0.43786000  0.31661000  1.0
  C  C79  1  0.00725000  0.56213000  0.68339000  1.0
  C  C80  1  0.83228000  0.42430000  0.28183000  1.0
  C  C81  1  0.16773000  0.57570000  0.71817000  1.0
  C  C82  1  0.84018000  0.44631000  0.19337000  1.0
  C  C83  1  0.15982000  0.55368000  0.80664000  1.0
  C  C84  1  0.99674000  0.41019000  0.40565000  1.0
  C  C85  1  0.00327000  0.58981000  0.59435000  1.0
  C  C86  1  0.00833000  0.37822000  0.48221000  1.0
  C  C87  1  0.99169000  0.62178000  0.51779000  1.0
  C  C88  1  0.02873000  0.14812000  0.38587000  1.0
  C  C89  1  0.97127000  0.85188000  0.61413000  1.0
  C  C90  1  0.08056000  0.12729000  0.46919000  1.0
  C  C91  1  0.91943000  0.87271000  0.53081000  1.0
  C  C92  1  0.25249000  0.15687000  0.48080000  1.0
  C  C93  1  0.74751000  0.84313000  0.51920000  1.0
  C  C94  1  0.38029000  0.20892000  0.40952000  1.0
  C  C95  1  0.61970000  0.79108000  0.59048000  1.0
  C  C96  1  0.33414000  0.23066000  0.32781000  1.0
  C  C97  1  0.66586000  0.76934000  0.67219000  1.0
  C  C98  1  0.15840000  0.20126000  0.31367000  1.0
  C  C99  1  0.84159000  0.79874000  0.68633000  1.0
  C  C100  1  0.10756000  0.22225000  0.23036000  1.0
  C  C101  1  0.89244000  0.77775000  0.76964000  1.0
  C  C102  1  0.93694000  0.19201000  0.21793000  1.0
  C  C103  1  0.06306000  0.80798000  0.78207000  1.0
  C  C104  1  0.80924000  0.13905000  0.28889000  1.0
  C  C105  1  0.19075000  0.86095000  0.71111000  1.0
  C  C106  1  0.85416000  0.11772000  0.37095000  1.0
  C  C107  1  0.14583000  0.88228000  0.62904000  1.0
  C  C108  1  0.56314000  0.21235000  0.66170000  1.0
  C  C109  1  0.43686000  0.78766000  0.33830000  1.0
  C  C110  1  0.61401000  0.13921000  0.61624000  1.0
  C  C111  1  0.38598000  0.86079000  0.38376000  1.0
  C  C112  1  0.63458000  0.04174000  0.65953000  1.0
  C  C113  1  0.36541000  0.95827000  0.34047000  1.0
  C  C114  1  0.60688000  0.01318000  0.75054000  1.0
  C  C115  1  0.39312000  0.98682000  0.24946000  1.0
  C  C116  1  0.56049000  0.08258000  0.79675000  1.0
  C  C117  1  0.43951000  0.91743000  0.20325000  1.0
  C  C118  1  0.53771000  0.18338000  0.75402000  1.0
  C  C119  1  0.46229000  0.81663000  0.24598000  1.0
  C  C120  1  0.49014000  0.25662000  0.79959000  1.0
  C  C121  1  0.50987000  0.74339000  0.20041000  1.0
  C  C122  1  0.46518000  0.35353000  0.75652000  1.0
  C  C123  1  0.53483000  0.64648000  0.24348000  1.0
  C  C124  1  0.48784000  0.38184000  0.66557000  1.0
  C  C125  1  0.51216000  0.61817000  0.33443000  1.0
  C  C126  1  0.53689000  0.31276000  0.61925000  1.0
  C  C127  1  0.46310000  0.68724000  0.38074000  1.0
  N  N128  1  0.02250000  0.09364000  0.88494000  1.0
  N  N129  1  0.97750000  0.90635000  0.11506000  1.0
  N  N130  1  0.17254000  0.08048000  0.02900000  1.0
  N  N131  1  0.82746000  0.91951000  0.97100000  1.0
  N  N132  1  0.80779000  0.38277000  0.02549000  1.0
  N  N133  1  0.19221000  0.61723000  0.97452000  1.0
  N  N134  1  0.21597000  0.40126000  0.99998000  1.0
  N  N135  1  0.78402000  0.59873000  0.00002000  1.0
  N  N136  1  0.99535000  0.48012000  0.13766000  1.0
  N  N137  1  0.00465000  0.51988000  0.86235000  1.0
  N  N138  1  0.80170000  0.07297000  0.03615000  1.0
  N  N139  1  0.19830000  0.92702000  0.96385000  1.0
