# generated using pymatgen
data_Zn2H24C17N12
_symmetry_space_group_name_H-M   'P 1'
_cell_length_a   10.82580000
_cell_length_b   12.26130000
_cell_length_c   16.90350000
_cell_angle_alpha   90.00000000
_cell_angle_beta   95.93760000
_cell_angle_gamma   89.99980000
_symmetry_Int_Tables_number   1
_chemical_formula_structural   Zn2H24C17N12
_chemical_formula_sum   'Zn8 H96 C68 N48'
_cell_volume   2231.70587742
_cell_formula_units_Z   4
loop_
 _symmetry_equiv_pos_site_id
 _symmetry_equiv_pos_as_xyz
  1  'x, y, z'
loop_
 _atom_site_type_symbol
 _atom_site_label
 _atom_site_symmetry_multiplicity
 _atom_site_fract_x
 _atom_site_fract_y
 _atom_site_fract_z
 _atom_site_occupancy
  Zn  Zn0  1  0.73094000  0.73629000  0.59952000  1.0
  Zn  Zn1  1  0.76906000  0.23630000  0.90048000  1.0
  Zn  Zn2  1  0.26906000  0.26370000  0.40048000  1.0
  Zn  Zn3  1  0.23094000  0.76371000  0.09952000  1.0
  Zn  Zn4  1  0.21016000  0.74772000  0.46048000  1.0
  Zn  Zn5  1  0.28984000  0.24772000  0.03952000  1.0
  Zn  Zn6  1  0.78984000  0.25228000  0.53952000  1.0
  Zn  Zn7  1  0.71016000  0.75228000  0.96048000  1.0
  H  H8  1  0.12622000  0.57873000  0.29832000  1.0
  H  H9  1  0.37378000  0.07873000  0.20168000  1.0
  H  H10  1  0.87378000  0.42127000  0.70168000  1.0
  H  H11  1  0.62623000  0.92127000  0.79833000  1.0
  H  H12  1  0.07025000  0.63402000  0.20450000  1.0
  H  H13  1  0.42975000  0.13401000  0.29550000  1.0
  H  H14  1  0.92975000  0.36599000  0.79549000  1.0
  H  H15  1  0.57025000  0.86599000  0.70451000  1.0
  H  H16  1  0.00682000  0.67864000  0.29182000  1.0
  H  H17  1  0.49318000  0.17864000  0.20818000  1.0
  H  H18  1  0.99318000  0.32136000  0.70818000  1.0
  H  H19  1  0.50682000  0.82137000  0.79182000  1.0
  H  H20  1  0.34635000  0.99790000  0.40461000  1.0
  H  H21  1  0.15365000  0.49790000  0.09539000  1.0
  H  H22  1  0.65365000  0.00210000  0.59539000  1.0
  H  H23  1  0.84635000  0.50210000  0.90461000  1.0
  H  H24  1  0.47796000  0.96073000  0.35668000  1.0
  H  H25  1  0.02204000  0.46073000  0.14332000  1.0
  H  H26  1  0.52204000  0.03927000  0.64332000  1.0
  H  H27  1  0.97796000  0.53927000  0.85668000  1.0
  H  H28  1  0.49428000  0.66722000  0.66650000  1.0
  H  H29  1  0.00572000  0.16722000  0.83350000  1.0
  H  H30  1  0.50572000  0.33278000  0.33350000  1.0
  H  H31  1  0.99428000  0.83278000  0.16650000  1.0
  H  H32  1  0.35435000  0.63334000  0.60608000  1.0
  H  H33  1  0.14565000  0.13334000  0.89392000  1.0
  H  H34  1  0.64565000  0.36666000  0.39392000  1.0
  H  H35  1  0.85435000  0.86666000  0.10608000  1.0
  H  H36  1  0.35926000  0.74996000  0.66751000  1.0
  H  H37  1  0.14074000  0.24996000  0.83249000  1.0
  H  H38  1  0.64073000  0.25004000  0.33249000  1.0
  H  H39  1  0.85926000  0.75004000  0.16751000  1.0
  H  H40  1  0.87340000  0.00920000  0.64590000  1.0
  H  H41  1  0.62659000  0.50921000  0.85410000  1.0
  H  H42  1  0.12660000  0.99079000  0.35410000  1.0
  H  H43  1  0.37340000  0.49079000  0.14590000  1.0
  H  H44  1  0.02934000  0.99100000  0.68813000  1.0
  H  H45  1  0.47065000  0.49100000  0.81187000  1.0
  H  H46  1  0.97066000  0.00899000  0.31187000  1.0
  H  H47  1  0.52934000  0.50900000  0.18813000  1.0
  H  H48  1  0.91044000  0.90100000  0.71440000  1.0
  H  H49  1  0.58956000  0.40101000  0.78560000  1.0
  H  H50  1  0.08956000  0.09899000  0.28561000  1.0
  H  H51  1  0.41044000  0.59899000  0.21439000  1.0
  H  H52  1  0.82970000  0.70095000  0.40812000  1.0
  H  H53  1  0.67031000  0.20095000  0.09187000  1.0
  H  H54  1  0.17031000  0.29905000  0.59187000  1.0
  H  H55  1  0.32969000  0.79906000  0.90812000  1.0
  H  H56  1  0.97056000  0.62602000  0.42359000  1.0
  H  H57  1  0.52945000  0.12602000  0.07641000  1.0
  H  H58  1  0.02945000  0.37398000  0.57641000  1.0
  H  H59  1  0.47056000  0.87398000  0.92359000  1.0
  H  H60  1  0.63410000  0.50410000  0.67632000  1.0
  H  H61  1  0.86591000  0.00410000  0.82368000  1.0
  H  H62  1  0.36590000  0.49590000  0.32368000  1.0
  H  H63  1  0.13409000  0.99590000  0.17632000  1.0
  H  H64  1  0.60884000  0.37488000  0.62887000  1.0
  H  H65  1  0.89116000  0.87488000  0.87112000  1.0
  H  H66  1  0.39116000  0.62512000  0.37112000  1.0
  H  H67  1  0.10884000  0.12512000  0.12887000  1.0
  H  H68  1  0.52237000  0.49040000  0.59224000  1.0
  H  H69  1  0.97764000  0.99040000  0.90776000  1.0
  H  H70  1  0.47763000  0.50959000  0.40776000  1.0
  H  H71  1  0.02236000  0.00959000  0.09224000  1.0
  H  H72  1  0.67114000  0.75411000  0.20690000  1.0
  H  H73  1  0.82886000  0.25410000  0.29311000  1.0
  H  H74  1  0.32885000  0.24590000  0.79310000  1.0
  H  H75  1  0.17114000  0.74591000  0.70690000  1.0
  H  H76  1  0.55564000  0.78223000  0.27019000  1.0
  H  H77  1  0.94436000  0.28222000  0.22982000  1.0
  H  H78  1  0.44435000  0.21778000  0.72981000  1.0
  H  H79  1  0.05564000  0.71778000  0.77019000  1.0
  H  H80  1  0.67866000  0.69094000  0.30170000  1.0
  H  H81  1  0.82135000  0.19094000  0.19830000  1.0
  H  H82  1  0.32134000  0.30906000  0.69829000  1.0
  H  H83  1  0.17866000  0.80906000  0.80171000  1.0
  H  H84  1  0.83120000  0.84808000  0.30499000  1.0
  H  H85  1  0.66881000  0.34807000  0.19501000  1.0
  H  H86  1  0.16880000  0.15193000  0.69501000  1.0
  H  H87  1  0.33119000  0.65193000  0.80499000  1.0
  H  H88  1  0.71564000  0.87273000  0.36892000  1.0
  H  H89  1  0.78437000  0.37272000  0.13109000  1.0
  H  H90  1  0.28437000  0.12728000  0.63108000  1.0
  H  H91  1  0.21563000  0.62728000  0.86892000  1.0
  H  H92  1  0.71769000  0.96810000  0.19999000  1.0
  H  H93  1  0.78232000  0.46809000  0.30001000  1.0
  H  H94  1  0.28231000  0.03191000  0.80001000  1.0
  H  H95  1  0.21768000  0.53192000  0.69999000  1.0
  H  H96  1  0.74730000  0.04037000  0.29199000  1.0
  H  H97  1  0.75271000  0.54037000  0.20801000  1.0
  H  H98  1  0.25270000  0.95964000  0.70801000  1.0
  H  H99  1  0.24729000  0.45964000  0.79198000  1.0
  H  H100  1  0.59715000  0.98707000  0.26099000  1.0
  H  H101  1  0.90285000  0.48707000  0.23901000  1.0
  H  H102  1  0.40285000  0.01294000  0.73900000  1.0
  H  H103  1  0.09715000  0.51294000  0.76099000  1.0
  C  C104  1  0.09272000  0.65371000  0.26749000  1.0
  C  C105  1  0.40728000  0.15371000  0.23251000  1.0
  C  C106  1  0.90728000  0.34629000  0.73251000  1.0
  C  C107  1  0.59272000  0.84629000  0.76750000  1.0
  C  C108  1  0.18721000  0.74185000  0.27660000  1.0
  C  C109  1  0.31279000  0.24185000  0.22340000  1.0
  C  C110  1  0.81279000  0.25815000  0.72340000  1.0
  C  C111  1  0.68721000  0.75814000  0.77660000  1.0
  C  C112  1  0.32067000  0.86002000  0.32647000  1.0
  C  C113  1  0.17933000  0.36002000  0.17353000  1.0
  C  C114  1  0.67933000  0.13998000  0.67353000  1.0
  C  C115  1  0.82067000  0.63997000  0.82647000  1.0
  C  C116  1  0.39983000  0.92783000  0.38543000  1.0
  C  C117  1  0.10017000  0.42783000  0.11457000  1.0
  C  C118  1  0.60017000  0.07217000  0.61457000  1.0
  C  C119  1  0.89983000  0.57216000  0.88543000  1.0
  C  C120  1  0.44945000  0.86639000  0.45817000  1.0
  C  C121  1  0.05055000  0.36639000  0.04183000  1.0
  C  C122  1  0.55055000  0.13361000  0.54183000  1.0
  C  C123  1  0.94945000  0.63361000  0.95818000  1.0
  C  C124  1  0.45374000  0.76830000  0.56382000  1.0
  C  C125  1  0.04626000  0.26830000  0.93618000  1.0
  C  C126  1  0.54626000  0.23170000  0.43618000  1.0
  C  C127  1  0.95374000  0.73170000  0.06382000  1.0
  C  C128  1  0.41414000  0.70068000  0.62961000  1.0
  C  C129  1  0.08586000  0.20068000  0.87039000  1.0
  C  C130  1  0.58586000  0.29932000  0.37039000  1.0
  C  C131  1  0.91413000  0.79932000  0.12961000  1.0
  C  C132  1  0.94412000  0.94807000  0.66569000  1.0
  C  C133  1  0.55588000  0.44807000  0.83431000  1.0
  C  C134  1  0.05588000  0.05193000  0.33431000  1.0
  C  C135  1  0.44412000  0.55193000  0.16569000  1.0
  C  C136  1  0.97007000  0.87483000  0.59944000  1.0
  C  C137  1  0.52993000  0.37483000  0.90057000  1.0
  C  C138  1  0.02993000  0.12517000  0.40057000  1.0
  C  C139  1  0.47007000  0.62517000  0.09943000  1.0
  C  C140  1  0.94898000  0.75053000  0.50914000  1.0
  C  C141  1  0.55102000  0.25053000  0.99086000  1.0
  C  C142  1  0.05102000  0.24947000  0.49086000  1.0
  C  C143  1  0.44898000  0.74947000  0.00914000  1.0
  C  C144  1  0.89632000  0.66304000  0.45386000  1.0
  C  C145  1  0.60368000  0.16304000  0.04614000  1.0
  C  C146  1  0.10368000  0.33696000  0.54614000  1.0
  C  C147  1  0.39632000  0.83696000  0.95386000  1.0
  C  C148  1  0.83253000  0.57318000  0.49352000  1.0
  C  C149  1  0.66747000  0.07318000  0.00648000  1.0
  C  C150  1  0.16747000  0.42682000  0.50647000  1.0
  C  C151  1  0.33253000  0.92682000  0.99352000  1.0
  C  C152  1  0.71119000  0.48846000  0.56551000  1.0
  C  C153  1  0.78881000  0.98846000  0.93449000  1.0
  C  C154  1  0.28881000  0.51154000  0.43448000  1.0
  C  C155  1  0.21119000  0.01154000  0.06551000  1.0
  C  C156  1  0.61410000  0.46290000  0.61876000  1.0
  C  C157  1  0.88591000  0.96290000  0.88124000  1.0
  C  C158  1  0.38591000  0.53710000  0.38124000  1.0
  C  C159  1  0.11409000  0.03710000  0.11876000  1.0
  C  C160  1  0.65568000  0.76743000  0.26947000  1.0
  C  C161  1  0.84433000  0.26742000  0.23053000  1.0
  C  C162  1  0.34432000  0.23258000  0.73053000  1.0
  C  C163  1  0.15567000  0.73258000  0.76947000  1.0
  C  C164  1  0.73090000  0.86399000  0.30578000  1.0
  C  C165  1  0.76911000  0.36398000  0.19422000  1.0
  C  C166  1  0.26910000  0.13602000  0.69422000  1.0
  C  C167  1  0.23089000  0.63602000  0.80578000  1.0
  C  C168  1  0.69736000  0.97110000  0.26243000  1.0
  C  C169  1  0.80265000  0.47109000  0.23757000  1.0
  C  C170  1  0.30264000  0.02891000  0.73756000  1.0
  C  C171  1  0.19735000  0.52891000  0.76243000  1.0
  N  N172  1  0.88755000  0.79892000  0.56549000  1.0
  N  N173  1  0.61245000  0.29893000  0.93451000  1.0
  N  N174  1  0.11245000  0.20107000  0.43451000  1.0
  N  N175  1  0.38755000  0.70107000  0.06549000  1.0
  N  N176  1  0.07602000  0.87458000  0.56650000  1.0
  N  N177  1  0.42398000  0.37458000  0.93350000  1.0
  N  N178  1  0.92398000  0.12541000  0.43350000  1.0
  N  N179  1  0.57602000  0.62541000  0.06650000  1.0
  N  N180  1  0.06181000  0.79491000  0.50866000  1.0
  N  N181  1  0.43819000  0.29491000  0.99134000  1.0
  N  N182  1  0.93819000  0.20509000  0.49134000  1.0
  N  N183  1  0.56181000  0.70509000  0.00866000  1.0
  N  N184  1  0.74623000  0.59014000  0.54604000  1.0
  N  N185  1  0.75377000  0.09014000  0.95396000  1.0
  N  N186  1  0.25377000  0.40986000  0.45396000  1.0
  N  N187  1  0.24622000  0.90986000  0.04604000  1.0
  N  N188  1  0.85139000  0.46819000  0.48041000  1.0
  N  N189  1  0.64861000  0.96819000  0.01959000  1.0
  N  N190  1  0.14861000  0.53181000  0.51959000  1.0
  N  N191  1  0.35139000  0.03181000  0.98041000  1.0
  N  N192  1  0.77395000  0.41434000  0.52714000  1.0
  N  N193  1  0.72605000  0.91433000  0.97285000  1.0
  N  N194  1  0.22605000  0.58567000  0.47285000  1.0
  N  N195  1  0.27395000  0.08567000  0.02715000  1.0
  N  N196  1  0.57015000  0.80037000  0.55506000  1.0
  N  N197  1  0.92985000  0.30037000  0.94494000  1.0
  N  N198  1  0.42985000  0.19963000  0.44494000  1.0
  N  N199  1  0.07015000  0.69963000  0.05506000  1.0
  N  N200  1  0.56804000  0.86310000  0.48703000  1.0
  N  N201  1  0.93196000  0.36310000  0.01297000  1.0
  N  N202  1  0.43196000  0.13689000  0.51297000  1.0
  N  N203  1  0.06804000  0.63689000  0.98703000  1.0
  N  N204  1  0.37490000  0.80870000  0.50371000  1.0
  N  N205  1  0.12509000  0.30870000  0.99629000  1.0
  N  N206  1  0.62509000  0.19130000  0.49629000  1.0
  N  N207  1  0.87490000  0.69129000  0.00371000  1.0
  N  N208  1  0.23321000  0.78691000  0.34674000  1.0
  N  N209  1  0.26679000  0.28691000  0.15326000  1.0
  N  N210  1  0.76679000  0.21309000  0.65326000  1.0
  N  N211  1  0.73321000  0.71309000  0.84674000  1.0
  N  N212  1  0.32811000  0.86269000  0.24864000  1.0
  N  N213  1  0.17189000  0.36269000  0.25136000  1.0
  N  N214  1  0.67189000  0.13731000  0.75136000  1.0
  N  N215  1  0.82811000  0.63730000  0.74864000  1.0
  N  N216  1  0.24248000  0.78689000  0.21703000  1.0
  N  N217  1  0.25751000  0.28689000  0.28297000  1.0
  N  N218  1  0.75751000  0.21311000  0.78297000  1.0
  N  N219  1  0.74249000  0.71310000  0.71704000  1.0
