# generated using pymatgen
data_MnH14C20NO7
_symmetry_space_group_name_H-M   'P 1'
_cell_length_a   6.77326000
_cell_length_b   9.86022000
_cell_length_c   13.18490000
_cell_angle_alpha   94.38020000
_cell_angle_beta   100.25800000
_cell_angle_gamma   96.35570000
_symmetry_Int_Tables_number   1
_chemical_formula_structural   MnH14C20NO7
_chemical_formula_sum   'Mn2 H28 C40 N2 O14'
_cell_volume   856.99709092
_cell_formula_units_Z   2
loop_
 _symmetry_equiv_pos_site_id
 _symmetry_equiv_pos_as_xyz
  1  'x, y, z'
loop_
 _atom_site_type_symbol
 _atom_site_label
 _atom_site_symmetry_multiplicity
 _atom_site_fract_x
 _atom_site_fract_y
 _atom_site_fract_z
 _atom_site_occupancy
  Mn  Mn0  1  0.68593000  0.96075000  0.59508000  1.0
  Mn  Mn1  1  0.31407000  0.03925000  0.40492000  1.0
  H  H2  1  0.69003000  0.50888000  0.96151000  1.0
  H  H3  1  0.30998000  0.49112000  0.03850000  1.0
  H  H4  1  0.97832000  0.15667000  0.04609000  1.0
  H  H5  1  0.02168000  0.84334000  0.95391000  1.0
  H  H6  1  0.94786000  0.21109000  0.22963000  1.0
  H  H7  1  0.05214000  0.78890000  0.77037000  1.0
  H  H8  1  0.65217000  0.56176000  0.14344000  1.0
  H  H9  1  0.34784000  0.43824000  0.85656000  1.0
  H  H10  1  0.81707000  0.64569000  0.30444000  1.0
  H  H11  1  0.18293000  0.35431000  0.69557000  1.0
  H  H12  1  0.72195000  0.50785000  0.59496000  1.0
  H  H13  1  0.27803000  0.49214000  0.40503000  1.0
  H  H14  1  0.74584000  0.21253000  0.34217000  1.0
  H  H15  1  0.25416000  0.78747000  0.65783000  1.0
  H  H16  1  0.41546000  0.12563000  0.71321000  1.0
  H  H17  1  0.58455000  0.87438000  0.28679000  1.0
  H  H18  1  0.72685000  0.79576000  0.78010000  1.0
  H  H19  1  0.27317000  0.20424000  0.21990000  1.0
  H  H20  1  0.68117000  0.81508000  0.96249000  1.0
  H  H21  1  0.31884000  0.18492000  0.03751000  1.0
  H  H22  1  0.34403000  0.15569000  0.89057000  1.0
  H  H23  1  0.65597000  0.84431000  0.10943000  1.0
  H  H24  1  0.76149000  0.33721000  0.74272000  1.0
  H  H25  1  0.23849000  0.66279000  0.25728000  1.0
  H  H26  1  0.97295000  0.11234000  0.73839000  1.0
  H  H27  1  0.02704000  0.88766000  0.26161000  1.0
  H  H28  1  0.06487000  0.09739000  0.63472000  1.0
  H  H29  1  0.93512000  0.90261000  0.36528000  1.0
  C  C30  1  0.86293000  0.29745000  0.88384000  1.0
  C  C31  1  0.13707000  0.70255000  0.11616000  1.0
  C  C32  1  0.84032000  0.33081000  0.99258000  1.0
  C  C33  1  0.15969000  0.66920000  0.00742000  1.0
  C  C34  1  0.74695000  0.44445000  0.02067000  1.0
  C  C35  1  0.25306000  0.55555000  0.97933000  1.0
  C  C36  1  0.91066000  0.24679000  0.06870000  1.0
  C  C37  1  0.08935000  0.75321000  0.93130000  1.0
  C  C38  1  0.89181000  0.27696000  0.17101000  1.0
  C  C39  1  0.10819000  0.72304000  0.82899000  1.0
  C  C40  1  0.72816000  0.47457000  0.12295000  1.0
  C  C41  1  0.27184000  0.52543000  0.87705000  1.0
  C  C42  1  0.80207000  0.39233000  0.20015000  1.0
  C  C43  1  0.19793000  0.60767000  0.79985000  1.0
  C  C44  1  0.78273000  0.42502000  0.30881000  1.0
  C  C45  1  0.21727000  0.57498000  0.69119000  1.0
  C  C46  1  0.79090000  0.56114000  0.35103000  1.0
  C  C47  1  0.20910000  0.43886000  0.64897000  1.0
  C  C48  1  0.77128000  0.59074000  0.45403000  1.0
  C  C49  1  0.22872000  0.40926000  0.54597000  1.0
  C  C50  1  0.77396000  0.73430000  0.49934000  1.0
  C  C51  1  0.22603000  0.26569000  0.50067000  1.0
  C  C52  1  0.74069000  0.48399000  0.51558000  1.0
  C  C53  1  0.25930000  0.51600000  0.48443000  1.0
  C  C54  1  0.75377000  0.31933000  0.37205000  1.0
  C  C55  1  0.24623000  0.68067000  0.62795000  1.0
  C  C56  1  0.47121000  0.05945000  0.77160000  1.0
  C  C57  1  0.52880000  0.94055000  0.22840000  1.0
  C  C58  1  0.64728000  0.87612000  0.80930000  1.0
  C  C59  1  0.35273000  0.12389000  0.19070000  1.0
  C  C60  1  0.61960000  0.88755000  0.91111000  1.0
  C  C61  1  0.38041000  0.11245000  0.08889000  1.0
  C  C62  1  0.43500000  0.07629000  0.87189000  1.0
  C  C63  1  0.56501000  0.92372000  0.12811000  1.0
  C  C64  1  0.51389000  0.99126000  0.94565000  1.0
  C  C65  1  0.48612000  0.00874000  0.05435000  1.0
  C  C66  1  0.73068000  0.34828000  0.47434000  1.0
  C  C67  1  0.26932000  0.65172000  0.52566000  1.0
  C  C68  1  0.69091000  0.23463000  0.53856000  1.0
  C  C69  1  0.30908000  0.76537000  0.46144000  1.0
  N  N70  1  0.57830000  0.96222000  0.74059000  1.0
  N  N71  1  0.42170000  0.03778000  0.25941000  1.0
  O  O72  1  0.96338000  0.20651000  0.85853000  1.0
  O  O73  1  0.03662000  0.79349000  0.14147000  1.0
  O  O74  1  0.76478000  0.37337000  0.81760000  1.0
  O  O75  1  0.23522000  0.62663000  0.18240000  1.0
  O  O76  1  0.74057000  0.75227000  0.59184000  1.0
  O  O77  1  0.25943000  0.24773000  0.40816000  1.0
  O  O78  1  0.79764000  0.83608000  0.44653000  1.0
  O  O79  1  0.20235000  0.16391000  0.55347000  1.0
  O  O80  1  0.64102000  0.11163000  0.49113000  1.0
  O  O81  1  0.35898000  0.88837000  0.50887000  1.0
  O  O82  1  0.70313000  0.25600000  0.63487000  1.0
  O  O83  1  0.29684000  0.74399000  0.36513000  1.0
  O  O84  1  0.98261000  0.04666000  0.67902000  1.0
  O  O85  1  0.01739000  0.95334000  0.32098000  1.0
