# generated using pymatgen
data_TbH17C15(NO3)3
_symmetry_space_group_name_H-M   'P 1'
_cell_length_a   12.92920000
_cell_length_b   12.92920000
_cell_length_c   14.73370000
_cell_angle_alpha   84.41930000
_cell_angle_beta   84.41940000
_cell_angle_gamma   62.10680000
_symmetry_Int_Tables_number   1
_chemical_formula_structural   TbH17C15(NO3)3
_chemical_formula_sum   'Tb4 H68 C60 N12 O36'
_cell_volume   2162.73474609
_cell_formula_units_Z   4
loop_
 _symmetry_equiv_pos_site_id
 _symmetry_equiv_pos_as_xyz
  1  'x, y, z'
loop_
 _atom_site_type_symbol
 _atom_site_label
 _atom_site_symmetry_multiplicity
 _atom_site_fract_x
 _atom_site_fract_y
 _atom_site_fract_z
 _atom_site_occupancy
  Tb  Tb0  1  0.65498000  0.02013000  0.47321000  1.0
  Tb  Tb1  1  0.97987000  0.34502000  0.02679000  1.0
  Tb  Tb2  1  0.34503000  0.97987000  0.52679000  1.0
  Tb  Tb3  1  0.02013000  0.65497000  0.97321000  1.0
  H  H4  1  0.52331000  0.68841000  0.62686000  1.0
  H  H5  1  0.31159000  0.47669000  0.87314000  1.0
  H  H6  1  0.47669000  0.31159000  0.37314000  1.0
  H  H7  1  0.68841000  0.52331000  0.12686000  1.0
  H  H8  1  0.79697000  0.74005000  0.72656000  1.0
  H  H9  1  0.25995000  0.20303000  0.77344000  1.0
  H  H10  1  0.20303000  0.25995000  0.27344000  1.0
  H  H11  1  0.74005000  0.79697000  0.22656000  1.0
  H  H12  1  0.72246000  0.46473000  0.85036000  1.0
  H  H13  1  0.53527000  0.27754000  0.64964000  1.0
  H  H14  1  0.27754000  0.53527000  0.14964000  1.0
  H  H15  1  0.46473000  0.72246000  0.35036000  1.0
  H  H16  1  0.84289000  0.73111000  0.45462000  1.0
  H  H17  1  0.26888000  0.15711000  0.04539000  1.0
  H  H18  1  0.15711000  0.26889000  0.54538000  1.0
  H  H19  1  0.73111000  0.84289000  0.95461000  1.0
  H  H20  1  0.09443000  0.53000000  0.36629000  1.0
  H  H21  1  0.47000000  0.90557000  0.13370000  1.0
  H  H22  1  0.90557000  0.47000000  0.63371000  1.0
  H  H23  1  0.53000000  0.09443000  0.86629000  1.0
  H  H24  1  0.99204000  0.57155000  0.28017000  1.0
  H  H25  1  0.42845000  0.00796000  0.21983000  1.0
  H  H26  1  0.00796000  0.42845000  0.71983000  1.0
  H  H27  1  0.57155000  0.99204000  0.78017000  1.0
  H  H28  1  0.94449000  0.56530000  0.39783000  1.0
  H  H29  1  0.43470000  0.05551000  0.10217000  1.0
  H  H30  1  0.05551000  0.43470000  0.60217000  1.0
  H  H31  1  0.56530000  0.94449000  0.89783000  1.0
  H  H32  1  0.13227000  0.69386000  0.29270000  1.0
  H  H33  1  0.30615000  0.86772000  0.20730000  1.0
  H  H34  1  0.86773000  0.30614000  0.70730000  1.0
  H  H35  1  0.69386000  0.13227000  0.79270000  1.0
  H  H36  1  0.02528000  0.83915000  0.31754000  1.0
  H  H37  1  0.16085000  0.97471000  0.18246000  1.0
  H  H38  1  0.97472000  0.16085000  0.68247000  1.0
  H  H39  1  0.83915000  0.02528000  0.81753000  1.0
  H  H40  1  0.00971000  0.76912000  0.22354000  1.0
  H  H41  1  0.23088000  0.99028000  0.27646000  1.0
  H  H42  1  0.99028000  0.23088000  0.77646000  1.0
  H  H43  1  0.76912000  0.00972000  0.72354000  1.0
  H  H44  1  0.79616000  0.95145000  0.25927000  1.0
  H  H45  1  0.04856000  0.20383000  0.24073000  1.0
  H  H46  1  0.20384000  0.04856000  0.74073000  1.0
  H  H47  1  0.95144000  0.79617000  0.75927000  1.0
  H  H48  1  0.59484000  0.24298000  0.10878000  1.0
  H  H49  1  0.75702000  0.40516000  0.39122000  1.0
  H  H50  1  0.40516000  0.75702000  0.89122000  1.0
  H  H51  1  0.24298000  0.59484000  0.60878000  1.0
  H  H52  1  0.71795000  0.26432000  0.12601000  1.0
  H  H53  1  0.73568000  0.28205000  0.37399000  1.0
  H  H54  1  0.28204000  0.73568000  0.87399000  1.0
  H  H55  1  0.26432000  0.71795000  0.62601000  1.0
  H  H56  1  0.62130000  0.26296000  0.22122000  1.0
  H  H57  1  0.73704000  0.37870000  0.27878000  1.0
  H  H58  1  0.37870000  0.73704000  0.77878000  1.0
  H  H59  1  0.26296000  0.62130000  0.72122000  1.0
  H  H60  1  0.78988000  0.08430000  0.03417000  1.0
  H  H61  1  0.91571000  0.21012000  0.46583000  1.0
  H  H62  1  0.21013000  0.91570000  0.96583000  1.0
  H  H63  1  0.08429000  0.78989000  0.53417000  1.0
  H  H64  1  0.75039000  0.97437000  0.08074000  1.0
  H  H65  1  0.02564000  0.24960000  0.41926000  1.0
  H  H66  1  0.24960000  0.02564000  0.91926000  1.0
  H  H67  1  0.97437000  0.75038000  0.58073000  1.0
  H  H68  1  0.88552000  0.96682000  0.10668000  1.0
  H  H69  1  0.03318000  0.11448000  0.39332000  1.0
  H  H70  1  0.11448000  0.03317000  0.89333000  1.0
  H  H71  1  0.96681000  0.88551000  0.60668000  1.0
  C  C72  1  0.61520000  0.56870000  0.73917000  1.0
  C  C73  1  0.43130000  0.38480000  0.76083000  1.0
  C  C74  1  0.38480000  0.43130000  0.26083000  1.0
  C  C75  1  0.56871000  0.61520000  0.23917000  1.0
  C  C76  1  0.59248000  0.66252000  0.67386000  1.0
  C  C77  1  0.33748000  0.40752000  0.82614000  1.0
  C  C78  1  0.40752000  0.33748000  0.32614000  1.0
  C  C79  1  0.66252000  0.59248000  0.17386000  1.0
  C  C80  1  0.65853000  0.72319000  0.66935000  1.0
  C  C81  1  0.27681000  0.34147000  0.83065000  1.0
  C  C82  1  0.34147000  0.27681000  0.33065000  1.0
  C  C83  1  0.72319000  0.65853000  0.16935000  1.0
  C  C84  1  0.74641000  0.69188000  0.73032000  1.0
  C  C85  1  0.30812000  0.25359000  0.76968000  1.0
  C  C86  1  0.25359000  0.30812000  0.26968000  1.0
  C  C87  1  0.69188000  0.74641000  0.23032000  1.0
  C  C88  1  0.76972000  0.59839000  0.79514000  1.0
  C  C89  1  0.40161000  0.23028000  0.70486000  1.0
  C  C90  1  0.23028000  0.40161000  0.20486000  1.0
  C  C91  1  0.59839000  0.76972000  0.29514000  1.0
  C  C92  1  0.70470000  0.53683000  0.79935000  1.0
  C  C93  1  0.46317000  0.29530000  0.70065000  1.0
  C  C94  1  0.29530000  0.46317000  0.20065000  1.0
  C  C95  1  0.53683000  0.70470000  0.29935000  1.0
  C  C96  1  0.54887000  0.50644000  0.74571000  1.0
  C  C97  1  0.49356000  0.45113000  0.75429000  1.0
  C  C98  1  0.45113000  0.49356000  0.25429000  1.0
  C  C99  1  0.50645000  0.54887000  0.24571000  1.0
  C  C100  1  0.63457000  0.82218000  0.59931000  1.0
  C  C101  1  0.17783000  0.36543000  0.90069000  1.0
  C  C102  1  0.36543000  0.17782000  0.40069000  1.0
  C  C103  1  0.82218000  0.63457000  0.09931000  1.0
  C  C104  1  0.86601000  0.56077000  0.85925000  1.0
  C  C105  1  0.43923000  0.13399000  0.64075000  1.0
  C  C106  1  0.13399000  0.43923000  0.14075000  1.0
  C  C107  1  0.56077000  0.86601000  0.35925000  1.0
  C  C108  1  0.88549000  0.77725000  0.41225000  1.0
  C  C109  1  0.22274000  0.11451000  0.08775000  1.0
  C  C110  1  0.11451000  0.22275000  0.58775000  1.0
  C  C111  1  0.77726000  0.88549000  0.91225000  1.0
  C  C112  1  0.00284000  0.58702000  0.34984000  1.0
  C  C113  1  0.41298000  0.99716000  0.15015000  1.0
  C  C114  1  0.99716000  0.41298000  0.65015000  1.0
  C  C115  1  0.58702000  0.00284000  0.84984000  1.0
  C  C116  1  0.03859000  0.75618000  0.29340000  1.0
  C  C117  1  0.24383000  0.96141000  0.20660000  1.0
  C  C118  1  0.96141000  0.24382000  0.70660000  1.0
  C  C119  1  0.75618000  0.03859000  0.79340000  1.0
  C  C120  1  0.74026000  0.04719000  0.25624000  1.0
  C  C121  1  0.95281000  0.25974000  0.24376000  1.0
  C  C122  1  0.25975000  0.95281000  0.74376000  1.0
  C  C123  1  0.04720000  0.74025000  0.75624000  1.0
  C  C124  1  0.66272000  0.22478000  0.15621000  1.0
  C  C125  1  0.77522000  0.33728000  0.34379000  1.0
  C  C126  1  0.33728000  0.77522000  0.84379000  1.0
  C  C127  1  0.22478000  0.66272000  0.65621000  1.0
  C  C128  1  0.79335000  0.02664000  0.09460000  1.0
  C  C129  1  0.97337000  0.20664000  0.40540000  1.0
  C  C130  1  0.20665000  0.97336000  0.90540000  1.0
  C  C131  1  0.02663000  0.79335000  0.59460000  1.0
  N  N132  1  0.97349000  0.70946000  0.35565000  1.0
  N  N133  1  0.29054000  0.02651000  0.14435000  1.0
  N  N134  1  0.02651000  0.29054000  0.64435000  1.0
  N  N135  1  0.70946000  0.97349000  0.85564000  1.0
  N  N136  1  0.73342000  0.09869000  0.17274000  1.0
  N  N137  1  0.90132000  0.26658000  0.32726000  1.0
  N  N138  1  0.26658000  0.90131000  0.82726000  1.0
  N  N139  1  0.09868000  0.73342000  0.67274000  1.0
  N  N140  1  0.73536000  0.16803000  0.54687000  1.0
  N  N141  1  0.83197000  0.26464000  0.95314000  1.0
  N  N142  1  0.26464000  0.83197000  0.45313000  1.0
  N  N143  1  0.16802000  0.73536000  0.04687000  1.0
  O  O144  1  0.53517000  0.87189000  0.56451000  1.0
  O  O145  1  0.12812000  0.46482000  0.93549000  1.0
  O  O146  1  0.46483000  0.12812000  0.43549000  1.0
  O  O147  1  0.87189000  0.53517000  0.06451000  1.0
  O  O148  1  0.71475000  0.85232000  0.57691000  1.0
  O  O149  1  0.14768000  0.28525000  0.92309000  1.0
  O  O150  1  0.28525000  0.14768000  0.42309000  1.0
  O  O151  1  0.85232000  0.71475000  0.07691000  1.0
  O  O152  1  0.89586000  0.63738000  0.87651000  1.0
  O  O153  1  0.36262000  0.10415000  0.62349000  1.0
  O  O154  1  0.10414000  0.36262000  0.12349000  1.0
  O  O155  1  0.63738000  0.89586000  0.37651000  1.0
  O  O156  1  0.91113000  0.45473000  0.89028000  1.0
  O  O157  1  0.54526000  0.08887000  0.60972000  1.0
  O  O158  1  0.08887000  0.54526000  0.10972000  1.0
  O  O159  1  0.45474000  0.91113000  0.39028000  1.0
  O  O160  1  0.85178000  0.88445000  0.41917000  1.0
  O  O161  1  0.11555000  0.14822000  0.08083000  1.0
  O  O162  1  0.14822000  0.11555000  0.58083000  1.0
  O  O163  1  0.88445000  0.85178000  0.91917000  1.0
  O  O164  1  0.68905000  0.09978000  0.32747000  1.0
  O  O165  1  0.90022000  0.31095000  0.17253000  1.0
  O  O166  1  0.31096000  0.90022000  0.67253000  1.0
  O  O167  1  0.09978000  0.68905000  0.82747000  1.0
  O  O168  1  0.78993000  0.05512000  0.55651000  1.0
  O  O169  1  0.94488000  0.21007000  0.94350000  1.0
  O  O170  1  0.21007000  0.94488000  0.44349000  1.0
  O  O171  1  0.05512000  0.78993000  0.05651000  1.0
  O  O172  1  0.64756000  0.21199000  0.49597000  1.0
  O  O173  1  0.78801000  0.35245000  0.00403000  1.0
  O  O174  1  0.35245000  0.78801000  0.50403000  1.0
  O  O175  1  0.21198000  0.64756000  0.99597000  1.0
  O  O176  1  0.76607000  0.23001000  0.58419000  1.0
  O  O177  1  0.76998000  0.23394000  0.91581000  1.0
  O  O178  1  0.23393000  0.77000000  0.41581000  1.0
  O  O179  1  0.23000000  0.76607000  0.08419000  1.0
