# generated using pymatgen
data_ZnH10C22Br2NO4
_symmetry_space_group_name_H-M   'P 1'
_cell_length_a   10.97380000
_cell_length_b   17.05790000
_cell_length_c   17.80460000
_cell_angle_alpha   89.99880000
_cell_angle_beta   87.98960000
_cell_angle_gamma   89.99670000
_symmetry_Int_Tables_number   1
_chemical_formula_structural   ZnH10C22Br2NO4
_chemical_formula_sum   'Zn2 H20 C44 Br4 N2 O8'
_cell_volume   3330.79132017
_cell_formula_units_Z   2
loop_
 _symmetry_equiv_pos_site_id
 _symmetry_equiv_pos_as_xyz
  1  'x, y, z'
loop_
 _atom_site_type_symbol
 _atom_site_label
 _atom_site_symmetry_multiplicity
 _atom_site_fract_x
 _atom_site_fract_y
 _atom_site_fract_z
 _atom_site_occupancy
  Zn  Zn0  1  0.50236000  0.58667000  0.49982000  1.0
  Zn  Zn1  1  0.50237000  0.41333000  0.49982000  1.0
  H  H2  1  0.89549000  0.50006000  0.24184000  1.0
  H  H3  1  0.10888000  0.49993000  0.75800000  1.0
  H  H4  1  0.12408000  0.50008000  0.23957000  1.0
  H  H5  1  0.88033000  0.49989000  0.76037000  1.0
  H  H6  1  0.77036000  0.49992000  0.64207000  1.0
  H  H7  1  0.23354000  0.50006000  0.35779000  1.0
  H  H8  1  0.22580000  0.49998000  0.63742000  1.0
  H  H9  1  0.77819000  0.50002000  0.36247000  1.0
  H  H10  1  0.44173000  0.62647000  0.87834000  1.0
  H  H11  1  0.43984000  0.37352000  0.12441000  1.0
  H  H12  1  0.43949000  0.62646000  0.12443000  1.0
  H  H13  1  0.44175000  0.37355000  0.87834000  1.0
  H  H14  1  0.47290000  0.62576000  0.73844000  1.0
  H  H15  1  0.47111000  0.37430000  0.26300000  1.0
  H  H16  1  0.47078000  0.62569000  0.26302000  1.0
  H  H17  1  0.47291000  0.37426000  0.73843000  1.0
  H  H18  1  0.64464000  0.86916000  0.41391000  1.0
  H  H19  1  0.35564000  0.13144000  0.58561000  1.0
  H  H20  1  0.35563000  0.86859000  0.58561000  1.0
  H  H21  1  0.64465000  0.13083000  0.41392000  1.0
  C  C22  1  0.49375000  0.50000000  0.35368000  1.0
  C  C23  1  0.49235000  0.50002000  0.64646000  1.0
  C  C24  1  0.44046000  0.50001000  0.88787000  1.0
  C  C25  1  0.43892000  0.49999000  0.11496000  1.0
  C  C26  1  0.43028000  0.50000000  0.96730000  1.0
  C  C27  1  0.42969000  0.49999000  0.03592000  1.0
  C  C28  1  0.58068000  0.83918000  0.45199000  1.0
  C  C29  1  0.41992000  0.16112000  0.54753000  1.0
  C  C30  1  0.41991000  0.83889000  0.54753000  1.0
  C  C31  1  0.58069000  0.16083000  0.45199000  1.0
  C  C32  1  0.57733000  0.75758000  0.45401000  1.0
  C  C33  1  0.42347000  0.24269000  0.54519000  1.0
  C  C34  1  0.42345000  0.75732000  0.54519000  1.0
  C  C35  1  0.57735000  0.24242000  0.45401000  1.0
  C  C36  1  0.50029000  0.88137000  0.49990000  1.0
  C  C37  1  0.50030000  0.11864000  0.49990000  1.0
  C  C38  1  0.50013000  0.96428000  0.50001000  1.0
  C  C39  1  0.50013000  0.03573000  0.50001000  1.0
  C  C40  1  0.73682000  0.49998000  0.50235000  1.0
  C  C41  1  0.26708000  0.50000000  0.49746000  1.0
  C  C42  1  0.86980000  0.49993000  0.64074000  1.0
  C  C43  1  0.13416000  0.50005000  0.35919000  1.0
  C  C44  1  0.12637000  0.49996000  0.63803000  1.0
  C  C45  1  0.87766000  0.50003000  0.36185000  1.0
  C  C46  1  0.93125000  0.49991000  0.70664000  1.0
  C  C47  1  0.07290000  0.50006000  0.29324000  1.0
  C  C48  1  0.06098000  0.49994000  0.70531000  1.0
  C  C49  1  0.94317000  0.50005000  0.29459000  1.0
  C  C50  1  0.06592000  0.49997000  0.56819000  1.0
  C  C51  1  0.93804000  0.50002000  0.43170000  1.0
  C  C52  1  0.93428000  0.49996000  0.56965000  1.0
  C  C53  1  0.06966000  0.50002000  0.43024000  1.0
  C  C54  1  0.13032000  0.50000000  0.49849000  1.0
  C  C55  1  0.87361000  0.49998000  0.50140000  1.0
  C  C56  1  0.44837000  0.57131000  0.84754000  1.0
  C  C57  1  0.44655000  0.42867000  0.15491000  1.0
  C  C58  1  0.44635000  0.57131000  0.15492000  1.0
  C  C59  1  0.44838000  0.42871000  0.84753000  1.0
  C  C60  1  0.46577000  0.57103000  0.76989000  1.0
  C  C61  1  0.46401000  0.42897000  0.23177000  1.0
  C  C62  1  0.46382000  0.57101000  0.23178000  1.0
  C  C63  1  0.46578000  0.42899000  0.76989000  1.0
  C  C64  1  0.47526000  0.50001000  0.73035000  1.0
  C  C65  1  0.47383000  0.49999000  0.27084000  1.0
  Br  Br66  1  0.68855000  0.70571000  0.38793000  1.0
  Br  Br67  1  0.31085000  0.29464000  0.61037000  1.0
  Br  Br68  1  0.31080000  0.70538000  0.61036000  1.0
  Br  Br69  1  0.68857000  0.29428000  0.38793000  1.0
  N  N70  1  0.50060000  0.71568000  0.49962000  1.0
  N  N71  1  0.50063000  0.28433000  0.49962000  1.0
  O  O72  1  0.50132000  0.56665000  0.38551000  1.0
  O  O73  1  0.49807000  0.43337000  0.61419000  1.0
  O  O74  1  0.49806000  0.56666000  0.61419000  1.0
  O  O75  1  0.50135000  0.43335000  0.38552000  1.0
  O  O76  1  0.68529000  0.56666000  0.50222000  1.0
  O  O77  1  0.31863000  0.43334000  0.49748000  1.0
  O  O78  1  0.31862000  0.56666000  0.49748000  1.0
  O  O79  1  0.68531000  0.43330000  0.50224000  1.0
