# generated using pymatgen
data_TbH9C15(NO3)2
_symmetry_space_group_name_H-M   'P 1'
_cell_length_a   6.76372000
_cell_length_b   12.82940000
_cell_length_c   16.71580000
_cell_angle_alpha   90.00000000
_cell_angle_beta   93.69280000
_cell_angle_gamma   90.00000000
_symmetry_Int_Tables_number   1
_chemical_formula_structural   TbH9C15(NO3)2
_chemical_formula_sum   'Tb4 H36 C60 N8 O24'
_cell_volume   1447.49302087
_cell_formula_units_Z   4
loop_
 _symmetry_equiv_pos_site_id
 _symmetry_equiv_pos_as_xyz
  1  'x, y, z'
loop_
 _atom_site_type_symbol
 _atom_site_label
 _atom_site_symmetry_multiplicity
 _atom_site_fract_x
 _atom_site_fract_y
 _atom_site_fract_z
 _atom_site_occupancy
  Tb  Tb0  1  0.61609000  0.62750000  0.04850000  1.0
  Tb  Tb1  1  0.88391000  0.12750000  0.95150000  1.0
  Tb  Tb2  1  0.38391000  0.37250000  0.95150000  1.0
  Tb  Tb3  1  0.11609000  0.87250000  0.04850000  1.0
  H  H4  1  0.11753000  0.78552000  0.29747000  1.0
  H  H5  1  0.38247000  0.28552000  0.70253000  1.0
  H  H6  1  0.88247000  0.21448000  0.70253000  1.0
  H  H7  1  0.61753000  0.71448000  0.29747000  1.0
  H  H8  1  0.04743000  0.75239000  0.44129000  1.0
  H  H9  1  0.45257000  0.25239000  0.55871000  1.0
  H  H10  1  0.95257000  0.24761000  0.55871000  1.0
  H  H11  1  0.54743000  0.74761000  0.44129000  1.0
  H  H12  1  0.75260000  0.46718000  0.37102000  1.0
  H  H13  1  0.74740000  0.96718000  0.62898000  1.0
  H  H14  1  0.24740000  0.53282000  0.62898000  1.0
  H  H15  1  0.25260000  0.03281000  0.37102000  1.0
  H  H16  1  0.81959000  0.50128000  0.22694000  1.0
  H  H17  1  0.68040000  0.00128000  0.77306000  1.0
  H  H18  1  0.18040000  0.49872000  0.77306000  1.0
  H  H19  1  0.31960000  0.99872000  0.22694000  1.0
  H  H20  1  0.94006000  0.76663000  0.66901000  1.0
  H  H21  1  0.55994000  0.26663000  0.33099000  1.0
  H  H22  1  0.05994000  0.23337000  0.33099000  1.0
  H  H23  1  0.44006000  0.73337000  0.66901000  1.0
  H  H24  1  0.85491000  0.72430000  0.80980000  1.0
  H  H25  1  0.64509000  0.22431000  0.19020000  1.0
  H  H26  1  0.14509000  0.27570000  0.19020000  1.0
  H  H27  1  0.35491000  0.77569000  0.80980000  1.0
  H  H28  1  0.56140000  0.44527000  0.72371000  1.0
  H  H29  1  0.93860000  0.94527000  0.27629000  1.0
  H  H30  1  0.43860000  0.55473000  0.27629000  1.0
  H  H31  1  0.06140000  0.05473000  0.72371000  1.0
  H  H32  1  0.64297000  0.48832000  0.58303000  1.0
  H  H33  1  0.85703000  0.98832000  0.41696000  1.0
  H  H34  1  0.35703000  0.51168000  0.41697000  1.0
  H  H35  1  0.14297000  0.01168000  0.58304000  1.0
  H  H36  1  0.94633000  0.36915000  0.05004000  1.0
  H  H37  1  0.55367000  0.86915000  0.94996000  1.0
  H  H38  1  0.05368000  0.63085000  0.94996000  1.0
  H  H39  1  0.44633000  0.13085000  0.05004000  1.0
  C  C40  1  0.99626000  0.67273000  0.16829000  1.0
  C  C41  1  0.50374000  0.17273000  0.83171000  1.0
  C  C42  1  0.00375000  0.32728000  0.83171000  1.0
  C  C43  1  0.49625000  0.82728000  0.16829000  1.0
  C  C44  1  0.97157000  0.64595000  0.25395000  1.0
  C  C45  1  0.52843000  0.14595000  0.74605000  1.0
  C  C46  1  0.02843000  0.35405000  0.74605000  1.0
  C  C47  1  0.47157000  0.85405000  0.25395000  1.0
  C  C48  1  0.03821000  0.71603000  0.31453000  1.0
  C  C49  1  0.46179000  0.21603000  0.68547000  1.0
  C  C50  1  0.96179000  0.28397000  0.68547000  1.0
  C  C51  1  0.53821000  0.78397000  0.31453000  1.0
  C  C52  1  0.99898000  0.69843000  0.39375000  1.0
  C  C53  1  0.50102000  0.19843000  0.60625000  1.0
  C  C54  1  0.00102000  0.30157000  0.60625000  1.0
  C  C55  1  0.49898000  0.80157000  0.39375000  1.0
  C  C56  1  0.89145000  0.60911000  0.41331000  1.0
  C  C57  1  0.60854000  0.10911000  0.58669000  1.0
  C  C58  1  0.10854000  0.39089000  0.58669000  1.0
  C  C59  1  0.39145000  0.89089000  0.41331000  1.0
  C  C60  1  0.83202000  0.53659000  0.35350000  1.0
  C  C61  1  0.66798000  0.03659000  0.64650000  1.0
  C  C62  1  0.16798000  0.46341000  0.64650000  1.0
  C  C63  1  0.33202000  0.96341000  0.35350000  1.0
  C  C64  1  0.87016000  0.55534000  0.27411000  1.0
  C  C65  1  0.62984000  0.05534000  0.72589000  1.0
  C  C66  1  0.12984000  0.44466000  0.72590000  1.0
  C  C67  1  0.37016000  0.94466000  0.27410000  1.0
  C  C68  1  0.79872000  0.62929000  0.61870000  1.0
  C  C69  1  0.70129000  0.12929000  0.38130000  1.0
  C  C70  1  0.20129000  0.37071000  0.38130000  1.0
  C  C71  1  0.29871000  0.87071000  0.61870000  1.0
  C  C72  1  0.85608000  0.69690000  0.68214000  1.0
  C  C73  1  0.64392000  0.19690000  0.31786000  1.0
  C  C74  1  0.14392000  0.30310000  0.31786000  1.0
  C  C75  1  0.35608000  0.80310000  0.68214000  1.0
  C  C76  1  0.80924000  0.67306000  0.75995000  1.0
  C  C77  1  0.69076000  0.17306000  0.24005000  1.0
  C  C78  1  0.19076000  0.32694000  0.24005000  1.0
  C  C79  1  0.30924000  0.82693000  0.75995000  1.0
  C  C80  1  0.70306000  0.58184000  0.77470000  1.0
  C  C81  1  0.79694000  0.08184000  0.22530000  1.0
  C  C82  1  0.29694000  0.41816000  0.22530000  1.0
  C  C83  1  0.20306000  0.91816000  0.77470000  1.0
  C  C84  1  0.64290000  0.51567000  0.71059000  1.0
  C  C85  1  0.85710000  0.01567000  0.28941000  1.0
  C  C86  1  0.35710000  0.48433000  0.28941000  1.0
  C  C87  1  0.14290000  0.98433000  0.71059000  1.0
  C  C88  1  0.68826000  0.53901000  0.63313000  1.0
  C  C89  1  0.81174000  0.03901000  0.36687000  1.0
  C  C90  1  0.31174000  0.46099000  0.36687000  1.0
  C  C91  1  0.18826000  0.96099000  0.63313000  1.0
  C  C92  1  0.65025000  0.55235000  0.85708000  1.0
  C  C93  1  0.84974000  0.05235000  0.14292000  1.0
  C  C94  1  0.34974000  0.44765000  0.14292000  1.0
  C  C95  1  0.15025000  0.94765000  0.85708000  1.0
  C  C96  1  0.79121000  0.36919000  0.02504000  1.0
  C  C97  1  0.70879000  0.86919000  0.97496000  1.0
  C  C98  1  0.20879000  0.63081000  0.97496000  1.0
  C  C99  1  0.29121000  0.13081000  0.02504000  1.0
  N  N100  1  0.83346000  0.58496000  0.49058000  1.0
  N  N101  1  0.66654000  0.08496000  0.50942000  1.0
  N  N102  1  0.16654000  0.41504000  0.50942000  1.0
  N  N103  1  0.33345000  0.91504000  0.49058000  1.0
  N  N104  1  0.85951000  0.65707000  0.54215000  1.0
  N  N105  1  0.64049000  0.15707000  0.45785000  1.0
  N  N106  1  0.14049000  0.34293000  0.45785000  1.0
  N  N107  1  0.35950000  0.84293000  0.54215000  1.0
  O  O108  1  0.91655000  0.61225000  0.11390000  1.0
  O  O109  1  0.58345000  0.11225000  0.88610000  1.0
  O  O110  1  0.08345000  0.38775000  0.88610000  1.0
  O  O111  1  0.41655000  0.88775000  0.11390000  1.0
  O  O112  1  0.08812000  0.75550000  0.15290000  1.0
  O  O113  1  0.41188000  0.25550000  0.84710000  1.0
  O  O114  1  0.91188000  0.24450000  0.84710000  1.0
  O  O115  1  0.58812000  0.74450000  0.15290000  1.0
  O  O116  1  0.56565000  0.46453000  0.86449000  1.0
  O  O117  1  0.93435000  0.96453000  0.13551000  1.0
  O  O118  1  0.43435000  0.53547000  0.13551000  1.0
  O  O119  1  0.06565000  0.03546000  0.86449000  1.0
  O  O120  1  0.69096000  0.61665000  0.91428000  1.0
  O  O121  1  0.80903000  0.11665000  0.08572000  1.0
  O  O122  1  0.30904000  0.38335000  0.08572000  1.0
  O  O123  1  0.19096000  0.88335000  0.91428000  1.0
  O  O124  1  0.68677000  0.45046000  0.03061000  1.0
  O  O125  1  0.81323000  0.95046000  0.96939000  1.0
  O  O126  1  0.31323000  0.54954000  0.96939000  1.0
  O  O127  1  0.18677000  0.04954000  0.03061000  1.0
  O  O128  1  0.71700000  0.28788000  0.99112000  1.0
  O  O129  1  0.78300000  0.78788000  0.00889000  1.0
  O  O130  1  0.28300000  0.71212000  0.00888000  1.0
  O  O131  1  0.21700000  0.21212000  0.99112000  1.0
