# generated using pymatgen
data_Zn2PH4C7O5F
_symmetry_space_group_name_H-M   'P 1'
_cell_length_a   5.75484000
_cell_length_b   8.56676000
_cell_length_c   19.44670000
_cell_angle_alpha   90.00020000
_cell_angle_beta   90.00000000
_cell_angle_gamma   100.96700000
_symmetry_Int_Tables_number   1
_chemical_formula_structural   Zn2PH4C7O5F
_chemical_formula_sum   'Zn8 P4 H16 C28 O20 F4'
_cell_volume   941.21944626
_cell_formula_units_Z   4
loop_
 _symmetry_equiv_pos_site_id
 _symmetry_equiv_pos_as_xyz
  1  'x, y, z'
loop_
 _atom_site_type_symbol
 _atom_site_label
 _atom_site_symmetry_multiplicity
 _atom_site_fract_x
 _atom_site_fract_y
 _atom_site_fract_z
 _atom_site_occupancy
  Zn  Zn0  1  0.25498000  0.03765000  0.46908000  1.0
  Zn  Zn1  1  0.74502000  0.46235000  0.96908000  1.0
  Zn  Zn2  1  0.74502000  0.96235000  0.53092000  1.0
  Zn  Zn3  1  0.25498000  0.53765000  0.03092000  1.0
  Zn  Zn4  1  0.65294000  0.36262000  0.50157000  1.0
  Zn  Zn5  1  0.34705000  0.13738000  0.00157000  1.0
  Zn  Zn6  1  0.34706000  0.63738000  0.49843000  1.0
  Zn  Zn7  1  0.65294000  0.86262000  0.99843000  1.0
  P  P8  1  0.88436000  0.19731000  0.06795000  1.0
  P  P9  1  0.11564000  0.30269000  0.56795000  1.0
  P  P10  1  0.11564000  0.80268000  0.93205000  1.0
  P  P11  1  0.88436000  0.69731000  0.43205000  1.0
  H  H12  1  0.97471000  0.35726000  0.31231000  1.0
  H  H13  1  0.02528000  0.14273000  0.81231000  1.0
  H  H14  1  0.02529000  0.64274000  0.68769000  1.0
  H  H15  1  0.97471000  0.85727000  0.18769000  1.0
  H  H16  1  0.10939000  0.35276000  0.19014000  1.0
  H  H17  1  0.89061000  0.14724000  0.69013000  1.0
  H  H18  1  0.89061000  0.64724000  0.80986000  1.0
  H  H19  1  0.10939000  0.85276000  0.30986000  1.0
  H  H20  1  0.43312000  0.06546000  0.13615000  1.0
  H  H21  1  0.56687000  0.43454000  0.63615000  1.0
  H  H22  1  0.56687000  0.93454000  0.86385000  1.0
  H  H23  1  0.43313000  0.56546000  0.36385000  1.0
  H  H24  1  0.30247000  0.07359000  0.25702000  1.0
  H  H25  1  0.69752000  0.42641000  0.75702000  1.0
  H  H26  1  0.69753000  0.92641000  0.74298000  1.0
  H  H27  1  0.30248000  0.57359000  0.24298000  1.0
  C  C28  1  0.55415000  0.21414000  0.36513000  1.0
  C  C29  1  0.44585000  0.28586000  0.86513000  1.0
  C  C30  1  0.44586000  0.78586000  0.63487000  1.0
  C  C31  1  0.55415000  0.71414000  0.13487000  1.0
  C  C32  1  0.63138000  0.21446000  0.29183000  1.0
  C  C33  1  0.36862000  0.28553000  0.79183000  1.0
  C  C34  1  0.36862000  0.78554000  0.70817000  1.0
  C  C35  1  0.63138000  0.71446000  0.20817000  1.0
  C  C36  1  0.85870000  0.29428000  0.27291000  1.0
  C  C37  1  0.14129000  0.20572000  0.77291000  1.0
  C  C38  1  0.14130000  0.70572000  0.72709000  1.0
  C  C39  1  0.85871000  0.79428000  0.22709000  1.0
  C  C40  1  0.93272000  0.29125000  0.20489000  1.0
  C  C41  1  0.06727000  0.20875000  0.70489000  1.0
  C  C42  1  0.06727000  0.70875000  0.79511000  1.0
  C  C43  1  0.93273000  0.79125000  0.29511000  1.0
  C  C44  1  0.78097000  0.20826000  0.15495000  1.0
  C  C45  1  0.21902000  0.29174000  0.65495000  1.0
  C  C46  1  0.21902000  0.79174000  0.84505000  1.0
  C  C47  1  0.78098000  0.70826000  0.34505000  1.0
  C  C48  1  0.55378000  0.12967000  0.17403000  1.0
  C  C49  1  0.44622000  0.37033000  0.67403000  1.0
  C  C50  1  0.44622000  0.87032000  0.82597000  1.0
  C  C51  1  0.55378000  0.62968000  0.32597000  1.0
  C  C52  1  0.47925000  0.13337000  0.24198000  1.0
  C  C53  1  0.52074000  0.36662000  0.74198000  1.0
  C  C54  1  0.52075000  0.86662000  0.75802000  1.0
  C  C55  1  0.47926000  0.63338000  0.25802000  1.0
  O  O56  1  0.34543000  0.13921000  0.37998000  1.0
  O  O57  1  0.65456000  0.36079000  0.87998000  1.0
  O  O58  1  0.65457000  0.86079000  0.62002000  1.0
  O  O59  1  0.34543000  0.63921000  0.12002000  1.0
  O  O60  1  0.70331000  0.28845000  0.40781000  1.0
  O  O61  1  0.29669000  0.21154000  0.90781000  1.0
  O  O62  1  0.29669000  0.71155000  0.59219000  1.0
  O  O63  1  0.70331000  0.78845000  0.09219000  1.0
  O  O64  1  0.95258000  0.36898000  0.03714000  1.0
  O  O65  1  0.04741000  0.13102000  0.53714000  1.0
  O  O66  1  0.04741000  0.63102000  0.96286000  1.0
  O  O67  1  0.95259000  0.86898000  0.46286000  1.0
  O  O68  1  0.09615000  0.11440000  0.07001000  1.0
  O  O69  1  0.90385000  0.38560000  0.57001000  1.0
  O  O70  1  0.90385000  0.88560000  0.92999000  1.0
  O  O71  1  0.09616000  0.61440000  0.42999000  1.0
  O  O72  1  0.67809000  0.10245000  0.02478000  1.0
  O  O73  1  0.32191000  0.39755000  0.52478000  1.0
  O  O74  1  0.32191000  0.89754000  0.97522000  1.0
  O  O75  1  0.67809000  0.60246000  0.47522000  1.0
  F  F76  1  0.53155000  0.12600000  0.53662000  1.0
  F  F77  1  0.46846000  0.37400000  0.03662000  1.0
  F  F78  1  0.46845000  0.87400000  0.46338000  1.0
  F  F79  1  0.53155000  0.62600000  0.96338000  1.0
