# generated using pymatgen
data_CdH20C22(N3O2)2
_symmetry_space_group_name_H-M   'P 1'
_cell_length_a   8.02102000
_cell_length_b   18.90910000
_cell_length_c   19.38530000
_cell_angle_alpha   89.99990000
_cell_angle_beta   84.20650000
_cell_angle_gamma   89.99990000
_symmetry_Int_Tables_number   1
_chemical_formula_structural   CdH20C22(N3O2)2
_chemical_formula_sum   'Cd4 H80 C88 N24 O16'
_cell_volume   2925.15575471
_cell_formula_units_Z   4
loop_
 _symmetry_equiv_pos_site_id
 _symmetry_equiv_pos_as_xyz
  1  'x, y, z'
loop_
 _atom_site_type_symbol
 _atom_site_label
 _atom_site_symmetry_multiplicity
 _atom_site_fract_x
 _atom_site_fract_y
 _atom_site_fract_z
 _atom_site_occupancy
  Cd  Cd0  1  0.48750000  0.63709000  0.52945000  1.0
  Cd  Cd1  1  0.51250000  0.13709000  0.47055000  1.0
  Cd  Cd2  1  0.48548000  0.66492000  0.98665000  1.0
  Cd  Cd3  1  0.51452000  0.16492000  0.01336000  1.0
  H  H4  1  0.02168000  0.65654000  0.41806000  1.0
  H  H5  1  0.97832000  0.15654000  0.58194000  1.0
  H  H6  1  0.26542000  0.65367000  0.32631000  1.0
  H  H7  1  0.73458000  0.15367000  0.67369000  1.0
  H  H8  1  0.93770000  0.57556000  0.17997000  1.0
  H  H9  1  0.06229000  0.07556000  0.82003000  1.0
  H  H10  1  0.69480000  0.58290000  0.27155000  1.0
  H  H11  1  0.30520000  0.08290000  0.72845000  1.0
  H  H12  1  0.18702000  0.75687000  0.13856000  1.0
  H  H13  1  0.81299000  0.25687000  0.86144000  1.0
  H  H14  1  0.02198000  0.69472000  0.13468000  1.0
  H  H15  1  0.97802000  0.19472000  0.86532000  1.0
  H  H16  1  0.16356000  0.71169000  0.05975000  1.0
  H  H17  1  0.83644000  0.21169000  0.94025000  1.0
  H  H18  1  0.52013000  0.47961000  0.22868000  1.0
  H  H19  1  0.47987000  0.97961000  0.77132000  1.0
  H  H20  1  0.30278000  0.48069000  0.25935000  1.0
  H  H21  1  0.69722000  0.98069000  0.74065000  1.0
  H  H22  1  0.44269000  0.53955000  0.29578000  1.0
  H  H23  1  0.55731000  0.03956000  0.70422000  1.0
  H  H24  1  0.72080000  0.36264000  0.54597000  1.0
  H  H25  1  0.27920000  0.86264000  0.45403000  1.0
  H  H26  1  0.94674000  0.44572000  0.57420000  1.0
  H  H27  1  0.05326000  0.94572000  0.42580000  1.0
  H  H28  1  0.32152000  0.29761000  0.48822000  1.0
  H  H29  1  0.67848000  0.79761000  0.51177000  1.0
  H  H30  1  0.09387000  0.21411000  0.46298000  1.0
  H  H31  1  0.90613000  0.71411000  0.53702000  1.0
  H  H32  1  0.09060000  0.54940000  0.48503000  1.0
  H  H33  1  0.90940000  0.04940000  0.51497000  1.0
  H  H34  1  0.16062000  0.47756000  0.43045000  1.0
  H  H35  1  0.83938000  0.97756000  0.56955000  1.0
  H  H36  1  0.28391000  0.55638000  0.43187000  1.0
  H  H37  1  0.71608000  0.05638000  0.56813000  1.0
  H  H38  1  0.48964000  0.36658000  0.67863000  1.0
  H  H39  1  0.51036000  0.86658000  0.32137000  1.0
  H  H40  1  0.46342000  0.30988000  0.60671000  1.0
  H  H41  1  0.53658000  0.80988000  0.39329000  1.0
  H  H42  1  0.28568000  0.33628000  0.66317000  1.0
  H  H43  1  0.71432000  0.83628000  0.33683000  1.0
  H  H44  1  0.31150000  0.70288000  0.75124000  1.0
  H  H45  1  0.68849000  0.20288000  0.24876000  1.0
  H  H46  1  0.09284000  0.71069000  0.66884000  1.0
  H  H47  1  0.90716000  0.21069000  0.33116000  1.0
  H  H48  1  0.70821000  0.67941000  0.83890000  1.0
  H  H49  1  0.29179000  0.17941000  0.16110000  1.0
  H  H50  1  0.92859000  0.67183000  0.92075000  1.0
  H  H51  1  0.07141000  0.17183000  0.07926000  1.0
  H  H52  1  0.75917000  0.55579000  0.60363000  1.0
  H  H53  1  0.24082000  0.05579000  0.39637000  1.0
  H  H54  1  0.86678000  0.56473000  0.67952000  1.0
  H  H55  1  0.13322000  0.06473000  0.32048000  1.0
  H  H56  1  0.94882000  0.60654000  0.60105000  1.0
  H  H57  1  0.05118000  0.10654000  0.39895000  1.0
  H  H58  1  0.53543000  0.85211000  0.73583000  1.0
  H  H59  1  0.46457000  0.35211000  0.26417000  1.0
  H  H60  1  0.74148000  0.83770000  0.76136000  1.0
  H  H61  1  0.25852000  0.33770000  0.23864000  1.0
  H  H62  1  0.56509000  0.79447000  0.80636000  1.0
  H  H63  1  0.43491000  0.29447000  0.19364000  1.0
  H  H64  1  0.61821000  0.92714000  0.06961000  1.0
  H  H65  1  0.38180000  0.42714000  0.93039000  1.0
  H  H66  1  0.84642000  0.01191000  0.09041000  1.0
  H  H67  1  0.15358000  0.51191000  0.90959000  1.0
  H  H68  1  0.21610000  0.85754000  0.01263000  1.0
  H  H69  1  0.78390000  0.35754000  0.98736000  1.0
  H  H70  1  0.98440000  0.77375000  0.99086000  1.0
  H  H71  1  0.01560000  0.27375000  0.00914000  1.0
  H  H72  1  0.20440000  0.11967000  0.94944000  1.0
  H  H73  1  0.79560000  0.61967000  0.05056000  1.0
  H  H74  1  0.00891000  0.08572000  0.98726000  1.0
  H  H75  1  0.99109000  0.58572000  0.01274000  1.0
  H  H76  1  0.14178000  0.03226000  0.92852000  1.0
  H  H77  1  0.85822000  0.53226000  0.07148000  1.0
  H  H78  1  0.34388000  0.86992000  0.13946000  1.0
  H  H79  1  0.65612000  0.36992000  0.86054000  1.0
  H  H80  1  0.15825000  0.90486000  0.18580000  1.0
  H  H81  1  0.84175000  0.40486000  0.81420000  1.0
  H  H82  1  0.36004000  0.93253000  0.20749000  1.0
  H  H83  1  0.63996000  0.43253000  0.79251000  1.0
  C  C84  1  0.70095000  0.61961000  0.40632000  1.0
  C  C85  1  0.29906000  0.11961000  0.59369000  1.0
  C  C86  1  0.84478000  0.61916000  0.35027000  1.0
  C  C87  1  0.15522000  0.11916000  0.64974000  1.0
  C  C88  1  0.00500000  0.63947000  0.36559000  1.0
  C  C89  1  0.99499000  0.13947000  0.63441000  1.0
  C  C90  1  0.14041000  0.63779000  0.31467000  1.0
  C  C91  1  0.85959000  0.13779000  0.68533000  1.0
  C  C92  1  0.11383000  0.61436000  0.24834000  1.0
  C  C93  1  0.88617000  0.11436000  0.75165000  1.0
  C  C94  1  0.95478000  0.59409000  0.23205000  1.0
  C  C95  1  0.04522000  0.09409000  0.76795000  1.0
  C  C96  1  0.82012000  0.59755000  0.28302000  1.0
  C  C97  1  0.17987000  0.09755000  0.71698000  1.0
  C  C98  1  0.15285000  0.70609000  0.11623000  1.0
  C  C99  1  0.84715000  0.20609000  0.88377000  1.0
  C  C100  1  0.26695000  0.64924000  0.13503000  1.0
  C  C101  1  0.73305000  0.14924000  0.86497000  1.0
  C  C102  1  0.38711000  0.56597000  0.19253000  1.0
  C  C103  1  0.61289000  0.06597000  0.80747000  1.0
  C  C104  1  0.41472000  0.51371000  0.24735000  1.0
  C  C105  1  0.58528000  0.01371000  0.75265000  1.0
  C  C106  1  0.75847000  0.23236000  0.48889000  1.0
  C  C107  1  0.24153000  0.73236000  0.51111000  1.0
  C  C108  1  0.89397000  0.28356000  0.50234000  1.0
  C  C109  1  0.10603000  0.78356000  0.49766000  1.0
  C  C110  1  0.85212000  0.34882000  0.53372000  1.0
  C  C111  1  0.14788000  0.84882000  0.46627000  1.0
  C  C112  1  0.97776000  0.39506000  0.54926000  1.0
  C  C113  1  0.02224000  0.89506000  0.45074000  1.0
  C  C114  1  0.14552000  0.37581000  0.53278000  1.0
  C  C115  1  0.85448000  0.87581000  0.46722000  1.0
  C  C116  1  0.18989000  0.31140000  0.50089000  1.0
  C  C117  1  0.81011000  0.81140000  0.49910000  1.0
  C  C118  1  0.06264000  0.26542000  0.48598000  1.0
  C  C119  1  0.93736000  0.76542000  0.51402000  1.0
  C  C120  1  0.20192000  0.51990000  0.46349000  1.0
  C  C121  1  0.79808000  0.01990000  0.53651000  1.0
  C  C122  1  0.29598000  0.49041000  0.51883000  1.0
  C  C123  1  0.70401000  0.99041000  0.48117000  1.0
  C  C124  1  0.38941000  0.41786000  0.59541000  1.0
  C  C125  1  0.61059000  0.91787000  0.40458000  1.0
  C  C126  1  0.40785000  0.35391000  0.63836000  1.0
  C  C127  1  0.59215000  0.85391000  0.36164000  1.0
  C  C128  1  0.26434000  0.68183000  0.89054000  1.0
  C  C129  1  0.73567000  0.18183000  0.10946000  1.0
  C  C130  1  0.13355000  0.68621000  0.84099000  1.0
  C  C131  1  0.86645000  0.18621000  0.15901000  1.0
  C  C132  1  0.17969000  0.69748000  0.77017000  1.0
  C  C133  1  0.82031000  0.19748000  0.22984000  1.0
  C  C134  1  0.05759000  0.70228000  0.72412000  1.0
  C  C135  1  0.94241000  0.20229000  0.27588000  1.0
  C  C136  1  0.88912000  0.69608000  0.75012000  1.0
  C  C137  1  0.11088000  0.19608000  0.24989000  1.0
  C  C138  1  0.84065000  0.68447000  0.82041000  1.0
  C  C139  1  0.15935000  0.18447000  0.17959000  1.0
  C  C140  1  0.96404000  0.67948000  0.86566000  1.0
  C  C141  1  0.03596000  0.17948000  0.13434000  1.0
  C  C142  1  0.83244000  0.59192000  0.63291000  1.0
  C  C143  1  0.16756000  0.09192000  0.36709000  1.0
  C  C144  1  0.73106000  0.65564000  0.65264000  1.0
  C  C145  1  0.26894000  0.15564000  0.34736000  1.0
  C  C146  1  0.63811000  0.75331000  0.70549000  1.0
  C  C147  1  0.36189000  0.25331000  0.29451000  1.0
  C  C148  1  0.61993000  0.81298000  0.75523000  1.0
  C  C149  1  0.38008000  0.31298000  0.24477000  1.0
  C  C150  1  0.65319000  0.79149000  0.02037000  1.0
  C  C151  1  0.34681000  0.29149000  0.97963000  1.0
  C  C152  1  0.78811000  0.84474000  0.03032000  1.0
  C  C153  1  0.21190000  0.34474000  0.96968000  1.0
  C  C154  1  0.74882000  0.91203000  0.05741000  1.0
  C  C155  1  0.25118000  0.41203000  0.94259000  1.0
  C  C156  1  0.87618000  0.95941000  0.06923000  1.0
  C  C157  1  0.12382000  0.45941000  0.93077000  1.0
  C  C158  1  0.04286000  0.93846000  0.05354000  1.0
  C  C159  1  0.95714000  0.43846000  0.94646000  1.0
  C  C160  1  0.08472000  0.87223000  0.02485000  1.0
  C  C161  1  0.91528000  0.37223000  0.97515000  1.0
  C  C162  1  0.95627000  0.82573000  0.01318000  1.0
  C  C163  1  0.04374000  0.32573000  0.98682000  1.0
  C  C164  1  0.13974000  0.07200000  0.96999000  1.0
  C  C165  1  0.86026000  0.57200000  0.03001000  1.0
  C  C166  1  0.22576000  0.04402000  0.02834000  1.0
  C  C167  1  0.77424000  0.54402000  0.97166000  1.0
  C  C168  1  0.29042000  0.97670000  0.11455000  1.0
  C  C169  1  0.70958000  0.47670000  0.88545000  1.0
  C  C170  1  0.28717000  0.91749000  0.16490000  1.0
  C  C171  1  0.71283000  0.41749000  0.83510000  1.0
  N  N172  1  0.40576000  0.62810000  0.09811000  1.0
  N  N173  1  0.59424000  0.12810000  0.90189000  1.0
  N  N174  1  0.48202000  0.57593000  0.13364000  1.0
  N  N175  1  0.51798000  0.07593000  0.86637000  1.0
  N  N176  1  0.25070000  0.61103000  0.19544000  1.0
  N  N177  1  0.74930000  0.11103000  0.80456000  1.0
  N  N178  1  0.41953000  0.52142000  0.54766000  1.0
  N  N179  1  0.58047000  0.02142000  0.45234000  1.0
  N  N180  1  0.47873000  0.47656000  0.59584000  1.0
  N  N181  1  0.52126000  0.97657000  0.40416000  1.0
  N  N182  1  0.27273000  0.42464000  0.54784000  1.0
  N  N183  1  0.72727000  0.92464000  0.45216000  1.0
  N  N184  1  0.59707000  0.67839000  0.62453000  1.0
  N  N185  1  0.40293000  0.17839000  0.37547000  1.0
  N  N186  1  0.53878000  0.73983000  0.65684000  1.0
  N  N187  1  0.46122000  0.23983000  0.34316000  1.0
  N  N188  1  0.76111000  0.70195000  0.70426000  1.0
  N  N189  1  0.23889000  0.20195000  0.29575000  1.0
  N  N190  1  0.36188000  0.06930000  0.05298000  1.0
  N  N191  1  0.63812000  0.56930000  0.94702000  1.0
  N  N192  1  0.40290000  0.02777000  0.10724000  1.0
  N  N193  1  0.59711000  0.52777000  0.89276000  1.0
  N  N194  1  0.17638000  0.98523000  0.06627000  1.0
  N  N195  1  0.82362000  0.48523000  0.93372000  1.0
  O  O196  1  0.74119000  0.62930000  0.46817000  1.0
  O  O197  1  0.25881000  0.12930000  0.53183000  1.0
  O  O198  1  0.55274000  0.61076000  0.39116000  1.0
  O  O199  1  0.44726000  0.11076000  0.60884000  1.0
  O  O200  1  0.79940000  0.17462000  0.45710000  1.0
  O  O201  1  0.20060000  0.67462000  0.54290000  1.0
  O  O202  1  0.60748000  0.24735000  0.51110000  1.0
  O  O203  1  0.39252000  0.74735000  0.48890000  1.0
  O  O204  1  0.70843000  0.73119000  0.99641000  1.0
  O  O205  1  0.29158000  0.23119000  0.00359000  1.0
  O  O206  1  0.50064000  0.80583000  0.03557000  1.0
  O  O207  1  0.49936000  0.30583000  0.96444000  1.0
  O  O208  1  0.21967000  0.65754000  0.95177000  1.0
  O  O209  1  0.78033000  0.15754000  0.04823000  1.0
  O  O210  1  0.41298000  0.70179000  0.87168000  1.0
  O  O211  1  0.58702000  0.20178000  0.12832000  1.0
