# generated using pymatgen
data_LiH9C5BrNO2
_symmetry_space_group_name_H-M   'P 1'
_cell_length_a   5.00881000
_cell_length_b   9.64423000
_cell_length_c   15.45020000
_cell_angle_alpha   89.99980000
_cell_angle_beta   90.00080000
_cell_angle_gamma   89.99980000
_symmetry_Int_Tables_number   1
_chemical_formula_structural   LiH9C5BrNO2
_chemical_formula_sum   'Li4 H36 C20 Br4 N4 O8'
_cell_volume   746.33914819
_cell_formula_units_Z   4
loop_
 _symmetry_equiv_pos_site_id
 _symmetry_equiv_pos_as_xyz
  1  'x, y, z'
loop_
 _atom_site_type_symbol
 _atom_site_label
 _atom_site_symmetry_multiplicity
 _atom_site_fract_x
 _atom_site_fract_y
 _atom_site_fract_z
 _atom_site_occupancy
  Li  Li0  1  0.02082000  0.24697000  0.93864000  1.0
  Li  Li1  1  0.52082000  0.25301000  0.06135000  1.0
  Li  Li2  1  0.47918000  0.75305000  0.43865000  1.0
  Li  Li3  1  0.97916000  0.74699000  0.56135000  1.0
  H  H4  1  0.34763000  0.51115000  0.76652000  1.0
  H  H5  1  0.84766000  0.98885000  0.23348000  1.0
  H  H6  1  0.15235000  0.48886000  0.26652000  1.0
  H  H7  1  0.65236000  0.01115000  0.73348000  1.0
  H  H8  1  0.86330000  0.45660000  0.82789000  1.0
  H  H9  1  0.36330000  0.04338000  0.17211000  1.0
  H  H10  1  0.63671000  0.54339000  0.32790000  1.0
  H  H11  1  0.13671000  0.95662000  0.67210000  1.0
  H  H12  1  0.64670000  0.55351000  0.72258000  1.0
  H  H13  1  0.14671000  0.94648000  0.27741000  1.0
  H  H14  1  0.85330000  0.44649000  0.22259000  1.0
  H  H15  1  0.35330000  0.05351000  0.77742000  1.0
  H  H16  1  0.27593000  0.74106000  0.77266000  1.0
  H  H17  1  0.77595000  0.75893000  0.22734000  1.0
  H  H18  1  0.22406000  0.25894000  0.27266000  1.0
  H  H19  1  0.72405000  0.24107000  0.72735000  1.0
  H  H20  1  0.62873000  0.77363000  0.76768000  1.0
  H  H21  1  0.12872000  0.72635000  0.23232000  1.0
  H  H22  1  0.87127000  0.22637000  0.26768000  1.0
  H  H23  1  0.37127000  0.27364000  0.73233000  1.0
  H  H24  1  0.31186000  0.68750000  0.92902000  1.0
  H  H25  1  0.81184000  0.81249000  0.07098000  1.0
  H  H26  1  0.18818000  0.31250000  0.42902000  1.0
  H  H27  1  0.68816000  0.18751000  0.57099000  1.0
  H  H28  1  0.54173000  0.82716000  0.91753000  1.0
  H  H29  1  0.04174000  0.67282000  0.08247000  1.0
  H  H30  1  0.95827000  0.17284000  0.41753000  1.0
  H  H31  1  0.45827000  0.32718000  0.58247000  1.0
  H  H32  1  0.72727000  0.58314000  0.98332000  1.0
  H  H33  1  0.22726000  0.91685000  0.01668000  1.0
  H  H34  1  0.77276000  0.41686000  0.48332000  1.0
  H  H35  1  0.27274000  0.08315000  0.51669000  1.0
  H  H36  1  0.91600000  0.66956000  0.90166000  1.0
  H  H37  1  0.41600000  0.83043000  0.09834000  1.0
  H  H38  1  0.58401000  0.33044000  0.40167000  1.0
  H  H39  1  0.08400000  0.16957000  0.59834000  1.0
  C  C40  1  0.51510000  0.38332000  0.89616000  1.0
  C  C41  1  0.01513000  0.11666000  0.10384000  1.0
  C  C42  1  0.98488000  0.61667000  0.39617000  1.0
  C  C43  1  0.48487000  0.88334000  0.60383000  1.0
  C  C44  1  0.67532000  0.49901000  0.85288000  1.0
  C  C45  1  0.17533000  0.00098000  0.14712000  1.0
  C  C46  1  0.82470000  0.50099000  0.35288000  1.0
  C  C47  1  0.32465000  0.99903000  0.64712000  1.0
  C  C48  1  0.47131000  0.71269000  0.79920000  1.0
  C  C49  1  0.97132000  0.78729000  0.20081000  1.0
  C  C50  1  0.02870000  0.28731000  0.29920000  1.0
  C  C51  1  0.52868000  0.21271000  0.70080000  1.0
  C  C52  1  0.49659000  0.72098000  0.89708000  1.0
  C  C53  1  0.99661000  0.77900000  0.10293000  1.0
  C  C54  1  0.00342000  0.27901000  0.39707000  1.0
  C  C55  1  0.50339000  0.22100000  0.60292000  1.0
  C  C56  1  0.72394000  0.61986000  0.91620000  1.0
  C  C57  1  0.22396000  0.88012000  0.08380000  1.0
  C  C58  1  0.77607000  0.38014000  0.41620000  1.0
  C  C59  1  0.27604000  0.11988000  0.58380000  1.0
  Br  Br60  1  0.99061000  0.01259000  0.85388000  1.0
  Br  Br61  1  0.49060000  0.48736000  0.14612000  1.0
  Br  Br62  1  0.50938000  0.98745000  0.35388000  1.0
  Br  Br63  1  0.00938000  0.51261000  0.64612000  1.0
  N  N64  1  0.52621000  0.56279000  0.77827000  1.0
  N  N65  1  0.02622000  0.93720000  0.22173000  1.0
  N  N66  1  0.97379000  0.43721000  0.27827000  1.0
  N  N67  1  0.47378000  0.06279000  0.72173000  1.0
  O  O68  1  0.26799000  0.37385000  0.88091000  1.0
  O  O69  1  0.76801000  0.12615000  0.11909000  1.0
  O  O70  1  0.23198000  0.62616000  0.38092000  1.0
  O  O71  1  0.73198000  0.87384000  0.61908000  1.0
  O  O72  1  0.64929000  0.30713000  0.94754000  1.0
  O  O73  1  0.14929000  0.19285000  0.05245000  1.0
  O  O74  1  0.85070000  0.69287000  0.44755000  1.0
  O  O75  1  0.35067000  0.80716000  0.55244000  1.0
