# generated using pymatgen
data_CuH8C9N8
_symmetry_space_group_name_H-M   'P 1'
_cell_length_a   7.37479000
_cell_length_b   8.58048000
_cell_length_c   10.35720000
_cell_angle_alpha   102.60400000
_cell_angle_beta   93.68660000
_cell_angle_gamma   112.96600000
_symmetry_Int_Tables_number   1
_chemical_formula_structural   CuH8C9N8
_chemical_formula_sum   'Cu2 H16 C18 N16'
_cell_volume   580.70283139
_cell_formula_units_Z   2
loop_
 _symmetry_equiv_pos_site_id
 _symmetry_equiv_pos_as_xyz
  1  'x, y, z'
loop_
 _atom_site_type_symbol
 _atom_site_label
 _atom_site_symmetry_multiplicity
 _atom_site_fract_x
 _atom_site_fract_y
 _atom_site_fract_z
 _atom_site_occupancy
  Cu  Cu0  1  0.00000000  0.00000000  0.00000000  1.0
  Cu  Cu1  1  0.50000000  0.99999000  0.50000000  1.0
  H  H2  1  0.83839000  0.72485000  0.13316000  1.0
  H  H3  1  0.16162000  0.27515000  0.86684000  1.0
  H  H4  1  0.66967000  0.31774000  0.77593000  1.0
  H  H5  1  0.33033000  0.68227000  0.22406000  1.0
  H  H6  1  0.89560000  0.78996000  0.70109000  1.0
  H  H7  1  0.10441000  0.21005000  0.29891000  1.0
  H  H8  1  0.67693000  0.59358000  0.62615000  1.0
  H  H9  1  0.32308000  0.40643000  0.37385000  1.0
  H  H10  1  0.91449000  0.58787000  0.63619000  1.0
  H  H11  1  0.08552000  0.41214000  0.36381000  1.0
  H  H12  1  0.71061000  0.42750000  0.18221000  1.0
  H  H13  1  0.28938000  0.57251000  0.81779000  1.0
  H  H14  1  0.75270000  0.26706000  0.06276000  1.0
  H  H15  1  0.24730000  0.73294000  0.93724000  1.0
  H  H16  1  0.51391000  0.27258000  0.05151000  1.0
  H  H17  1  0.48609000  0.72742000  0.94849000  1.0
  C  C18  1  0.80422000  0.60929000  0.82234000  1.0
  C  C19  1  0.19579000  0.39071000  0.17766000  1.0
  C  C20  1  0.72611000  0.44370000  0.84953000  1.0
  C  C21  1  0.27390000  0.55630000  0.15047000  1.0
  C  C22  1  0.73665000  0.47511000  0.98819000  1.0
  C  C23  1  0.26335000  0.52489000  0.01181000  1.0
  C  C24  1  0.82435000  0.64842000  0.68944000  1.0
  C  C25  1  0.17566000  0.35159000  0.31056000  1.0
  C  C26  1  0.67531000  0.35437000  0.07629000  1.0
  C  C27  1  0.32469000  0.64563000  0.92371000  1.0
  C  C28  1  0.34315000  0.99495000  0.78796000  1.0
  C  C29  1  0.65684000  0.00504000  0.21204000  1.0
  C  C30  1  0.64814000  0.98826000  0.81424000  1.0
  C  C31  1  0.35185000  0.01173000  0.18576000  1.0
  C  C32  1  0.95103000  0.21351000  0.58904000  1.0
  C  C33  1  0.04896000  0.78647000  0.41096000  1.0
  C  C34  1  0.26440000  0.21639000  0.58566000  1.0
  C  C35  1  0.73560000  0.78360000  0.41434000  1.0
  N  N36  1  0.86020000  0.73543000  0.93915000  1.0
  N  N37  1  0.13980000  0.26457000  0.06085000  1.0
  N  N38  1  0.81914000  0.65159000  0.03732000  1.0
  N  N39  1  0.18087000  0.34841000  0.96268000  1.0
  N  N40  1  0.20949000  0.02826000  0.82049000  1.0
  N  N41  1  0.79051000  0.97174000  0.17951000  1.0
  N  N42  1  0.48281000  0.95427000  0.73979000  1.0
  N  N43  1  0.51718000  0.04573000  0.26021000  1.0
  N  N44  1  0.80585000  0.01953000  0.87244000  1.0
  N  N45  1  0.19415000  0.98047000  0.12756000  1.0
  N  N46  1  0.78016000  0.17522000  0.55509000  1.0
  N  N47  1  0.21983000  0.82477000  0.44491000  1.0
  N  N48  1  0.13805000  0.27090000  0.63692000  1.0
  N  N49  1  0.86195000  0.72909000  0.36308000  1.0
  N  N50  1  0.39420000  0.18134000  0.54660000  1.0
  N  N51  1  0.60580000  0.81864000  0.45339000  1.0
