# generated using pymatgen
data_Zn3H10C18(NO2)4
_symmetry_space_group_name_H-M   'P 1'
_cell_length_a   9.52645801
_cell_length_b   9.53055000
_cell_length_c   13.70810000
_cell_angle_alpha   87.65390000
_cell_angle_beta   87.58684734
_cell_angle_gamma   72.47842903
_symmetry_Int_Tables_number   1
_chemical_formula_structural   Zn3H10C18(NO2)4
_chemical_formula_sum   'Zn6 H20 C36 N8 O16'
_cell_volume   1185.27240414
_cell_formula_units_Z   2
loop_
 _symmetry_equiv_pos_site_id
 _symmetry_equiv_pos_as_xyz
  1  'x, y, z'
loop_
 _atom_site_type_symbol
 _atom_site_label
 _atom_site_symmetry_multiplicity
 _atom_site_fract_x
 _atom_site_fract_y
 _atom_site_fract_z
 _atom_site_occupancy
  Zn  Zn0  1  0.57140000  0.02010000  0.23562000  1.0
  Zn  Zn1  1  0.98054000  0.42918000  0.26394000  1.0
  Zn  Zn2  1  0.42856000  0.97993000  0.76438000  1.0
  Zn  Zn3  1  0.01942000  0.57076000  0.73610000  1.0
  Zn  Zn4  1  0.75381000  0.24680000  0.24951000  1.0
  Zn  Zn5  1  0.24621000  0.75317000  0.75046000  1.0
  H  H6  1  0.33131000  0.51052000  0.08261000  1.0
  H  H7  1  0.48998000  0.66757000  0.41761000  1.0
  H  H8  1  0.66869000  0.48951000  0.91741000  1.0
  H  H9  1  0.51000000  0.33240000  0.58240000  1.0
  H  H10  1  0.13833000  0.58434000  0.95649000  1.0
  H  H11  1  0.41554000  0.86058000  0.54390000  1.0
  H  H12  1  0.86164000  0.41566000  0.04351000  1.0
  H  H13  1  0.58444000  0.13935000  0.45609000  1.0
  H  H14  1  0.55703000  0.11464000  0.93102000  1.0
  H  H15  1  0.88543000  0.44205000  0.56949000  1.0
  H  H16  1  0.44297000  0.88536000  0.06899000  1.0
  H  H17  1  0.11461000  0.55797000  0.43050000  1.0
  H  H18  1  0.03212000  0.22075000  0.68812000  1.0
  H  H19  1  0.77838000  0.96687000  0.81276000  1.0
  H  H20  1  0.96793000  0.77925000  0.31189000  1.0
  H  H21  1  0.22164000  0.03312000  0.18723000  1.0
  H  H22  1  0.14595000  0.27377000  0.59504000  1.0
  H  H23  1  0.72516000  0.85313000  0.90567000  1.0
  H  H24  1  0.85403000  0.72631000  0.40497000  1.0
  H  H25  1  0.27478000  0.14693000  0.09432000  1.0
  C  C26  1  0.55619000  0.24603000  0.09459000  1.0
  C  C27  1  0.75491000  0.44375000  0.40531000  1.0
  C  C28  1  0.44384000  0.75399000  0.90538000  1.0
  C  C29  1  0.24507000  0.55623000  0.59471000  1.0
  C  C30  1  0.45588000  0.30995000  0.01298000  1.0
  C  C31  1  0.69050000  0.54330000  0.48730000  1.0
  C  C32  1  0.54414000  0.69008000  0.98702000  1.0
  C  C33  1  0.30948000  0.45668000  0.51271000  1.0
  C  C34  1  0.33913000  0.44298000  0.01916000  1.0
  C  C35  1  0.55739000  0.65991000  0.48105000  1.0
  C  C36  1  0.66086000  0.55704000  0.98084000  1.0
  C  C37  1  0.44260000  0.34009000  0.51896000  1.0
  C  C38  1  0.23140000  0.48486000  0.94872000  1.0
  C  C39  1  0.51510000  0.76763000  0.55158000  1.0
  C  C40  1  0.76860000  0.51512000  0.05126000  1.0
  C  C41  1  0.48488000  0.23236000  0.44844000  1.0
  C  C42  1  0.24506000  0.39251000  0.86941000  1.0
  C  C43  1  0.60711000  0.75395000  0.63104000  1.0
  C  C44  1  0.75496000  0.60748000  0.13058000  1.0
  C  C45  1  0.39284000  0.24605000  0.36899000  1.0
  C  C46  1  0.36696000  0.26420000  0.86130000  1.0
  C  C47  1  0.73534000  0.63201000  0.63927000  1.0
  C  C48  1  0.63309000  0.73580000  0.13869000  1.0
  C  C49  1  0.26461000  0.36797000  0.36074000  1.0
  C  C50  1  0.47095000  0.21979000  0.93286000  1.0
  C  C51  1  0.78019000  0.52805000  0.56760000  1.0
  C  C52  1  0.52908000  0.78022000  0.06715000  1.0
  C  C53  1  0.21981000  0.47193000  0.43240000  1.0
  C  C54  1  0.21927000  0.26690000  0.74359000  1.0
  C  C55  1  0.73223000  0.77982000  0.75708000  1.0
  C  C56  1  0.78076000  0.73312000  0.25641000  1.0
  C  C57  1  0.26773000  0.22015000  0.24293000  1.0
  C  C58  1  0.14707000  0.20951000  0.66410000  1.0
  C  C59  1  0.78957000  0.85200000  0.83664000  1.0
  C  C60  1  0.85298000  0.79053000  0.33590000  1.0
  C  C61  1  0.21041000  0.14802000  0.16336000  1.0
  N  N62  1  0.15317000  0.39260000  0.79251000  1.0
  N  N63  1  0.60680000  0.84592000  0.70800000  1.0
  N  N64  1  0.84684000  0.60739000  0.20749000  1.0
  N  N65  1  0.39316000  0.15409000  0.29200000  1.0
  N  N66  1  0.34892000  0.19011000  0.78040000  1.0
  N  N67  1  0.80909000  0.65011000  0.72033000  1.0
  N  N68  1  0.65113000  0.80993000  0.21958000  1.0
  N  N69  1  0.19086000  0.34986000  0.27969000  1.0
  O  O70  1  0.59251000  0.32834000  0.15399000  1.0
  O  O71  1  0.67288000  0.40710000  0.34589000  1.0
  O  O72  1  0.40755000  0.67169000  0.84597000  1.0
  O  O73  1  0.32709000  0.59290000  0.65412000  1.0
  O  O74  1  0.59827000  0.10504000  0.10145000  1.0
  O  O75  1  0.89594000  0.40263000  0.39826000  1.0
  O  O76  1  0.40173000  0.89500000  0.89857000  1.0
  O  O77  1  0.10405000  0.59733000  0.60176000  1.0
  O  O78  1  0.76722000  0.03376000  0.27323000  1.0
  O  O79  1  0.96702000  0.23344000  0.22606000  1.0
  O  O80  1  0.23280000  0.96625000  0.72668000  1.0
  O  O81  1  0.03302000  0.76647000  0.77397000  1.0
  O  O82  1  0.22063000  0.06290000  0.63566000  1.0
  O  O83  1  0.93621000  0.77841000  0.86496000  1.0
  O  O84  1  0.77943000  0.93715000  0.36429000  1.0
  O  O85  1  0.06376000  0.22157000  0.13506000  1.0
