# generated using pymatgen
data_AlH27(C5O)9
_symmetry_space_group_name_H-M   'P 1'
_cell_length_a   3.96819000
_cell_length_b   23.52260000
_cell_length_c   23.52720000
_cell_angle_alpha   60.02270000
_cell_angle_beta   87.24100000
_cell_angle_gamma   86.94420000
_symmetry_Int_Tables_number   1
_chemical_formula_structural   AlH27(C5O)9
_chemical_formula_sum   'Al1 H27 C45 O9'
_cell_volume   1899.00365915
_cell_formula_units_Z   1
loop_
 _symmetry_equiv_pos_site_id
 _symmetry_equiv_pos_as_xyz
  1  'x, y, z'
loop_
 _atom_site_type_symbol
 _atom_site_label
 _atom_site_symmetry_multiplicity
 _atom_site_fract_x
 _atom_site_fract_y
 _atom_site_fract_z
 _atom_site_occupancy
  Al  Al0  1  0.00040000  0.49965000  0.50012000  1.0
  H  H1  1  0.48626000  0.31812000  0.68100000  1.0
  H  H2  1  0.46939000  0.25636000  0.80222000  1.0
  H  H3  1  0.85185000  0.16650000  0.01315000  1.0
  H  H4  1  0.43280000  0.68298000  0.31758000  1.0
  H  H5  1  0.48537000  0.80359000  0.25725000  1.0
  H  H6  1  0.22792000  0.89692000  0.22754000  1.0
  H  H7  1  0.23701000  0.01693000  0.16562000  1.0
  H  H8  1  0.52609000  0.10628000  0.10477000  1.0
  H  H9  1  0.51226000  0.68009000  0.50059000  1.0
  H  H10  1  0.49241000  0.80114000  0.44189000  1.0
  H  H11  1  0.83132000  0.01245000  0.31690000  1.0
  H  H12  1  0.51113000  0.31733000  0.49930000  1.0
  H  H13  1  0.55826000  0.25724000  0.43767000  1.0
  H  H14  1  0.26089000  0.23078000  0.37849000  1.0
  H  H15  1  0.25235000  0.16839000  0.32055000  1.0
  H  H16  1  0.54491000  0.10488000  0.28814000  1.0
  H  H17  1  0.56449000  0.50085000  0.31797000  1.0
  H  H18  1  0.54451000  0.44221000  0.25583000  1.0
  H  H19  1  0.87215000  0.31355000  0.16496000  1.0
  H  H20  1  0.46887000  0.49991000  0.68333000  1.0
  H  H21  1  0.51163000  0.43813000  0.80439000  1.0
  H  H22  1  0.20351000  0.37755000  0.89693000  1.0
  H  H23  1  0.21658000  0.31914000  0.01757000  1.0
  H  H24  1  0.54777000  0.28813000  0.10601000  1.0
  H  H25  1  0.96495000  0.39907000  0.24684000  1.0
  H  H26  1  0.90278000  0.24908000  0.84313000  1.0
  H  H27  1  0.91042000  0.84406000  0.40182000  1.0
  C  C28  1  0.48736000  0.44969000  0.60122000  1.0
  C  C29  1  0.52905000  0.44882000  0.44977000  1.0
  C  C30  1  0.48368000  0.60065000  0.44911000  1.0
  C  C31  1  0.48821000  0.34430000  0.70832000  1.0
  C  C32  1  0.48758000  0.30969000  0.77666000  1.0
  C  C33  1  0.69757000  0.24553000  0.92032000  1.0
  C  C34  1  0.70025000  0.21198000  0.98871000  1.0
  C  C35  1  0.45632000  0.70927000  0.34437000  1.0
  C  C36  1  0.48113000  0.77715000  0.31075000  1.0
  C  C37  1  0.36987000  0.92216000  0.24639000  1.0
  C  C38  1  0.37390000  0.99017000  0.21122000  1.0
  C  C39  1  0.48187000  0.41295000  0.67432000  1.0
  C  C40  1  0.50160000  0.34235000  0.81308000  1.0
  C  C41  1  0.51737000  0.30629000  0.88532000  1.0
  C  C42  1  0.53170000  0.23780000  0.02481000  1.0
  C  C43  1  0.53611000  0.20129000  0.09724000  1.0
  C  C44  1  0.53184000  0.13254000  0.13196000  1.0
  C  C45  1  0.50139000  0.70753000  0.44719000  1.0
  C  C46  1  0.50106000  0.77585000  0.41358000  1.0
  C  C47  1  0.68899000  0.91992000  0.33187000  1.0
  C  C48  1  0.68810000  0.98831000  0.29711000  1.0
  C  C49  1  0.52863000  0.34423000  0.44581000  1.0
  C  C50  1  0.55011000  0.31078000  0.41097000  1.0
  C  C51  1  0.40351000  0.24808000  0.33232000  1.0
  C  C52  1  0.39854000  0.21263000  0.29978000  1.0
  C  C53  1  0.47807000  0.67361000  0.41287000  1.0
  C  C54  1  0.50407000  0.81250000  0.34423000  1.0
  C  C55  1  0.52279000  0.88468000  0.30778000  1.0
  C  C56  1  0.53130000  0.02462000  0.23665000  1.0
  C  C57  1  0.53472000  0.09706000  0.20069000  1.0
  C  C58  1  0.54268000  0.13181000  0.23466000  1.0
  C  C59  1  0.55976000  0.44737000  0.34402000  1.0
  C  C60  1  0.55803000  0.41381000  0.30923000  1.0
  C  C61  1  0.73796000  0.33024000  0.24434000  1.0
  C  C62  1  0.72842000  0.29523000  0.21106000  1.0
  C  C63  1  0.47670000  0.44635000  0.70972000  1.0
  C  C64  1  0.49623000  0.41150000  0.77774000  1.0
  C  C65  1  0.35316000  0.33186000  0.92252000  1.0
  C  C66  1  0.35972000  0.29901000  0.99056000  1.0
  C  C67  1  0.54146000  0.41288000  0.41260000  1.0
  C  C68  1  0.56199000  0.34451000  0.34176000  1.0
  C  C69  1  0.56916000  0.30793000  0.30586000  1.0
  C  C70  1  0.55902000  0.23635000  0.23778000  1.0
  C  C71  1  0.54838000  0.20050000  0.20132000  1.0
  C  C72  1  0.54422000  0.23463000  0.13256000  1.0
  O  O73  1  0.26097000  0.57189000  0.43608000  1.0
  O  O74  1  0.24744000  0.49146000  0.57244000  1.0
  O  O75  1  0.28923000  0.43592000  0.49223000  1.0
  O  O76  1  0.71403000  0.57150000  0.49133000  1.0
  O  O77  1  0.75689000  0.49022000  0.43671000  1.0
  O  O78  1  0.73421000  0.43657000  0.57234000  1.0
  O  O79  1  0.92622000  0.38544000  0.21474000  1.0
  O  O80  1  0.88631000  0.21728000  0.89006000  1.0
  O  O81  1  0.86745000  0.89027000  0.38862000  1.0
