# generated using pymatgen
data_CuH16C13N2O5
_symmetry_space_group_name_H-M   'P 1'
_cell_length_a   7.96504000
_cell_length_b   8.68824000
_cell_length_c   10.74860000
_cell_angle_alpha   98.91270000
_cell_angle_beta   96.27490000
_cell_angle_gamma   94.49980000
_symmetry_Int_Tables_number   1
_chemical_formula_structural   CuH16C13N2O5
_chemical_formula_sum   'Cu2 H32 C26 N4 O10'
_cell_volume   726.98848683
_cell_formula_units_Z   2
loop_
 _symmetry_equiv_pos_site_id
 _symmetry_equiv_pos_as_xyz
  1  'x, y, z'
loop_
 _atom_site_type_symbol
 _atom_site_label
 _atom_site_symmetry_multiplicity
 _atom_site_fract_x
 _atom_site_fract_y
 _atom_site_fract_z
 _atom_site_occupancy
  Cu  Cu0  1  0.46093000  0.47572000  0.11085000  1.0
  Cu  Cu1  1  0.53907000  0.52426000  0.88916000  1.0
  H  H2  1  0.53122000  0.21431000  0.69173000  1.0
  H  H3  1  0.46877000  0.78569000  0.30827000  1.0
  H  H4  1  0.63501000  0.31590000  0.31338000  1.0
  H  H5  1  0.36498000  0.68410000  0.68661000  1.0
  H  H6  1  0.29743000  0.23031000  0.58805000  1.0
  H  H7  1  0.70257000  0.76970000  0.41195000  1.0
  H  H8  1  0.08624000  0.37393000  0.47459000  1.0
  H  H9  1  0.91375000  0.62607000  0.52542000  1.0
  H  H10  1  0.16623000  0.49132000  0.28737000  1.0
  H  H11  1  0.83375000  0.50867000  0.71263000  1.0
  H  H12  1  0.80660000  0.00778000  0.64262000  1.0
  H  H13  1  0.19338000  0.99221000  0.35737000  1.0
  H  H14  1  0.69220000  0.02598000  0.77793000  1.0
  H  H15  1  0.30779000  0.97401000  0.22206000  1.0
  H  H16  1  0.84687000  0.17891000  0.76143000  1.0
  H  H17  1  0.15313000  0.82108000  0.23857000  1.0
  H  H18  1  0.02706000  0.75907000  0.03587000  1.0
  H  H19  1  0.97295000  0.24092000  0.96411000  1.0
  H  H20  1  0.96021000  0.61251000  0.90493000  1.0
  H  H21  1  0.03980000  0.38749000  0.09506000  1.0
  H  H22  1  0.11425000  0.77276000  0.76485000  1.0
  H  H23  1  0.88574000  0.22725000  0.23513000  1.0
  H  H24  1  0.95395000  0.86997000  0.83565000  1.0
  H  H25  1  0.04606000  0.13006000  0.16437000  1.0
  H  H26  1  0.16780000  0.02394000  0.00430000  1.0
  H  H27  1  0.83219000  0.97607000  0.99569000  1.0
  H  H28  1  0.33082000  0.91976000  0.94459000  1.0
  H  H29  1  0.66920000  0.08026000  0.05543000  1.0
  H  H30  1  0.29480000  0.02982000  0.74489000  1.0
  H  H31  1  0.70523000  0.97020000  0.25510000  1.0
  H  H32  1  0.11591000  0.11808000  0.78933000  1.0
  H  H33  1  0.88411000  0.88192000  0.21067000  1.0
  C  C34  1  0.51556000  0.32887000  0.35275000  1.0
  C  C35  1  0.48443000  0.67113000  0.64725000  1.0
  C  C36  1  0.48601000  0.26470000  0.46084000  1.0
  C  C37  1  0.51398000  0.73529000  0.53916000  1.0
  C  C38  1  0.32877000  0.28068000  0.50587000  1.0
  C  C39  1  0.67123000  0.71933000  0.49413000  1.0
  C  C40  1  0.21072000  0.36153000  0.44307000  1.0
  C  C41  1  0.78927000  0.63847000  0.55693000  1.0
  C  C42  1  0.25334000  0.42467000  0.33798000  1.0
  C  C43  1  0.74665000  0.57533000  0.66202000  1.0
  C  C44  1  0.62608000  0.18220000  0.51894000  1.0
  C  C45  1  0.37392000  0.81781000  0.48106000  1.0
  C  C46  1  0.74804000  0.08925000  0.70918000  1.0
  C  C47  1  0.25195000  0.91075000  0.29082000  1.0
  C  C48  1  0.22255000  0.62682000  0.96834000  1.0
  C  C49  1  0.77745000  0.37318000  0.03165000  1.0
  C  C50  1  0.06199000  0.70603000  0.94397000  1.0
  C  C51  1  0.93802000  0.29397000  0.05602000  1.0
  C  C52  1  0.07884000  0.82723000  0.85636000  1.0
  C  C53  1  0.92117000  0.17278000  0.14363000  1.0
  C  C54  1  0.20895000  0.96425000  0.91663000  1.0
  C  C55  1  0.79106000  0.03575000  0.08337000  1.0
  C  C56  1  0.23820000  0.08218000  0.82836000  1.0
  C  C57  1  0.76182000  0.91782000  0.17163000  1.0
  C  C58  1  0.34279000  0.23277000  0.89194000  1.0
  C  C59  1  0.65720000  0.76723000  0.10807000  1.0
  N  N60  1  0.40289000  0.40778000  0.29254000  1.0
  N  N61  1  0.59710000  0.59222000  0.70746000  1.0
  N  N62  1  0.61718000  0.16025000  0.63990000  1.0
  N  N63  1  0.38281000  0.83975000  0.36010000  1.0
  O  O64  1  0.25114000  0.58133000  0.07551000  1.0
  O  O65  1  0.74886000  0.41866000  0.92449000  1.0
  O  O66  1  0.31571000  0.61058000  0.87918000  1.0
  O  O67  1  0.68429000  0.38941000  0.12082000  1.0
  O  O68  1  0.34624000  0.27240000  0.01090000  1.0
  O  O69  1  0.65376000  0.72758000  0.98911000  1.0
  O  O70  1  0.41661000  0.31189000  0.81867000  1.0
  O  O71  1  0.58339000  0.68811000  0.18134000  1.0
  O  O72  1  0.74255000  0.13869000  0.45712000  1.0
  O  O73  1  0.25747000  0.86132000  0.54289000  1.0
