# generated using pymatgen
data_AgH8C12S2I2NO4
_symmetry_space_group_name_H-M   'P 1'
_cell_length_a   8.99361000
_cell_length_b   9.13185000
_cell_length_c   10.82880000
_cell_angle_alpha   92.38230000
_cell_angle_beta   111.56400000
_cell_angle_gamma   110.88600000
_symmetry_Int_Tables_number   1
_chemical_formula_structural   AgH8C12S2I2NO4
_chemical_formula_sum   'Ag2 H16 C24 S4 I4 N2 O8'
_cell_volume   757.35629693
_cell_formula_units_Z   2
loop_
 _symmetry_equiv_pos_site_id
 _symmetry_equiv_pos_as_xyz
  1  'x, y, z'
loop_
 _atom_site_type_symbol
 _atom_site_label
 _atom_site_symmetry_multiplicity
 _atom_site_fract_x
 _atom_site_fract_y
 _atom_site_fract_z
 _atom_site_occupancy
  Ag  Ag0  1  0.83060000  0.55156000  0.60284000  1.0
  Ag  Ag1  1  0.16940000  0.44844000  0.39716000  1.0
  H  H2  1  0.42339000  0.38038000  0.95724000  1.0
  H  H3  1  0.57662000  0.61962000  0.04276000  1.0
  H  H4  1  0.22993000  0.13749000  0.99770000  1.0
  H  H5  1  0.77008000  0.86251000  0.00230000  1.0
  H  H6  1  0.04960000  0.90222000  0.58361000  1.0
  H  H7  1  0.95040000  0.09778000  0.41639000  1.0
  H  H8  1  0.24188000  0.15070000  0.54244000  1.0
  H  H9  1  0.75813000  0.84930000  0.45756000  1.0
  H  H10  1  0.45731000  0.94881000  0.90147000  1.0
  H  H11  1  0.54269000  0.05119000  0.09853000  1.0
  H  H12  1  0.69415000  0.21582000  0.93978000  1.0
  H  H13  1  0.30585000  0.78417000  0.06023000  1.0
  H  H14  1  0.74507000  0.05601000  0.58156000  1.0
  H  H15  1  0.25493000  0.94400000  0.41844000  1.0
  H  H16  1  0.51071000  0.78897000  0.54609000  1.0
  H  H17  1  0.48929000  0.21103000  0.45391000  1.0
  C  C18  1  0.33962000  0.28119000  0.74577000  1.0
  C  C19  1  0.66038000  0.71881000  0.25423000  1.0
  C  C20  1  0.34043000  0.27761000  0.87446000  1.0
  C  C21  1  0.65957000  0.72239000  0.12554000  1.0
  C  C22  1  0.23112000  0.13910000  0.89766000  1.0
  C  C23  1  0.76889000  0.86090000  0.10234000  1.0
  C  C24  1  0.12356000  0.00709000  0.79143000  1.0
  C  C25  1  0.87644000  0.99291000  0.20857000  1.0
  C  C26  1  0.12739000  0.00841000  0.66363000  1.0
  C  C27  1  0.87261000  0.99159000  0.33637000  1.0
  C  C28  1  0.23598000  0.14678000  0.64100000  1.0
  C  C29  1  0.76402000  0.85322000  0.35900000  1.0
  C  C30  1  0.47259000  0.85409000  0.72348000  1.0
  C  C31  1  0.52741000  0.14591000  0.27652000  1.0
  C  C32  1  0.52258000  0.97355000  0.83309000  1.0
  C  C33  1  0.47742000  0.02644000  0.16691000  1.0
  C  C34  1  0.65484000  0.12295000  0.85390000  1.0
  C  C35  1  0.34516000  0.87705000  0.14610000  1.0
  C  C36  1  0.73522000  0.14990000  0.76340000  1.0
  C  C37  1  0.26478000  0.85010000  0.23661000  1.0
  C  C38  1  0.68245000  0.03180000  0.65190000  1.0
  C  C39  1  0.31755000  0.96820000  0.34810000  1.0
  C  C40  1  0.55024000  0.88249000  0.63155000  1.0
  C  C41  1  0.44976000  0.11752000  0.36845000  1.0
  S  S42  1  0.46762000  0.45671000  0.70813000  1.0
  S  S43  1  0.53239000  0.54329000  0.29187000  1.0
  S  S44  1  0.29628000  0.66831000  0.69658000  1.0
  S  S45  1  0.70372000  0.33169000  0.30341000  1.0
  I  I46  1  0.94510000  0.80405000  0.82210000  1.0
  I  I47  1  0.05490000  0.19595000  0.17790000  1.0
  I  I48  1  0.94862000  0.36681000  0.79911000  1.0
  I  I49  1  0.05138000  0.63319000  0.20089000  1.0
  N  N50  1  0.33056000  0.53232000  0.62386000  1.0
  N  N51  1  0.66944000  0.46768000  0.37614000  1.0
  O  O52  1  0.52271000  0.40102000  0.61155000  1.0
  O  O53  1  0.47729000  0.59899000  0.38845000  1.0
  O  O54  1  0.60197000  0.56320000  0.83441000  1.0
  O  O55  1  0.39803000  0.43680000  0.16559000  1.0
  O  O56  1  0.14158000  0.67712000  0.59319000  1.0
  O  O57  1  0.85842000  0.32288000  0.40681000  1.0
  O  O58  1  0.29294000  0.64527000  0.82796000  1.0
  O  O59  1  0.70706000  0.35473000  0.17204000  1.0
