# generated using pymatgen
data_Zn4H24(C14O5)3
_symmetry_space_group_name_H-M   'P 1'
_cell_length_a   17.32440000
_cell_length_b   19.82940000
_cell_length_c   27.30760000
_cell_angle_alpha   89.99990000
_cell_angle_beta   89.99990000
_cell_angle_gamma   89.99990000
_symmetry_Int_Tables_number   1
_chemical_formula_structural   Zn4H24(C14O5)3
_chemical_formula_sum   'Zn16 H96 C168 O60'
_cell_volume   9381.04693256
_cell_formula_units_Z   4
loop_
 _symmetry_equiv_pos_site_id
 _symmetry_equiv_pos_as_xyz
  1  'x, y, z'
loop_
 _atom_site_type_symbol
 _atom_site_label
 _atom_site_symmetry_multiplicity
 _atom_site_fract_x
 _atom_site_fract_y
 _atom_site_fract_z
 _atom_site_occupancy
  Zn  Zn0  1  0.72793000  0.16989000  0.40551000  1.0
  Zn  Zn1  1  0.77207000  0.83011000  0.90551000  1.0
  Zn  Zn2  1  0.27207000  0.66989000  0.59449000  1.0
  Zn  Zn3  1  0.22793000  0.33011000  0.09450000  1.0
  Zn  Zn4  1  0.27207000  0.83011000  0.59449000  1.0
  Zn  Zn5  1  0.22793000  0.16989000  0.09449000  1.0
  Zn  Zn6  1  0.72793000  0.33011000  0.40551000  1.0
  Zn  Zn7  1  0.77207000  0.66989000  0.90551000  1.0
  Zn  Zn8  1  0.59925000  0.25000000  0.34501000  1.0
  Zn  Zn9  1  0.90075000  0.75000000  0.84501000  1.0
  Zn  Zn10  1  0.40075000  0.75000000  0.65499000  1.0
  Zn  Zn11  1  0.09925000  0.25000000  0.15499000  1.0
  Zn  Zn12  1  0.59335000  0.25000000  0.46293000  1.0
  Zn  Zn13  1  0.90666000  0.75000000  0.96293000  1.0
  Zn  Zn14  1  0.40666000  0.75000000  0.53707000  1.0
  Zn  Zn15  1  0.09334000  0.25000000  0.03707000  1.0
  H  H16  1  0.76290000  0.02149000  0.50819000  1.0
  H  H17  1  0.73710000  0.97851000  0.00820000  1.0
  H  H18  1  0.23710000  0.52149000  0.49181000  1.0
  H  H19  1  0.26290000  0.47852000  0.99181000  1.0
  H  H20  1  0.23710000  0.97851000  0.49180000  1.0
  H  H21  1  0.26290000  0.02149000  0.99180000  1.0
  H  H22  1  0.76290000  0.47851000  0.50820000  1.0
  H  H23  1  0.73710000  0.52149000  0.00819000  1.0
  H  H24  1  0.64095000  0.16281000  0.59867000  1.0
  H  H25  1  0.85905000  0.83719000  0.09867000  1.0
  H  H26  1  0.35905000  0.66281000  0.40133000  1.0
  H  H27  1  0.14096000  0.33719000  0.90133000  1.0
  H  H28  1  0.35905000  0.83719000  0.40133000  1.0
  H  H29  1  0.14095000  0.16281000  0.90132000  1.0
  H  H30  1  0.64095000  0.33719000  0.59867000  1.0
  H  H31  1  0.85905000  0.66281000  0.09867000  1.0
  H  H32  1  0.68854000  0.10285000  0.67301000  1.0
  H  H33  1  0.81147000  0.89715000  0.17301000  1.0
  H  H34  1  0.31146000  0.60285000  0.32699000  1.0
  H  H35  1  0.18854000  0.39715000  0.82699000  1.0
  H  H36  1  0.31147000  0.89715000  0.32699000  1.0
  H  H37  1  0.18854000  0.10285000  0.82699000  1.0
  H  H38  1  0.68853000  0.39715000  0.67301000  1.0
  H  H39  1  0.81146000  0.60286000  0.17301000  1.0
  H  H40  1  0.88894000  0.96509000  0.65609000  1.0
  H  H41  1  0.61106000  0.03491000  0.15609000  1.0
  H  H42  1  0.11106000  0.46509000  0.34391000  1.0
  H  H43  1  0.38894000  0.53492000  0.84391000  1.0
  H  H44  1  0.11107000  0.03491000  0.34391000  1.0
  H  H45  1  0.38894000  0.96509000  0.84391000  1.0
  H  H46  1  0.88893000  0.53491000  0.65609000  1.0
  H  H47  1  0.61106000  0.46509000  0.15609000  1.0
  H  H48  1  0.66090000  0.00451000  0.71221000  1.0
  H  H49  1  0.83910000  0.99549000  0.21222000  1.0
  H  H50  1  0.33909000  0.50451000  0.28779000  1.0
  H  H51  1  0.16091000  0.49549000  0.78779000  1.0
  H  H52  1  0.33910000  0.99549000  0.28778000  1.0
  H  H53  1  0.16090000  0.00451000  0.78778000  1.0
  H  H54  1  0.66090000  0.49549000  0.71222000  1.0
  H  H55  1  0.83910000  0.50451000  0.21222000  1.0
  H  H56  1  0.91845000  0.89741000  0.73034000  1.0
  H  H57  1  0.58155000  0.10259000  0.23034000  1.0
  H  H58  1  0.08155000  0.39741000  0.26967000  1.0
  H  H59  1  0.41845000  0.60259000  0.76966000  1.0
  H  H60  1  0.08155000  0.10259000  0.26966000  1.0
  H  H61  1  0.41845000  0.89741000  0.76966000  1.0
  H  H62  1  0.91845000  0.60259000  0.73034000  1.0
  H  H63  1  0.58155000  0.39741000  0.23034000  1.0
  H  H64  1  0.69366000  0.94138000  0.78815000  1.0
  H  H65  1  0.80634000  0.05862000  0.28816000  1.0
  H  H66  1  0.30633000  0.44138000  0.21184000  1.0
  H  H67  1  0.19366000  0.55862000  0.71184000  1.0
  H  H68  1  0.30634000  0.05862000  0.21184000  1.0
  H  H69  1  0.19366000  0.94138000  0.71184000  1.0
  H  H70  1  0.69366000  0.55862000  0.78816000  1.0
  H  H71  1  0.80634000  0.44138000  0.28816000  1.0
  H  H72  1  0.81982000  0.93591000  0.54701000  1.0
  H  H73  1  0.68018000  0.06409000  0.04701000  1.0
  H  H74  1  0.18018000  0.43591000  0.45299000  1.0
  H  H75  1  0.31982000  0.56409000  0.95299000  1.0
  H  H76  1  0.18018000  0.06409000  0.45299000  1.0
  H  H77  1  0.31982000  0.93591000  0.95299000  1.0
  H  H78  1  0.81982000  0.56409000  0.54701000  1.0
  H  H79  1  0.68019000  0.43591000  0.04701000  1.0
  H  H80  1  0.36421000  0.25000000  0.31979000  1.0
  H  H81  1  0.13579000  0.75000000  0.81979000  1.0
  H  H82  1  0.63580000  0.75000000  0.68021000  1.0
  H  H83  1  0.86420000  0.25000000  0.18021000  1.0
  H  H84  1  0.35346000  0.25000000  0.47685000  1.0
  H  H85  1  0.14653000  0.75000000  0.97685000  1.0
  H  H86  1  0.64653000  0.75000000  0.52315000  1.0
  H  H87  1  0.85347000  0.25000000  0.02315000  1.0
  H  H88  1  0.20929000  0.25000000  0.47282000  1.0
  H  H89  1  0.29071000  0.75000000  0.97281000  1.0
  H  H90  1  0.79071000  0.75000000  0.52718000  1.0
  H  H91  1  0.70929000  0.25000000  0.02718000  1.0
  H  H92  1  0.21995000  0.25000000  0.31538000  1.0
  H  H93  1  0.28005000  0.75000000  0.81538000  1.0
  H  H94  1  0.78005000  0.75000000  0.68462000  1.0
  H  H95  1  0.71995000  0.25000000  0.18462000  1.0
  H  H96  1  0.11038000  0.14165000  0.39226000  1.0
  H  H97  1  0.38961000  0.85835000  0.89226000  1.0
  H  H98  1  0.88961000  0.64165000  0.60774000  1.0
  H  H99  1  0.61039000  0.35835000  0.10774000  1.0
  H  H100  1  0.88961000  0.85834000  0.60774000  1.0
  H  H101  1  0.61039000  0.14165000  0.10774000  1.0
  H  H102  1  0.11038000  0.35835000  0.39226000  1.0
  H  H103  1  0.38961000  0.64165000  0.89226000  1.0
  H  H104  1  0.96599000  0.14189000  0.39886000  1.0
  H  H105  1  0.53401000  0.85811000  0.89887000  1.0
  H  H106  1  0.03401000  0.64190000  0.60114000  1.0
  H  H107  1  0.46599000  0.35810000  0.10114000  1.0
  H  H108  1  0.03401000  0.85811000  0.60114000  1.0
  H  H109  1  0.46599000  0.14190000  0.10114000  1.0
  H  H110  1  0.96599000  0.35810000  0.39886000  1.0
  H  H111  1  0.53401000  0.64190000  0.89886000  1.0
  C  C112  1  0.67412000  0.13151000  0.50370000  1.0
  C  C113  1  0.82588000  0.86849000  0.00370000  1.0
  C  C114  1  0.32588000  0.63152000  0.49630000  1.0
  C  C115  1  0.17413000  0.36849000  0.99630000  1.0
  C  C116  1  0.32588000  0.86848000  0.49630000  1.0
  C  C117  1  0.17412000  0.13152000  0.99630000  1.0
  C  C118  1  0.67412000  0.36849000  0.50370000  1.0
  C  C119  1  0.82588000  0.63152000  0.00370000  1.0
  C  C120  1  0.69857000  0.09512000  0.54891000  1.0
  C  C121  1  0.80143000  0.90488000  0.04891000  1.0
  C  C122  1  0.30143000  0.59512000  0.45109000  1.0
  C  C123  1  0.19858000  0.40488000  0.95109000  1.0
  C  C124  1  0.30143000  0.90488000  0.45109000  1.0
  C  C125  1  0.19857000  0.09512000  0.95109000  1.0
  C  C126  1  0.69857000  0.40488000  0.54891000  1.0
  C  C127  1  0.80143000  0.59512000  0.04891000  1.0
  C  C128  1  0.74611000  0.03852000  0.54470000  1.0
  C  C129  1  0.75389000  0.96148000  0.04470000  1.0
  C  C130  1  0.25390000  0.53852000  0.45530000  1.0
  C  C131  1  0.24611000  0.46148000  0.95530000  1.0
  C  C132  1  0.25390000  0.96148000  0.45530000  1.0
  C  C133  1  0.24611000  0.03853000  0.95530000  1.0
  C  C134  1  0.74611000  0.46147000  0.54470000  1.0
  C  C135  1  0.75390000  0.53853000  0.04470000  1.0
  C  C136  1  0.67716000  0.11815000  0.59548000  1.0
  C  C137  1  0.82284000  0.88185000  0.09548000  1.0
  C  C138  1  0.32284000  0.61815000  0.40453000  1.0
  C  C139  1  0.17716000  0.38185000  0.90453000  1.0
  C  C140  1  0.32284000  0.88185000  0.40453000  1.0
  C  C141  1  0.17716000  0.11815000  0.90452000  1.0
  C  C142  1  0.67716000  0.38185000  0.59548000  1.0
  C  C143  1  0.82284000  0.61815000  0.09548000  1.0
  C  C144  1  0.70359000  0.08414000  0.63670000  1.0
  C  C145  1  0.79641000  0.91586000  0.13671000  1.0
  C  C146  1  0.29641000  0.58414000  0.36330000  1.0
  C  C147  1  0.20359000  0.41586000  0.86330000  1.0
  C  C148  1  0.29641000  0.91586000  0.36330000  1.0
  C  C149  1  0.20359000  0.08414000  0.86330000  1.0
  C  C150  1  0.70358000  0.41586000  0.63670000  1.0
  C  C151  1  0.79641000  0.58414000  0.13670000  1.0
  C  C152  1  0.77142000  0.00420000  0.58620000  1.0
  C  C153  1  0.72858000  0.99580000  0.08620000  1.0
  C  C154  1  0.22858000  0.50420000  0.41380000  1.0
  C  C155  1  0.27143000  0.49580000  0.91380000  1.0
  C  C156  1  0.22858000  0.99580000  0.41380000  1.0
  C  C157  1  0.27142000  0.00420000  0.91380000  1.0
  C  C158  1  0.77142000  0.49580000  0.58620000  1.0
  C  C159  1  0.72858000  0.50420000  0.08620000  1.0
  C  C160  1  0.75047000  0.02628000  0.63362000  1.0
  C  C161  1  0.74954000  0.97372000  0.13362000  1.0
  C  C162  1  0.24953000  0.52628000  0.36638000  1.0
  C  C163  1  0.25047000  0.47372000  0.86638000  1.0
  C  C164  1  0.24954000  0.97372000  0.36638000  1.0
  C  C165  1  0.25046000  0.02628000  0.86638000  1.0
  C  C166  1  0.75046000  0.47372000  0.63362000  1.0
  C  C167  1  0.74954000  0.52628000  0.13362000  1.0
  C  C168  1  0.77243000  0.98929000  0.67843000  1.0
  C  C169  1  0.72757000  0.01071000  0.17843000  1.0
  C  C170  1  0.22756000  0.48929000  0.32157000  1.0
  C  C171  1  0.27244000  0.51071000  0.82157000  1.0
  C  C172  1  0.22757000  0.01071000  0.32157000  1.0
  C  C173  1  0.27243000  0.98929000  0.82157000  1.0
  C  C174  1  0.77243000  0.51071000  0.67843000  1.0
  C  C175  1  0.72757000  0.48929000  0.17843000  1.0
  C  C176  1  0.84547000  0.95928000  0.68452000  1.0
  C  C177  1  0.65453000  0.04072000  0.18452000  1.0
  C  C178  1  0.15453000  0.45928000  0.31548000  1.0
  C  C179  1  0.34547000  0.54072000  0.81548000  1.0
  C  C180  1  0.15454000  0.04072000  0.31548000  1.0
  C  C181  1  0.34547000  0.95928000  0.81548000  1.0
  C  C182  1  0.84546000  0.54072000  0.68452000  1.0
  C  C183  1  0.65453000  0.45928000  0.18452000  1.0
  C  C184  1  0.71829000  0.98277000  0.71660000  1.0
  C  C185  1  0.78171000  0.01723000  0.21660000  1.0
  C  C186  1  0.28170000  0.48277000  0.28340000  1.0
  C  C187  1  0.21829000  0.51723000  0.78340000  1.0
  C  C188  1  0.28172000  0.01723000  0.28340000  1.0
  C  C189  1  0.21829000  0.98277000  0.78340000  1.0
  C  C190  1  0.71828000  0.51723000  0.71660000  1.0
  C  C191  1  0.78171000  0.48277000  0.21660000  1.0
  C  C192  1  0.86256000  0.92199000  0.72626000  1.0
  C  C193  1  0.63744000  0.07801000  0.22626000  1.0
  C  C194  1  0.13743000  0.42199000  0.27374000  1.0
  C  C195  1  0.36256000  0.57801000  0.77374000  1.0
  C  C196  1  0.13744000  0.07801000  0.27374000  1.0
  C  C197  1  0.36256000  0.92199000  0.77374000  1.0
  C  C198  1  0.86256000  0.57801000  0.72626000  1.0
  C  C199  1  0.63744000  0.42199000  0.22626000  1.0
  C  C200  1  0.73588000  0.94697000  0.75888000  1.0
  C  C201  1  0.76412000  0.05303000  0.25888000  1.0
  C  C202  1  0.26411000  0.44697000  0.24113000  1.0
  C  C203  1  0.23588000  0.55303000  0.74112000  1.0
  C  C204  1  0.26413000  0.05304000  0.24112000  1.0
  C  C205  1  0.23588000  0.94696000  0.74112000  1.0
  C  C206  1  0.73587000  0.55304000  0.75888000  1.0
  C  C207  1  0.76412000  0.44697000  0.25888000  1.0
  C  C208  1  0.80778000  0.91523000  0.76371000  1.0
  C  C209  1  0.69222000  0.08477000  0.26371000  1.0
  C  C210  1  0.19222000  0.41523000  0.23629000  1.0
  C  C211  1  0.30778000  0.58477000  0.73629000  1.0
  C  C212  1  0.19223000  0.08477000  0.23629000  1.0
  C  C213  1  0.30778000  0.91523000  0.73629000  1.0
  C  C214  1  0.80777000  0.58477000  0.76371000  1.0
  C  C215  1  0.69223000  0.41523000  0.26371000  1.0
  C  C216  1  0.82361000  0.87252000  0.80744000  1.0
  C  C217  1  0.67639000  0.12748000  0.30744000  1.0
  C  C218  1  0.17638000  0.37252000  0.19257000  1.0
  C  C219  1  0.32362000  0.62748000  0.69256000  1.0
  C  C220  1  0.17639000  0.12748000  0.19256000  1.0
  C  C221  1  0.32362000  0.87252000  0.69256000  1.0
  C  C222  1  0.82361000  0.62748000  0.80744000  1.0
  C  C223  1  0.67639000  0.37251000  0.30744000  1.0
  C  C224  1  0.45338000  0.25000000  0.40092000  1.0
  C  C225  1  0.04662000  0.75000000  0.90091000  1.0
  C  C226  1  0.54662000  0.75000000  0.59908000  1.0
  C  C227  1  0.95338000  0.25000000  0.09908000  1.0
  C  C228  1  0.36736000  0.25000000  0.39856000  1.0
  C  C229  1  0.13264000  0.75001000  0.89855000  1.0
  C  C230  1  0.63264000  0.75000000  0.60144000  1.0
  C  C231  1  0.86736000  0.25000000  0.10144000  1.0
  C  C232  1  0.32958000  0.25000000  0.35310000  1.0
  C  C233  1  0.17042000  0.75000000  0.85309000  1.0
  C  C234  1  0.67042000  0.75000000  0.64690000  1.0
  C  C235  1  0.82958000  0.25000000  0.14690000  1.0
  C  C236  1  0.32364000  0.25000000  0.44172000  1.0
  C  C237  1  0.17635000  0.75001000  0.94172000  1.0
  C  C238  1  0.67636000  0.75000000  0.55828000  1.0
  C  C239  1  0.82364000  0.25000000  0.05828000  1.0
  C  C240  1  0.24343000  0.25000000  0.43924000  1.0
  C  C241  1  0.25656000  0.75000000  0.93924000  1.0
  C  C242  1  0.75657000  0.75000000  0.56076000  1.0
  C  C243  1  0.74343000  0.25000000  0.06076000  1.0
  C  C244  1  0.24924000  0.25000000  0.35074000  1.0
  C  C245  1  0.25076000  0.75000000  0.85074000  1.0
  C  C246  1  0.75077000  0.75000000  0.64925000  1.0
  C  C247  1  0.74923000  0.25000000  0.14925000  1.0
  C  C248  1  0.20530000  0.25000000  0.39385000  1.0
  C  C249  1  0.29470000  0.75000000  0.89385000  1.0
  C  C250  1  0.79471000  0.75000000  0.60614000  1.0
  C  C251  1  0.70530000  0.25000000  0.10614000  1.0
  C  C252  1  0.11945000  0.25000000  0.39311000  1.0
  C  C253  1  0.38055000  0.75000000  0.89311000  1.0
  C  C254  1  0.88055000  0.75000000  0.60689000  1.0
  C  C255  1  0.61945000  0.25000000  0.10688000  1.0
  C  C256  1  0.07854000  0.18895000  0.39404000  1.0
  C  C257  1  0.42146000  0.81105000  0.89405000  1.0
  C  C258  1  0.92146000  0.68895000  0.60595000  1.0
  C  C259  1  0.57854000  0.31105000  0.10595000  1.0
  C  C260  1  0.92146000  0.81105000  0.60595000  1.0
  C  C261  1  0.57854000  0.18894000  0.10595000  1.0
  C  C262  1  0.07854000  0.31105000  0.39404000  1.0
  C  C263  1  0.42146000  0.68895000  0.89405000  1.0
  C  C264  1  0.99835000  0.18898000  0.39755000  1.0
  C  C265  1  0.50165000  0.81102000  0.89755000  1.0
  C  C266  1  0.00165000  0.68898000  0.60245000  1.0
  C  C267  1  0.49834000  0.31102000  0.10245000  1.0
  C  C268  1  0.00165000  0.81102000  0.60245000  1.0
  C  C269  1  0.49835000  0.18898000  0.10245000  1.0
  C  C270  1  0.99835000  0.31102000  0.39755000  1.0
  C  C271  1  0.50165000  0.68898000  0.89755000  1.0
  C  C272  1  0.95770000  0.25000000  0.39995000  1.0
  C  C273  1  0.54229000  0.75000000  0.89996000  1.0
  C  C274  1  0.04230000  0.75000000  0.60005000  1.0
  C  C275  1  0.45770000  0.25000000  0.10005000  1.0
  C  C276  1  0.87202000  0.25000000  0.40495000  1.0
  C  C277  1  0.62797000  0.75000000  0.90495000  1.0
  C  C278  1  0.12798000  0.75000000  0.59505000  1.0
  C  C279  1  0.37203000  0.25000000  0.09505000  1.0
  O  O280  1  0.70889000  0.11534000  0.46403000  1.0
  O  O281  1  0.79110000  0.88466000  0.96403000  1.0
  O  O282  1  0.29111000  0.61534000  0.53597000  1.0
  O  O283  1  0.20890000  0.38466000  0.03597000  1.0
  O  O284  1  0.29111000  0.88466000  0.53597000  1.0
  O  O285  1  0.20889000  0.11534000  0.03597000  1.0
  O  O286  1  0.70890000  0.38466000  0.46403000  1.0
  O  O287  1  0.79111000  0.61534000  0.96403000  1.0
  O  O288  1  0.62127000  0.17587000  0.50809000  1.0
  O  O289  1  0.87873000  0.82413000  0.00809000  1.0
  O  O290  1  0.37874000  0.67587000  0.49191000  1.0
  O  O291  1  0.12127000  0.32414000  0.99191000  1.0
  O  O292  1  0.37873000  0.82414000  0.49191000  1.0
  O  O293  1  0.12127000  0.17587000  0.99191000  1.0
  O  O294  1  0.62127000  0.32414000  0.50809000  1.0
  O  O295  1  0.87873000  0.67586000  0.00809000  1.0
  O  O296  1  0.78021000  0.88182000  0.84469000  1.0
  O  O297  1  0.71979000  0.11819000  0.34469000  1.0
  O  O298  1  0.21978000  0.38181000  0.15532000  1.0
  O  O299  1  0.28022000  0.61819000  0.65531000  1.0
  O  O300  1  0.21979000  0.11819000  0.15531000  1.0
  O  O301  1  0.28021000  0.88181000  0.65532000  1.0
  O  O302  1  0.78021000  0.61819000  0.84469000  1.0
  O  O303  1  0.71979000  0.38181000  0.34469000  1.0
  O  O304  1  0.87825000  0.82945000  0.80400000  1.0
  O  O305  1  0.62174000  0.17055000  0.30400000  1.0
  O  O306  1  0.12173000  0.32945000  0.19600000  1.0
  O  O307  1  0.37826000  0.67054000  0.69600000  1.0
  O  O308  1  0.12174000  0.17055000  0.19600000  1.0
  O  O309  1  0.37826000  0.82946000  0.69600000  1.0
  O  O310  1  0.87826000  0.67055000  0.80400000  1.0
  O  O311  1  0.62175000  0.32945000  0.30400000  1.0
  O  O312  1  0.81594000  0.94719000  0.58163000  1.0
  O  O313  1  0.68406000  0.05280000  0.08163000  1.0
  O  O314  1  0.18406000  0.44720000  0.41837000  1.0
  O  O315  1  0.31593000  0.55281000  0.91837000  1.0
  O  O316  1  0.18407000  0.05281000  0.41837000  1.0
  O  O317  1  0.31593000  0.94719000  0.91837000  1.0
  O  O318  1  0.81593000  0.55281000  0.58163000  1.0
  O  O319  1  0.68407000  0.44719000  0.08163000  1.0
  O  O320  1  0.48907000  0.25000000  0.36003000  1.0
  O  O321  1  0.01092000  0.75001000  0.86002000  1.0
  O  O322  1  0.51093000  0.74999000  0.63998000  1.0
  O  O323  1  0.98907000  0.24999000  0.13997000  1.0
  O  O324  1  0.48447000  0.25000000  0.44352000  1.0
  O  O325  1  0.01553000  0.75000000  0.94351000  1.0
  O  O326  1  0.51553000  0.75000000  0.55649000  1.0
  O  O327  1  0.98447000  0.25000000  0.05648000  1.0
  O  O328  1  0.83866000  0.19260000  0.40697000  1.0
  O  O329  1  0.66134000  0.80740000  0.90697000  1.0
  O  O330  1  0.16134000  0.69261000  0.59303000  1.0
  O  O331  1  0.33866000  0.30739000  0.09303000  1.0
  O  O332  1  0.16134000  0.80739000  0.59303000  1.0
  O  O333  1  0.33866000  0.19260000  0.09302000  1.0
  O  O334  1  0.83866000  0.30739000  0.40697000  1.0
  O  O335  1  0.66134000  0.69260000  0.90697000  1.0
  O  O336  1  0.66141000  0.25000000  0.40525000  1.0
  O  O337  1  0.83859000  0.75000000  0.90525000  1.0
  O  O338  1  0.33859000  0.75000000  0.59475000  1.0
  O  O339  1  0.16141000  0.25000000  0.09475000  1.0
