# generated using pymatgen
data_CdH8C9O8
_symmetry_space_group_name_H-M   'P 1'
_cell_length_a   9.14744000
_cell_length_b   10.81910000
_cell_length_c   13.16516019
_cell_angle_alpha   66.97722718
_cell_angle_beta   70.11591461
_cell_angle_gamma   65.12100000
_symmetry_Int_Tables_number   1
_chemical_formula_structural   CdH8C9O8
_chemical_formula_sum   'Cd4 H32 C36 O32'
_cell_volume   1063.53067097
_cell_formula_units_Z   4
loop_
 _symmetry_equiv_pos_site_id
 _symmetry_equiv_pos_as_xyz
  1  'x, y, z'
loop_
 _atom_site_type_symbol
 _atom_site_label
 _atom_site_symmetry_multiplicity
 _atom_site_fract_x
 _atom_site_fract_y
 _atom_site_fract_z
 _atom_site_occupancy
  Cd  Cd0  1  0.28443000  0.43091000  0.19456000  1.0
  Cd  Cd1  1  0.91199000  0.06954000  0.30602000  1.0
  Cd  Cd2  1  0.71557000  0.56909000  0.80544000  1.0
  Cd  Cd3  1  0.08802000  0.93046000  0.69398000  1.0
  H  H4  1  0.68129000  0.73305000  0.48034000  1.0
  H  H5  1  0.89108000  0.76773000  0.02086000  1.0
  H  H6  1  0.31872000  0.26695000  0.51965000  1.0
  H  H7  1  0.10893000  0.23227000  0.97913000  1.0
  H  H8  1  0.27205000  0.68164000  0.42891000  1.0
  H  H9  1  0.38111000  0.81791000  0.07115000  1.0
  H  H10  1  0.72795000  0.31836000  0.57109000  1.0
  H  H11  1  0.61889000  0.18209000  0.92885000  1.0
  H  H12  1  0.76631000  0.49397000  0.25936000  1.0
  H  H13  1  0.52022000  0.00666000  0.24144000  1.0
  H  H14  1  0.23369000  0.50603000  0.74064000  1.0
  H  H15  1  0.47979000  0.99334000  0.75856000  1.0
  H  H16  1  0.10166000  0.60302000  0.36302000  1.0
  H  H17  1  0.06672000  0.89726000  0.13721000  1.0
  H  H18  1  0.89834000  0.39698000  0.63698000  1.0
  H  H19  1  0.93328000  0.10274000  0.86279000  1.0
  H  H20  1  0.38714000  0.65522000  0.00209000  1.0
  H  H21  1  0.04594000  0.84345000  0.49863000  1.0
  H  H22  1  0.61286000  0.34478000  0.99791000  1.0
  H  H23  1  0.95406000  0.15655000  0.50137000  1.0
  H  H24  1  0.29919000  0.13768000  0.32585000  1.0
  H  H25  1  0.76301000  0.36253000  0.17453000  1.0
  H  H26  1  0.70081000  0.86232000  0.67415000  1.0
  H  H27  1  0.23699000  0.63747000  0.82547000  1.0
  H  H28  1  0.41496000  0.17354000  0.37310000  1.0
  H  H29  1  0.96066000  0.32750000  0.12753000  1.0
  H  H30  1  0.58504000  0.82646000  0.62690000  1.0
  H  H31  1  0.03934000  0.67250000  0.87247000  1.0
  H  H32  1  0.21901000  0.66721000  0.98349000  1.0
  H  H33  1  0.87012000  0.83396000  0.51656000  1.0
  H  H34  1  0.78099000  0.33279000  0.01651000  1.0
  H  H35  1  0.12987000  0.16604000  0.48345000  1.0
  C  C36  1  0.74117000  0.60956000  0.36753000  1.0
  C  C37  1  0.71669000  0.89114000  0.13344000  1.0
  C  C38  1  0.25883000  0.39044000  0.63247000  1.0
  C  C39  1  0.28330000  0.10885000  0.86657000  1.0
  C  C40  1  0.63371000  0.69099000  0.44042000  1.0
  C  C41  1  0.76243000  0.80954000  0.06064000  1.0
  C  C42  1  0.36629000  0.30901000  0.55958000  1.0
  C  C43  1  0.23757000  0.19046000  0.93936000  1.0
  C  C44  1  0.46431000  0.71655000  0.46266000  1.0
  C  C45  1  0.64094000  0.78350000  0.03817000  1.0
  C  C46  1  0.53569000  0.28345000  0.53734000  1.0
  C  C47  1  0.35906000  0.21650000  0.96183000  1.0
  C  C48  1  0.40369000  0.66225000  0.41104000  1.0
  C  C49  1  0.47541000  0.83763000  0.08937000  1.0
  C  C50  1  0.59632000  0.33775000  0.58895000  1.0
  C  C51  1  0.52459000  0.16236000  0.91063000  1.0
  C  C52  1  0.51134000  0.58271000  0.33699000  1.0
  C  C53  1  0.43051000  0.91737000  0.16351000  1.0
  C  C54  1  0.48865000  0.41729000  0.66301000  1.0
  C  C55  1  0.56949000  0.08262000  0.83649000  1.0
  C  C56  1  0.67981000  0.55646000  0.31581000  1.0
  C  C57  1  0.55164000  0.94403000  0.18498000  1.0
  C  C58  1  0.32019000  0.44354000  0.68419000  1.0
  C  C59  1  0.44835000  0.05597000  0.81502000  1.0
  C  C60  1  0.92205000  0.57625000  0.33913000  1.0
  C  C61  1  0.83674000  0.92453000  0.16146000  1.0
  C  C62  1  0.07795000  0.42375000  0.66087000  1.0
  C  C63  1  0.16326000  0.07547000  0.83854000  1.0
  C  C64  1  0.34802000  0.79662000  0.54485000  1.0
  C  C65  1  0.68667000  0.70338000  0.95580000  1.0
  C  C66  1  0.65198000  0.20338000  0.45515000  1.0
  C  C67  1  0.31333000  0.29662000  0.04420000  1.0
  C  C68  1  0.44928000  0.52332000  0.28190000  1.0
  C  C69  1  0.25501000  0.97642000  0.21837000  1.0
  C  C70  1  0.55072000  0.47668000  0.71810000  1.0
  C  C71  1  0.74500000  0.02358000  0.78163000  1.0
  O  O72  1  0.00872000  0.50485000  0.27198000  1.0
  O  O73  1  0.78669000  0.99648000  0.22817000  1.0
  O  O74  1  0.99128000  0.49515000  0.72802000  1.0
  O  O75  1  0.21331000  0.00352000  0.77183000  1.0
  O  O76  1  0.97767000  0.62843000  0.38805000  1.0
  O  O77  1  0.99208000  0.87181000  0.11261000  1.0
  O  O78  1  0.02232000  0.37157000  0.61195000  1.0
  O  O79  1  0.00793000  0.12820000  0.88738000  1.0
  O  O80  1  0.39742000  0.85234000  0.58930000  1.0
  O  O81  1  0.83589000  0.64895000  0.91146000  1.0
  O  O82  1  0.60258000  0.14766000  0.41070000  1.0
  O  O83  1  0.16412000  0.35105000  0.08854000  1.0
  O  O84  1  0.19599000  0.80269000  0.57037000  1.0
  O  O85  1  0.56735000  0.69577000  0.92972000  1.0
  O  O86  1  0.80401000  0.19731000  0.42964000  1.0
  O  O87  1  0.43265000  0.30423000  0.07028000  1.0
  O  O88  1  0.29394000  0.54210000  0.30809000  1.0
  O  O89  1  0.14424000  0.95821000  0.19155000  1.0
  O  O90  1  0.70606000  0.45790000  0.69191000  1.0
  O  O91  1  0.85575000  0.04179000  0.80846000  1.0
  O  O92  1  0.54711000  0.45556000  0.21187000  1.0
  O  O93  1  0.21602000  0.04351000  0.28906000  1.0
  O  O94  1  0.45289000  0.54444000  0.78813000  1.0
  O  O95  1  0.78399000  0.95649000  0.71094000  1.0
  O  O96  1  0.30646000  0.20909000  0.35230000  1.0
  O  O97  1  0.86776000  0.29151000  0.14823000  1.0
  O  O98  1  0.69354000  0.79091000  0.64770000  1.0
  O  O99  1  0.13224000  0.70849000  0.85177000  1.0
  O  O100  1  0.27965000  0.64044000  0.04219000  1.0
  O  O101  1  0.96212000  0.86049000  0.45837000  1.0
  O  O102  1  0.72035000  0.35956000  0.95781000  1.0
  O  O103  1  0.03788000  0.13952000  0.54163000  1.0
