# generated using pymatgen
data_CdH15C15(NO)7
_symmetry_space_group_name_H-M   'P 1'
_cell_length_a   8.89664000
_cell_length_b   10.29330000
_cell_length_c   10.46950000
_cell_angle_alpha   77.68660000
_cell_angle_beta   87.18220000
_cell_angle_gamma   87.99780000
_symmetry_Int_Tables_number   1
_chemical_formula_structural   CdH15C15(NO)7
_chemical_formula_sum   'Cd2 H30 C30 N14 O14'
_cell_volume   935.27089920
_cell_formula_units_Z   2
loop_
 _symmetry_equiv_pos_site_id
 _symmetry_equiv_pos_as_xyz
  1  'x, y, z'
loop_
 _atom_site_type_symbol
 _atom_site_label
 _atom_site_symmetry_multiplicity
 _atom_site_fract_x
 _atom_site_fract_y
 _atom_site_fract_z
 _atom_site_occupancy
  Cd  Cd0  1  0.11843000  0.66931000  0.17678000  1.0
  Cd  Cd1  1  0.88157000  0.33069000  0.82322000  1.0
  H  H2  1  0.00473000  0.64182000  0.47474000  1.0
  H  H3  1  0.99527000  0.35818000  0.52526000  1.0
  H  H4  1  0.83510000  0.76064000  0.61308000  1.0
  H  H5  1  0.16489000  0.23936000  0.38692000  1.0
  H  H6  1  0.84477000  0.10381000  0.29455000  1.0
  H  H7  1  0.15523000  0.89620000  0.70545000  1.0
  H  H8  1  0.00228000  0.96873000  0.16419000  1.0
  H  H9  1  0.99772000  0.03127000  0.83581000  1.0
  H  H10  1  0.58062000  0.31158000  0.53153000  1.0
  H  H11  1  0.41938000  0.68842000  0.46847000  1.0
  H  H12  1  0.35013000  0.10918000  0.87203000  1.0
  H  H13  1  0.64987000  0.89081000  0.12797000  1.0
  H  H14  1  0.20721000  0.97636000  0.06191000  1.0
  H  H15  1  0.79279000  0.02364000  0.93809000  1.0
  H  H16  1  0.40909000  0.62314000  0.00127000  1.0
  H  H17  1  0.59091000  0.37686000  0.99873000  1.0
  H  H18  1  0.56189000  0.74325000  0.80735000  1.0
  H  H19  1  0.43811000  0.25675000  0.19265000  1.0
  H  H20  1  0.79094000  0.53360000  0.37514000  1.0
  H  H21  1  0.20906000  0.46640000  0.62486000  1.0
  H  H22  1  0.75691000  0.39516000  0.30638000  1.0
  H  H23  1  0.24309000  0.60484000  0.69362000  1.0
  H  H24  1  0.74587000  0.68862000  0.15902000  1.0
  H  H25  1  0.25413000  0.31138000  0.84099000  1.0
  H  H26  1  0.58731000  0.58847000  0.21340000  1.0
  H  H27  1  0.41269000  0.41154000  0.78660000  1.0
  H  H28  1  0.71271000  0.55081000  0.08749000  1.0
  H  H29  1  0.28729000  0.44919000  0.91251000  1.0
  H  H30  1  0.96699000  0.43776000  0.17607000  1.0
  H  H31  1  0.03302000  0.56225000  0.82393000  1.0
  C  C32  1  0.96393000  0.74317000  0.43732000  1.0
  C  C33  1  0.03607000  0.25683000  0.56268000  1.0
  C  C34  1  0.87026000  0.80922000  0.51402000  1.0
  C  C35  1  0.12974000  0.19078000  0.48598000  1.0
  C  C36  1  0.82329000  0.94036000  0.46186000  1.0
  C  C37  1  0.17671000  0.05964000  0.53813000  1.0
  C  C38  1  0.87612000  0.00096000  0.33612000  1.0
  C  C39  1  0.12387000  0.99904000  0.66387000  1.0
  C  C40  1  0.96572000  0.92647000  0.26462000  1.0
  C  C41  1  0.03428000  0.07353000  0.73538000  1.0
  C  C42  1  0.71753000  0.01348000  0.53658000  1.0
  C  C43  1  0.28247000  0.98652000  0.46342000  1.0
  C  C44  1  0.55005000  0.01157000  0.70727000  1.0
  C  C45  1  0.44995000  0.98843000  0.29274000  1.0
  C  C46  1  0.60003000  0.20478000  0.56394000  1.0
  C  C47  1  0.39997000  0.79522000  0.43606000  1.0
  C  C48  1  0.46657000  0.93637000  0.82408000  1.0
  C  C49  1  0.53344000  0.06362000  0.17592000  1.0
  C  C50  1  0.36620000  0.00170000  0.89787000  1.0
  C  C51  1  0.63381000  0.99830000  0.10213000  1.0
  C  C52  1  0.28643000  0.92704000  0.00413000  1.0
  C  C53  1  0.71357000  0.07295000  0.99588000  1.0
  C  C54  1  0.39992000  0.73088000  0.96925000  1.0
  C  C55  1  0.60008000  0.26912000  0.03075000  1.0
  C  C56  1  0.48500000  0.79799000  0.86200000  1.0
  C  C57  1  0.51500000  0.20201000  0.13800000  1.0
  C  C58  1  0.79774000  0.49759000  0.28353000  1.0
  C  C59  1  0.20226000  0.50241000  0.71648000  1.0
  C  C60  1  0.70588000  0.58628000  0.17952000  1.0
  C  C61  1  0.29412000  0.41372000  0.82048000  1.0
  N  N62  1  0.32573000  0.47370000  0.30502000  1.0
  N  N63  1  0.67427000  0.52630000  0.69498000  1.0
  N  N64  1  0.95481000  0.75307000  0.92974000  1.0
  N  N65  1  0.04519000  0.24693000  0.07026000  1.0
  N  N66  1  0.00800000  0.79938000  0.31326000  1.0
  N  N67  1  0.99200000  0.20062000  0.68673000  1.0
  N  N68  1  0.64549000  0.94212000  0.64249000  1.0
  N  N69  1  0.35451000  0.05788000  0.35751000  1.0
  N  N70  1  0.52367000  0.14374000  0.67250000  1.0
  N  N71  1  0.47633000  0.85626000  0.32750000  1.0
  N  N72  1  0.69806000  0.14547000  0.49192000  1.0
  N  N73  1  0.30194000  0.85453000  0.50808000  1.0
  N  N74  1  0.30103000  0.79358000  0.03892000  1.0
  N  N75  1  0.69897000  0.20642000  0.96108000  1.0
  O  O76  1  0.29830000  0.48552000  0.18320000  1.0
  O  O77  1  0.70170000  0.51448000  0.81679000  1.0
  O  O78  1  0.25452000  0.55259000  0.36806000  1.0
  O  O79  1  0.74548000  0.44741000  0.63194000  1.0
  O  O80  1  0.41829000  0.38911000  0.35870000  1.0
  O  O81  1  0.58171000  0.61089000  0.64130000  1.0
  O  O82  1  0.03763000  0.64573000  0.94859000  1.0
  O  O83  1  0.96237000  0.35427000  0.05141000  1.0
  O  O84  1  0.94869000  0.81996000  0.01993000  1.0
  O  O85  1  0.05131000  0.18004000  0.98006000  1.0
  O  O86  1  0.88454000  0.78999000  0.82847000  1.0
  O  O87  1  0.11546000  0.21002000  0.17153000  1.0
  O  O88  1  0.95652000  0.49172000  0.24494000  1.0
  O  O89  1  0.04348000  0.50829000  0.75505000  1.0
