# generated using pymatgen
data_AgH2C2N2O3
_symmetry_space_group_name_H-M   'P 1'
_cell_length_a   5.22298000
_cell_length_b   5.81815000
_cell_length_c   16.90620000
_cell_angle_alpha   90.00250000
_cell_angle_beta   90.00240000
_cell_angle_gamma   113.82800000
_symmetry_Int_Tables_number   1
_chemical_formula_structural   AgH2C2N2O3
_chemical_formula_sum   'Ag4 H8 C8 N8 O12'
_cell_volume   469.95638963
_cell_formula_units_Z   4
loop_
 _symmetry_equiv_pos_site_id
 _symmetry_equiv_pos_as_xyz
  1  'x, y, z'
loop_
 _atom_site_type_symbol
 _atom_site_label
 _atom_site_symmetry_multiplicity
 _atom_site_fract_x
 _atom_site_fract_y
 _atom_site_fract_z
 _atom_site_occupancy
  Ag  Ag0  1  0.36841000  0.78387000  0.17961000  1.0
  Ag  Ag1  1  0.29442000  0.68884000  0.82434000  1.0
  Ag  Ag2  1  0.79444000  0.18884000  0.67566000  1.0
  Ag  Ag3  1  0.86843000  0.28387000  0.32039000  1.0
  H  H4  1  0.34016000  0.63248000  0.00474000  1.0
  H  H5  1  0.84020000  0.13249000  0.49526000  1.0
  H  H6  1  0.93571000  0.98562000  0.87067000  1.0
  H  H7  1  0.99873000  0.06732000  0.12433000  1.0
  H  H8  1  0.49873000  0.56730000  0.37567000  1.0
  H  H9  1  0.43573000  0.48561000  0.62932000  1.0
  H  H10  1  0.82072000  0.16512000  0.99480000  1.0
  H  H11  1  0.32073000  0.66510000  0.50520000  1.0
  C  C12  1  0.22589000  0.75321000  0.00238000  1.0
  C  C13  1  0.72593000  0.25321000  0.49762000  1.0
  C  C14  1  0.99957000  0.94736000  0.92872000  1.0
  C  C15  1  0.03494000  0.99299000  0.06836000  1.0
  C  C16  1  0.53495000  0.49296000  0.43165000  1.0
  C  C17  1  0.49959000  0.44734000  0.57128000  1.0
  C  C18  1  0.93750000  0.04664000  0.99722000  1.0
  C  C19  1  0.43751000  0.54663000  0.50277000  1.0
  N  N20  1  0.17892000  0.84553000  0.07078000  1.0
  N  N21  1  0.14379000  0.80030000  0.93140000  1.0
  N  N22  1  0.64383000  0.30029000  0.56859000  1.0
  N  N23  1  0.67893000  0.34551000  0.42922000  1.0
  N  N24  1  0.64941000  0.42168000  0.16674000  1.0
  N  N25  1  0.58822000  0.34209000  0.83169000  1.0
  N  N26  1  0.08824000  0.84210000  0.66831000  1.0
  N  N27  1  0.14941000  0.92166000  0.33326000  1.0
  O  O28  1  0.62826000  0.56182000  0.22250000  1.0
  O  O29  1  0.52758000  0.45684000  0.77481000  1.0
  O  O30  1  0.02759000  0.95683000  0.72519000  1.0
  O  O31  1  0.12828000  0.06181000  0.27751000  1.0
  O  O32  1  0.76416000  0.26917000  0.18272000  1.0
  O  O33  1  0.70438000  0.19185000  0.81471000  1.0
  O  O34  1  0.20441000  0.69187000  0.68528000  1.0
  O  O35  1  0.26415000  0.76915000  0.31728000  1.0
  O  O36  1  0.56306000  0.43169000  0.09848000  1.0
  O  O37  1  0.53693000  0.37472000  0.90204000  1.0
  O  O38  1  0.03695000  0.87474000  0.59796000  1.0
  O  O39  1  0.06305000  0.93167000  0.40152000  1.0
