# generated using pymatgen
data_ZnH13C17(NO2)3
_symmetry_space_group_name_H-M   'P 1'
_cell_length_a   10.62240000
_cell_length_b   10.99910000
_cell_length_c   16.12350000
_cell_angle_alpha   89.99980000
_cell_angle_beta   89.99900000
_cell_angle_gamma   81.12740000
_symmetry_Int_Tables_number   1
_chemical_formula_structural   ZnH13C17(NO2)3
_chemical_formula_sum   'Zn4 H52 C68 N12 O24'
_cell_volume   1861.27651852
_cell_formula_units_Z   4
loop_
 _symmetry_equiv_pos_site_id
 _symmetry_equiv_pos_as_xyz
  1  'x, y, z'
loop_
 _atom_site_type_symbol
 _atom_site_label
 _atom_site_symmetry_multiplicity
 _atom_site_fract_x
 _atom_site_fract_y
 _atom_site_fract_z
 _atom_site_occupancy
  Zn  Zn0  1  0.28259000  0.24477000  0.82802000  1.0
  Zn  Zn1  1  0.71741000  0.75523000  0.32802000  1.0
  Zn  Zn2  1  0.76755000  0.23346000  0.84027000  1.0
  Zn  Zn3  1  0.23245000  0.76654000  0.34027000  1.0
  H  H4  1  0.33951000  0.50022000  0.76604000  1.0
  H  H5  1  0.66049000  0.49977000  0.26603000  1.0
  H  H6  1  0.23475000  0.71880000  0.76637000  1.0
  H  H7  1  0.76525000  0.28120000  0.26636000  1.0
  H  H8  1  0.90580000  0.59470000  0.87711000  1.0
  H  H9  1  0.09420000  0.40530000  0.37710000  1.0
  H  H10  1  0.02302000  0.38200000  0.87009000  1.0
  H  H11  1  0.97698000  0.61800000  0.37008000  1.0
  H  H12  1  0.69786000  0.97702000  0.82062000  1.0
  H  H13  1  0.30214000  0.02298000  0.32061000  1.0
  H  H14  1  0.80346000  0.75808000  0.80930000  1.0
  H  H15  1  0.19654000  0.24191000  0.30930000  1.0
  H  H16  1  0.16395000  0.88878000  0.84421000  1.0
  H  H17  1  0.83605000  0.11122000  0.34421000  1.0
  H  H18  1  0.04398000  0.10055000  0.85016000  1.0
  H  H19  1  0.95602000  0.89945000  0.35016000  1.0
  H  H20  1  0.89385000  0.46096000  0.57385000  1.0
  H  H21  1  0.10615000  0.53905000  0.07385000  1.0
  H  H22  1  0.07063000  0.55953000  0.51309000  1.0
  H  H23  1  0.92938000  0.44048000  0.01309000  1.0
  H  H24  1  0.29582000  0.46967000  0.55022000  1.0
  H  H25  1  0.70419000  0.53034000  0.05022000  1.0
  H  H26  1  0.69203000  0.44275000  0.70869000  1.0
  H  H27  1  0.30798000  0.55724000  0.20868000  1.0
  H  H28  1  0.59917000  0.66320000  0.70081000  1.0
  H  H29  1  0.40084000  0.33680000  0.20081000  1.0
  H  H30  1  0.53410000  0.65122000  0.96647000  1.0
  H  H31  1  0.46590000  0.34879000  0.46647000  1.0
  H  H32  1  0.63062000  0.43050000  0.96114000  1.0
  H  H33  1  0.36937000  0.56950000  0.46114000  1.0
  H  H34  1  0.40720000  0.05870000  0.95757000  1.0
  H  H35  1  0.59280000  0.94130000  0.45758000  1.0
  H  H36  1  0.51129000  0.84166000  0.96631000  1.0
  H  H37  1  0.48871000  0.15835000  0.46631000  1.0
  H  H38  1  0.46295000  0.82248000  0.69829000  1.0
  H  H39  1  0.53706000  0.17752000  0.19828000  1.0
  H  H40  1  0.37055000  0.04085000  0.70272000  1.0
  H  H41  1  0.62944000  0.95915000  0.20272000  1.0
  H  H42  1  0.77199000  0.00607000  0.12571000  1.0
  H  H43  1  0.22801000  0.99391000  0.62571000  1.0
  H  H44  1  0.99765000  0.94834000  0.17108000  1.0
  H  H45  1  0.00236000  0.05165000  0.67109000  1.0
  H  H46  1  0.16499000  0.05790000  0.10645000  1.0
  H  H47  1  0.83501000  0.94210000  0.60645000  1.0
  H  H48  1  0.46289000  0.35884000  0.85477000  1.0
  H  H49  1  0.53711000  0.64116000  0.35478000  1.0
  H  H50  1  0.49954000  0.25781000  0.92047000  1.0
  H  H51  1  0.50045000  0.74219000  0.42047000  1.0
  H  H52  1  0.56649000  0.21781000  0.73315000  1.0
  H  H53  1  0.43351000  0.78220000  0.23315000  1.0
  H  H54  1  0.70893000  0.19803000  0.69381000  1.0
  H  H55  1  0.29108000  0.80197000  0.19381000  1.0
  C  C56  1  0.24353000  0.52567000  0.79084000  1.0
  C  C57  1  0.75647000  0.47432000  0.29083000  1.0
  C  C58  1  0.18475000  0.64747000  0.79138000  1.0
  C  C59  1  0.81525000  0.35252000  0.29138000  1.0
  C  C60  1  0.06024000  0.67621000  0.82263000  1.0
  C  C61  1  0.93976000  0.32378000  0.32262000  1.0
  C  C62  1  0.00159000  0.57853000  0.85112000  1.0
  C  C63  1  0.99841000  0.42147000  0.35111000  1.0
  C  C64  1  0.06719000  0.45908000  0.84861000  1.0
  C  C65  1  0.93280000  0.54092000  0.34861000  1.0
  C  C66  1  0.80081000  0.95213000  0.82591000  1.0
  C  C67  1  0.19919000  0.04787000  0.32591000  1.0
  C  C68  1  0.86037000  0.83089000  0.82016000  1.0
  C  C69  1  0.13963000  0.16911000  0.32016000  1.0
  C  C70  1  0.99372000  0.80402000  0.82650000  1.0
  C  C71  1  0.00628000  0.19598000  0.32649000  1.0
  C  C72  1  0.06065000  0.90303000  0.83752000  1.0
  C  C73  1  0.93935000  0.09697000  0.33752000  1.0
  C  C74  1  0.99406000  0.02204000  0.84176000  1.0
  C  C75  1  0.00594000  0.97796000  0.34176000  1.0
  C  C76  1  0.01949000  0.33061000  0.64535000  1.0
  C  C77  1  0.98051000  0.66940000  0.14535000  1.0
  C  C78  1  0.99278000  0.42703000  0.58931000  1.0
  C  C79  1  0.00722000  0.57298000  0.08932000  1.0
  C  C80  1  0.09064000  0.48164000  0.55520000  1.0
  C  C81  1  0.90937000  0.51837000  0.05520000  1.0
  C  C82  1  0.21508000  0.43275000  0.57574000  1.0
  C  C83  1  0.78493000  0.56725000  0.07574000  1.0
  C  C84  1  0.24137000  0.33416000  0.62995000  1.0
  C  C85  1  0.75864000  0.66585000  0.12995000  1.0
  C  C86  1  0.37860000  0.28248000  0.64912000  1.0
  C  C87  1  0.62140000  0.71753000  0.14912000  1.0
  C  C88  1  0.91087000  0.27990000  0.68670000  1.0
  C  C89  1  0.08913000  0.72010000  0.18670000  1.0
  C  C90  1  0.65625000  0.49282000  0.76437000  1.0
  C  C91  1  0.34375000  0.50717000  0.26437000  1.0
  C  C92  1  0.60282000  0.61644000  0.76058000  1.0
  C  C93  1  0.39719000  0.38356000  0.26058000  1.0
  C  C94  1  0.55624000  0.67848000  0.83347000  1.0
  C  C95  1  0.44376000  0.32152000  0.33347000  1.0
  C  C96  1  0.56727000  0.61000000  0.90733000  1.0
  C  C97  1  0.43273000  0.39001000  0.40733000  1.0
  C  C98  1  0.62250000  0.48687000  0.90529000  1.0
  C  C99  1  0.37749000  0.51314000  0.40529000  1.0
  C  C100  1  0.42267000  0.00253000  0.90169000  1.0
  C  C101  1  0.57733000  0.99747000  0.40169000  1.0
  C  C102  1  0.48043000  0.88014000  0.90595000  1.0
  C  C103  1  0.51957000  0.11986000  0.40595000  1.0
  C  C104  1  0.49748000  0.80984000  0.83267000  1.0
  C  C105  1  0.50253000  0.19017000  0.33267000  1.0
  C  C106  1  0.45643000  0.86906000  0.75812000  1.0
  C  C107  1  0.54357000  0.13094000  0.25812000  1.0
  C  C108  1  0.40188000  0.99230000  0.75964000  1.0
  C  C109  1  0.59812000  0.00770000  0.25965000  1.0
  C  C110  1  0.67433000  0.17269000  0.01360000  1.0
  C  C111  1  0.32567000  0.82729000  0.51360000  1.0
  C  C112  1  0.81331000  0.13910000  0.03811000  1.0
  C  C113  1  0.18668000  0.86089000  0.53812000  1.0
  C  C114  1  0.84709000  0.05006000  0.09865000  1.0
  C  C115  1  0.15291000  0.94992000  0.59865000  1.0
  C  C116  1  0.97294000  0.01852000  0.12405000  1.0
  C  C117  1  0.02705000  0.98148000  0.62405000  1.0
  C  C118  1  0.06517000  0.07919000  0.08844000  1.0
  C  C119  1  0.93482000  0.92081000  0.58844000  1.0
  C  C120  1  0.03124000  0.16822000  0.02806000  1.0
  C  C121  1  0.96875000  0.83179000  0.52806000  1.0
  C  C122  1  0.12830000  0.23765000  0.98740000  1.0
  C  C123  1  0.87170000  0.76235000  0.48740000  1.0
  N  N124  1  0.18662000  0.43250000  0.81906000  1.0
  N  N125  1  0.81337000  0.56750000  0.31906000  1.0
  N  N126  1  0.86633000  0.04635000  0.83673000  1.0
  N  N127  1  0.13367000  0.95365000  0.33674000  1.0
  N  N128  1  0.14338000  0.28623000  0.66649000  1.0
  N  N129  1  0.85662000  0.71378000  0.16649000  1.0
  N  N130  1  0.66662000  0.42791000  0.83563000  1.0
  N  N131  1  0.33333333  0.57209000  0.33562000  1.0
  N  N132  1  0.38339000  0.05837000  0.82984000  1.0
  N  N133  1  0.61661000  0.94163000  0.32984000  1.0
  N  N134  1  0.90676000  0.19599000  0.00298000  1.0
  N  N135  1  0.09323000  0.80401000  0.50299000  1.0
  O  O136  1  0.42409000  0.31626000  0.89867000  1.0
  O  O137  1  0.57591000  0.68375000  0.39867000  1.0
  O  O138  1  0.16839000  0.19548000  0.72082000  1.0
  O  O139  1  0.83161000  0.80453000  0.22082000  1.0
  O  O140  1  0.41224000  0.27935000  0.72605000  1.0
  O  O141  1  0.58777000  0.72066000  0.22605000  1.0
  O  O142  1  0.45049000  0.25353000  0.58897000  1.0
  O  O143  1  0.54951000  0.74646000  0.08897000  1.0
  O  O144  1  0.83264000  0.23932000  0.63947000  1.0
  O  O145  1  0.16737000  0.76069000  0.13947000  1.0
  O  O146  1  0.90577000  0.29147000  0.76528000  1.0
  O  O147  1  0.09423000  0.70854000  0.26528000  1.0
  O  O148  1  0.65685000  0.17866000  0.74258000  1.0
  O  O149  1  0.34315000  0.82134000  0.24257000  1.0
  O  O150  1  0.87872000  0.28194000  0.94518000  1.0
  O  O151  1  0.12128000  0.71806000  0.44518000  1.0
  O  O152  1  0.64650000  0.19044000  0.93600000  1.0
  O  O153  1  0.35350000  0.80956000  0.43600000  1.0
  O  O154  1  0.59458000  0.17624000  0.07037000  1.0
  O  O155  1  0.40542000  0.82374000  0.57036000  1.0
  O  O156  1  0.16008000  0.32639000  0.02492000  1.0
  O  O157  1  0.83992000  0.67360000  0.52492000  1.0
  O  O158  1  0.16899000  0.19002000  0.91769000  1.0
  O  O159  1  0.83099000  0.80997000  0.41769000  1.0
