# generated using pymatgen
data_CuH14C15(NO2)3
_symmetry_space_group_name_H-M   'P 1'
_cell_length_a   6.84879000
_cell_length_b   10.11290000
_cell_length_c   11.04400000
_cell_angle_alpha   104.19100000
_cell_angle_beta   99.85280000
_cell_angle_gamma   99.10340000
_symmetry_Int_Tables_number   1
_chemical_formula_structural   CuH14C15(NO2)3
_chemical_formula_sum   'Cu2 H28 C30 N6 O12'
_cell_volume   714.41667018
_cell_formula_units_Z   2
loop_
 _symmetry_equiv_pos_site_id
 _symmetry_equiv_pos_as_xyz
  1  'x, y, z'
loop_
 _atom_site_type_symbol
 _atom_site_label
 _atom_site_symmetry_multiplicity
 _atom_site_fract_x
 _atom_site_fract_y
 _atom_site_fract_z
 _atom_site_occupancy
  Cu  Cu0  1  0.31431000  0.21667000  0.34002000  1.0
  Cu  Cu1  1  0.68569000  0.78332000  0.65998000  1.0
  H  H2  1  0.75166000  0.22096000  0.33200000  1.0
  H  H3  1  0.24834000  0.77904000  0.66800000  1.0
  H  H4  1  0.61095000  0.09432000  0.36276000  1.0
  H  H5  1  0.38905000  0.90568000  0.63724000  1.0
  H  H6  1  0.53147000  0.63197000  0.43745000  1.0
  H  H7  1  0.46853000  0.36803000  0.56254000  1.0
  H  H8  1  0.57037000  0.79735000  0.43093000  1.0
  H  H9  1  0.42963000  0.20266000  0.56907000  1.0
  H  H10  1  0.80272000  0.36976000  0.10344000  1.0
  H  H11  1  0.19728000  0.63024000  0.89656000  1.0
  H  H12  1  0.90092000  0.91920000  0.41533000  1.0
  H  H13  1  0.09909000  0.08080000  0.58467000  1.0
  H  H14  1  0.75962000  0.48227000  0.39411000  1.0
  H  H15  1  0.24039000  0.51773000  0.60589000  1.0
  H  H16  1  0.30149000  0.65341000  0.28868000  1.0
  H  H17  1  0.69851000  0.34659000  0.71132000  1.0
  H  H18  1  0.49731000  0.36447000  0.18439000  1.0
  H  H19  1  0.50268000  0.63553000  0.81562000  1.0
  H  H20  1  0.92624000  0.61251000  0.09206000  1.0
  H  H21  1  0.07376000  0.38749000  0.90794000  1.0
  H  H22  1  0.82517000  0.54613000  0.92410000  1.0
  H  H23  1  0.17482000  0.45387000  0.07590000  1.0
  H  H24  1  0.36372000  0.09822000  0.79855000  1.0
  H  H25  1  0.63628000  0.90178000  0.20145000  1.0
  H  H26  1  0.16473000  0.91183000  0.87405000  1.0
  H  H27  1  0.83526000  0.08817000  0.12595000  1.0
  H  H28  1  0.15234000  0.96633000  0.10674000  1.0
  H  H29  1  0.84766000  0.03367000  0.89325000  1.0
  C  C30  1  0.26077000  0.92424000  0.34510000  1.0
  C  C31  1  0.73923000  0.07576000  0.65490000  1.0
  C  C32  1  0.11712000  0.79958000  0.35282000  1.0
  C  C33  1  0.88288000  0.20042000  0.64718000  1.0
  C  C34  1  0.93868000  0.81667000  0.39441000  1.0
  C  C35  1  0.06132000  0.18333000  0.60559000  1.0
  C  C36  1  0.81160000  0.70334000  0.41168000  1.0
  C  C37  1  0.18841000  0.29666000  0.58832000  1.0
  C  C38  1  0.85918000  0.57138000  0.38225000  1.0
  C  C39  1  0.14083000  0.42862000  0.61776000  1.0
  C  C40  1  0.03684000  0.55439000  0.33956000  1.0
  C  C41  1  0.96316000  0.44561000  0.66044000  1.0
  C  C42  1  0.08924000  0.41349000  0.31280000  1.0
  C  C43  1  0.91076000  0.58651000  0.68721000  1.0
  C  C44  1  0.16636000  0.66820000  0.32531000  1.0
  C  C45  1  0.83365000  0.33179000  0.67469000  1.0
  C  C46  1  0.43036000  0.26434000  0.11369000  1.0
  C  C47  1  0.56964000  0.73566000  0.88631000  1.0
  C  C48  1  0.45151000  0.24119000  0.98745000  1.0
  C  C49  1  0.54849000  0.75881000  0.01255000  1.0
  C  C50  1  0.57609000  0.35216000  0.94857000  1.0
  C  C51  1  0.42391000  0.64784000  0.05143000  1.0
  C  C52  1  0.89975000  0.52052000  0.00900000  1.0
  C  C53  1  0.10024000  0.47948000  0.99100000  1.0
  C  C54  1  0.35070000  0.11488000  0.89784000  1.0
  C  C55  1  0.64930000  0.88512000  0.10216000  1.0
  C  C56  1  0.24305000  0.01288000  0.93985000  1.0
  C  C57  1  0.75694000  0.98712000  0.06015000  1.0
  C  C58  1  0.23401000  0.04227000  0.06864000  1.0
  C  C59  1  0.76598000  0.95773000  0.93135000  1.0
  N  N60  1  0.63797000  0.72323000  0.46240000  1.0
  N  N61  1  0.36203000  0.27677000  0.53760000  1.0
  N  N62  1  0.32084000  0.16689000  0.15298000  1.0
  N  N63  1  0.67916000  0.83310000  0.84702000  1.0
  N  N64  1  0.76188000  0.40609000  0.02605000  1.0
  N  N65  1  0.23811000  0.59391000  0.97395000  1.0
  O  O66  1  0.17815000  0.02746000  0.33333333  1.0
  O  O67  1  0.82185000  0.97254000  0.66666667  1.0
  O  O68  1  0.64843000  0.19672000  0.37945000  1.0
  O  O69  1  0.35157000  0.80329000  0.62055000  1.0
  O  O70  1  0.44680000  0.92280000  0.35200000  1.0
  O  O71  1  0.55319000  0.07720000  0.64800000  1.0
  O  O72  1  0.94960000  0.30583000  0.26171000  1.0
  O  O73  1  0.05041000  0.69417000  0.73830000  1.0
  O  O74  1  0.27907000  0.41216000  0.34612000  1.0
  O  O75  1  0.72093000  0.58784000  0.65388000  1.0
  O  O76  1  0.50982000  0.38868000  0.85257000  1.0
  O  O77  1  0.49017000  0.61131000  0.14742000  1.0
