# generated using pymatgen
data_Zn2H14C22N10O9
_symmetry_space_group_name_H-M   'P 1'
_cell_length_a   15.06800000
_cell_length_b   16.65680000
_cell_length_c   16.87520000
_cell_angle_alpha   89.93400000
_cell_angle_beta   78.19540000
_cell_angle_gamma   89.85410000
_symmetry_Int_Tables_number   1
_chemical_formula_structural   Zn2H14C22N10O9
_chemical_formula_sum   'Zn8 H56 C88 N40 O36'
_cell_volume   4145.82711398
_cell_formula_units_Z   4
loop_
 _symmetry_equiv_pos_site_id
 _symmetry_equiv_pos_as_xyz
  1  'x, y, z'
loop_
 _atom_site_type_symbol
 _atom_site_label
 _atom_site_symmetry_multiplicity
 _atom_site_fract_x
 _atom_site_fract_y
 _atom_site_fract_z
 _atom_site_occupancy
  Zn  Zn0  1  0.99944000  0.64299000  0.00205000  1.0
  Zn  Zn1  1  0.49727000  0.14363000  0.49677000  1.0
  Zn  Zn2  1  0.00443000  0.36562000  0.99987000  1.0
  Zn  Zn3  1  0.49440000  0.86533000  0.49924000  1.0
  Zn  Zn4  1  0.17044000  0.49461000  0.98362000  1.0
  Zn  Zn5  1  0.83545000  0.49218000  0.01878000  1.0
  Zn  Zn6  1  0.66106000  0.99249000  0.48889000  1.0
  Zn  Zn7  1  0.32815000  0.99497000  0.51745000  1.0
  H  H8  1  0.03383000  0.33005000  0.81370000  1.0
  H  H9  1  0.96131000  0.33705000  0.18704000  1.0
  H  H10  1  0.53743000  0.83926000  0.31196000  1.0
  H  H11  1  0.45961000  0.82343000  0.68522000  1.0
  H  H12  1  0.11584000  0.20712000  0.91406000  1.0
  H  H13  1  0.89658000  0.20562000  0.08842000  1.0
  H  H14  1  0.60632000  0.70885000  0.40636000  1.0
  H  H15  1  0.38352000  0.70613000  0.58218000  1.0
  H  H16  1  0.87362000  0.79274000  0.91233000  1.0
  H  H17  1  0.12019000  0.79419000  0.09161000  1.0
  H  H18  1  0.37533000  0.29304000  0.40784000  1.0
  H  H19  1  0.61908000  0.29958000  0.58146000  1.0
  H  H20  1  0.81293000  0.50055000  0.82980000  1.0
  H  H21  1  0.19040000  0.49720000  0.17526000  1.0
  H  H22  1  0.30536000  0.99763000  0.32735000  1.0
  H  H23  1  0.67670000  0.99486000  0.68025000  1.0
  H  H24  1  0.24871000  0.38580000  0.41677000  1.0
  H  H25  1  0.76050000  0.38603000  0.57605000  1.0
  H  H26  1  0.74070000  0.88026000  0.91911000  1.0
  H  H27  1  0.24730000  0.88626000  0.08465000  1.0
  H  H28  1  0.18182000  0.46423000  0.32273000  1.0
  H  H29  1  0.83076000  0.46502000  0.66770000  1.0
  H  H30  1  0.67031000  0.95736000  0.82649000  1.0
  H  H31  1  0.31493000  0.96520000  0.17748000  1.0
  H  H32  1  0.54083000  0.61894000  0.88185000  1.0
  H  H33  1  0.46290000  0.63226000  0.11372000  1.0
  H  H34  1  0.02852000  0.13467000  0.39502000  1.0
  H  H35  1  0.92395000  0.11436000  0.65393000  1.0
  H  H36  1  0.22229000  0.12498000  0.81484000  1.0
  H  H37  1  0.78781000  0.12347000  0.18948000  1.0
  H  H38  1  0.71773000  0.62345000  0.31616000  1.0
  H  H39  1  0.27822000  0.62533000  0.68479000  1.0
  H  H40  1  0.88257000  0.72516000  0.33652000  1.0
  H  H41  1  0.10994000  0.72495000  0.66835000  1.0
  H  H42  1  0.39016000  0.22404000  0.83203000  1.0
  H  H43  1  0.62043000  0.21868000  0.16270000  1.0
  H  H44  1  0.07071000  0.74016000  0.77631000  1.0
  H  H45  1  0.92469000  0.73993000  0.22788000  1.0
  H  H46  1  0.57337000  0.23531000  0.26930000  1.0
  H  H47  1  0.42737000  0.24010000  0.72345000  1.0
  H  H48  1  0.42086000  0.65786000  0.76847000  1.0
  H  H49  1  0.58582000  0.67724000  0.22453000  1.0
  H  H50  1  0.90377000  0.18123000  0.28411000  1.0
  H  H51  1  0.03051000  0.15104000  0.77708000  1.0
  H  H52  1  0.62653000  0.67307000  0.67762000  1.0
  H  H53  1  0.38184000  0.68102000  0.31912000  1.0
  H  H54  1  0.10736000  0.17767000  0.18828000  1.0
  H  H55  1  0.82583000  0.20535000  0.84773000  1.0
  H  H56  1  0.35915000  0.42476000  0.92635000  1.0
  H  H57  1  0.64852000  0.41852000  0.07003000  1.0
  H  H58  1  0.84915000  0.91948000  0.44164000  1.0
  H  H59  1  0.13957000  0.92612000  0.57648000  1.0
  H  H60  1  0.25806000  0.48395000  0.72907000  1.0
  H  H61  1  0.74098000  0.48235000  0.27279000  1.0
  H  H62  1  0.76961000  0.98377000  0.23630000  1.0
  H  H63  1  0.24613000  0.98188000  0.77230000  1.0
  C  C64  1  0.08299000  0.64153000  0.82907000  1.0
  C  C65  1  0.91516000  0.64117000  0.17497000  1.0
  C  C66  1  0.58546000  0.13848000  0.32519000  1.0
  C  C67  1  0.41624000  0.14171000  0.67038000  1.0
  C  C68  1  0.98280000  0.37659000  0.83024000  1.0
  C  C69  1  0.01547000  0.38067000  0.17163000  1.0
  C  C70  1  0.48286000  0.88261000  0.32823000  1.0
  C  C71  1  0.51056000  0.87011000  0.67124000  1.0
  C  C72  1  0.27732000  0.33771000  0.91780000  1.0
  C  C73  1  0.73239000  0.33319000  0.08039000  1.0
  C  C74  1  0.76764000  0.83527000  0.42422000  1.0
  C  C75  1  0.22180000  0.83833000  0.58260000  1.0
  C  C76  1  0.74024000  0.64146000  0.97292000  1.0
  C  C77  1  0.25985000  0.64741000  0.02808000  1.0
  C  C78  1  0.23585000  0.14765000  0.47532000  1.0
  C  C79  1  0.75069000  0.14337000  0.53883000  1.0
  C  C80  1  0.16209000  0.25577000  0.91968000  1.0
  C  C81  1  0.84936000  0.25322000  0.08132000  1.0
  C  C82  1  0.65248000  0.75586000  0.41681000  1.0
  C  C83  1  0.33720000  0.75527000  0.57776000  1.0
  C  C84  1  0.83631000  0.73984000  0.93743000  1.0
  C  C85  1  0.15964000  0.74258000  0.06564000  1.0
  C  C86  1  0.33616000  0.24177000  0.43480000  1.0
  C  C87  1  0.65617000  0.24475000  0.56224000  1.0
  C  C88  1  0.87116000  0.46522000  0.83773000  1.0
  C  C89  1  0.13141000  0.46396000  0.16601000  1.0
  C  C90  1  0.36530000  0.96489000  0.33556000  1.0
  C  C91  1  0.62039000  0.95905000  0.66911000  1.0
  C  C92  1  0.17455000  0.53781000  0.81243000  1.0
  C  C93  1  0.82527000  0.53670000  0.19055000  1.0
  C  C94  1  0.67986000  0.03697000  0.31509000  1.0
  C  C95  1  0.32707000  0.03675000  0.68811000  1.0
  C  C96  1  0.15331000  0.60655000  0.77086000  1.0
  C  C97  1  0.84441000  0.60588000  0.23233000  1.0
  C  C98  1  0.65954000  0.10405000  0.27064000  1.0
  C  C99  1  0.34745000  0.10590000  0.72928000  1.0
  C  C100  1  0.91815000  0.40498000  0.78722000  1.0
  C  C101  1  0.07873000  0.40689000  0.21693000  1.0
  C  C102  1  0.41788000  0.90804000  0.28418000  1.0
  C  C103  1  0.57252000  0.89764000  0.71731000  1.0
  C  C104  1  0.25672000  0.26020000  0.89266000  1.0
  C  C105  1  0.75432000  0.25621000  0.10623000  1.0
  C  C106  1  0.74772000  0.75950000  0.39453000  1.0
  C  C107  1  0.24286000  0.76039000  0.60660000  1.0
  C  C108  1  0.74607000  0.71904000  0.93652000  1.0
  C  C109  1  0.25122000  0.72494000  0.06464000  1.0
  C  C110  1  0.24401000  0.22486000  0.43819000  1.0
  C  C111  1  0.74407000  0.22314000  0.57024000  1.0
  C  C112  1  0.62264000  0.73203000  0.85482000  1.0
  C  C113  1  0.37625000  0.74264000  0.14372000  1.0
  C  C114  1  0.11696000  0.24318000  0.36131000  1.0
  C  C115  1  0.85686000  0.23575000  0.66122000  1.0
  C  C116  1  0.68522000  0.76483000  0.89680000  1.0
  C  C117  1  0.31052000  0.77304000  0.10366000  1.0
  C  C118  1  0.18395000  0.27315000  0.39988000  1.0
  C  C119  1  0.80281000  0.26948000  0.61143000  1.0
  C  C120  1  0.20069000  0.35628000  0.38599000  1.0
  C  C121  1  0.79903000  0.35451000  0.61474000  1.0
  C  C122  1  0.69590000  0.84900000  0.88616000  1.0
  C  C123  1  0.29478000  0.85656000  0.11609000  1.0
  C  C124  1  0.16163000  0.40156000  0.33262000  1.0
  C  C125  1  0.84018000  0.40004000  0.66662000  1.0
  C  C126  1  0.65462000  0.89356000  0.83375000  1.0
  C  C127  1  0.33419000  0.90212000  0.16885000  1.0
  C  C128  1  0.10083000  0.36837000  0.28758000  1.0
  C  C129  1  0.89035000  0.36469000  0.72007000  1.0
  C  C130  1  0.59773000  0.85827000  0.78616000  1.0
  C  C131  1  0.39448000  0.86886000  0.21456000  1.0
  C  C132  1  0.58069000  0.77666000  0.80309000  1.0
  C  C133  1  0.41681000  0.78844000  0.19536000  1.0
  C  C134  1  0.07681000  0.28870000  0.30887000  1.0
  C  C135  1  0.89905000  0.28118000  0.71171000  1.0
  C  C136  1  0.53704000  0.70373000  0.77222000  1.0
  C  C137  1  0.46608000  0.71707000  0.22358000  1.0
  C  C138  1  0.02527000  0.21767000  0.28327000  1.0
  C  C139  1  0.92755000  0.20865000  0.75563000  1.0
  C  C140  1  0.58642000  0.65194000  0.83407000  1.0
  C  C141  1  0.41730000  0.66381000  0.16273000  1.0
  C  C142  1  0.07393000  0.16473000  0.34482000  1.0
  C  C143  1  0.87901000  0.15559000  0.69384000  1.0
  C  C144  1  0.29369000  0.14330000  0.80006000  1.0
  C  C145  1  0.71597000  0.14089000  0.20095000  1.0
  C  C146  1  0.78876000  0.64298000  0.30226000  1.0
  C  C147  1  0.20681000  0.64397000  0.70004000  1.0
  C  C148  1  0.81133000  0.70737000  0.34358000  1.0
  C  C149  1  0.18163000  0.70781000  0.65927000  1.0
  C  C150  1  0.31850000  0.20721000  0.84069000  1.0
  C  C151  1  0.69218000  0.20309000  0.15725000  1.0
  N  N152  1  0.06473000  0.59811000  0.89714000  1.0
  N  N153  1  0.93553000  0.59756000  0.10713000  1.0
  N  N154  1  0.56444000  0.09626000  0.39396000  1.0
  N  N155  1  0.43449000  0.09840000  0.60228000  1.0
  N  N156  1  0.97329000  0.41572000  0.90080000  1.0
  N  N157  1  0.03093000  0.41786000  0.09964000  1.0
  N  N158  1  0.46838000  0.91999000  0.40011000  1.0
  N  N159  1  0.52236000  0.91086000  0.60137000  1.0
  N  N160  1  0.20187000  0.37590000  0.95569000  1.0
  N  N161  1  0.80745000  0.37252000  0.04396000  1.0
  N  N162  1  0.69139000  0.87333000  0.46027000  1.0
  N  N163  1  0.29681000  0.87623000  0.54374000  1.0
  N  N164  1  0.81963000  0.61982000  0.99169000  1.0
  N  N165  1  0.18075000  0.62301000  0.01099000  1.0
  N  N166  1  0.31567000  0.12259000  0.49052000  1.0
  N  N167  1  0.67344000  0.12133000  0.51646000  1.0
  N  N168  1  0.12989000  0.32393000  0.95725000  1.0
  N  N169  1  0.88043000  0.32178000  0.04417000  1.0
  N  N170  1  0.61952000  0.82296000  0.45596000  1.0
  N  N171  1  0.36881000  0.82353000  0.54024000  1.0
  N  N172  1  0.87793000  0.68002000  0.97102000  1.0
  N  N173  1  0.11995000  0.68136000  0.03282000  1.0
  N  N174  1  0.37658000  0.18034000  0.46689000  1.0
  N  N175  1  0.61618000  0.18326000  0.52985000  1.0
  N  N176  1  0.90422000  0.47003000  0.90586000  1.0
  N  N177  1  0.10239000  0.46909000  0.09600000  1.0
  N  N178  1  0.39588000  0.97056000  0.40474000  1.0
  N  N179  1  0.59025000  0.96552000  0.59972000  1.0
  N  N180  1  0.12290000  0.53228000  0.88694000  1.0
  N  N181  1  0.87842000  0.53130000  0.11676000  1.0
  N  N182  1  0.62429000  0.03187000  0.38778000  1.0
  N  N183  1  0.37773000  0.03185000  0.61313000  1.0
  N  N184  1  0.65749000  0.59402000  0.79361000  1.0
  N  N185  1  0.34911000  0.60370000  0.20373000  1.0
  N  N186  1  0.14081000  0.10293000  0.30457000  1.0
  N  N187  1  0.80028000  0.10852000  0.73752000  1.0
  N  N188  1  0.66802000  0.58804000  0.99992000  1.0
  N  N189  1  0.33432000  0.59663000  0.99887000  1.0
  N  N190  1  0.16135000  0.09750000  0.50643000  1.0
  N  N191  1  0.82282000  0.08821000  0.51928000  1.0
  O  O192  1  0.04010000  0.71277000  0.82576000  1.0
  O  O193  1  0.95674000  0.71279000  0.17878000  1.0
  O  O194  1  0.54108000  0.20826000  0.31832000  1.0
  O  O195  1  0.45741000  0.21363000  0.67323000  1.0
  O  O196  1  0.44265000  0.70405000  0.79457000  1.0
  O  O197  1  0.56008000  0.72147000  0.19841000  1.0
  O  O198  1  0.93158000  0.22462000  0.30941000  1.0
  O  O199  1  0.02085000  0.19653000  0.74322000  1.0
  O  O200  1  0.56073000  0.68293000  0.69031000  1.0
  O  O201  1  0.44670000  0.69482000  0.30523000  1.0
  O  O202  1  0.04286000  0.19305000  0.20235000  1.0
  O  O203  1  0.89186000  0.19912000  0.83837000  1.0
  O  O204  1  0.65949000  0.52640000  0.82378000  1.0
  O  O205  1  0.71091000  0.61656000  0.73089000  1.0
  O  O206  1  0.34633000  0.53762000  0.17086000  1.0
  O  O207  1  0.29862000  0.62309000  0.26927000  1.0
  O  O208  1  0.14374000  0.03769000  0.33906000  1.0
  O  O209  1  0.19033000  0.12041000  0.23795000  1.0
  O  O210  1  0.80233000  0.03449000  0.72843000  1.0
  O  O211  1  0.73859000  0.14542000  0.78375000  1.0
  O  O212  1  0.36099000  0.37036000  0.90365000  1.0
  O  O213  1  0.64786000  0.36415000  0.09289000  1.0
  O  O214  1  0.85162000  0.86651000  0.41572000  1.0
  O  O215  1  0.13822000  0.87144000  0.59863000  1.0
  O  O216  1  0.68841000  0.51828000  0.02360000  1.0
  O  O217  1  0.58889000  0.60893000  0.00272000  1.0
  O  O218  1  0.31672000  0.52602000  0.97576000  1.0
  O  O219  1  0.41250000  0.62086000  0.99364000  1.0
  O  O220  1  0.17964000  0.02648000  0.52804000  1.0
  O  O221  1  0.08315000  0.12279000  0.51445000  1.0
  O  O222  1  0.80411000  0.01802000  0.49554000  1.0
  O  O223  1  0.90083000  0.10763000  0.52297000  1.0
  O  O224  1  0.24090000  0.48229000  0.78788000  1.0
  O  O225  1  0.75969000  0.48057000  0.21409000  1.0
  O  O226  1  0.74848000  0.98276000  0.29480000  1.0
  O  O227  1  0.26261000  0.98010000  0.71347000  1.0
