# generated using pymatgen
data_AgH7C6BrN
_symmetry_space_group_name_H-M   'P 1'
_cell_length_a   4.31664000
_cell_length_b   9.27133000
_cell_length_c   18.52730000
_cell_angle_alpha   90.00000000
_cell_angle_beta   90.00100000
_cell_angle_gamma   94.94480000
_symmetry_Int_Tables_number   1
_chemical_formula_structural   AgH7C6BrN
_chemical_formula_sum   'Ag4 H28 C24 Br4 N4'
_cell_volume   738.72131950
_cell_formula_units_Z   4
loop_
 _symmetry_equiv_pos_site_id
 _symmetry_equiv_pos_as_xyz
  1  'x, y, z'
loop_
 _atom_site_type_symbol
 _atom_site_label
 _atom_site_symmetry_multiplicity
 _atom_site_fract_x
 _atom_site_fract_y
 _atom_site_fract_z
 _atom_site_occupancy
  Ag  Ag0  1  0.26448000  0.60946000  0.48741000  1.0
  Ag  Ag1  1  0.73552000  0.89054000  0.98741000  1.0
  Ag  Ag2  1  0.73552000  0.39054000  0.51259000  1.0
  Ag  Ag3  1  0.26448000  0.10945000  0.01259000  1.0
  H  H4  1  0.12226000  0.69506000  0.64784000  1.0
  H  H5  1  0.87772000  0.80495000  0.14784000  1.0
  H  H6  1  0.87774000  0.30493000  0.35216000  1.0
  H  H7  1  0.12227000  0.19507000  0.85216000  1.0
  H  H8  1  0.30657000  0.87121000  0.74429000  1.0
  H  H9  1  0.69343000  0.62879000  0.24429000  1.0
  H  H10  1  0.69343000  0.12878000  0.25571000  1.0
  H  H11  1  0.30657000  0.37122000  0.75571000  1.0
  H  H12  1  0.58378000  0.14626000  0.75761000  1.0
  H  H13  1  0.41625000  0.35374000  0.25760000  1.0
  H  H14  1  0.41620000  0.85373000  0.24239000  1.0
  H  H15  1  0.58378000  0.64626000  0.74239000  1.0
  H  H16  1  0.88068000  0.03200000  0.77416000  1.0
  H  H17  1  0.11934000  0.46800000  0.27415000  1.0
  H  H18  1  0.11931000  0.96799000  0.22585000  1.0
  H  H19  1  0.88066000  0.53201000  0.72585000  1.0
  H  H20  1  0.93947000  0.17449000  0.70880000  1.0
  H  H21  1  0.06056000  0.32551000  0.20879000  1.0
  H  H22  1  0.06052000  0.82550000  0.29121000  1.0
  H  H23  1  0.93945000  0.67449000  0.79120000  1.0
  H  H24  1  0.93455000  0.07977000  0.58829000  1.0
  H  H25  1  0.06546000  0.42022000  0.08828000  1.0
  H  H26  1  0.06545000  0.92022000  0.41171000  1.0
  H  H27  1  0.93455000  0.57978000  0.91171000  1.0
  H  H28  1  0.73391000  0.89050000  0.49888000  1.0
  H  H29  1  0.26610000  0.60950000  0.99887000  1.0
  H  H30  1  0.26609000  0.10949000  0.50113000  1.0
  H  H31  1  0.73391000  0.39051000  0.00113000  1.0
  C  C32  1  0.30292000  0.78185000  0.63692000  1.0
  C  C33  1  0.69709000  0.71815000  0.13691000  1.0
  C  C34  1  0.69708000  0.21814000  0.36309000  1.0
  C  C35  1  0.30291000  0.28185000  0.86309000  1.0
  C  C36  1  0.40601000  0.88012000  0.69011000  1.0
  C  C37  1  0.59398000  0.61989000  0.19010000  1.0
  C  C38  1  0.59400000  0.11987000  0.30989000  1.0
  C  C39  1  0.40599000  0.38012000  0.80989000  1.0
  C  C40  1  0.64098000  0.98944000  0.67431000  1.0
  C  C41  1  0.35903000  0.51056000  0.17430000  1.0
  C  C42  1  0.35901000  0.01056000  0.32569000  1.0
  C  C43  1  0.64097000  0.48944000  0.82569000  1.0
  C  C44  1  0.76933000  0.09186000  0.73132000  1.0
  C  C45  1  0.23068000  0.40814000  0.23132000  1.0
  C  C46  1  0.23066000  0.90813000  0.26868000  1.0
  C  C47  1  0.76934000  0.59187000  0.76867000  1.0
  C  C48  1  0.75585000  0.99493000  0.60365000  1.0
  C  C49  1  0.24416000  0.50507000  0.10365000  1.0
  C  C50  1  0.24414000  0.00506000  0.39635000  1.0
  C  C51  1  0.75585000  0.49494000  0.89635000  1.0
  C  C52  1  0.64350000  0.89120000  0.55377000  1.0
  C  C53  1  0.35650000  0.60881000  0.05376000  1.0
  C  C54  1  0.35650000  0.10879000  0.44623000  1.0
  C  C55  1  0.64350000  0.39120000  0.94623000  1.0
  Br  Br56  1  0.21624000  0.38800000  0.60070000  1.0
  Br  Br57  1  0.78378000  0.11201000  0.10070000  1.0
  Br  Br58  1  0.78381000  0.61195000  0.39929000  1.0
  Br  Br59  1  0.21619000  0.88806000  0.89929000  1.0
  N  N60  1  0.42113000  0.78531000  0.56962000  1.0
  N  N61  1  0.57888000  0.71470000  0.06961000  1.0
  N  N62  1  0.57887000  0.21468000  0.43038000  1.0
  N  N63  1  0.42113000  0.28533000  0.93038000  1.0
