# generated using pymatgen
data_TbAgH8C14(NO4)2
_symmetry_space_group_name_H-M   'P 1'
_cell_length_a   9.15834000
_cell_length_b   9.60096000
_cell_length_c   22.42490000
_cell_angle_alpha   89.99920000
_cell_angle_beta   90.00000000
_cell_angle_gamma   118.02000000
_symmetry_Int_Tables_number   1
_chemical_formula_structural   TbAgH8C14(NO4)2
_chemical_formula_sum   'Tb4 Ag4 H32 C56 N8 O32'
_cell_volume   1740.66912067
_cell_formula_units_Z   4
loop_
 _symmetry_equiv_pos_site_id
 _symmetry_equiv_pos_as_xyz
  1  'x, y, z'
loop_
 _atom_site_type_symbol
 _atom_site_label
 _atom_site_symmetry_multiplicity
 _atom_site_fract_x
 _atom_site_fract_y
 _atom_site_fract_z
 _atom_site_occupancy
  Tb  Tb0  1  0.11973000  0.35575000  0.98983000  1.0
  Tb  Tb1  1  0.38028000  0.64424000  0.48983000  1.0
  Tb  Tb2  1  0.88028000  0.64423000  0.01017000  1.0
  Tb  Tb3  1  0.61972000  0.35577000  0.51018000  1.0
  Ag  Ag4  1  0.96789000  0.32607000  0.65232000  1.0
  Ag  Ag5  1  0.53210000  0.67393000  0.15232000  1.0
  Ag  Ag6  1  0.03211000  0.67396000  0.34768000  1.0
  Ag  Ag7  1  0.46791000  0.32607000  0.84768000  1.0
  H  H8  1  0.88371000  0.61183000  0.66269000  1.0
  H  H9  1  0.61631000  0.38818000  0.16270000  1.0
  H  H10  1  0.11631000  0.38822000  0.33731000  1.0
  H  H11  1  0.38369000  0.61180000  0.83731000  1.0
  H  H12  1  0.86042000  0.77700000  0.74480000  1.0
  H  H13  1  0.63960000  0.22301000  0.24480000  1.0
  H  H14  1  0.13961000  0.22304000  0.25522000  1.0
  H  H15  1  0.36038000  0.77698000  0.75521000  1.0
  H  H16  1  0.90528000  0.71894000  0.85159000  1.0
  H  H17  1  0.59473000  0.28107000  0.35160000  1.0
  H  H18  1  0.09476000  0.28108000  0.14842000  1.0
  H  H19  1  0.40524000  0.71892000  0.64841000  1.0
  H  H20  1  0.01313000  0.35901000  0.78315000  1.0
  H  H21  1  0.48688000  0.64099000  0.28315000  1.0
  H  H22  1  0.98687000  0.64100000  0.21684000  1.0
  H  H23  1  0.51315000  0.35903000  0.71684000  1.0
  H  H24  1  0.27284000  0.78490000  0.16500000  1.0
  H  H25  1  0.22714000  0.21509000  0.66500000  1.0
  H  H26  1  0.72716000  0.21510000  0.83500000  1.0
  H  H27  1  0.77286000  0.78491000  0.33499000  1.0
  H  H28  1  0.21268000  0.99801000  0.12819000  1.0
  H  H29  1  0.28731000  0.00199000  0.62819000  1.0
  H  H30  1  0.78731000  0.00198000  0.87181000  1.0
  H  H31  1  0.71267000  0.99801000  0.37181000  1.0
  H  H32  1  0.42595000  0.21404000  0.06520000  1.0
  H  H33  1  0.07406000  0.78597000  0.56519000  1.0
  H  H34  1  0.57405000  0.78594000  0.93480000  1.0
  H  H35  1  0.92592000  0.21404000  0.43480000  1.0
  H  H36  1  0.71564000  0.96692000  0.07152000  1.0
  H  H37  1  0.78435000  0.03308000  0.57152000  1.0
  H  H38  1  0.28435000  0.03306000  0.92847000  1.0
  H  H39  1  0.21565000  0.96695000  0.42847000  1.0
  C  C40  1  0.90702000  0.59377000  0.70900000  1.0
  C  C41  1  0.59300000  0.40623000  0.20900000  1.0
  C  C42  1  0.09301000  0.40626000  0.29101000  1.0
  C  C43  1  0.40701000  0.59375000  0.79101000  1.0
  C  C44  1  0.89302000  0.68414000  0.75519000  1.0
  C  C45  1  0.60700000  0.31586000  0.25520000  1.0
  C  C46  1  0.10701000  0.31589000  0.24482000  1.0
  C  C47  1  0.39299000  0.68411000  0.74481000  1.0
  C  C48  1  0.91830000  0.65300000  0.81404000  1.0
  C  C49  1  0.58172000  0.34701000  0.31404000  1.0
  C  C50  1  0.08174000  0.34701000  0.18597000  1.0
  C  C51  1  0.41827000  0.65298000  0.68596000  1.0
  C  C52  1  0.96218000  0.53359000  0.82427000  1.0
  C  C53  1  0.53783000  0.46642000  0.32427000  1.0
  C  C54  1  0.03785000  0.46643000  0.17573000  1.0
  C  C55  1  0.46215000  0.53357000  0.67572000  1.0
  C  C56  1  0.97712000  0.45080000  0.77563000  1.0
  C  C57  1  0.52290000  0.54921000  0.27563000  1.0
  C  C58  1  0.02290000  0.54922000  0.22437000  1.0
  C  C59  1  0.47713000  0.45080000  0.72437000  1.0
  C  C60  1  0.99247000  0.48913000  0.88551000  1.0
  C  C61  1  0.50755000  0.51088000  0.38551000  1.0
  C  C62  1  0.00755000  0.51086000  0.11449000  1.0
  C  C63  1  0.49246000  0.48913000  0.61449000  1.0
  C  C64  1  0.35977000  0.87805000  0.13614000  1.0
  C  C65  1  0.14022000  0.12194000  0.63615000  1.0
  C  C66  1  0.64023000  0.12194000  0.86386000  1.0
  C  C67  1  0.85978000  0.87807000  0.36385000  1.0
  C  C68  1  0.32849000  0.99882000  0.11663000  1.0
  C  C69  1  0.17150000  0.00118000  0.61663000  1.0
  C  C70  1  0.67150000  0.00117000  0.88337000  1.0
  C  C71  1  0.82849000  0.99882000  0.38336000  1.0
  C  C72  1  0.44526000  0.11650000  0.08071000  1.0
  C  C73  1  0.05474000  0.88351000  0.58071000  1.0
  C  C74  1  0.55474000  0.88348000  0.91929000  1.0
  C  C75  1  0.94526000  0.11651000  0.41929000  1.0
  C  C76  1  0.58777000  0.10751000  0.06391000  1.0
  C  C77  1  0.91223000  0.89249000  0.56391000  1.0
  C  C78  1  0.41222000  0.89247000  0.93609000  1.0
  C  C79  1  0.08776000  0.10752000  0.43609000  1.0
  C  C80  1  0.60756000  0.97961000  0.08407000  1.0
  C  C81  1  0.89243000  0.02039000  0.58407000  1.0
  C  C82  1  0.39244000  0.02037000  0.91593000  1.0
  C  C83  1  0.10757000  0.97964000  0.41592000  1.0
  C  C84  1  0.72079000  0.23718000  0.02731000  1.0
  C  C85  1  0.77922000  0.76282000  0.52732000  1.0
  C  C86  1  0.27923000  0.76282000  0.97268000  1.0
  C  C87  1  0.22078000  0.23719000  0.47268000  1.0
  C  C88  1  0.50334000  0.47927000  0.96703000  1.0
  C  C89  1  0.99665000  0.52070000  0.46703000  1.0
  C  C90  1  0.49666000  0.52068000  0.03298000  1.0
  C  C91  1  0.00333000  0.47930000  0.53298000  1.0
  C  C92  1  0.98860000  0.99129000  0.96558000  1.0
  C  C93  1  0.51139000  0.00872000  0.46558000  1.0
  C  C94  1  0.01140000  0.00870000  0.03443000  1.0
  C  C95  1  0.48858000  0.99131000  0.53443000  1.0
  N  N96  1  0.94800000  0.47776000  0.71905000  1.0
  N  N97  1  0.55201000  0.52223000  0.21905000  1.0
  N  N98  1  0.05202000  0.52226000  0.28095000  1.0
  N  N99  1  0.44800000  0.47775000  0.78095000  1.0
  N  N100  1  0.49679000  0.86786000  0.12039000  1.0
  N  N101  1  0.00320000  0.13213000  0.62039000  1.0
  N  N102  1  0.50320000  0.13212000  0.87961000  1.0
  N  N103  1  0.99681000  0.86789000  0.37961000  1.0
  O  O104  1  0.95208000  0.54501000  0.92981000  1.0
  O  O105  1  0.54792000  0.45500000  0.42981000  1.0
  O  O106  1  0.04795000  0.45498000  0.07019000  1.0
  O  O107  1  0.45205000  0.54502000  0.57018000  1.0
  O  O108  1  0.05655000  0.39753000  0.88937000  1.0
  O  O109  1  0.44346000  0.60249000  0.38936000  1.0
  O  O110  1  0.94347000  0.60247000  0.11063000  1.0
  O  O111  1  0.55652000  0.39752000  0.61063000  1.0
  O  O112  1  0.82640000  0.20785000  0.00130000  1.0
  O  O113  1  0.67360000  0.79214000  0.50129000  1.0
  O  O114  1  0.17361000  0.79212000  0.99871000  1.0
  O  O115  1  0.32636000  0.20787000  0.49871000  1.0
  O  O116  1  0.71675000  0.36742000  0.02732000  1.0
  O  O117  1  0.78326000  0.63259000  0.52732000  1.0
  O  O118  1  0.28326000  0.63258000  0.97268000  1.0
  O  O119  1  0.21672000  0.36743000  0.47267000  1.0
  O  O120  1  0.36610000  0.38449000  0.94301000  1.0
  O  O121  1  0.13388000  0.61550000  0.44299000  1.0
  O  O122  1  0.63390000  0.61547000  0.05701000  1.0
  O  O123  1  0.86608000  0.38451000  0.55699000  1.0
  O  O124  1  0.64218000  0.54069000  0.94166000  1.0
  O  O125  1  0.85785000  0.45934000  0.44165000  1.0
  O  O126  1  0.35785000  0.45930000  0.05835000  1.0
  O  O127  1  0.14219000  0.54071000  0.55834000  1.0
  O  O128  1  0.04569000  0.11701000  0.93544000  1.0
  O  O129  1  0.45429000  0.88299000  0.43543000  1.0
  O  O130  1  0.95429000  0.88294000  0.06456000  1.0
  O  O131  1  0.54570000  0.11705000  0.56455000  1.0
  O  O132  1  0.91428000  0.85175000  0.94507000  1.0
  O  O133  1  0.58568000  0.14824000  0.44506000  1.0
  O  O134  1  0.08573000  0.14824000  0.05493000  1.0
  O  O135  1  0.41424000  0.85172000  0.55492000  1.0
