# generated using pymatgen
data_AgH8C13SN3
_symmetry_space_group_name_H-M   'P 1'
_cell_length_a   4.45457000
_cell_length_b   10.26320000
_cell_length_c   12.15860000
_cell_angle_alpha   80.33500000
_cell_angle_beta   89.99930000
_cell_angle_gamma   89.99950000
_symmetry_Int_Tables_number   1
_chemical_formula_structural   AgH8C13SN3
_chemical_formula_sum   'Ag2 H16 C26 S2 N6'
_cell_volume   547.97872866
_cell_formula_units_Z   2
loop_
 _symmetry_equiv_pos_site_id
 _symmetry_equiv_pos_as_xyz
  1  'x, y, z'
loop_
 _atom_site_type_symbol
 _atom_site_label
 _atom_site_symmetry_multiplicity
 _atom_site_fract_x
 _atom_site_fract_y
 _atom_site_fract_z
 _atom_site_occupancy
  Ag  Ag0  1  0.93062000  0.83531000  0.47308000  1.0
  Ag  Ag1  1  0.43063000  0.16470000  0.52692000  1.0
  H  H2  1  0.53321000  0.88845000  0.00116000  1.0
  H  H3  1  0.03320000  0.11155000  0.99884000  1.0
  H  H4  1  0.66698000  0.05031000  0.12956000  1.0
  H  H5  1  0.16698000  0.94969000  0.87044000  1.0
  H  H6  1  0.42012000  0.02711000  0.31454000  1.0
  H  H7  1  0.92014000  0.97288000  0.68546000  1.0
  H  H8  1  0.45035000  0.57940000  0.48637000  1.0
  H  H9  1  0.95035000  0.42059000  0.51364000  1.0
  H  H10  1  0.50877000  0.41295000  0.18442000  1.0
  H  H11  1  0.00877000  0.58705000  0.81558000  1.0
  H  H12  1  0.28732000  0.40821000  0.37338000  1.0
  H  H13  1  0.78732000  0.59179000  0.62662000  1.0
  H  H14  1  0.85362000  0.52279000  0.03455000  1.0
  H  H15  1  0.35362000  0.47721000  0.96546000  1.0
  H  H16  1  0.22586000  0.69978000  0.96658000  1.0
  H  H17  1  0.72586000  0.30022000  0.03342000  1.0
  C  C18  1  0.42859000  0.88368000  0.08286000  1.0
  C  C19  1  0.92859000  0.11632000  0.91714000  1.0
  C  C20  1  0.08832000  0.77765000  0.22675000  1.0
  C  C21  1  0.58833000  0.22235000  0.77325000  1.0
  C  C22  1  0.45684000  0.79972000  0.70257000  1.0
  C  C23  1  0.95681000  0.20028000  0.29743000  1.0
  C  C24  1  0.78942000  0.58361000  0.19530000  1.0
  C  C25  1  0.28942000  0.41639000  0.80470000  1.0
  C  C26  1  0.87159000  0.67499000  0.26616000  1.0
  C  C27  1  0.37159000  0.32501000  0.73384000  1.0
  C  C28  1  0.21455000  0.78384000  0.11847000  1.0
  C  C29  1  0.71455000  0.21617000  0.88153000  1.0
  C  C30  1  0.50363000  0.97168000  0.15267000  1.0
  C  C31  1  0.00362000  0.02832000  0.84733000  1.0
  C  C32  1  0.36521000  0.95872000  0.25780000  1.0
  C  C33  1  0.86521000  0.04128000  0.74219000  1.0
  C  C34  1  0.54713000  0.57720000  0.40419000  1.0
  C  C35  1  0.04713000  0.42280000  0.59581000  1.0
  C  C36  1  0.57621000  0.48535000  0.23565000  1.0
  C  C37  1  0.07620000  0.51465000  0.76436000  1.0
  C  C38  1  0.45358000  0.48242000  0.34043000  1.0
  C  C39  1  0.95358000  0.51758000  0.65957000  1.0
  C  C40  1  0.92057000  0.59419000  0.08685000  1.0
  C  C41  1  0.42058000  0.40581000  0.91316000  1.0
  C  C42  1  0.12475000  0.69074000  0.04947000  1.0
  C  C43  1  0.62476000  0.30926000  0.95054000  1.0
  S  S44  1  0.43102000  0.85765000  0.56734000  1.0
  S  S45  1  0.93100000  0.14237000  0.43265000  1.0
  N  N46  1  0.16399000  0.86556000  0.29372000  1.0
  N  N47  1  0.66400000  0.13444000  0.70628000  1.0
  N  N48  1  0.47950000  0.76200000  0.79956000  1.0
  N  N49  1  0.97950000  0.23799000  0.20043000  1.0
  N  N50  1  0.75135000  0.66934000  0.36923000  1.0
  N  N51  1  0.25135000  0.33065000  0.63077000  1.0
