# generated using pymatgen
data_CuH4C3IN
_symmetry_space_group_name_H-M   'P 1'
_cell_length_a   7.29958000
_cell_length_b   7.38425000
_cell_length_c   9.81251000
_cell_angle_alpha   96.16730000
_cell_angle_beta   108.15700000
_cell_angle_gamma   97.41690000
_symmetry_Int_Tables_number   1
_chemical_formula_structural   CuH4C3IN
_chemical_formula_sum   'Cu4 H16 C12 I4 N4'
_cell_volume   492.21421233
_cell_formula_units_Z   4
loop_
 _symmetry_equiv_pos_site_id
 _symmetry_equiv_pos_as_xyz
  1  'x, y, z'
loop_
 _atom_site_type_symbol
 _atom_site_label
 _atom_site_symmetry_multiplicity
 _atom_site_fract_x
 _atom_site_fract_y
 _atom_site_fract_z
 _atom_site_occupancy
  Cu  Cu0  1  0.98990000  0.40758000  0.37736000  1.0
  Cu  Cu1  1  0.01010000  0.59242000  0.62263000  1.0
  Cu  Cu2  1  0.83814000  0.05262000  0.43132000  1.0
  Cu  Cu3  1  0.16187000  0.94737000  0.56868000  1.0
  H  H4  1  0.60373000  0.50565000  0.76941000  1.0
  H  H5  1  0.39626000  0.49436000  0.23059000  1.0
  H  H6  1  0.84330000  0.76448000  0.94447000  1.0
  H  H7  1  0.15668000  0.23553000  0.05554000  1.0
  H  H8  1  0.99994000  0.72043000  0.20179000  1.0
  H  H9  1  0.00004000  0.27957000  0.79822000  1.0
  H  H10  1  0.68991000  0.18938000  0.12383000  1.0
  H  H11  1  0.31010000  0.81062000  0.87616000  1.0
  H  H12  1  0.57216000  0.04194000  0.82609000  1.0
  H  H13  1  0.42784000  0.95805000  0.17391000  1.0
  H  H14  1  0.38697000  0.10498000  0.89340000  1.0
  H  H15  1  0.61304000  0.89503000  0.10661000  1.0
  H  H16  1  0.46145000  0.20685000  0.63063000  1.0
  H  H17  1  0.53855000  0.79315000  0.36937000  1.0
  H  H18  1  0.29792000  0.28378000  0.69321000  1.0
  H  H19  1  0.70208000  0.71620000  0.30680000  1.0
  C  C20  1  0.67128000  0.48863000  0.88233000  1.0
  C  C21  1  0.32870000  0.51138000  0.11766000  1.0
  C  C22  1  0.80441000  0.63434000  0.98012000  1.0
  C  C23  1  0.19559000  0.36567000  0.01988000  1.0
  C  C24  1  0.89268000  0.61097000  0.12306000  1.0
  C  C25  1  0.10732000  0.38904000  0.87694000  1.0
  C  C26  1  0.72017000  0.31388000  0.07832000  1.0
  C  C27  1  0.27983000  0.68611000  0.92166000  1.0
  C  C28  1  0.62804000  0.32308000  0.93182000  1.0
  C  C29  1  0.37198000  0.67692000  0.06819000  1.0
  C  C30  1  0.48872000  0.15380000  0.83735000  1.0
  C  C31  1  0.51129000  0.84619000  0.16264000  1.0
  I  I32  1  0.69616000  0.34878000  0.48109000  1.0
  I  I33  1  0.30385000  0.65121000  0.51891000  1.0
  I  I34  1  0.11573000  0.09269000  0.31645000  1.0
  I  I35  1  0.88428000  0.90731000  0.68356000  1.0
  N  N36  1  0.85068000  0.45251000  0.17256000  1.0
  N  N37  1  0.14932000  0.54748000  0.82744000  1.0
  N  N38  1  0.37197000  0.17520000  0.69054000  1.0
  N  N39  1  0.62804000  0.82479000  0.30946000  1.0
