# generated using pymatgen
data_CuH10C6(N2Cl)4
_symmetry_space_group_name_H-M   'P 1'
_cell_length_a   6.66964000
_cell_length_b   7.34103000
_cell_length_c   13.86860000
_cell_angle_alpha   81.11720000
_cell_angle_beta   89.99940000
_cell_angle_gamma   89.99860000
_symmetry_Int_Tables_number   1
_chemical_formula_structural   CuH10C6(N2Cl)4
_chemical_formula_sum   'Cu2 H20 C12 N16 Cl8'
_cell_volume   670.89060875
_cell_formula_units_Z   2
loop_
 _symmetry_equiv_pos_site_id
 _symmetry_equiv_pos_as_xyz
  1  'x, y, z'
loop_
 _atom_site_type_symbol
 _atom_site_label
 _atom_site_symmetry_multiplicity
 _atom_site_fract_x
 _atom_site_fract_y
 _atom_site_fract_z
 _atom_site_occupancy
  Cu  Cu0  1  0.00000000  0.00000000  0.00000000  1.0
  Cu  Cu1  1  0.50000000  0.50000000  0.00000000  1.0
  H  H2  1  0.46199000  0.02294000  0.08575000  1.0
  H  H3  1  0.96200000  0.47706000  0.91425000  1.0
  H  H4  1  0.53802000  0.97706000  0.91425000  1.0
  H  H5  1  0.03800000  0.52295000  0.08575000  1.0
  H  H6  1  0.69470000  0.92352000  0.23200000  1.0
  H  H7  1  0.19469000  0.57647000  0.76800000  1.0
  H  H8  1  0.30531000  0.07646000  0.76800000  1.0
  H  H9  1  0.80530000  0.42355000  0.23200000  1.0
  H  H10  1  0.60759000  0.71053000  0.29771000  1.0
  H  H11  1  0.10760000  0.78947000  0.70230000  1.0
  H  H12  1  0.39240000  0.28945000  0.70229000  1.0
  H  H13  1  0.89240000  0.21054000  0.29770000  1.0
  H  H14  1  0.45344000  0.87378000  0.42547000  1.0
  H  H15  1  0.95345000  0.62623000  0.57454000  1.0
  H  H16  1  0.54656000  0.12621000  0.57454000  1.0
  H  H17  1  0.04656000  0.37377000  0.42546000  1.0
  H  H18  1  0.53505000  0.09095000  0.36101000  1.0
  H  H19  1  0.03506000  0.40906000  0.63899000  1.0
  H  H20  1  0.46494000  0.90904000  0.63899000  1.0
  H  H21  1  0.96494000  0.59095000  0.36101000  1.0
  C  C22  1  0.34990000  0.96038000  0.13729000  1.0
  C  C23  1  0.84991000  0.53962000  0.86271000  1.0
  C  C24  1  0.65009000  0.03962000  0.86271000  1.0
  C  C25  1  0.15008000  0.46038000  0.13728000  1.0
  C  C26  1  0.57829000  0.85925000  0.28178000  1.0
  C  C27  1  0.07831000  0.64074000  0.71823000  1.0
  C  C28  1  0.42171000  0.14074000  0.71822000  1.0
  C  C29  1  0.92169000  0.35928000  0.28177000  1.0
  C  C30  1  0.56675000  0.94287000  0.37558000  1.0
  C  C31  1  0.06676000  0.55714000  0.62441000  1.0
  C  C32  1  0.43324000  0.05711000  0.62442000  1.0
  C  C33  1  0.93325000  0.44286000  0.37558000  1.0
  N  N34  1  0.38744000  0.88480000  0.22981000  1.0
  N  N35  1  0.88742000  0.61520000  0.77020000  1.0
  N  N36  1  0.61258000  0.11519000  0.77020000  1.0
  N  N37  1  0.11257000  0.38482000  0.22980000  1.0
  N  N38  1  0.21269000  0.82371000  0.27341000  1.0
  N  N39  1  0.71268000  0.67628000  0.72660000  1.0
  N  N40  1  0.78732000  0.17628000  0.72659000  1.0
  N  N41  1  0.28731000  0.32373000  0.27340000  1.0
  N  N42  1  0.07212000  0.86229000  0.20887000  1.0
  N  N43  1  0.57214000  0.63771000  0.79112000  1.0
  N  N44  1  0.92788000  0.13771000  0.79113000  1.0
  N  N45  1  0.42786000  0.36229000  0.20887000  1.0
  N  N46  1  0.15355000  0.94651000  0.12359000  1.0
  N  N47  1  0.65353000  0.55348000  0.87641000  1.0
  N  N48  1  0.84648000  0.05348000  0.87641000  1.0
  N  N49  1  0.34645000  0.44652000  0.12359000  1.0
  Cl  Cl50  1  0.78904000  0.19426000  0.06810000  1.0
  Cl  Cl51  1  0.28905000  0.30574000  0.93190000  1.0
  Cl  Cl52  1  0.21096000  0.80574000  0.93190000  1.0
  Cl  Cl53  1  0.71095000  0.69426000  0.06810000  1.0
  Cl  Cl54  1  0.80366000  0.91452000  0.43657000  1.0
  Cl  Cl55  1  0.30367000  0.58548000  0.56344000  1.0
  Cl  Cl56  1  0.19633000  0.08548000  0.56344000  1.0
  Cl  Cl57  1  0.69634000  0.41452000  0.43657000  1.0
