# generated using pymatgen
data_CdH6(C3O)4
_symmetry_space_group_name_H-M   'P 1'
_cell_length_a   5.72550000
_cell_length_b   10.93120000
_cell_length_c   15.07530000
_cell_angle_alpha   85.07650000
_cell_angle_beta   89.99970000
_cell_angle_gamma   89.99960000
_symmetry_Int_Tables_number   1
_chemical_formula_structural   CdH6(C3O)4
_chemical_formula_sum   'Cd4 H24 C48 O16'
_cell_volume   940.03016458
_cell_formula_units_Z   4
loop_
 _symmetry_equiv_pos_site_id
 _symmetry_equiv_pos_as_xyz
  1  'x, y, z'
loop_
 _atom_site_type_symbol
 _atom_site_label
 _atom_site_symmetry_multiplicity
 _atom_site_fract_x
 _atom_site_fract_y
 _atom_site_fract_z
 _atom_site_occupancy
  Cd  Cd0  1  0.07260000  0.63588000  0.96533000  1.0
  Cd  Cd1  1  0.57259000  0.86411000  0.03467000  1.0
  Cd  Cd2  1  0.92741000  0.36412000  0.03468000  1.0
  Cd  Cd3  1  0.42742000  0.13588000  0.96532000  1.0
  H  H4  1  0.02886000  0.40645000  0.27892000  1.0
  H  H5  1  0.52889000  0.09357000  0.72107000  1.0
  H  H6  1  0.97113000  0.59357000  0.72108000  1.0
  H  H7  1  0.47111000  0.90641000  0.27892000  1.0
  H  H8  1  0.03389000  0.44559000  0.43885000  1.0
  H  H9  1  0.53392000  0.05442000  0.56114000  1.0
  H  H10  1  0.96609000  0.55442000  0.56115000  1.0
  H  H11  1  0.46607000  0.94558000  0.43885000  1.0
  H  H12  1  0.32884000  0.58895000  0.49371000  1.0
  H  H13  1  0.82886000  0.91105000  0.50629000  1.0
  H  H14  1  0.67114000  0.41106000  0.50630000  1.0
  H  H15  1  0.17114000  0.08896000  0.49370000  1.0
  H  H16  1  0.66912000  0.71728000  0.46890000  1.0
  H  H17  1  0.16915000  0.78272000  0.53111000  1.0
  H  H18  1  0.33086000  0.28273000  0.53112000  1.0
  H  H19  1  0.83086000  0.21728000  0.46888000  1.0
  H  H20  1  0.96831000  0.81862000  0.36651000  1.0
  H  H21  1  0.46833000  0.68138000  0.63350000  1.0
  H  H22  1  0.03169000  0.18138000  0.63351000  1.0
  H  H23  1  0.53166000  0.31861000  0.36649000  1.0
  H  H24  1  0.97876000  0.77355000  0.20808000  1.0
  H  H25  1  0.47876000  0.72645000  0.79192000  1.0
  H  H26  1  0.02126000  0.22644000  0.79193000  1.0
  H  H27  1  0.52122000  0.27354000  0.20807000  1.0
  C  C28  1  0.32154000  0.52140000  0.24364000  1.0
  C  C29  1  0.82156000  0.97860000  0.75636000  1.0
  C  C30  1  0.67845000  0.47861000  0.75636000  1.0
  C  C31  1  0.17844000  0.02138000  0.24364000  1.0
  C  C32  1  0.16222000  0.46581000  0.30363000  1.0
  C  C33  1  0.66224000  0.03420000  0.69637000  1.0
  C  C34  1  0.83777000  0.53420000  0.69638000  1.0
  C  C35  1  0.33775000  0.96579000  0.30363000  1.0
  C  C36  1  0.16398000  0.48928000  0.39394000  1.0
  C  C37  1  0.66400000  0.01073000  0.60606000  1.0
  C  C38  1  0.83601000  0.51073000  0.60607000  1.0
  C  C39  1  0.33599000  0.98927000  0.39393000  1.0
  C  C40  1  0.32650000  0.56877000  0.42413000  1.0
  C  C41  1  0.82652000  0.93124000  0.57587000  1.0
  C  C42  1  0.67349000  0.43124000  0.57588000  1.0
  C  C43  1  0.17347000  0.06877000  0.42412000  1.0
  C  C44  1  0.67019000  0.70300000  0.39809000  1.0
  C  C45  1  0.17022000  0.79700000  0.60191000  1.0
  C  C46  1  0.32980000  0.29701000  0.60191000  1.0
  C  C47  1  0.82979000  0.20299000  0.39808000  1.0
  C  C48  1  0.83558000  0.75853000  0.34187000  1.0
  C  C49  1  0.33560000  0.74147000  0.65814000  1.0
  C  C50  1  0.16443000  0.24147000  0.65814000  1.0
  C  C51  1  0.66441000  0.25852000  0.34186000  1.0
  C  C52  1  0.84058000  0.73419000  0.25145000  1.0
  C  C53  1  0.34059000  0.76581000  0.74855000  1.0
  C  C54  1  0.15943000  0.26580000  0.74855000  1.0
  C  C55  1  0.65939000  0.23418000  0.25145000  1.0
  C  C56  1  0.68021000  0.65442000  0.21835000  1.0
  C  C57  1  0.18022000  0.84558000  0.78165000  1.0
  C  C58  1  0.31979000  0.34557000  0.78166000  1.0
  C  C59  1  0.81977000  0.15442000  0.21834000  1.0
  C  C60  1  0.49903000  0.59990000  0.27368000  1.0
  C  C61  1  0.99904000  0.90010000  0.72632000  1.0
  C  C62  1  0.50097000  0.40010000  0.72633000  1.0
  C  C63  1  0.00096000  0.09989000  0.27367000  1.0
  C  C64  1  0.49781000  0.62453000  0.36584000  1.0
  C  C65  1  0.99783000  0.87547000  0.63416000  1.0
  C  C66  1  0.50218000  0.37548000  0.63416000  1.0
  C  C67  1  0.00217000  0.12452000  0.36584000  1.0
  C  C68  1  0.27068000  0.50429000  0.14767000  1.0
  C  C69  1  0.77068000  0.99572000  0.85232000  1.0
  C  C70  1  0.72934000  0.49572000  0.85233000  1.0
  C  C71  1  0.22933000  0.00427000  0.14767000  1.0
  C  C72  1  0.73412000  0.61269000  0.12870000  1.0
  C  C73  1  0.23412000  0.88731000  0.87130000  1.0
  C  C74  1  0.26589000  0.38730000  0.87131000  1.0
  C  C75  1  0.76588000  0.11269000  0.12869000  1.0
  O  O76  1  0.27075000  0.60098000  0.09373000  1.0
  O  O77  1  0.77075000  0.89903000  0.90627000  1.0
  O  O78  1  0.72926000  0.39904000  0.90628000  1.0
  O  O79  1  0.22926000  0.10095000  0.09372000  1.0
  O  O80  1  0.21280000  0.39687000  0.12981000  1.0
  O  O81  1  0.71281000  0.10313000  0.87019000  1.0
  O  O82  1  0.78721000  0.60315000  0.87020000  1.0
  O  O83  1  0.28721000  0.89684000  0.12981000  1.0
  O  O84  1  0.74754000  0.49892000  0.12273000  1.0
  O  O85  1  0.24754000  0.00108000  0.87727000  1.0
  O  O86  1  0.25245000  0.50108000  0.87729000  1.0
  O  O87  1  0.75245000  0.99891000  0.12271000  1.0
  O  O88  1  0.78590000  0.69480000  0.06446000  1.0
  O  O89  1  0.28588000  0.80520000  0.93554000  1.0
  O  O90  1  0.21412000  0.30520000  0.93555000  1.0
  O  O91  1  0.71412000  0.19480000  0.06445000  1.0
