# generated using pymatgen
data_ZnH16C16(SN5)2
_symmetry_space_group_name_H-M   'P 1'
_cell_length_a   9.03335619
_cell_length_b   9.03336000
_cell_length_c   13.82570000
_cell_angle_alpha   89.99990000
_cell_angle_beta   89.99979914
_cell_angle_gamma   60.57195864
_symmetry_Int_Tables_number   1
_chemical_formula_structural   ZnH16C16(SN5)2
_chemical_formula_sum   'Zn2 H32 C32 S4 N20'
_cell_volume   982.63108718
_cell_formula_units_Z   2
loop_
 _symmetry_equiv_pos_site_id
 _symmetry_equiv_pos_as_xyz
  1  'x, y, z'
loop_
 _atom_site_type_symbol
 _atom_site_label
 _atom_site_symmetry_multiplicity
 _atom_site_fract_x
 _atom_site_fract_y
 _atom_site_fract_z
 _atom_site_occupancy
  Zn  Zn0  1  0.00000000  0.00000000  0.00000000  1.0
  Zn  Zn1  1  0.50000000  0.50000000  0.50000000  1.0
  H  H2  1  0.35337000  0.35337000  0.27217000  1.0
  H  H3  1  0.14663000  0.14663000  0.77217000  1.0
  H  H4  1  0.85337000  0.85337000  0.22783000  1.0
  H  H5  1  0.64663000  0.64663000  0.72783000  1.0
  H  H6  1  0.46653000  0.46653000  0.25113000  1.0
  H  H7  1  0.03347000  0.03347000  0.75113000  1.0
  H  H8  1  0.96653000  0.96653000  0.24887000  1.0
  H  H9  1  0.53347000  0.53347000  0.74887000  1.0
  H  H10  1  0.72079000  0.33204000  0.13555000  1.0
  H  H11  1  0.77921000  0.16796000  0.63555000  1.0
  H  H12  1  0.83204000  0.22079000  0.36445000  1.0
  H  H13  1  0.66796000  0.27921000  0.86445000  1.0
  H  H14  1  0.27921000  0.66796000  0.86446000  1.0
  H  H15  1  0.22079000  0.83204000  0.36445000  1.0
  H  H16  1  0.16796000  0.77921000  0.63555000  1.0
  H  H17  1  0.33204000  0.72079000  0.13554000  1.0
  H  H18  1  0.67925000  0.91401000  0.03221000  1.0
  H  H19  1  0.82075000  0.58600000  0.53221000  1.0
  H  H20  1  0.41401000  0.17924000  0.46779000  1.0
  H  H21  1  0.08600000  0.32075000  0.96779000  1.0
  H  H22  1  0.32075000  0.08600000  0.96778000  1.0
  H  H23  1  0.17925000  0.41400000  0.46778000  1.0
  H  H24  1  0.58600000  0.82074000  0.53221000  1.0
  H  H25  1  0.91400000  0.67925000  0.03221000  1.0
  H  H26  1  0.40087000  0.11166000  0.14928000  1.0
  H  H27  1  0.09912000  0.38835000  0.64928000  1.0
  H  H28  1  0.61166000  0.90087000  0.35072000  1.0
  H  H29  1  0.88835000  0.59913000  0.85072000  1.0
  H  H30  1  0.59913000  0.88835000  0.85072000  1.0
  H  H31  1  0.90087000  0.61166000  0.35072000  1.0
  H  H32  1  0.38835000  0.09912000  0.64928000  1.0
  H  H33  1  0.11165000  0.40088000  0.14928000  1.0
  C  C34  1  0.40345000  0.40345000  0.21652000  1.0
  C  C35  1  0.09655000  0.09655000  0.71652000  1.0
  C  C36  1  0.90345000  0.90345000  0.28348000  1.0
  C  C37  1  0.59655000  0.59656000  0.78348000  1.0
  C  C38  1  0.67553000  0.24240000  0.12211000  1.0
  C  C39  1  0.82447000  0.25760000  0.62211000  1.0
  C  C40  1  0.74241000  0.17552000  0.37789000  1.0
  C  C41  1  0.75759000  0.32448000  0.87789000  1.0
  C  C42  1  0.32448000  0.75759000  0.87789000  1.0
  C  C43  1  0.17553000  0.74240000  0.37789000  1.0
  C  C44  1  0.25759000  0.82447000  0.62211000  1.0
  C  C45  1  0.24241000  0.67552000  0.12211000  1.0
  C  C46  1  0.64779000  0.02944000  0.07127000  1.0
  C  C47  1  0.85221000  0.47056000  0.57127000  1.0
  C  C48  1  0.52944000  0.14779000  0.42873000  1.0
  C  C49  1  0.97056000  0.35221000  0.92873000  1.0
  C  C50  1  0.35221000  0.97056000  0.92873000  1.0
  C  C51  1  0.14779000  0.52944000  0.42873000  1.0
  C  C52  1  0.47056000  0.85220000  0.57127000  1.0
  C  C53  1  0.02944000  0.64779000  0.07127000  1.0
  C  C54  1  0.50739000  0.12728000  0.12697000  1.0
  C  C55  1  0.99262000  0.37272000  0.62697000  1.0
  C  C56  1  0.62728000  0.00738000  0.37303000  1.0
  C  C57  1  0.87272000  0.49262000  0.87303000  1.0
  C  C58  1  0.49262000  0.87272000  0.87303000  1.0
  C  C59  1  0.00738000  0.62728000  0.37303000  1.0
  C  C60  1  0.37272000  0.99261000  0.62697000  1.0
  C  C61  1  0.12728000  0.50738000  0.12697000  1.0
  C  C62  1  0.11876000  0.11875000  0.19762000  1.0
  C  C63  1  0.38123000  0.38125000  0.69762000  1.0
  C  C64  1  0.61876000  0.61876000  0.30238000  1.0
  C  C65  1  0.88124000  0.88124000  0.80238000  1.0
  S  S66  1  0.15772000  0.15773000  0.30649000  1.0
  S  S67  1  0.34227000  0.34228000  0.80649000  1.0
  S  S68  1  0.65773000  0.65772000  0.19351000  1.0
  S  S69  1  0.84228000  0.84227000  0.69352000  1.0
  N  N70  1  0.52635000  0.26241000  0.15847000  1.0
  N  N71  1  0.97365000  0.23759000  0.65848000  1.0
  N  N72  1  0.76241000  0.02635000  0.34152000  1.0
  N  N73  1  0.73759000  0.47365000  0.84153000  1.0
  N  N74  1  0.47365000  0.73759000  0.84153000  1.0
  N  N75  1  0.02635000  0.76241000  0.34152000  1.0
  N  N76  1  0.23759000  0.97365000  0.65847000  1.0
  N  N77  1  0.26241000  0.52635000  0.15848000  1.0
  N  N78  1  0.75203000  0.10126000  0.06953000  1.0
  N  N79  1  0.74797000  0.39874000  0.56953000  1.0
  N  N80  1  0.60126000  0.25203000  0.43047000  1.0
  N  N81  1  0.89874000  0.24797000  0.93047000  1.0
  N  N82  1  0.24797000  0.89874000  0.93047000  1.0
  N  N83  1  0.25203000  0.60126000  0.43047000  1.0
  N  N84  1  0.39874000  0.74797000  0.56953000  1.0
  N  N85  1  0.10126000  0.75203000  0.06953000  1.0
  N  N86  1  0.09099000  0.09099000  0.11749000  1.0
  N  N87  1  0.40901000  0.40901000  0.61749000  1.0
  N  N88  1  0.59099000  0.59099000  0.38250000  1.0
  N  N89  1  0.90901000  0.90901000  0.88251000  1.0
