# generated using pymatgen
data_ZnH6C8N4O3
_symmetry_space_group_name_H-M   'P 1'
_cell_length_a   8.96128000
_cell_length_b   10.04870000
_cell_length_c   10.88370000
_cell_angle_alpha   89.99990000
_cell_angle_beta   110.64700000
_cell_angle_gamma   89.99970000
_symmetry_Int_Tables_number   1
_chemical_formula_structural   ZnH6C8N4O3
_chemical_formula_sum   'Zn4 H24 C32 N16 O12'
_cell_volume   917.11941711
_cell_formula_units_Z   4
loop_
 _symmetry_equiv_pos_site_id
 _symmetry_equiv_pos_as_xyz
  1  'x, y, z'
loop_
 _atom_site_type_symbol
 _atom_site_label
 _atom_site_symmetry_multiplicity
 _atom_site_fract_x
 _atom_site_fract_y
 _atom_site_fract_z
 _atom_site_occupancy
  Zn  Zn0  1  0.21837000  0.73935000  0.34862000  1.0
  Zn  Zn1  1  0.28162000  0.23935000  0.65138000  1.0
  Zn  Zn2  1  0.78163000  0.26065000  0.65139000  1.0
  Zn  Zn3  1  0.71838000  0.76065000  0.34862000  1.0
  H  H4  1  0.13896000  0.02876000  0.43312000  1.0
  H  H5  1  0.36104000  0.52876000  0.56688000  1.0
  H  H6  1  0.86104000  0.97124000  0.56688000  1.0
  H  H7  1  0.63896000  0.47123000  0.43312000  1.0
  H  H8  1  0.72757000  0.67001000  0.79624000  1.0
  H  H9  1  0.77243000  0.17001000  0.20376000  1.0
  H  H10  1  0.27243000  0.32999000  0.20376000  1.0
  H  H11  1  0.22757000  0.82999000  0.79624000  1.0
  H  H12  1  0.88073000  0.96278000  0.95028000  1.0
  H  H13  1  0.61927000  0.46278000  0.04972000  1.0
  H  H14  1  0.11927000  0.03722000  0.04972000  1.0
  H  H15  1  0.38073000  0.53722000  0.95028000  1.0
  H  H16  1  0.89790000  0.78611000  0.94755000  1.0
  H  H17  1  0.60209000  0.28612000  0.05245000  1.0
  H  H18  1  0.10209000  0.21388000  0.05245000  1.0
  H  H19  1  0.39791000  0.71389000  0.94755000  1.0
  H  H20  1  0.72688000  0.94721000  0.09790000  1.0
  H  H21  1  0.77311000  0.44721000  0.90209000  1.0
  H  H22  1  0.27312000  0.05279000  0.90210000  1.0
  H  H23  1  0.22689000  0.55279000  0.09791000  1.0
  H  H24  1  0.70102000  0.77468000  0.07315000  1.0
  H  H25  1  0.79898000  0.27468000  0.92685000  1.0
  H  H26  1  0.29898000  0.22532000  0.92685000  1.0
  H  H27  1  0.20102000  0.72532000  0.07316000  1.0
  C  C28  1  0.24371000  0.98609000  0.50746000  1.0
  C  C29  1  0.25628000  0.48609000  0.49254000  1.0
  C  C30  1  0.75629000  0.01391000  0.49254000  1.0
  C  C31  1  0.74372000  0.51391000  0.50746000  1.0
  C  C32  1  0.42981000  0.84735000  0.61258000  1.0
  C  C33  1  0.07018000  0.34734000  0.38742000  1.0
  C  C34  1  0.57019000  0.15266000  0.38742000  1.0
  C  C35  1  0.92982000  0.65266000  0.61258000  1.0
  C  C36  1  0.44985000  0.96559000  0.68541000  1.0
  C  C37  1  0.05014000  0.46558000  0.31458000  1.0
  C  C38  1  0.55014000  0.03441000  0.31459000  1.0
  C  C39  1  0.94986000  0.53441000  0.68542000  1.0
  C  C40  1  0.57588000  0.97827000  0.80980000  1.0
  C  C41  1  0.92412000  0.47827000  0.19020000  1.0
  C  C42  1  0.42412000  0.02173000  0.19020000  1.0
  C  C43  1  0.07588000  0.52173000  0.80980000  1.0
  C  C44  1  0.64319000  0.75166000  0.75938000  1.0
  C  C45  1  0.85681000  0.25166000  0.24062000  1.0
  C  C46  1  0.35681000  0.24834000  0.24062000  1.0
  C  C47  1  0.14319000  0.74834000  0.75938000  1.0
  C  C48  1  0.82094000  0.86847000  0.95419000  1.0
  C  C49  1  0.67905000  0.36847000  0.04581000  1.0
  C  C50  1  0.17906000  0.13153000  0.04581000  1.0
  C  C51  1  0.32094000  0.63153000  0.95419000  1.0
  C  C52  1  0.78515000  0.85644000  0.08061000  1.0
  C  C53  1  0.71485000  0.35644000  0.91938000  1.0
  C  C54  1  0.21485000  0.14356000  0.91939000  1.0
  C  C55  1  0.28515000  0.64356000  0.08062000  1.0
  C  C56  1  0.93124000  0.82760000  0.19883000  1.0
  C  C57  1  0.56876000  0.32760000  0.80117000  1.0
  C  C58  1  0.06876000  0.17240000  0.80117000  1.0
  C  C59  1  0.43124000  0.67240000  0.19883000  1.0
  N  N60  1  0.29887000  0.86222000  0.50008000  1.0
  N  N61  1  0.20113000  0.36222000  0.49992000  1.0
  N  N62  1  0.70113000  0.13778000  0.49992000  1.0
  N  N63  1  0.79887000  0.63778000  0.50008000  1.0
  N  N64  1  0.33010000  0.05255000  0.61682000  1.0
  N  N65  1  0.16989000  0.55255000  0.38318000  1.0
  N  N66  1  0.66990000  0.94745000  0.38318000  1.0
  N  N67  1  0.83011000  0.44745000  0.61682000  1.0
  N  N68  1  0.52287000  0.73678000  0.64894000  1.0
  N  N69  1  0.97713000  0.23677000  0.35106000  1.0
  N  N70  1  0.47713000  0.26323000  0.35106000  1.0
  N  N71  1  0.02287000  0.76323000  0.64894000  1.0
  N  N72  1  0.67593000  0.86337000  0.83656000  1.0
  N  N73  1  0.82407000  0.36336000  0.16344000  1.0
  N  N74  1  0.32407000  0.13664000  0.16344000  1.0
  N  N75  1  0.17593000  0.63664000  0.83656000  1.0
  O  O76  1  0.60421000  0.07098000  0.88997000  1.0
  O  O77  1  0.89579000  0.57097000  0.11003000  1.0
  O  O78  1  0.39580000  0.92903000  0.11003000  1.0
  O  O79  1  0.10421000  0.42902000  0.88997000  1.0
  O  O80  1  0.91718000  0.79248000  0.30677000  1.0
  O  O81  1  0.58282000  0.29248000  0.69323000  1.0
  O  O82  1  0.08282000  0.20752000  0.69323000  1.0
  O  O83  1  0.41718000  0.70752000  0.30677000  1.0
  O  O84  1  0.06976000  0.83775000  0.19043000  1.0
  O  O85  1  0.43024000  0.33775000  0.80957000  1.0
  O  O86  1  0.93024000  0.16225000  0.80957000  1.0
  O  O87  1  0.56976000  0.66225000  0.19043000  1.0
