# generated using pymatgen
data_Zn2H12C36N7(O6F)3
_symmetry_space_group_name_H-M   'P 1'
_cell_length_a   11.66130000
_cell_length_b   12.88872455
_cell_length_c   13.13270000
_cell_angle_alpha   86.68787088
_cell_angle_beta   81.40900000
_cell_angle_gamma   67.11445102
_symmetry_Int_Tables_number   1
_chemical_formula_structural   Zn2H12C36N7(O6F)3
_chemical_formula_sum   'Zn2 H12 C36 N7 O18 F3'
_cell_volume   1798.05851613
_cell_formula_units_Z   1
loop_
 _symmetry_equiv_pos_site_id
 _symmetry_equiv_pos_as_xyz
  1  'x, y, z'
loop_
 _atom_site_type_symbol
 _atom_site_label
 _atom_site_symmetry_multiplicity
 _atom_site_fract_x
 _atom_site_fract_y
 _atom_site_fract_z
 _atom_site_occupancy
  Zn  Zn0  1  0.10142000  0.52927000  0.49266000  1.0
  Zn  Zn1  1  0.89414000  0.46407000  0.51137000  1.0
  H  H2  1  0.27828000  0.93900000  0.31019000  1.0
  H  H3  1  0.78442000  0.08352000  0.56884000  1.0
  H  H4  1  0.68553000  0.71706000  0.39620000  1.0
  H  H5  1  0.84102000  0.53464000  0.18584000  1.0
  H  H6  1  0.24096000  0.42914000  0.17040000  1.0
  H  H7  1  0.74523000  0.55769000  0.02649000  1.0
  H  H8  1  0.26782000  0.41591000  0.98106000  1.0
  H  H9  1  0.76843000  0.54509000  0.83513000  1.0
  H  H10  1  0.34317000  0.46868000  0.36339000  1.0
  H  H11  1  0.18928000  0.63618000  0.64180000  1.0
  H  H12  1  0.40085000  0.61511000  0.68353000  1.0
  H  H13  1  0.79850000  0.37456000  0.35085000  1.0
  C  C14  1  0.97705000  0.49396000  0.69972000  1.0
  C  C15  1  0.85503000  0.71051000  0.50407000  1.0
  C  C16  1  0.02609000  0.49314000  0.30311000  1.0
  C  C17  1  0.13570000  0.28393000  0.48632000  1.0
  C  C18  1  0.30061000  0.99355000  0.35718000  1.0
  C  C19  1  0.23283000  0.16946000  0.45365000  1.0
  C  C20  1  0.81095000  0.90972000  0.55019000  1.0
  C  C21  1  0.74545000  0.02576000  0.54571000  1.0
  C  C22  1  0.63159000  0.06636000  0.50770000  1.0
  C  C23  1  0.57782000  0.99430000  0.47476000  1.0
  C  C24  1  0.65761000  0.87717000  0.46527000  1.0
  C  C25  1  0.45162000  0.02941000  0.44883000  1.0
  C  C26  1  0.42033000  0.95759000  0.38895000  1.0
  C  C27  1  0.51286000  0.84657000  0.36833000  1.0
  C  C28  1  0.62262000  0.80472000  0.40874000  1.0
  C  C29  1  0.35095000  0.12910000  0.48605000  1.0
  C  C30  1  0.21251000  0.09892000  0.38630000  1.0
  C  C31  1  0.77270000  0.83430000  0.50782000  1.0
  C  C32  1  0.03852000  0.48431000  0.18894000  1.0
  C  C33  1  0.96958000  0.49313000  0.81468000  1.0
  C  C34  1  0.83785000  0.53165000  0.98049000  1.0
  C  C35  1  0.84997000  0.52497000  0.87500000  1.0
  C  C36  1  0.07429000  0.46790000  0.86391000  1.0
  C  C37  1  0.06754000  0.47146000  0.97249000  1.0
  C  C38  1  0.94470000  0.50487000  0.03167000  1.0
  C  C39  1  0.93371000  0.50974000  0.14022000  1.0
  C  C40  1  0.15960000  0.45000000  0.13022000  1.0
  C  C41  1  0.17411000  0.44254000  0.02476000  1.0
  C  C42  1  0.59654000  0.43380000  0.37548000  1.0
  C  C43  1  0.71188000  0.41708000  0.40229000  1.0
  C  C44  1  0.62150000  0.50673000  0.55773000  1.0
  C  C45  1  0.49749000  0.52899000  0.53897000  1.0
  C  C46  1  0.48408000  0.48961000  0.44387000  1.0
  C  C47  1  0.36112000  0.50211000  0.43071000  1.0
  C  C48  1  0.27535000  0.59608000  0.58898000  1.0
  C  C49  1  0.39118000  0.58481000  0.61096000  1.0
  N  N50  1  0.26309000  0.55199000  0.50143000  1.0
  N  N51  1  0.72342000  0.45480000  0.49382000  1.0
  N  N52  1  0.09278000  0.13758000  0.34214000  1.0
  N  N53  1  0.20000000  0.43126000  0.80223000  1.0
  N  N54  1  0.59629000  0.39238000  0.27321000  1.0
  N  N55  1  0.92634000  0.86988000  0.60000000  1.0
  N  N56  1  0.58214000  0.18878000  0.48871000  1.0
  O  O57  1  0.04872000  0.53757000  0.64909000  1.0
  O  O58  1  0.90783000  0.45392000  0.66326000  1.0
  O  O59  1  0.97068000  0.68719000  0.47300000  1.0
  O  O60  1  0.80196000  0.64254000  0.53163000  1.0
  O  O61  1  0.11975000  0.49621000  0.33983000  1.0
  O  O62  1  0.92295000  0.49763000  0.35631000  1.0
  O  O63  1  0.17830000  0.35543000  0.50691000  1.0
  O  O64  1  0.02087000  0.29976000  0.48690000  1.0
  O  O65  1  0.02370000  0.08567000  0.36799000  1.0
  O  O66  1  0.07451000  0.21611000  0.27984000  1.0
  O  O67  1  0.23635000  0.34357000  0.75179000  1.0
  O  O68  1  0.26206000  0.48980000  0.80755000  1.0
  O  O69  1  0.69437000  0.31791000  0.23353000  1.0
  O  O70  1  0.49858000  0.43680000  0.23308000  1.0
  O  O71  1  0.93545000  0.79783000  0.66818000  1.0
  O  O72  1  0.00275000  0.91408000  0.57174000  1.0
  O  O73  1  0.53292000  0.22260000  0.40927000  1.0
  O  O74  1  0.59984000  0.24935000  0.54950000  1.0
  F  F75  1  0.48414000  0.77860000  0.30982000  1.0
  F  F76  1  0.63641000  0.54077000  0.64703000  1.0
  F  F77  1  0.36944000  0.18433000  0.56215000  1.0
