# generated using pymatgen
data_CdH16C24(IN)2
_symmetry_space_group_name_H-M   'P 1'
_cell_length_a   7.18480000
_cell_length_b   7.18613000
_cell_length_c   22.80210000
_cell_angle_alpha   90.00320000
_cell_angle_beta   90.00490000
_cell_angle_gamma   95.49930000
_symmetry_Int_Tables_number   1
_chemical_formula_structural   CdH16C24(IN)2
_chemical_formula_sum   'Cd2 H32 C48 I4 N4'
_cell_volume   1171.87444838
_cell_formula_units_Z   2
loop_
 _symmetry_equiv_pos_site_id
 _symmetry_equiv_pos_as_xyz
  1  'x, y, z'
loop_
 _atom_site_type_symbol
 _atom_site_label
 _atom_site_symmetry_multiplicity
 _atom_site_fract_x
 _atom_site_fract_y
 _atom_site_fract_z
 _atom_site_occupancy
  Cd  Cd0  1  0.02485000  0.97510000  0.75000000  1.0
  Cd  Cd1  1  0.97514000  0.02489000  0.25000000  1.0
  H  H2  1  0.67888000  0.89180000  0.66362000  1.0
  H  H3  1  0.32104000  0.10822000  0.16362000  1.0
  H  H4  1  0.89178000  0.67903000  0.33634000  1.0
  H  H5  1  0.10821000  0.32100000  0.83636000  1.0
  H  H6  1  0.32110000  0.10820000  0.33639000  1.0
  H  H7  1  0.67893000  0.89179000  0.83637000  1.0
  H  H8  1  0.10825000  0.32093000  0.66364000  1.0
  H  H9  1  0.89178000  0.67898000  0.16365000  1.0
  H  H10  1  0.50227000  0.05040000  0.58704000  1.0
  H  H11  1  0.49765000  0.94966000  0.08704000  1.0
  H  H12  1  0.05030000  0.50238000  0.41292000  1.0
  H  H13  1  0.94968000  0.49762000  0.91294000  1.0
  H  H14  1  0.49769000  0.94963000  0.41297000  1.0
  H  H15  1  0.50233000  0.05034000  0.91295000  1.0
  H  H16  1  0.94974000  0.49759000  0.58706000  1.0
  H  H17  1  0.05030000  0.50237000  0.08706000  1.0
  H  H18  1  0.82956000  0.17045000  0.48470000  1.0
  H  H19  1  0.17046000  0.82958000  0.98470000  1.0
  H  H20  1  0.17046000  0.82957000  0.51529000  1.0
  H  H21  1  0.82955000  0.17046000  0.01530000  1.0
  H  H22  1  0.86535000  0.13465000  0.37767000  1.0
  H  H23  1  0.13465000  0.86534000  0.87766000  1.0
  H  H24  1  0.13466000  0.86536000  0.62233000  1.0
  H  H25  1  0.86533000  0.13466000  0.12234000  1.0
  H  H26  1  0.68334000  0.31672000  0.30843000  1.0
  H  H27  1  0.31666000  0.68327000  0.80843000  1.0
  H  H28  1  0.31668000  0.68329000  0.69156000  1.0
  H  H29  1  0.68328000  0.31671000  0.19157000  1.0
  H  H30  1  0.46702000  0.53305000  0.34575000  1.0
  H  H31  1  0.53299000  0.46694000  0.84575000  1.0
  H  H32  1  0.53301000  0.46696000  0.65424000  1.0
  H  H33  1  0.46697000  0.53304000  0.15425000  1.0
  C  C34  1  0.73423000  0.02576000  0.64505000  1.0
  C  C35  1  0.26571000  0.97425000  0.14505000  1.0
  C  C36  1  0.02575000  0.73433000  0.35493000  1.0
  C  C37  1  0.97425000  0.26569000  0.85494000  1.0
  C  C38  1  0.26575000  0.97425000  0.35495000  1.0
  C  C39  1  0.73427000  0.02575000  0.85495000  1.0
  C  C40  1  0.97427000  0.26565000  0.64506000  1.0
  C  C41  1  0.02574000  0.73430000  0.14506000  1.0
  C  C42  1  0.63715000  0.11454000  0.60222000  1.0
  C  C43  1  0.36280000  0.88548000  0.10222000  1.0
  C  C44  1  0.11451000  0.63722000  0.39776000  1.0
  C  C45  1  0.88549000  0.36278000  0.89777000  1.0
  C  C46  1  0.36283000  0.88546000  0.39779000  1.0
  C  C47  1  0.63719000  0.11452000  0.89778000  1.0
  C  C48  1  0.88552000  0.36276000  0.60223000  1.0
  C  C49  1  0.11450000  0.63720000  0.10224000  1.0
  C  C50  1  0.71097000  0.28903000  0.58101000  1.0
  C  C51  1  0.28902000  0.71097000  0.08101000  1.0
  C  C52  1  0.28903000  0.71097000  0.41899000  1.0
  C  C53  1  0.71097000  0.28903000  0.91899000  1.0
  C  C54  1  0.60351000  0.39650000  0.53930000  1.0
  C  C55  1  0.39649000  0.60350000  0.03930000  1.0
  C  C56  1  0.39651000  0.60350000  0.46070000  1.0
  C  C57  1  0.60350000  0.39650000  0.96071000  1.0
  C  C58  1  0.62561000  0.37441000  0.47834000  1.0
  C  C59  1  0.37441000  0.62561000  0.97834000  1.0
  C  C60  1  0.37441000  0.62559000  0.52166000  1.0
  C  C61  1  0.62559000  0.37441000  0.02166000  1.0
  C  C62  1  0.74998000  0.25003000  0.45456000  1.0
  C  C63  1  0.25004000  0.74999000  0.95456000  1.0
  C  C64  1  0.25004000  0.74998000  0.54543000  1.0
  C  C65  1  0.74997000  0.25004000  0.04544000  1.0
  C  C66  1  0.76980000  0.23022000  0.39499000  1.0
  C  C67  1  0.23022000  0.76979000  0.89499000  1.0
  C  C68  1  0.23022000  0.76980000  0.60501000  1.0
  C  C69  1  0.76978000  0.23022000  0.10502000  1.0
  C  C70  1  0.66629000  0.33376000  0.35559000  1.0
  C  C71  1  0.33373000  0.66624000  0.85559000  1.0
  C  C72  1  0.33373000  0.66625000  0.64440000  1.0
  C  C73  1  0.66625000  0.33375000  0.14441000  1.0
  C  C74  1  0.54527000  0.45479000  0.37659000  1.0
  C  C75  1  0.45475000  0.54522000  0.87659000  1.0
  C  C76  1  0.45476000  0.54521000  0.62341000  1.0
  C  C77  1  0.54523000  0.45478000  0.12341000  1.0
  C  C78  1  0.47981000  0.52018000  0.56178000  1.0
  C  C79  1  0.52018000  0.47982000  0.06178000  1.0
  C  C80  1  0.52021000  0.47982000  0.43822000  1.0
  C  C81  1  0.47981000  0.52019000  0.93822000  1.0
  I  I82  1  0.38303000  0.14020000  0.75000000  1.0
  I  I83  1  0.61696000  0.85979000  0.25000000  1.0
  I  I84  1  0.14028000  0.38300000  0.25000000  1.0
  I  I85  1  0.85973000  0.61698000  0.75000000  1.0
  N  N86  1  0.89884000  0.10110000  0.66666667  1.0
  N  N87  1  0.10113000  0.89888000  0.16670000  1.0
  N  N88  1  0.10116000  0.89889000  0.33329000  1.0
  N  N89  1  0.89886000  0.10111000  0.83330000  1.0
