# generated using pymatgen
data_AgH9C14(N2O3)2
_symmetry_space_group_name_H-M   'P 1'
_cell_length_a   6.42574000
_cell_length_b   10.35250000
_cell_length_c   22.76800000
_cell_angle_alpha   80.42280000
_cell_angle_beta   89.99970000
_cell_angle_gamma   89.99970000
_symmetry_Int_Tables_number   1
_chemical_formula_structural   AgH9C14(N2O3)2
_chemical_formula_sum   'Ag4 H36 C56 N16 O24'
_cell_volume   1493.47389386
_cell_formula_units_Z   4
loop_
 _symmetry_equiv_pos_site_id
 _symmetry_equiv_pos_as_xyz
  1  'x, y, z'
loop_
 _atom_site_type_symbol
 _atom_site_label
 _atom_site_symmetry_multiplicity
 _atom_site_fract_x
 _atom_site_fract_y
 _atom_site_fract_z
 _atom_site_occupancy
  Ag  Ag0  1  0.93016000  0.57115000  0.44441000  1.0
  Ag  Ag1  1  0.43016000  0.42885000  0.05559000  1.0
  Ag  Ag2  1  0.06983000  0.42885000  0.55559000  1.0
  Ag  Ag3  1  0.56983000  0.57115000  0.94441000  1.0
  H  H4  1  0.96684000  0.72588000  0.66637000  1.0
  H  H5  1  0.46683000  0.27412000  0.83364000  1.0
  H  H6  1  0.03316000  0.27412000  0.33363000  1.0
  H  H7  1  0.53317000  0.72588000  0.16637000  1.0
  H  H8  1  0.56377000  0.38434000  0.46160000  1.0
  H  H9  1  0.06377000  0.61566000  0.03839000  1.0
  H  H10  1  0.43623000  0.61566000  0.53840000  1.0
  H  H11  1  0.93623000  0.38435000  0.96160000  1.0
  H  H12  1  0.46684000  0.53833000  0.43581000  1.0
  H  H13  1  0.96684000  0.46167000  0.06418000  1.0
  H  H14  1  0.53316000  0.46166000  0.56419000  1.0
  H  H15  1  0.03316000  0.53833000  0.93581000  1.0
  H  H16  1  0.65162000  0.23220000  0.39627000  1.0
  H  H17  1  0.15162000  0.76779000  0.10373000  1.0
  H  H18  1  0.34838000  0.76780000  0.60373000  1.0
  H  H19  1  0.84838000  0.23220000  0.89627000  1.0
  H  H20  1  0.74934000  0.12063000  0.66877000  1.0
  H  H21  1  0.24933000  0.87937000  0.83123000  1.0
  H  H22  1  0.25066000  0.87937000  0.33123000  1.0
  H  H23  1  0.75067000  0.12063000  0.16877000  1.0
  H  H24  1  0.35962000  0.55854000  0.23238000  1.0
  H  H25  1  0.85963000  0.44145000  0.26762000  1.0
  H  H26  1  0.64038000  0.44147000  0.76762000  1.0
  H  H27  1  0.14039000  0.55855000  0.73238000  1.0
  H  H28  1  0.76128000  0.96442000  0.50392000  1.0
  H  H29  1  0.26127000  0.03559000  0.99608000  1.0
  H  H30  1  0.23872000  0.03559000  0.49608000  1.0
  H  H31  1  0.73873000  0.96441000  0.00392000  1.0
  H  H32  1  0.60149000  0.17217000  0.29683000  1.0
  H  H33  1  0.10149000  0.82783000  0.20317000  1.0
  H  H34  1  0.39851000  0.82783000  0.70317000  1.0
  H  H35  1  0.89852000  0.17216000  0.79683000  1.0
  H  H36  1  0.40696000  0.61770000  0.33226000  1.0
  H  H37  1  0.90696000  0.38229000  0.16774000  1.0
  H  H38  1  0.59305000  0.38229000  0.66774000  1.0
  H  H39  1  0.09304000  0.61771000  0.83226000  1.0
  C  C40  1  0.90865000  0.81882000  0.64280000  1.0
  C  C41  1  0.40864000  0.18119000  0.85721000  1.0
  C  C42  1  0.09135000  0.18119000  0.35720000  1.0
  C  C43  1  0.59135000  0.81881000  0.14280000  1.0
  C  C44  1  0.58715000  0.30339000  0.36039000  1.0
  C  C45  1  0.08716000  0.69661000  0.13961000  1.0
  C  C46  1  0.41284000  0.69661000  0.63961000  1.0
  C  C47  1  0.91284000  0.30339000  0.86039000  1.0
  C  C48  1  0.78530000  0.04122000  0.64466000  1.0
  C  C49  1  0.28530000  0.95878000  0.85534000  1.0
  C  C50  1  0.21470000  0.95878000  0.35534000  1.0
  C  C51  1  0.71471000  0.04122000  0.14466000  1.0
  C  C52  1  0.42066000  0.48691000  0.26864000  1.0
  C  C53  1  0.92067000  0.51309000  0.23135000  1.0
  C  C54  1  0.57933000  0.51309000  0.73135000  1.0
  C  C55  1  0.07933000  0.48691000  0.76864000  1.0
  C  C56  1  0.79124000  0.95201000  0.55151000  1.0
  C  C57  1  0.29123000  0.04799000  0.94849000  1.0
  C  C58  1  0.20875000  0.04800000  0.44849000  1.0
  C  C59  1  0.70876000  0.95200000  0.05152000  1.0
  C  C60  1  0.90836000  0.71860000  0.54983000  1.0
  C  C61  1  0.40836000  0.28140000  0.95018000  1.0
  C  C62  1  0.09163000  0.28141000  0.45017000  1.0
  C  C63  1  0.59164000  0.71859000  0.04983000  1.0
  C  C64  1  0.47232000  0.36035000  0.25799000  1.0
  C  C65  1  0.97233000  0.63964000  0.24201000  1.0
  C  C66  1  0.52768000  0.63965000  0.74202000  1.0
  C  C67  1  0.02767000  0.36036000  0.75799000  1.0
  C  C68  1  0.55818000  0.26940000  0.30466000  1.0
  C  C69  1  0.05818000  0.73060000  0.19534000  1.0
  C  C70  1  0.44182000  0.73060000  0.69534000  1.0
  C  C71  1  0.94182000  0.26940000  0.80466000  1.0
  C  C72  1  0.52903000  0.42843000  0.37171000  1.0
  C  C73  1  0.02904000  0.57156000  0.12829000  1.0
  C  C74  1  0.47097000  0.57157000  0.62829000  1.0
  C  C75  1  0.97096000  0.42844000  0.87171000  1.0
  C  C76  1  0.44799000  0.52011000  0.32447000  1.0
  C  C77  1  0.94799000  0.47988000  0.17553000  1.0
  C  C78  1  0.55202000  0.47988000  0.67553000  1.0
  C  C79  1  0.05201000  0.52012000  0.82447000  1.0
  C  C80  1  0.75112000  0.05327000  0.58356000  1.0
  C  C81  1  0.25112000  0.94673000  0.91644000  1.0
  C  C82  1  0.24888000  0.94674000  0.41644000  1.0
  C  C83  1  0.74888000  0.05327000  0.08356000  1.0
  C  C84  1  0.86962000  0.83343000  0.58162000  1.0
  C  C85  1  0.36961000  0.16658000  0.91838000  1.0
  C  C86  1  0.13037000  0.16658000  0.41838000  1.0
  C  C87  1  0.63038000  0.83342000  0.08162000  1.0
  C  C88  1  0.86595000  0.92228000  0.67293000  1.0
  C  C89  1  0.36594000  0.07772000  0.82707000  1.0
  C  C90  1  0.13405000  0.07772000  0.32707000  1.0
  C  C91  1  0.63406000  0.92228000  0.17293000  1.0
  C  C92  1  0.44328000  0.32908000  0.20046000  1.0
  C  C93  1  0.94329000  0.67092000  0.29953000  1.0
  C  C94  1  0.55673000  0.67093000  0.79954000  1.0
  C  C95  1  0.05675000  0.32907000  0.70046000  1.0
  N  N96  1  0.90433000  0.90331000  0.73745000  1.0
  N  N97  1  0.40433000  0.09670000  0.76255000  1.0
  N  N98  1  0.09567000  0.09669000  0.26255000  1.0
  N  N99  1  0.59568000  0.90331000  0.23745000  1.0
  N  N100  1  0.55527000  0.46172000  0.42751000  1.0
  N  N101  1  0.05528000  0.53828000  0.07249000  1.0
  N  N102  1  0.44472000  0.53828000  0.57249000  1.0
  N  N103  1  0.94471000  0.46172000  0.92751000  1.0
  N  N104  1  0.67012000  0.17754000  0.55192000  1.0
  N  N105  1  0.17012000  0.82246000  0.94808000  1.0
  N  N106  1  0.32987000  0.82246000  0.44808000  1.0
  N  N107  1  0.82987000  0.17754000  0.05192000  1.0
  N  N108  1  0.41715000  0.30580000  0.15236000  1.0
  N  N109  1  0.91714000  0.69419000  0.34764000  1.0
  N  N110  1  0.58286000  0.69420000  0.84765000  1.0
  N  N111  1  0.08287000  0.30581000  0.65236000  1.0
  O  O112  1  0.88723000  0.73922000  0.49352000  1.0
  O  O113  1  0.38723000  0.26078000  0.00648000  1.0
  O  O114  1  0.11277000  0.26078000  0.50648000  1.0
  O  O115  1  0.61277000  0.73922000  0.99352000  1.0
  O  O116  1  0.61911000  0.18359000  0.49880000  1.0
  O  O117  1  0.11911000  0.81640000  0.00120000  1.0
  O  O118  1  0.38088000  0.81641000  0.50120000  1.0
  O  O119  1  0.88088000  0.18359000  0.99880000  1.0
  O  O120  1  0.95752000  0.61262000  0.58331000  1.0
  O  O121  1  0.45752000  0.38739000  0.91669000  1.0
  O  O122  1  0.04248000  0.38739000  0.41669000  1.0
  O  O123  1  0.54248000  0.61261000  0.08331000  1.0
  O  O124  1  0.00621000  0.80602000  0.75974000  1.0
  O  O125  1  0.50622000  0.19398000  0.74026000  1.0
  O  O126  1  0.99379000  0.19398000  0.24026000  1.0
  O  O127  1  0.49379000  0.80602000  0.25974000  1.0
  O  O128  1  0.83275000  0.98573000  0.76585000  1.0
  O  O129  1  0.33276000  0.01427000  0.73416000  1.0
  O  O130  1  0.16724000  0.01427000  0.23416000  1.0
  O  O131  1  0.66725000  0.98573000  0.26585000  1.0
  O  O132  1  0.65812000  0.27155000  0.57927000  1.0
  O  O133  1  0.15812000  0.72845000  0.92073000  1.0
  O  O134  1  0.34188000  0.72845000  0.42073000  1.0
  O  O135  1  0.84189000  0.27155000  0.07927000  1.0
