# generated using pymatgen
data_Cu4MoH28C28(S2N3)2
_symmetry_space_group_name_H-M   'P 1'
_cell_length_a   9.33339000
_cell_length_b   11.71680000
_cell_length_c   19.19080000
_cell_angle_alpha   89.99890000
_cell_angle_beta   98.14000000
_cell_angle_gamma   89.99880000
_symmetry_Int_Tables_number   1
_chemical_formula_structural   Cu4MoH28C28(S2N3)2
_chemical_formula_sum   'Cu8 Mo2 H56 C56 S8 N12'
_cell_volume   2077.51334926
_cell_formula_units_Z   2
loop_
 _symmetry_equiv_pos_site_id
 _symmetry_equiv_pos_as_xyz
  1  'x, y, z'
loop_
 _atom_site_type_symbol
 _atom_site_label
 _atom_site_symmetry_multiplicity
 _atom_site_fract_x
 _atom_site_fract_y
 _atom_site_fract_z
 _atom_site_occupancy
  Cu  Cu0  1  0.71316000  0.37483000  0.20895000  1.0
  Cu  Cu1  1  0.02921000  0.38397000  0.11148000  1.0
  Cu  Cu2  1  0.28682000  0.37485000  0.29106000  1.0
  Cu  Cu3  1  0.97078000  0.38395000  0.38853000  1.0
  Cu  Cu4  1  0.28684000  0.62520000  0.79106000  1.0
  Cu  Cu5  1  0.97079000  0.61605000  0.88851000  1.0
  Cu  Cu6  1  0.71318000  0.62518000  0.70894000  1.0
  Cu  Cu7  1  0.02921000  0.61606000  0.61148000  1.0
  Mo  Mo8  1  0.99999000  0.36462000  0.25001000  1.0
  Mo  Mo9  1  0.00002000  0.63542000  0.75000000  1.0
  H  H10  1  0.39973000  0.42872000  0.14889000  1.0
  H  H11  1  0.27674000  0.56479000  0.06205000  1.0
  H  H12  1  0.70112000  0.68248000  0.02794000  1.0
  H  H13  1  0.80813000  0.53968000  0.11483000  1.0
  H  H14  1  0.48194000  0.75247000  0.95173000  1.0
  H  H15  1  0.30908000  0.69549000  0.96070000  1.0
  H  H16  1  0.47447000  0.87071000  0.06022000  1.0
  H  H17  1  0.30345000  0.81268000  0.06947000  1.0
  H  H18  1  0.37355000  0.95553000  0.94430000  1.0
  H  H19  1  0.20718000  0.88797000  0.94659000  1.0
  H  H20  1  0.37088000  0.00988000  0.11862000  1.0
  H  H21  1  0.26815000  0.18320000  0.16800000  1.0
  H  H22  1  0.01605000  0.25904000  0.97943000  1.0
  H  H23  1  0.09758000  0.08127000  0.92246000  1.0
  H  H24  1  0.60024000  0.42872000  0.35112000  1.0
  H  H25  1  0.72324000  0.56479000  0.43795000  1.0
  H  H26  1  0.29887000  0.68248000  0.47207000  1.0
  H  H27  1  0.19185000  0.53968000  0.38519000  1.0
  H  H28  1  0.51805000  0.75248000  0.54827000  1.0
  H  H29  1  0.69090000  0.69550000  0.53930000  1.0
  H  H30  1  0.52552000  0.87071000  0.43977000  1.0
  H  H31  1  0.69654000  0.81268000  0.43052000  1.0
  H  H32  1  0.62644000  0.95552000  0.55568000  1.0
  H  H33  1  0.79280000  0.88795000  0.55340000  1.0
  H  H34  1  0.62911000  0.00990000  0.38137000  1.0
  H  H35  1  0.73184000  0.18324000  0.33201000  1.0
  H  H36  1  0.98395000  0.25904000  0.52059000  1.0
  H  H37  1  0.90240000  0.08124000  0.57755000  1.0
  H  H38  1  0.60028000  0.57126000  0.85111000  1.0
  H  H39  1  0.72326000  0.43519000  0.93793000  1.0
  H  H40  1  0.29888000  0.31752000  0.97205000  1.0
  H  H41  1  0.19187000  0.46033000  0.88516000  1.0
  H  H42  1  0.51805000  0.24752000  0.04826000  1.0
  H  H43  1  0.69090000  0.30449000  0.03929000  1.0
  H  H44  1  0.52553000  0.12927000  0.93977000  1.0
  H  H45  1  0.69655000  0.18730000  0.93052000  1.0
  H  H46  1  0.62645000  0.04446000  0.05569000  1.0
  H  H47  1  0.79281000  0.11202000  0.05340000  1.0
  H  H48  1  0.62910000  0.99009000  0.88138000  1.0
  H  H49  1  0.73183000  0.81677000  0.83200000  1.0
  H  H50  1  0.98395000  0.74094000  0.02057000  1.0
  H  H51  1  0.90241000  0.91872000  0.07754000  1.0
  H  H52  1  0.39976000  0.57127000  0.64890000  1.0
  H  H53  1  0.27676000  0.43519000  0.56208000  1.0
  H  H54  1  0.70114000  0.31752000  0.52794000  1.0
  H  H55  1  0.80815000  0.46033000  0.61482000  1.0
  H  H56  1  0.48197000  0.24753000  0.45175000  1.0
  H  H57  1  0.30912000  0.30450000  0.46072000  1.0
  H  H58  1  0.47447000  0.12927000  0.56023000  1.0
  H  H59  1  0.30346000  0.18730000  0.56948000  1.0
  H  H60  1  0.37357000  0.04448000  0.44431000  1.0
  H  H61  1  0.20721000  0.11204000  0.44659000  1.0
  H  H62  1  0.37090000  0.99009000  0.61862000  1.0
  H  H63  1  0.26816000  0.81677000  0.66799000  1.0
  H  H64  1  0.01605000  0.74096000  0.47941000  1.0
  H  H65  1  0.09760000  0.91875000  0.42245000  1.0
  C  C66  1  0.00303000  0.47049000  0.02726000  1.0
  C  C67  1  0.46356000  0.48772000  0.12202000  1.0
  C  C68  1  0.39494000  0.56548000  0.07394000  1.0
  C  C69  1  0.47925000  0.64034000  0.03976000  1.0
  C  C70  1  0.62980000  0.63024000  0.05499000  1.0
  C  C71  1  0.69089000  0.55056000  0.10388000  1.0
  C  C72  1  0.40967000  0.72952000  0.99020000  1.0
  C  C73  1  0.37387000  0.83685000  0.03037000  1.0
  C  C74  1  0.29893000  0.92718000  0.98076000  1.0
  C  C75  1  0.24428000  0.03078000  0.01522000  1.0
  C  C76  1  0.29164000  0.06145000  0.08526000  1.0
  C  C77  1  0.23540000  0.15896000  0.11309000  1.0
  C  C78  1  0.09278000  0.19915000  0.00813000  1.0
  C  C79  1  0.14067000  0.10196000  0.97687000  1.0
  C  C80  1  0.99697000  0.47048000  0.47274000  1.0
  C  C81  1  0.53642000  0.48773000  0.37798000  1.0
  C  C82  1  0.60505000  0.56549000  0.42607000  1.0
  C  C83  1  0.52074000  0.64035000  0.46024000  1.0
  C  C84  1  0.37019000  0.63024000  0.44502000  1.0
  C  C85  1  0.30909000  0.55057000  0.39614000  1.0
  C  C86  1  0.59032000  0.72953000  0.50980000  1.0
  C  C87  1  0.62612000  0.83686000  0.46963000  1.0
  C  C88  1  0.70106000  0.92718000  0.51923000  1.0
  C  C89  1  0.75570000  0.03078000  0.48478000  1.0
  C  C90  1  0.70834000  0.06148000  0.41475000  1.0
  C  C91  1  0.76459000  0.15899000  0.38692000  1.0
  C  C92  1  0.90721000  0.19914000  0.49188000  1.0
  C  C93  1  0.85931000  0.10195000  0.52313000  1.0
  C  C94  1  0.99701000  0.52955000  0.97271000  1.0
  C  C95  1  0.53644000  0.51227000  0.87797000  1.0
  C  C96  1  0.60506000  0.43450000  0.92605000  1.0
  C  C97  1  0.52075000  0.35965000  0.96023000  1.0
  C  C98  1  0.37020000  0.36976000  0.94500000  1.0
  C  C99  1  0.30911000  0.44944000  0.89612000  1.0
  C  C100  1  0.59032000  0.27046000  0.00980000  1.0
  C  C101  1  0.62613000  0.16313000  0.96963000  1.0
  C  C102  1  0.70106000  0.07281000  0.01923000  1.0
  C  C103  1  0.75571000  0.96921000  0.98478000  1.0
  C  C104  1  0.70833000  0.93852000  0.91475000  1.0
  C  C105  1  0.76458000  0.84101000  0.88691000  1.0
  C  C106  1  0.90722000  0.80084000  0.99187000  1.0
  C  C107  1  0.85933000  0.89803000  0.02313000  1.0
  C  C108  1  0.00299000  0.52955000  0.52728000  1.0
  C  C109  1  0.46359000  0.51227000  0.62203000  1.0
  C  C110  1  0.39496000  0.43450000  0.57395000  1.0
  C  C111  1  0.47927000  0.35965000  0.53977000  1.0
  C  C112  1  0.62982000  0.36976000  0.55500000  1.0
  C  C113  1  0.69091000  0.44944000  0.60387000  1.0
  C  C114  1  0.40969000  0.27046000  0.49021000  1.0
  C  C115  1  0.37388000  0.16313000  0.53038000  1.0
  C  C116  1  0.29895000  0.07282000  0.48076000  1.0
  C  C117  1  0.24430000  0.96922000  0.51521000  1.0
  C  C118  1  0.29167000  0.93852000  0.58525000  1.0
  C  C119  1  0.23541000  0.84101000  0.61308000  1.0
  C  C120  1  0.09279000  0.80086000  0.50812000  1.0
  C  C121  1  0.14068000  0.89805000  0.47686000  1.0
  S  S122  1  0.87512000  0.26438000  0.16172000  1.0
  S  S123  1  0.84740000  0.47976000  0.29655000  1.0
  S  S124  1  0.12488000  0.26436000  0.33828000  1.0
  S  S125  1  0.15255000  0.47977000  0.20346000  1.0
  S  S126  1  0.12487000  0.73566000  0.83828000  1.0
  S  S127  1  0.15261000  0.52028000  0.70346000  1.0
  S  S128  1  0.87514000  0.73568000  0.66173000  1.0
  S  S129  1  0.84744000  0.52027000  0.79654000  1.0
  N  N130  1  0.60879000  0.48062000  0.13782000  1.0
  N  N131  1  0.13933000  0.22788000  0.07548000  1.0
  N  N132  1  0.55809000  0.29394000  0.24402000  1.0
  N  N133  1  0.39119000  0.48062000  0.36220000  1.0
  N  N134  1  0.86067000  0.22791000  0.42453000  1.0
  N  N135  1  0.44187000  0.29394000  0.25599000  1.0
  N  N136  1  0.39121000  0.51940000  0.86218000  1.0
  N  N137  1  0.86067000  0.77209000  0.92452000  1.0
  N  N138  1  0.44191000  0.70610000  0.75599000  1.0
  N  N139  1  0.60882000  0.51940000  0.63781000  1.0
  N  N140  1  0.13933000  0.77210000  0.57546000  1.0
  N  N141  1  0.55813000  0.70609000  0.74401000  1.0
