# generated using pymatgen
data_CaH16C16(N5O3)2
_symmetry_space_group_name_H-M   'P 1'
_cell_length_a   4.79448000
_cell_length_b   15.26070000
_cell_length_c   16.20610231
_cell_angle_alpha   63.14300331
_cell_angle_beta   81.48257134
_cell_angle_gamma   90.00720000
_symmetry_Int_Tables_number   1
_chemical_formula_structural   CaH16C16(N5O3)2
_chemical_formula_sum   'Ca2 H32 C32 N20 O12'
_cell_volume   1043.16332413
_cell_formula_units_Z   2
loop_
 _symmetry_equiv_pos_site_id
 _symmetry_equiv_pos_as_xyz
  1  'x, y, z'
loop_
 _atom_site_type_symbol
 _atom_site_label
 _atom_site_symmetry_multiplicity
 _atom_site_fract_x
 _atom_site_fract_y
 _atom_site_fract_z
 _atom_site_occupancy
  Ca  Ca0  1  0.00000000  0.50000000  0.00000000  1.0
  Ca  Ca1  1  0.00000000  0.00000000  0.00000000  1.0
  H  H2  1  0.32915000  0.36179000  0.11319000  1.0
  H  H3  1  0.44267000  0.13817000  0.88692000  1.0
  H  H4  1  0.67085000  0.63821000  0.88681000  1.0
  H  H5  1  0.55733000  0.86183000  0.11308000  1.0
  H  H6  1  0.03995000  0.33350000  0.18796000  1.0
  H  H7  1  0.22841000  0.16641000  0.81211000  1.0
  H  H8  1  0.96004000  0.66651000  0.81204000  1.0
  H  H9  1  0.77160000  0.83359000  0.18789000  1.0
  H  H10  1  0.93944000  0.43548000  0.83361000  1.0
  H  H11  1  0.77298000  0.06463000  0.16636000  1.0
  H  H12  1  0.06056000  0.56452000  0.16639000  1.0
  H  H13  1  0.22702000  0.93537000  0.83364000  1.0
  H  H14  1  0.80179000  0.31011000  0.89102000  1.0
  H  H15  1  0.69273000  0.18996000  0.10893000  1.0
  H  H16  1  0.19821000  0.68988000  0.10898000  1.0
  H  H17  1  0.30728000  0.81004000  0.89107000  1.0
  H  H18  1  0.20960000  0.45796000  0.52098000  1.0
  H  H19  1  0.73057000  0.04206000  0.47932000  1.0
  H  H20  1  0.79040000  0.54204000  0.47902000  1.0
  H  H21  1  0.26943000  0.95794000  0.52068000  1.0
  H  H22  1  0.86457000  0.37573000  0.47066000  1.0
  H  H23  1  0.33494000  0.12424000  0.52952000  1.0
  H  H24  1  0.13544000  0.62427000  0.52934000  1.0
  H  H25  1  0.66506000  0.87576000  0.47048000  1.0
  H  H26  1  0.67375000  0.20057000  0.58277000  1.0
  H  H27  1  0.25572000  0.29925000  0.41727000  1.0
  H  H28  1  0.32625000  0.79943000  0.41723000  1.0
  H  H29  1  0.74428000  0.70075000  0.58273000  1.0
  H  H30  1  0.82719000  0.11922000  0.73908000  1.0
  H  H31  1  0.56558000  0.38054000  0.26090000  1.0
  H  H32  1  0.17281000  0.88078000  0.26092000  1.0
  H  H33  1  0.43442000  0.61946000  0.73910000  1.0
  C  C34  1  0.54775000  0.40809000  0.92919000  1.0
  C  C35  1  0.47666000  0.09184000  0.07090000  1.0
  C  C36  1  0.45225000  0.59191000  0.07081000  1.0
  C  C37  1  0.52333000  0.90816000  0.92911000  1.0
  C  C38  1  0.74547000  0.38670000  0.85752000  1.0
  C  C39  1  0.60284000  0.11336000  0.14247000  1.0
  C  C40  1  0.25454000  0.61330000  0.14248000  1.0
  C  C41  1  0.39716000  0.88664000  0.85753000  1.0
  C  C42  1  0.37261000  0.37954000  0.69211000  1.0
  C  C43  1  0.06455000  0.12035000  0.30805000  1.0
  C  C44  1  0.62739000  0.62046000  0.30789000  1.0
  C  C45  1  0.93544000  0.87965000  0.69195000  1.0
  C  C46  1  0.18369000  0.33327000  0.65751000  1.0
  C  C47  1  0.84092000  0.16661000  0.34265000  1.0
  C  C48  1  0.81631000  0.66666667  0.34249000  1.0
  C  C49  1  0.15908000  0.83339000  0.65735000  1.0
  C  C50  1  0.11396000  0.38404000  0.56778000  1.0
  C  C51  1  0.68161000  0.11591000  0.43244000  1.0
  C  C52  1  0.88605000  0.61596000  0.43222000  1.0
  C  C53  1  0.31839000  0.88409000  0.56756000  1.0
  C  C54  1  0.92668000  0.33701000  0.53974000  1.0
  C  C55  1  0.46612000  0.16295000  0.46042000  1.0
  C  C56  1  0.07333000  0.66300000  0.46026000  1.0
  C  C57  1  0.53388000  0.83705000  0.53958000  1.0
  C  C58  1  0.81940000  0.24065000  0.60143000  1.0
  C  C59  1  0.42023000  0.25922000  0.39865000  1.0
  C  C60  1  0.18060000  0.75935000  0.39857000  1.0
  C  C61  1  0.57977000  0.74078000  0.60135000  1.0
  C  C62  1  0.90500000  0.19469000  0.68902000  1.0
  C  C63  1  0.59340000  0.30513000  0.31102000  1.0
  C  C64  1  0.09500000  0.80531000  0.31098000  1.0
  C  C65  1  0.40659000  0.69486000  0.68898000  1.0
  N  N66  1  0.44915000  0.33329000  0.77710000  1.0
  N  N67  1  0.22609000  0.16667000  0.22303000  1.0
  N  N68  1  0.55085000  0.66666667  0.22290000  1.0
  N  N69  1  0.77392000  0.83333000  0.77696000  1.0
  N  N70  1  0.62093000  0.40161000  0.77654000  1.0
  N  N71  1  0.39743000  0.09842000  0.22352000  1.0
  N  N72  1  0.37908000  0.59839000  0.22346000  1.0
  N  N73  1  0.60257000  0.90158000  0.77648000  1.0
  N  N74  1  0.65170000  0.48659000  0.69724000  1.0
  N  N75  1  0.34897000  0.01342000  0.30280000  1.0
  N  N76  1  0.34830000  0.51341000  0.30276000  1.0
  N  N77  1  0.65103000  0.98658000  0.69720000  1.0
  N  N78  1  0.49444000  0.47344000  0.64292000  1.0
  N  N79  1  0.13731000  0.02648000  0.35719000  1.0
  N  N80  1  0.50555000  0.52656000  0.35709000  1.0
  N  N81  1  0.86269000  0.97352000  0.64281000  1.0
  N  N82  1  0.08242000  0.23968000  0.71683000  1.0
  N  N83  1  0.79875000  0.26012000  0.28327000  1.0
  N  N84  1  0.91759000  0.76032000  0.28317000  1.0
  N  N85  1  0.20124000  0.73987000  0.71673000  1.0
  O  O86  1  0.31503000  0.44308000  0.90933000  1.0
  O  O87  1  0.22402000  0.05679000  0.09084000  1.0
  O  O88  1  0.68497000  0.55692000  0.09067000  1.0
  O  O89  1  0.77597000  0.94321000  0.90917000  1.0
  O  O90  1  0.64482000  0.38873000  0.00427000  1.0
  O  O91  1  0.64880000  0.11118000  0.99580000  1.0
  O  O92  1  0.35518000  0.61127000  0.99573000  1.0
  O  O93  1  0.35119000  0.88882000  0.00420000  1.0
  O  O94  1  0.16523000  0.38947000  0.13422000  1.0
  O  O95  1  0.29983000  0.11048000  0.86588000  1.0
  O  O96  1  0.83477000  0.61053000  0.86578000  1.0
  O  O97  1  0.70016000  0.88952000  0.13412000  1.0
