# generated using pymatgen
data_Zn4C40Cl4O13F16
_symmetry_space_group_name_H-M   'P 1'
_cell_length_a   23.95615098
_cell_length_b   23.95640000
_cell_length_c   23.95460000
_cell_angle_alpha   66.58720000
_cell_angle_beta   72.46113736
_cell_angle_gamma   107.53727186
_symmetry_Int_Tables_number   1
_chemical_formula_structural   Zn4C40Cl4O13F16
_chemical_formula_sum   'Zn8 C80 Cl8 O26 F32'
_cell_volume   10544.84776488
_cell_formula_units_Z   2
loop_
 _symmetry_equiv_pos_site_id
 _symmetry_equiv_pos_as_xyz
  1  'x, y, z'
loop_
 _atom_site_type_symbol
 _atom_site_label
 _atom_site_symmetry_multiplicity
 _atom_site_fract_x
 _atom_site_fract_y
 _atom_site_fract_z
 _atom_site_occupancy
  Zn  Zn0  1  0.05705000  0.09959000  0.45746000  1.0
  Zn  Zn1  1  0.05705000  0.95746000  0.48549000  1.0
  Zn  Zn2  1  0.94294000  0.95745000  0.59961000  1.0
  Zn  Zn3  1  0.94296000  0.98550000  0.45744000  1.0
  Zn  Zn4  1  0.94295000  0.40041000  0.04254000  1.0
  Zn  Zn5  1  0.05706000  0.54255000  0.90040000  1.0
  Zn  Zn6  1  0.94295000  0.54254000  0.01451000  1.0
  Zn  Zn7  1  0.05704000  0.51450000  0.04256000  1.0
  C  C8  1  0.18100000  0.09049000  0.40950000  1.0
  C  C9  1  0.99999000  0.86304000  0.63696000  1.0
  C  C10  1  0.99998000  0.09048000  0.59051000  1.0
  C  C11  1  0.81900000  0.90951000  0.59048000  1.0
  C  C12  1  0.00001000  0.13697000  0.36304000  1.0
  C  C13  1  0.99999000  0.90950000  0.40950000  1.0
  C  C14  1  0.00000000  0.40951000  0.90949000  1.0
  C  C15  1  0.00001000  0.63696000  0.86304000  1.0
  C  C16  1  0.81900000  0.40951000  0.09051000  1.0
  C  C17  1  0.99999000  0.59051000  0.09050000  1.0
  C  C18  1  0.99999000  0.36304000  0.13696000  1.0
  C  C19  1  0.18100000  0.59051000  0.90952000  1.0
  C  C20  1  1.00000000  0.19486000  0.30514000  1.0
  C  C21  1  0.00000000  0.30514000  0.19486000  1.0
  C  C22  1  0.95719000  0.18022000  0.27697000  1.0
  C  C23  1  0.04281000  0.31978000  0.22303000  1.0
  C  C24  1  0.95719000  0.23416000  0.22303000  1.0
  C  C25  1  0.04281000  0.26584000  0.27697000  1.0
  C  C26  1  0.00000000  0.80514000  0.69486000  1.0
  C  C27  1  1.00000000  0.69486000  0.80514000  1.0
  C  C28  1  0.95719000  0.77697000  0.76585000  1.0
  C  C29  1  0.04281000  0.72303000  0.73415000  1.0
  C  C30  1  0.95719000  0.72303000  0.81979000  1.0
  C  C31  1  0.04281000  0.77697000  0.68021000  1.0
  C  C32  1  1.00000000  0.37203000  0.87201000  1.0
  C  C33  1  0.95748000  0.29992000  0.90689000  1.0
  C  C34  1  0.95759000  0.26531000  0.87203000  1.0
  C  C35  1  1.00000000  0.30027000  0.80025000  1.0
  C  C36  1  0.04240000  0.37204000  0.76529000  1.0
  C  C37  1  0.04252000  0.40691000  0.79989000  1.0
  C  C38  1  1.00000000  0.26521000  0.76519000  1.0
  C  C39  1  0.99999000  0.23480000  0.73479000  1.0
  C  C40  1  0.99999000  0.19975000  0.69973000  1.0
  C  C41  1  0.95759000  0.12797000  0.73471000  1.0
  C  C42  1  0.95747000  0.09310000  0.70010000  1.0
  C  C43  1  0.99997000  0.12797000  0.62799000  1.0
  C  C44  1  0.04248000  0.20010000  0.59309000  1.0
  C  C45  1  0.04237000  0.23470000  0.62795000  1.0
  C  C46  1  0.00001000  0.62801000  0.12796000  1.0
  C  C47  1  0.04253000  0.63565000  0.15755000  1.0
  C  C48  1  0.04241000  0.67040000  0.19227000  1.0
  C  C49  1  1.00000000  0.69976000  0.19973000  1.0
  C  C50  1  0.95760000  0.69232000  0.17035000  1.0
  C  C51  1  0.95749000  0.65761000  0.13559000  1.0
  C  C52  1  0.00000000  0.73482000  0.23479000  1.0
  C  C53  1  0.99999000  0.76519000  0.26520000  1.0
  C  C54  1  0.99999000  0.80025000  0.30027000  1.0
  C  C55  1  0.04237000  0.80767000  0.32966000  1.0
  C  C56  1  0.04248000  0.84238000  0.36442000  1.0
  C  C57  1  0.99998000  0.87200000  0.37204000  1.0
  C  C58  1  0.95747000  0.86437000  0.34243000  1.0
  C  C59  1  0.95759000  0.82962000  0.30771000  1.0
  C  C60  1  0.74404000  0.37203000  0.12798000  1.0
  C  C61  1  0.70680000  0.29991000  0.15759000  1.0
  C  C62  1  0.63733000  0.26531000  0.19231000  1.0
  C  C63  1  0.60052000  0.30027000  0.19974000  1.0
  C  C64  1  0.63733000  0.37204000  0.17036000  1.0
  C  C65  1  0.70680000  0.40691000  0.13561000  1.0
  C  C66  1  0.53040000  0.26520000  0.23481000  1.0
  C  C67  1  0.46960000  0.23479000  0.26522000  1.0
  C  C68  1  0.39948000  0.19973000  0.30028000  1.0
  C  C69  1  0.36267000  0.12796000  0.32966000  1.0
  C  C70  1  0.29320000  0.09309000  0.36441000  1.0
  C  C71  1  0.25596000  0.12797000  0.37205000  1.0
  C  C72  1  0.29320000  0.20008000  0.34245000  1.0
  C  C73  1  0.36267000  0.23468000  0.30774000  1.0
  C  C74  1  0.25596000  0.62799000  0.87204000  1.0
  C  C75  1  0.29320000  0.65761000  0.79991000  1.0
  C  C76  1  0.36267000  0.69233000  0.76531000  1.0
  C  C77  1  0.39948000  0.69975000  0.80027000  1.0
  C  C78  1  0.36267000  0.67037000  0.87205000  1.0
  C  C79  1  0.29319000  0.63561000  0.90693000  1.0
  C  C80  1  0.46960000  0.73481000  0.76520000  1.0
  C  C81  1  0.53040000  0.76522000  0.73478000  1.0
  C  C82  1  0.60052000  0.80028000  0.69972000  1.0
  C  C83  1  0.63734000  0.82966000  0.62794000  1.0
  C  C84  1  0.70681000  0.86441000  0.59307000  1.0
  C  C85  1  0.74404000  0.87204000  0.62796000  1.0
  C  C86  1  0.70679000  0.84243000  0.70009000  1.0
  C  C87  1  0.63733000  0.80773000  0.73468000  1.0
  Cl  Cl88  1  0.90262000  0.09714000  0.30550000  1.0
  Cl  Cl89  1  0.09738000  0.40286000  0.19450000  1.0
  Cl  Cl90  1  0.90263000  0.20812000  0.19451000  1.0
  Cl  Cl91  1  0.09738000  0.29189000  0.30548000  1.0
  Cl  Cl92  1  0.90263000  0.80548000  0.79190000  1.0
  Cl  Cl93  1  0.09737000  0.69452000  0.70810000  1.0
  Cl  Cl94  1  0.90263000  0.69450000  0.90288000  1.0
  Cl  Cl95  1  0.09737000  0.80550000  0.59712000  1.0
  O  O96  1  0.00000000  0.00000000  0.50000000  1.0
  O  O97  1  0.15238000  0.12658000  0.41423000  1.0
  O  O98  1  0.03970000  0.88549000  0.57482000  1.0
  O  O99  1  0.95916000  0.02578000  0.62661000  1.0
  O  O100  1  0.15238000  0.02578000  0.43338000  1.0
  O  O101  1  0.04082000  0.12658000  0.52580000  1.0
  O  O102  1  0.96029000  0.88548000  0.65423000  1.0
  O  O103  1  0.84762000  0.91424000  0.62658000  1.0
  O  O104  1  0.96031000  0.07482000  0.38547000  1.0
  O  O105  1  0.84763000  0.93341000  0.52576000  1.0
  O  O106  1  0.03970000  0.15422000  0.38549000  1.0
  O  O107  1  0.04082000  0.91423000  0.43338000  1.0
  O  O108  1  0.95917000  0.93339000  0.41423000  1.0
  O  O109  1  1.00000000  0.50000000  0.00000000  1.0
  O  O110  1  0.95918000  0.37342000  0.97420000  1.0
  O  O111  1  0.03972000  0.61453000  0.84577000  1.0
  O  O112  1  0.84762000  0.47422000  0.06663000  1.0
  O  O113  1  0.04083000  0.47423000  0.87339000  1.0
  O  O114  1  0.84762000  0.37342000  0.08577000  1.0
  O  O115  1  0.96030000  0.61451000  0.92518000  1.0
  O  O116  1  0.95917000  0.58578000  0.06661000  1.0
  O  O117  1  0.03969000  0.42518000  0.11453000  1.0
  O  O118  1  0.04081000  0.56661000  0.08577000  1.0
  O  O119  1  0.96030000  0.34578000  0.11451000  1.0
  O  O120  1  0.15238000  0.58576000  0.87343000  1.0
  O  O121  1  0.15238000  0.56662000  0.97423000  1.0
  F  F122  1  0.91482000  0.26089000  0.97541000  1.0
  F  F123  1  0.08518000  0.47542000  0.76085000  1.0
  F  F124  1  0.08396000  0.40796000  0.69653000  1.0
  F  F125  1  0.91603000  0.19656000  0.90796000  1.0
  F  F126  1  0.91604000  0.09205000  0.80347000  1.0
  F  F127  1  0.08391000  0.30346000  0.59202000  1.0
  F  F128  1  0.08512000  0.23912000  0.52457000  1.0
  F  F129  1  0.91482000  0.02459000  0.73914000  1.0
  F  F130  1  0.08520000  0.60981000  0.15390000  1.0
  F  F131  1  0.91483000  0.65397000  0.10975000  1.0
  F  F132  1  0.91604000  0.71951000  0.17599000  1.0
  F  F133  1  0.08398000  0.67605000  0.21945000  1.0
  F  F134  1  0.08392000  0.78047000  0.32404000  1.0
  F  F135  1  0.91604000  0.82399000  0.28050000  1.0
  F  F136  1  0.91481000  0.89022000  0.34606000  1.0
  F  F137  1  0.08512000  0.84600000  0.39029000  1.0
  F  F138  1  0.73629000  0.26089000  0.15397000  1.0
  F  F139  1  0.73628000  0.47541000  0.10975000  1.0
  F  F140  1  0.60450000  0.40796000  0.17598000  1.0
  F  F141  1  0.60450000  0.19655000  0.21952000  1.0
  F  F142  1  0.39550000  0.09204000  0.32402000  1.0
  F  F143  1  0.39550000  0.30343000  0.28056000  1.0
  F  F144  1  0.26371000  0.23910000  0.34610000  1.0
  F  F145  1  0.26372000  0.02459000  0.39026000  1.0
  F  F146  1  0.26372000  0.65401000  0.76088000  1.0
  F  F147  1  0.26371000  0.60975000  0.97543000  1.0
  F  F148  1  0.39549000  0.67598000  0.90798000  1.0
  F  F149  1  0.39550000  0.71954000  0.69655000  1.0
  F  F150  1  0.60451000  0.82402000  0.59202000  1.0
  F  F151  1  0.60449000  0.78053000  0.80344000  1.0
  F  F152  1  0.73628000  0.84608000  0.73911000  1.0
  F  F153  1  0.73630000  0.89026000  0.52456000  1.0
