# generated using pymatgen
data_NiH12C18(NO2)2
_symmetry_space_group_name_H-M   'P 1'
_cell_length_a   8.64137000
_cell_length_b   10.11260000
_cell_length_c   10.39800000
_cell_angle_alpha   79.58280000
_cell_angle_beta   69.46590000
_cell_angle_gamma   76.16660000
_symmetry_Int_Tables_number   1
_chemical_formula_structural   NiH12C18(NO2)2
_chemical_formula_sum   'Ni2 H24 C36 N4 O8'
_cell_volume   821.52482265
_cell_formula_units_Z   2
loop_
 _symmetry_equiv_pos_site_id
 _symmetry_equiv_pos_as_xyz
  1  'x, y, z'
loop_
 _atom_site_type_symbol
 _atom_site_label
 _atom_site_symmetry_multiplicity
 _atom_site_fract_x
 _atom_site_fract_y
 _atom_site_fract_z
 _atom_site_occupancy
  Ni  Ni0  1  0.92532000  0.86615000  0.88325000  1.0
  Ni  Ni1  1  0.07468000  0.13385000  0.11676000  1.0
  H  H2  1  0.23586000  0.04351000  0.40675000  1.0
  H  H3  1  0.76422000  0.95647000  0.59326000  1.0
  H  H4  1  0.00593000  0.04077000  0.62801000  1.0
  H  H5  1  0.99411000  0.95924000  0.37199000  1.0
  H  H6  1  0.50211000  0.67263000  0.57704000  1.0
  H  H7  1  0.49783000  0.32728000  0.42297000  1.0
  H  H8  1  0.25453000  0.68643000  0.79159000  1.0
  H  H9  1  0.74541000  0.31353000  0.20841000  1.0
  H  H10  1  0.63672000  0.63764000  0.34447000  1.0
  H  H11  1  0.36294000  0.36221000  0.65541000  1.0
  H  H12  1  0.83348000  0.65099000  0.10420000  1.0
  H  H13  1  0.16626000  0.34892000  0.89568000  1.0
  H  H14  1  0.44685000  0.07155000  0.26849000  1.0
  H  H15  1  0.55345000  0.92848000  0.73173000  1.0
  H  H16  1  0.64271000  0.06402000  0.03358000  1.0
  H  H17  1  0.35760000  0.93608000  0.96663000  1.0
  H  H18  1  0.20467000  0.35752000  0.44106000  1.0
  H  H19  1  0.79526000  0.64255000  0.55895000  1.0
  H  H20  1  0.11572000  0.57712000  0.07106000  1.0
  H  H21  1  0.88426000  0.42286000  0.92891000  1.0
  H  H22  1  0.19885000  0.79202000  0.35403000  1.0
  H  H23  1  0.80117000  0.20803000  0.64587000  1.0
  H  H24  1  0.22924000  0.57607000  0.50871000  1.0
  H  H25  1  0.77070000  0.42402000  0.49125000  1.0
  C  C26  1  0.13297000  0.82865000  0.10991000  1.0
  C  C27  1  0.86707000  0.17137000  0.89001000  1.0
  C  C28  1  0.24993000  0.96206000  0.48829000  1.0
  C  C29  1  0.75010000  0.03792000  0.51172000  1.0
  C  C30  1  0.11822000  0.96126000  0.61114000  1.0
  C  C31  1  0.88180000  0.03874000  0.38887000  1.0
  C  C32  1  0.39262000  0.85668000  0.46893000  1.0
  C  C33  1  0.60738000  0.14326000  0.53109000  1.0
  C  C34  1  0.39449000  0.75596000  0.58132000  1.0
  C  C35  1  0.60546000  0.24397000  0.41870000  1.0
  C  C36  1  0.25717000  0.76222000  0.70239000  1.0
  C  C37  1  0.74277000  0.23774000  0.29763000  1.0
  C  C38  1  0.63644000  0.73614000  0.28127000  1.0
  C  C39  1  0.36342000  0.26377000  0.71869000  1.0
  C  C40  1  0.52364000  0.85481000  0.33176000  1.0
  C  C41  1  0.47637000  0.14512000  0.66828000  1.0
  C  C42  1  0.74650000  0.74169000  0.14646000  1.0
  C  C43  1  0.25337000  0.25825000  0.85351000  1.0
  C  C44  1  0.53018000  0.97488000  0.23958000  1.0
  C  C45  1  0.47000000  0.02511000  0.76056000  1.0
  C  C46  1  0.64066000  0.97252000  0.10608000  1.0
  C  C47  1  0.35952000  0.02751000  0.89406000  1.0
  C  C48  1  0.19280000  0.45385000  0.37533000  1.0
  C  C49  1  0.80714000  0.54621000  0.62466000  1.0
  C  C50  1  0.15901000  0.45410000  0.25269000  1.0
  C  C51  1  0.84096000  0.54593000  0.74729000  1.0
  C  C52  1  0.14013000  0.57621000  0.16720000  1.0
  C  C53  1  0.85984000  0.42381000  0.83276000  1.0
  C  C54  1  0.14716000  0.32081000  0.21723000  1.0
  C  C55  1  0.85284000  0.67920000  0.78278000  1.0
  C  C56  1  0.15417000  0.69849000  0.20373000  1.0
  C  C57  1  0.84585000  0.30153000  0.79620000  1.0
  C  C58  1  0.18717000  0.69704000  0.32664000  1.0
  C  C59  1  0.81283000  0.30302000  0.67329000  1.0
  C  C60  1  0.20629000  0.57523000  0.41217000  1.0
  C  C61  1  0.79365000  0.42485000  0.58780000  1.0
  N  N62  1  0.11948000  0.86287000  0.71698000  1.0
  N  N63  1  0.88051000  0.13711000  0.28302000  1.0
  N  N64  1  0.75021000  0.85856000  0.05876000  1.0
  N  N65  1  0.24982000  0.14144000  0.94129000  1.0
  O  O66  1  0.12746000  0.82239000  0.99254000  1.0
  O  O67  1  0.87267000  0.17765000  0.00735000  1.0
  O  O68  1  0.12613000  0.93873000  0.16077000  1.0
  O  O69  1  0.87382000  0.06129000  0.83921000  1.0
  O  O70  1  0.06653000  0.32534000  0.13097000  1.0
  O  O71  1  0.93346000  0.67465000  0.86905000  1.0
  O  O72  1  0.21287000  0.21137000  0.27199000  1.0
  O  O73  1  0.78718000  0.78866000  0.72801000  1.0
