# generated using pymatgen
data_HgH7C5SO5
_symmetry_space_group_name_H-M   'P 1'
_cell_length_a   5.73209000
_cell_length_b   11.09090000
_cell_length_c   13.52393381
_cell_angle_alpha   113.91039019
_cell_angle_beta   89.99989822
_cell_angle_gamma   89.99890000
_symmetry_Int_Tables_number   1
_chemical_formula_structural   HgH7C5SO5
_chemical_formula_sum   'Hg4 H28 C20 S4 O20'
_cell_volume   785.98591947
_cell_formula_units_Z   4
loop_
 _symmetry_equiv_pos_site_id
 _symmetry_equiv_pos_as_xyz
  1  'x, y, z'
loop_
 _atom_site_type_symbol
 _atom_site_label
 _atom_site_symmetry_multiplicity
 _atom_site_fract_x
 _atom_site_fract_y
 _atom_site_fract_z
 _atom_site_occupancy
  Hg  Hg0  1  0.34027000  0.02888000  0.57211000  1.0
  Hg  Hg1  1  0.84027000  0.47113000  0.42790000  1.0
  Hg  Hg2  1  0.65973000  0.97112000  0.42788000  1.0
  Hg  Hg3  1  0.15974000  0.52888000  0.57211000  1.0
  H  H4  1  0.09979000  0.97724000  0.71905000  1.0
  H  H5  1  0.59977000  0.52275000  0.28095000  1.0
  H  H6  1  0.90023000  0.02276000  0.28095000  1.0
  H  H7  1  0.40024000  0.47726000  0.71906000  1.0
  H  H8  1  0.00032000  0.11892000  0.73456000  1.0
  H  H9  1  0.50031000  0.38108000  0.26544000  1.0
  H  H10  1  0.99970000  0.88108000  0.26544000  1.0
  H  H11  1  0.49969000  0.61892000  0.73456000  1.0
  H  H12  1  0.03909000  0.17440000  0.44530000  1.0
  H  H13  1  0.53910000  0.32559000  0.55470000  1.0
  H  H14  1  0.96091000  0.82560000  0.55471000  1.0
  H  H15  1  0.46090000  0.67440000  0.44530000  1.0
  H  H16  1  0.98453000  0.23461000  0.57209000  1.0
  H  H17  1  0.48453000  0.26539000  0.42791000  1.0
  H  H18  1  0.01547000  0.76539000  0.42791000  1.0
  H  H19  1  0.51547000  0.73461000  0.57209000  1.0
  H  H20  1  0.99598000  0.55391000  0.85750000  1.0
  H  H21  1  0.49598000  0.94609000  0.14250000  1.0
  H  H22  1  0.00401000  0.44609000  0.14250000  1.0
  H  H23  1  0.50401000  0.05392000  0.85750000  1.0
  H  H24  1  0.96880000  0.73328000  0.04332000  1.0
  H  H25  1  0.46879000  0.76673000  0.95668000  1.0
  H  H26  1  0.03121000  0.26672000  0.95667000  1.0
  H  H27  1  0.53120000  0.23327000  0.04332000  1.0
  H  H28  1  0.65518000  0.73305000  0.16600000  1.0
  H  H29  1  0.15517000  0.76694000  0.83399000  1.0
  H  H30  1  0.34483000  0.26694000  0.83399000  1.0
  H  H31  1  0.84481000  0.23306000  0.16601000  1.0
  C  C32  1  0.69497000  0.45244000  0.87849000  1.0
  C  C33  1  0.19498000  0.04755000  0.12152000  1.0
  C  C34  1  0.30501000  0.54754000  0.12151000  1.0
  C  C35  1  0.80501000  0.95246000  0.87849000  1.0
  C  C36  1  0.85641000  0.55348000  0.91195000  1.0
  C  C37  1  0.35639000  0.94652000  0.08805000  1.0
  C  C38  1  0.14361000  0.44651000  0.08804000  1.0
  C  C39  1  0.64360000  0.05349000  0.91196000  1.0
  C  C40  1  0.83954000  0.65456000  0.01674000  1.0
  C  C41  1  0.33954000  0.84544000  0.98326000  1.0
  C  C42  1  0.16045000  0.34542000  0.98325000  1.0
  C  C43  1  0.66045000  0.15457000  0.01674000  1.0
  C  C44  1  0.66337000  0.65387000  0.08575000  1.0
  C  C45  1  0.16336000  0.84613000  0.91423000  1.0
  C  C46  1  0.33665000  0.34614000  0.91423000  1.0
  C  C47  1  0.83664000  0.15387000  0.08577000  1.0
  C  C48  1  0.50720000  0.44768000  0.94669000  1.0
  C  C49  1  0.00720000  0.05233000  0.05331000  1.0
  C  C50  1  0.49279000  0.55233000  0.05331000  1.0
  C  C51  1  0.99278000  0.94767000  0.94669000  1.0
  S  S52  1  0.72956000  0.32517000  0.74667000  1.0
  S  S53  1  0.22956000  0.17484000  0.25334000  1.0
  S  S54  1  0.27044000  0.67483000  0.25332000  1.0
  S  S55  1  0.77044000  0.82516000  0.74667000  1.0
  O  O56  1  0.14896000  0.06685000  0.72582000  1.0
  O  O57  1  0.64894000  0.43313000  0.27417000  1.0
  O  O58  1  0.85105000  0.93314000  0.27417000  1.0
  O  O59  1  0.35106000  0.56686000  0.72583000  1.0
  O  O60  1  0.01439000  0.15134000  0.50787000  1.0
  O  O61  1  0.51440000  0.34866000  0.49213000  1.0
  O  O62  1  0.98561000  0.84866000  0.49213000  1.0
  O  O63  1  0.48561000  0.65133000  0.50787000  1.0
  O  O64  1  0.50929000  0.32411000  0.68732000  1.0
  O  O65  1  0.00926000  0.17589000  0.31268000  1.0
  O  O66  1  0.49071000  0.67587000  0.31267000  1.0
  O  O67  1  0.99073000  0.82411000  0.68732000  1.0
  O  O68  1  0.75652000  0.19940000  0.75818000  1.0
  O  O69  1  0.25650000  0.30060000  0.24182000  1.0
  O  O70  1  0.24349000  0.80060000  0.24182000  1.0
  O  O71  1  0.74350000  0.69941000  0.75819000  1.0
  O  O72  1  0.93306000  0.35988000  0.69764000  1.0
  O  O73  1  0.43306000  0.14009000  0.30236000  1.0
  O  O74  1  0.06692000  0.64011000  0.30235000  1.0
  O  O75  1  0.56694000  0.85991000  0.69764000  1.0
