# generated using pymatgen
data_LuH15C11O6
_symmetry_space_group_name_H-M   'P 1'
_cell_length_a   8.01491000
_cell_length_b   10.67880000
_cell_length_c   14.71340000
_cell_angle_alpha   90.00040000
_cell_angle_beta   90.00000000
_cell_angle_gamma   89.99990000
_symmetry_Int_Tables_number   1
_chemical_formula_structural   LuH15C11O6
_chemical_formula_sum   'Lu4 H60 C44 O24'
_cell_volume   1259.31432824
_cell_formula_units_Z   4
loop_
 _symmetry_equiv_pos_site_id
 _symmetry_equiv_pos_as_xyz
  1  'x, y, z'
loop_
 _atom_site_type_symbol
 _atom_site_label
 _atom_site_symmetry_multiplicity
 _atom_site_fract_x
 _atom_site_fract_y
 _atom_site_fract_z
 _atom_site_occupancy
  Lu  Lu0  1  0.07708000  0.79833000  0.99812000  1.0
  Lu  Lu1  1  0.42291000  0.20168000  0.49811000  1.0
  Lu  Lu2  1  0.92291000  0.29832000  0.50189000  1.0
  Lu  Lu3  1  0.57708000  0.70167000  0.00188000  1.0
  H  H4  1  0.76664000  0.67492000  0.30084000  1.0
  H  H5  1  0.73336000  0.32508000  0.80085000  1.0
  H  H6  1  0.23336000  0.17492000  0.19916000  1.0
  H  H7  1  0.26664000  0.82508000  0.69916000  1.0
  H  H8  1  0.43924000  0.98733000  0.10327000  1.0
  H  H9  1  0.06075000  0.01268000  0.60328000  1.0
  H  H10  1  0.56076000  0.48732000  0.39672000  1.0
  H  H11  1  0.93924000  0.51267000  0.89672000  1.0
  H  H12  1  0.02988000  0.69507000  0.35943000  1.0
  H  H13  1  0.47012000  0.30494000  0.85943000  1.0
  H  H14  1  0.97012000  0.19506000  0.14057000  1.0
  H  H15  1  0.52988000  0.80493000  0.64057000  1.0
  H  H16  1  0.09576000  0.79303000  0.26961000  1.0
  H  H17  1  0.40424000  0.20697000  0.76960000  1.0
  H  H18  1  0.90424000  0.29303000  0.23039000  1.0
  H  H19  1  0.59576000  0.70696000  0.73039000  1.0
  H  H20  1  0.02602000  0.97906000  0.34995000  1.0
  H  H21  1  0.47397000  0.02095000  0.84994000  1.0
  H  H22  1  0.97398000  0.47905000  0.15005000  1.0
  H  H23  1  0.52602000  0.52094000  0.65005000  1.0
  H  H24  1  0.05413000  0.88391000  0.44612000  1.0
  H  H25  1  0.44587000  0.11610000  0.94612000  1.0
  H  H26  1  0.94587000  0.38390000  0.05387000  1.0
  H  H27  1  0.55412000  0.61609000  0.55387000  1.0
  H  H28  1  0.50807000  0.75300000  0.35498000  1.0
  H  H29  1  0.99193000  0.24700000  0.85498000  1.0
  H  H30  1  0.49193000  0.25300000  0.14502000  1.0
  H  H31  1  0.00807000  0.74701000  0.64502000  1.0
  H  H32  1  0.48503000  0.80903000  0.24258000  1.0
  H  H33  1  0.01497000  0.19097000  0.74259000  1.0
  H  H34  1  0.51498000  0.30903000  0.25742000  1.0
  H  H35  1  0.98503000  0.69097000  0.75742000  1.0
  H  H36  1  0.44991000  0.91180000  0.33660000  1.0
  H  H37  1  0.05008000  0.08819000  0.83660000  1.0
  H  H38  1  0.55009000  0.41181000  0.16340000  1.0
  H  H39  1  0.94991000  0.58820000  0.66340000  1.0
  H  H40  1  0.85823000  0.01991000  0.23783000  1.0
  H  H41  1  0.64177000  0.98009000  0.73783000  1.0
  H  H42  1  0.14177000  0.51991000  0.26217000  1.0
  H  H43  1  0.35823000  0.48009000  0.76217000  1.0
  H  H44  1  0.65207000  0.06550000  0.26904000  1.0
  H  H45  1  0.84793000  0.93450000  0.76904000  1.0
  H  H46  1  0.34793000  0.56551000  0.23096000  1.0
  H  H47  1  0.15207000  0.43450000  0.73096000  1.0
  H  H48  1  0.68553000  0.96413000  0.17537000  1.0
  H  H49  1  0.81447000  0.03587000  0.67537000  1.0
  H  H50  1  0.31447000  0.46414000  0.32463000  1.0
  H  H51  1  0.18553000  0.53587000  0.82463000  1.0
  H  H52  1  0.60747000  0.81522000  0.49041000  1.0
  H  H53  1  0.89253000  0.18478000  0.99041000  1.0
  H  H54  1  0.39253000  0.31523000  0.00959000  1.0
  H  H55  1  0.10747000  0.68477000  0.50959000  1.0
  H  H56  1  0.80789000  0.82911000  0.54035000  1.0
  H  H57  1  0.69211000  0.17089000  0.04035000  1.0
  H  H58  1  0.19212000  0.32912000  0.95965000  1.0
  H  H59  1  0.30788000  0.67088000  0.45966000  1.0
  H  H60  1  0.77259000  0.71264000  0.45674000  1.0
  H  H61  1  0.72741000  0.28736000  0.95675000  1.0
  H  H62  1  0.22742000  0.21264000  0.04325000  1.0
  H  H63  1  0.27258000  0.78735000  0.54325000  1.0
  C  C64  1  0.82755000  0.75074000  0.17350000  1.0
  C  C65  1  0.67246000  0.24925000  0.67350000  1.0
  C  C66  1  0.17246000  0.25075000  0.32650000  1.0
  C  C67  1  0.32754000  0.74926000  0.82650000  1.0
  C  C68  1  0.82549000  0.76125000  0.27575000  1.0
  C  C69  1  0.67451000  0.23876000  0.77575000  1.0
  C  C70  1  0.17451000  0.26125000  0.22425000  1.0
  C  C71  1  0.32549000  0.73875000  0.72425000  1.0
  C  C72  1  0.33439000  0.93327000  0.07454000  1.0
  C  C73  1  0.16560000  0.06673000  0.57454000  1.0
  C  C74  1  0.66560000  0.43327000  0.42546000  1.0
  C  C75  1  0.83440000  0.56673000  0.92546000  1.0
  C  C76  1  0.99785000  0.77952000  0.32068000  1.0
  C  C77  1  0.50215000  0.22049000  0.82068000  1.0
  C  C78  1  0.00215000  0.27952000  0.17932000  1.0
  C  C79  1  0.49785000  0.72048000  0.67932000  1.0
  C  C80  1  0.71140000  0.87364000  0.30783000  1.0
  C  C81  1  0.78860000  0.12636000  0.80783000  1.0
  C  C82  1  0.28860000  0.37364000  0.19217000  1.0
  C  C83  1  0.21140000  0.62636000  0.69217000  1.0
  C  C84  1  0.98116000  0.89363000  0.38354000  1.0
  C  C85  1  0.51884000  0.10638000  0.88354000  1.0
  C  C86  1  0.01884000  0.39362000  0.11646000  1.0
  C  C87  1  0.48115000  0.60637000  0.61646000  1.0
  C  C88  1  0.52760000  0.83484000  0.31104000  1.0
  C  C89  1  0.97240000  0.16516000  0.81105000  1.0
  C  C90  1  0.47240000  0.33484000  0.18895000  1.0
  C  C91  1  0.02760000  0.66516000  0.68895000  1.0
  C  C92  1  0.79311000  0.90405000  0.40286000  1.0
  C  C93  1  0.70689000  0.09594000  0.90286000  1.0
  C  C94  1  0.20689000  0.40406000  0.09714000  1.0
  C  C95  1  0.29310000  0.59595000  0.59714000  1.0
  C  C96  1  0.72887000  0.98745000  0.24424000  1.0
  C  C97  1  0.77113000  0.01255000  0.74424000  1.0
  C  C98  1  0.27113000  0.48746000  0.25576000  1.0
  C  C99  1  0.22887000  0.51255000  0.75576000  1.0
  C  C100  1  0.74155000  0.80894000  0.47659000  1.0
  C  C101  1  0.75845000  0.19105000  0.97659000  1.0
  C  C102  1  0.25846000  0.30895000  0.02341000  1.0
  C  C103  1  0.24154000  0.69105000  0.52341000  1.0
  C  C104  1  0.74274000  0.03081000  0.44135000  1.0
  C  C105  1  0.75726000  0.96918000  0.94135000  1.0
  C  C106  1  0.25726000  0.53082000  0.05865000  1.0
  C  C107  1  0.24274000  0.46918000  0.55865000  1.0
  O  O108  1  0.85605000  0.68446000  0.94194000  1.0
  O  O109  1  0.64395000  0.31553000  0.44193000  1.0
  O  O110  1  0.14396000  0.18446000  0.55806000  1.0
  O  O111  1  0.35605000  0.81554000  0.05807000  1.0
  O  O112  1  0.95269000  0.79143000  0.12936000  1.0
  O  O113  1  0.54732000  0.20855000  0.62935000  1.0
  O  O114  1  0.04731000  0.29144000  0.37064000  1.0
  O  O115  1  0.45269000  0.70856000  0.87064000  1.0
  O  O116  1  0.69636000  0.51557000  0.94128000  1.0
  O  O117  1  0.80364000  0.48442000  0.44128000  1.0
  O  O118  1  0.30365000  0.01559000  0.55873000  1.0
  O  O119  1  0.19636000  0.98442000  0.05872000  1.0
  O  O120  1  0.64365000  0.89852000  0.97364000  1.0
  O  O121  1  0.85635000  0.10148000  0.47365000  1.0
  O  O122  1  0.35635000  0.39852000  0.52635000  1.0
  O  O123  1  0.14365000  0.60149000  0.02636000  1.0
  O  O124  1  0.41183000  0.55713000  0.05556000  1.0
  O  O125  1  0.08817000  0.44287000  0.55556000  1.0
  O  O126  1  0.58817000  0.05712000  0.44444000  1.0
  O  O127  1  0.91183000  0.94287000  0.94444000  1.0
  O  O128  1  0.69909000  0.70388000  0.13475000  1.0
  O  O129  1  0.80092000  0.29612000  0.63475000  1.0
  O  O130  1  0.30091000  0.20388000  0.36526000  1.0
  O  O131  1  0.19910000  0.79612000  0.86526000  1.0
