# generated using pymatgen
data_CoH11C18NO4
_symmetry_space_group_name_H-M   'P 1'
_cell_length_a   13.20670000
_cell_length_b   13.21430000
_cell_length_c   16.05210000
_cell_angle_alpha   94.99150000
_cell_angle_beta   97.97190000
_cell_angle_gamma   91.09370000
_symmetry_Int_Tables_number   1
_chemical_formula_structural   CoH11C18NO4
_chemical_formula_sum   'Co6 H66 C108 N6 O24'
_cell_volume   2762.39769395
_cell_formula_units_Z   6
loop_
 _symmetry_equiv_pos_site_id
 _symmetry_equiv_pos_as_xyz
  1  'x, y, z'
loop_
 _atom_site_type_symbol
 _atom_site_label
 _atom_site_symmetry_multiplicity
 _atom_site_fract_x
 _atom_site_fract_y
 _atom_site_fract_z
 _atom_site_occupancy
  Co  Co0  1  0.99586000  0.00139000  0.42850000  1.0
  Co  Co1  1  0.00410000  0.99858000  0.57154000  1.0
  Co  Co2  1  0.22884000  0.32504000  0.12542000  1.0
  Co  Co3  1  0.23705000  0.32201000  0.26800000  1.0
  Co  Co4  1  0.77114000  0.67497000  0.87450000  1.0
  Co  Co5  1  0.76295000  0.67802000  0.73193000  1.0
  H  H6  1  0.97666000  0.82729000  0.27891000  1.0
  H  H7  1  0.97508000  0.80849000  0.12224000  1.0
  H  H8  1  0.98633000  0.13632000  0.13137000  1.0
  H  H9  1  0.99096000  0.14064000  0.28682000  1.0
  H  H10  1  0.96827000  0.88592000  0.99018000  1.0
  H  H11  1  0.97455000  0.67279000  0.60597000  1.0
  H  H12  1  0.96345000  0.50846000  0.66734000  1.0
  H  H13  1  0.03196000  0.68081000  0.34932000  1.0
  H  H14  1  0.32167000  0.05182000  0.40225000  1.0
  H  H15  1  0.48204000  0.08073000  0.34390000  1.0
  H  H16  1  0.32795000  0.93158000  0.64376000  1.0
  H  H17  1  0.02332000  0.17266000  0.72111000  1.0
  H  H18  1  0.02493000  0.19149000  0.87779000  1.0
  H  H19  1  0.01365000  0.86365000  0.86868000  1.0
  H  H20  1  0.00900000  0.85932000  0.71322000  1.0
  H  H21  1  0.03173000  0.11407000  0.00985000  1.0
  H  H22  1  0.02539000  0.32719000  0.39407000  1.0
  H  H23  1  0.03654000  0.49154000  0.33272000  1.0
  H  H24  1  0.96806000  0.31918000  0.65076000  1.0
  H  H25  1  0.67826000  0.94815000  0.59783000  1.0
  H  H26  1  0.51797000  0.91934000  0.65619000  1.0
  H  H27  1  0.67203000  0.06842000  0.35635000  1.0
  H  H28  1  0.24228000  0.64874000  0.08704000  1.0
  H  H29  1  0.25018000  0.81584000  0.02433000  1.0
  H  H30  1  0.24803000  0.00443000  0.04249000  1.0
  H  H31  1  0.21941000  0.99586000  0.30547000  1.0
  H  H32  1  0.22156000  0.83266000  0.36859000  1.0
  H  H33  1  0.22616000  0.64327000  0.35167000  1.0
  H  H34  1  0.91307000  0.29796000  0.30127000  1.0
  H  H35  1  0.75402000  0.28142000  0.36464000  1.0
  H  H36  1  0.56322000  0.28824000  0.35047000  1.0
  H  H37  1  0.54935000  0.35441000  0.09188000  1.0
  H  H38  1  0.71026000  0.37307000  0.02957000  1.0
  H  H39  1  0.90086000  0.36295000  0.04220000  1.0
  H  H40  1  0.28380000  0.16458000  0.98733000  1.0
  H  H41  1  0.29238000  0.14599000  0.83176000  1.0
  H  H42  1  0.24504000  0.20773000  0.69434000  1.0
  H  H43  1  0.24282000  0.44191000  0.70233000  1.0
  H  H44  1  0.22704000  0.18904000  0.56312000  1.0
  H  H45  1  0.22487000  0.18420000  0.40826000  1.0
  H  H46  1  0.27174000  0.49521000  0.41819000  1.0
  H  H47  1  0.75772000  0.35131000  0.91289000  1.0
  H  H48  1  0.74978000  0.18419000  0.97563000  1.0
  H  H49  1  0.75196000  0.99561000  0.95747000  1.0
  H  H50  1  0.78061000  0.00417000  0.69451000  1.0
  H  H51  1  0.77842000  0.16733000  0.63136000  1.0
  H  H52  1  0.77384000  0.35673000  0.64827000  1.0
  H  H53  1  0.08691000  0.70204000  0.69870000  1.0
  H  H54  1  0.24596000  0.71859000  0.63532000  1.0
  H  H55  1  0.43676000  0.71178000  0.64949000  1.0
  H  H56  1  0.45064000  0.64560000  0.90808000  1.0
  H  H57  1  0.28975000  0.62697000  0.97039000  1.0
  H  H58  1  0.09915000  0.63707000  0.95777000  1.0
  H  H59  1  0.71619000  0.83543000  0.01264000  1.0
  H  H60  1  0.70763000  0.85402000  0.16822000  1.0
  H  H61  1  0.75497000  0.79225000  0.30564000  1.0
  H  H62  1  0.75719000  0.55807000  0.29764000  1.0
  H  H63  1  0.77295000  0.81096000  0.43684000  1.0
  H  H64  1  0.77513000  0.81581000  0.59170000  1.0
  H  H65  1  0.72825000  0.50480000  0.58179000  1.0
  H  H66  1  0.16709000  0.44555000  0.82049000  1.0
  H  H67  1  0.16234000  0.44937000  0.97509000  1.0
  H  H68  1  0.27137000  0.51513000  0.57492000  1.0
  H  H69  1  0.83292000  0.55445000  0.17946000  1.0
  H  H70  1  0.83762000  0.55063000  0.02486000  1.0
  H  H71  1  0.72861000  0.48486000  0.42506000  1.0
  C  C72  1  0.97873000  0.89355000  0.24316000  1.0
  C  C73  1  0.97762000  0.88390000  0.15613000  1.0
  C  C74  1  0.98247000  0.97132000  0.11267000  1.0
  C  C75  1  0.98474000  0.06552000  0.16108000  1.0
  C  C76  1  0.98626000  0.06859000  0.24778000  1.0
  C  C77  1  0.98697000  0.96177000  0.02223000  1.0
  C  C78  1  0.00217000  0.80057000  0.48896000  1.0
  C  C79  1  0.00569000  0.68791000  0.47986000  1.0
  C  C80  1  0.99104000  0.63321000  0.54725000  1.0
  C  C81  1  0.99204000  0.52597000  0.53964000  1.0
  C  C82  1  0.97729000  0.46819000  0.60794000  1.0
  C  C83  1  0.02102000  0.63619000  0.40144000  1.0
  C  C84  1  0.20054000  0.99841000  0.51429000  1.0
  C  C85  1  0.31372000  0.99222000  0.52164000  1.0
  C  C86  1  0.36447000  0.02302000  0.45771000  1.0
  C  C87  1  0.47182000  0.01905000  0.46345000  1.0
  C  C88  1  0.52559000  0.05100000  0.39891000  1.0
  C  C89  1  0.36971000  0.95540000  0.59443000  1.0
  C  C90  1  0.02125000  0.10641000  0.75688000  1.0
  C  C91  1  0.02239000  0.11607000  0.84391000  1.0
  C  C92  1  0.01753000  0.02866000  0.88737000  1.0
  C  C93  1  0.01525000  0.93445000  0.83897000  1.0
  C  C94  1  0.01373000  0.93136000  0.75227000  1.0
  C  C95  1  0.01302000  0.03821000  0.97780000  1.0
  C  C96  1  0.99781000  0.19940000  0.51115000  1.0
  C  C97  1  0.99430000  0.31208000  0.52021000  1.0
  C  C98  1  0.00893000  0.36677000  0.45280000  1.0
  C  C99  1  0.00793000  0.47401000  0.46042000  1.0
  C  C100  1  0.02270000  0.53180000  0.39213000  1.0
  C  C101  1  0.97898000  0.36380000  0.59863000  1.0
  C  C102  1  0.79943000  0.00157000  0.48581000  1.0
  C  C103  1  0.68625000  0.00778000  0.47845000  1.0
  C  C104  1  0.63549000  0.97699000  0.54237000  1.0
  C  C105  1  0.52814000  0.98098000  0.53663000  1.0
  C  C106  1  0.47438000  0.94903000  0.60118000  1.0
  C  C107  1  0.63026000  0.04462000  0.40567000  1.0
  C  C108  1  0.23442000  0.63568000  0.21756000  1.0
  C  C109  1  0.23898000  0.69013000  0.14820000  1.0
  C  C110  1  0.23971000  0.79744000  0.15600000  1.0
  C  C111  1  0.24565000  0.85549000  0.08617000  1.0
  C  C112  1  0.24462000  0.95983000  0.09599000  1.0
  C  C113  1  0.23656000  0.01146000  0.17608000  1.0
  C  C114  1  0.23013000  0.95670000  0.24499000  1.0
  C  C115  1  0.23294000  0.84956000  0.23725000  1.0
  C  C116  1  0.22780000  0.79210000  0.30747000  1.0
  C  C117  1  0.22974000  0.68772000  0.29813000  1.0
  C  C118  1  0.23427000  0.52278000  0.20763000  1.0
  C  C119  1  0.23250000  0.12406000  0.18537000  1.0
  C  C120  1  0.91828000  0.33065000  0.17328000  1.0
  C  C121  1  0.86876000  0.31428000  0.24188000  1.0
  C  C122  1  0.76122000  0.31680000  0.23611000  1.0
  C  C123  1  0.70904000  0.29869000  0.30548000  1.0
  C  C124  1  0.60406000  0.30190000  0.29782000  1.0
  C  C125  1  0.54619000  0.32211000  0.21986000  1.0
  C  C126  1  0.59511000  0.33965000  0.15127000  1.0
  C  C127  1  0.70283000  0.33798000  0.15758000  1.0
  C  C128  1  0.75545000  0.35538000  0.08844000  1.0
  C  C129  1  0.86030000  0.35084000  0.09540000  1.0
  C  C130  1  0.03182000  0.32589000  0.18103000  1.0
  C  C131  1  0.43250000  0.32383000  0.21158000  1.0
  C  C132  1  0.25946000  0.22480000  0.94743000  1.0
  C  C133  1  0.26424000  0.21538000  0.86127000  1.0
  C  C134  1  0.23302000  0.29548000  0.81231000  1.0
  C  C135  1  0.19497000  0.38139000  0.85443000  1.0
  C  C136  1  0.19138000  0.38394000  0.94065000  1.0
  C  C137  1  0.24000000  0.28566000  0.72225000  1.0
  C  C138  1  0.24354000  0.36379000  0.67365000  1.0
  C  C139  1  0.24954000  0.35330000  0.58335000  1.0
  C  C140  1  0.23882000  0.25914000  0.53446000  1.0
  C  C141  1  0.23781000  0.25573000  0.44785000  1.0
  C  C142  1  0.26283000  0.42966000  0.45359000  1.0
  C  C143  1  0.26271000  0.43989000  0.54052000  1.0
  C  C144  1  0.76557000  0.36434000  0.78238000  1.0
  C  C145  1  0.76101000  0.30990000  0.85174000  1.0
  C  C146  1  0.76028000  0.20259000  0.84395000  1.0
  C  C147  1  0.75434000  0.14455000  0.91379000  1.0
  C  C148  1  0.75538000  0.04021000  0.90397000  1.0
  C  C149  1  0.76345000  0.98857000  0.82389000  1.0
  C  C150  1  0.76988000  0.04333000  0.75498000  1.0
  C  C151  1  0.76706000  0.15046000  0.76271000  1.0
  C  C152  1  0.77220000  0.20792000  0.69248000  1.0
  C  C153  1  0.77025000  0.31228000  0.70181000  1.0
  C  C154  1  0.76574000  0.47724000  0.79230000  1.0
  C  C155  1  0.76750000  0.87596000  0.81459000  1.0
  C  C156  1  0.08172000  0.66937000  0.82669000  1.0
  C  C157  1  0.13124000  0.68573000  0.75809000  1.0
  C  C158  1  0.23876000  0.68322000  0.76385000  1.0
  C  C159  1  0.29095000  0.70133000  0.69448000  1.0
  C  C160  1  0.39593000  0.69813000  0.70214000  1.0
  C  C161  1  0.45380000  0.67790000  0.78010000  1.0
  C  C162  1  0.40489000  0.66038000  0.84868000  1.0
  C  C163  1  0.29716000  0.66206000  0.84238000  1.0
  C  C164  1  0.24455000  0.64467000  0.91152000  1.0
  C  C165  1  0.13971000  0.64918000  0.90457000  1.0
  C  C166  1  0.96818000  0.67414000  0.81894000  1.0
  C  C167  1  0.56749000  0.67617000  0.78837000  1.0
  C  C168  1  0.74052000  0.77520000  0.05254000  1.0
  C  C169  1  0.73576000  0.78462000  0.13871000  1.0
  C  C170  1  0.76699000  0.70452000  0.18766000  1.0
  C  C171  1  0.80503000  0.61861000  0.14553000  1.0
  C  C172  1  0.80861000  0.61607000  0.05931000  1.0
  C  C173  1  0.76001000  0.71433000  0.27771000  1.0
  C  C174  1  0.75645000  0.63619000  0.32632000  1.0
  C  C175  1  0.75045000  0.64670000  0.41661000  1.0
  C  C176  1  0.76117000  0.74085000  0.46550000  1.0
  C  C177  1  0.76217000  0.74427000  0.55212000  1.0
  C  C178  1  0.73715000  0.57034000  0.54638000  1.0
  C  C179  1  0.73727000  0.56011000  0.45945000  1.0
  N  N180  1  0.98390000  0.98413000  0.28903000  1.0
  N  N181  1  0.01608000  0.01583000  0.71100000  1.0
  N  N182  1  0.22345000  0.30752000  0.98707000  1.0
  N  N183  1  0.24916000  0.33944000  0.40724000  1.0
  N  N184  1  0.77652000  0.69249000  0.01289000  1.0
  N  N185  1  0.75082000  0.66057000  0.59272000  1.0
  O  O186  1  0.99676000  0.84742000  0.42213000  1.0
  O  O187  1  0.99571000  0.15379000  0.43724000  1.0
  O  O188  1  0.15004000  0.00455000  0.44085000  1.0
  O  O189  1  0.84114000  0.00170000  0.41856000  1.0
  O  O190  1  0.00325000  0.15261000  0.57801000  1.0
  O  O191  1  0.00420000  0.84612000  0.56289000  1.0
  O  O192  1  0.84987000  0.99546000  0.55927000  1.0
  O  O193  1  0.15887000  0.99822000  0.58156000  1.0
  O  O194  1  0.23066000  0.47744000  0.13342000  1.0
  O  O195  1  0.23747000  0.47572000  0.27415000  1.0
  O  O196  1  0.23567000  0.16962000  0.25944000  1.0
  O  O197  1  0.22594000  0.17091000  0.11847000  1.0
  O  O198  1  0.08199000  0.32065000  0.25463000  1.0
  O  O199  1  0.07364000  0.32630000  0.11386000  1.0
  O  O200  1  0.38222000  0.32668000  0.13782000  1.0
  O  O201  1  0.39073000  0.32204000  0.27860000  1.0
  O  O202  1  0.76932000  0.52257000  0.86651000  1.0
  O  O203  1  0.76259000  0.52430000  0.72578000  1.0
  O  O204  1  0.76435000  0.83042000  0.74051000  1.0
  O  O205  1  0.77404000  0.82910000  0.88148000  1.0
  O  O206  1  0.91802000  0.67942000  0.74535000  1.0
  O  O207  1  0.92634000  0.67369000  0.88610000  1.0
  O  O208  1  0.61778000  0.67330000  0.86213000  1.0
  O  O209  1  0.60927000  0.67798000  0.72135000  1.0
