# generated using pymatgen
data_CaH16C20(NO5)2
_symmetry_space_group_name_H-M   'P 1'
_cell_length_a   7.32179000
_cell_length_b   9.22071000
_cell_length_c   15.95540000
_cell_angle_alpha   106.19200000
_cell_angle_beta   99.02160000
_cell_angle_gamma   91.32650000
_symmetry_Int_Tables_number   1
_chemical_formula_structural   CaH16C20(NO5)2
_chemical_formula_sum   'Ca2 H32 C40 N4 O20'
_cell_volume   1019.11377161
_cell_formula_units_Z   2
loop_
 _symmetry_equiv_pos_site_id
 _symmetry_equiv_pos_as_xyz
  1  'x, y, z'
loop_
 _atom_site_type_symbol
 _atom_site_label
 _atom_site_symmetry_multiplicity
 _atom_site_fract_x
 _atom_site_fract_y
 _atom_site_fract_z
 _atom_site_occupancy
  Ca  Ca0  1  0.73925000  0.65090000  0.00090000  1.0
  Ca  Ca1  1  0.26077000  0.34909000  0.99910000  1.0
  H  H2  1  0.87215000  0.96797000  0.08202000  1.0
  H  H3  1  0.62273000  0.88286000  0.91639000  1.0
  H  H4  1  0.12784000  0.03203000  0.91798000  1.0
  H  H5  1  0.37726000  0.11709000  0.08360000  1.0
  H  H6  1  0.06509000  0.90404000  0.07123000  1.0
  H  H7  1  0.42316000  0.82706000  0.92235000  1.0
  H  H8  1  0.93490000  0.09596000  0.92877000  1.0
  H  H9  1  0.57683000  0.17291000  0.07764000  1.0
  H  H10  1  0.81858000  0.68462000  0.50261000  1.0
  H  H11  1  0.68156000  0.18462000  0.49588000  1.0
  H  H12  1  0.18144000  0.31537000  0.49738000  1.0
  H  H13  1  0.31845000  0.81543000  0.50413000  1.0
  H  H14  1  0.80327000  0.95185000  0.50143000  1.0
  H  H15  1  0.69506000  0.45330000  0.49696000  1.0
  H  H16  1  0.19674000  0.04815000  0.49857000  1.0
  H  H17  1  0.30498000  0.54674000  0.50302000  1.0
  H  H18  1  0.95519000  0.16142000  0.63076000  1.0
  H  H19  1  0.54099000  0.53231000  0.36790000  1.0
  H  H20  1  0.04481000  0.83857000  0.36924000  1.0
  H  H21  1  0.45904000  0.46770000  0.63207000  1.0
  H  H22  1  0.11675000  0.10525000  0.76867000  1.0
  H  H23  1  0.37756000  0.33708000  0.23054000  1.0
  H  H24  1  0.88323000  0.89474000  0.23133000  1.0
  H  H25  1  0.62245000  0.66291000  0.76944000  1.0
  H  H26  1  0.28627000  0.55831000  0.83199000  1.0
  H  H27  1  0.21374000  0.72145000  0.16524000  1.0
  H  H28  1  0.71372000  0.44168000  0.16801000  1.0
  H  H29  1  0.78625000  0.27857000  0.83478000  1.0
  H  H30  1  0.13448000  0.42042000  0.74875000  1.0
  H  H31  1  0.36208000  0.66947000  0.24980000  1.0
  H  H32  1  0.86552000  0.57957000  0.25125000  1.0
  H  H33  1  0.63789000  0.33056000  0.75023000  1.0
  C  C34  1  0.99602000  0.60098000  0.65945000  1.0
  C  C35  1  0.50047000  0.94291000  0.34000000  1.0
  C  C36  1  0.00399000  0.39901000  0.34054000  1.0
  C  C37  1  0.49953000  0.05711000  0.66001000  1.0
  C  C38  1  0.96677000  0.74640000  0.63763000  1.0
  C  C39  1  0.53009000  0.11042000  0.36145000  1.0
  C  C40  1  0.03324000  0.25359000  0.36236000  1.0
  C  C41  1  0.46991000  0.88961000  0.63856000  1.0
  C  C42  1  0.88003000  0.77537000  0.56091000  1.0
  C  C43  1  0.61837000  0.21674000  0.43781000  1.0
  C  C44  1  0.11999000  0.22462000  0.43909000  1.0
  C  C45  1  0.38164000  0.78331000  0.56218000  1.0
  C  C46  1  0.87500000  0.92728000  0.56052000  1.0
  C  C47  1  0.62273000  0.36904000  0.43803000  1.0
  C  C48  1  0.12500000  0.07272000  0.43948000  1.0
  C  C49  1  0.37729000  0.63098000  0.56195000  1.0
  C  C50  1  0.95887000  0.04471000  0.63397000  1.0
  C  C51  1  0.53742000  0.41240000  0.36476000  1.0
  C  C52  1  0.04112000  0.95528000  0.36603000  1.0
  C  C53  1  0.46261000  0.58763000  0.63523000  1.0
  C  C54  1  0.04777000  0.01513000  0.71149000  1.0
  C  C55  1  0.44726000  0.30458000  0.28759000  1.0
  C  C56  1  0.95222000  0.98487000  0.28851000  1.0
  C  C57  1  0.55275000  0.69543000  0.71240000  1.0
  C  C58  1  0.04750000  0.86466000  0.71188000  1.0
  C  C59  1  0.44771000  0.15380000  0.28738000  1.0
  C  C60  1  0.95249000  0.13533000  0.28812000  1.0
  C  C61  1  0.55229000  0.84621000  0.71262000  1.0
  C  C62  1  0.12829000  0.79601000  0.78172000  1.0
  C  C63  1  0.36608000  0.01448000  0.21789000  1.0
  C  C64  1  0.87170000  0.20398000  0.21828000  1.0
  C  C65  1  0.63392000  0.98553000  0.78212000  1.0
  C  C66  1  0.14328000  0.53384000  0.79578000  1.0
  C  C67  1  0.35496000  0.73849000  0.20352000  1.0
  C  C68  1  0.85672000  0.46615000  0.20422000  1.0
  C  C69  1  0.64503000  0.26154000  0.79651000  1.0
  C  C70  1  0.01280000  0.53376000  0.86269000  1.0
  C  C71  1  0.49201000  0.68516000  0.13926000  1.0
  C  C72  1  0.98720000  0.46623000  0.13731000  1.0
  C  C73  1  0.50798000  0.31483000  0.86076000  1.0
  N  N74  1  0.09902000  0.64035000  0.74580000  1.0
  N  N75  1  0.39496000  0.89496000  0.25428000  1.0
  N  N76  1  0.90098000  0.35964000  0.25420000  1.0
  N  N77  1  0.60505000  0.10506000  0.74574000  1.0
  O  O78  1  0.94513000  0.47066000  0.61511000  1.0
  O  O79  1  0.55286000  0.85757000  0.38432000  1.0
  O  O80  1  0.05489000  0.52933000  0.38488000  1.0
  O  O81  1  0.44713000  0.14247000  0.61570000  1.0
  O  O82  1  0.20862000  0.85923000  0.85800000  1.0
  O  O83  1  0.28617000  0.00050000  0.14149000  1.0
  O  O84  1  0.79137000  0.14075000  0.14200000  1.0
  O  O85  1  0.71383000  0.99950000  0.85851000  1.0
  O  O86  1  0.05025000  0.44304000  0.90888000  1.0
  O  O87  1  0.46256000  0.54979000  0.08927000  1.0
  O  O88  1  0.94978000  0.55697000  0.09113000  1.0
  O  O89  1  0.53743000  0.45016000  0.91079000  1.0
  O  O90  1  0.88096000  0.61960000  0.86725000  1.0
  O  O91  1  0.62269000  0.77594000  0.13876000  1.0
  O  O92  1  0.11901000  0.38037000  0.13273000  1.0
  O  O93  1  0.37726000  0.22403000  0.86122000  1.0
  O  O94  1  0.93190000  0.87825000  0.05138000  1.0
  O  O95  1  0.55481000  0.81727000  0.94230000  1.0
  O  O96  1  0.06809000  0.12176000  0.94862000  1.0
  O  O97  1  0.44518000  0.18267000  0.05768000  1.0
