# generated using pymatgen
data_Zn4H27C24N3O13
_symmetry_space_group_name_H-M   'P 1'
_cell_length_a   15.97630000
_cell_length_b   16.65170000
_cell_length_c   16.65838247
_cell_angle_alpha   63.46304624
_cell_angle_beta   62.74256951
_cell_angle_gamma   62.93300000
_symmetry_Int_Tables_number   1
_chemical_formula_structural   Zn4H27C24N3O13
_chemical_formula_sum   'Zn8 H54 C48 N6 O26'
_cell_volume   3345.25034385
_cell_formula_units_Z   2
loop_
 _symmetry_equiv_pos_site_id
 _symmetry_equiv_pos_as_xyz
  1  'x, y, z'
loop_
 _atom_site_type_symbol
 _atom_site_label
 _atom_site_symmetry_multiplicity
 _atom_site_fract_x
 _atom_site_fract_y
 _atom_site_fract_z
 _atom_site_occupancy
  Zn  Zn0  1  0.03927000  0.03911000  0.05686000  1.0
  Zn  Zn1  1  0.84773000  0.04305000  0.03638000  1.0
  Zn  Zn2  1  0.03285000  0.85273000  0.05163000  1.0
  Zn  Zn3  1  0.04801000  0.03190000  0.86426000  1.0
  Zn  Zn4  1  0.42526000  0.43932000  0.46619000  1.0
  Zn  Zn5  1  0.63656000  0.43945000  0.44471000  1.0
  Zn  Zn6  1  0.45584000  0.44640000  0.63786000  1.0
  Zn  Zn7  1  0.44536000  0.62682000  0.45645000  1.0
  H  H8  1  0.81719000  0.37652000  0.02398000  1.0
  H  H9  1  0.88959000  0.31179000  0.10153000  1.0
  H  H10  1  0.70160000  0.47249000  0.12887000  1.0
  H  H11  1  0.77801000  0.40620000  0.20307000  1.0
  H  H12  1  0.56846000  0.43066000  0.14828000  1.0
  H  H13  1  0.53893000  0.32842000  0.23555000  1.0
  H  H14  1  0.68379000  0.33724000  0.04081000  1.0
  H  H15  1  0.65039000  0.23712000  0.13028000  1.0
  H  H16  1  0.69789000  0.19837000  0.27980000  1.0
  H  H17  1  0.99120000  0.86520000  0.39606000  1.0
  H  H18  1  0.09258000  0.91011000  0.32146000  1.0
  H  H19  1  0.08679000  0.74984000  0.50090000  1.0
  H  H20  1  0.18440000  0.80049000  0.42541000  1.0
  H  H21  1  0.07661000  0.62025000  0.48438000  1.0
  H  H22  1  0.16112000  0.57137000  0.39049000  1.0
  H  H23  1  0.97548000  0.73561000  0.38442000  1.0
  H  H24  1  0.06041000  0.68167000  0.29375000  1.0
  H  H25  1  0.23762000  0.69568000  0.24397000  1.0
  H  H26  1  0.39626000  0.00653000  0.88400000  1.0
  H  H27  1  0.31598000  0.10261000  0.93132000  1.0
  H  H28  1  0.50305000  0.10188000  0.76607000  1.0
  H  H29  1  0.42366000  0.19245000  0.82116000  1.0
  H  H30  1  0.48499000  0.09521000  0.63449000  1.0
  H  H31  1  0.38216000  0.17400000  0.59340000  1.0
  H  H32  1  0.38680000  0.99226000  0.75185000  1.0
  H  H33  1  0.28894000  0.07000000  0.70327000  1.0
  H  H34  1  0.23153000  0.23928000  0.72271000  1.0
  H  H35  1  0.68554000  0.86318000  0.02504000  1.0
  H  H36  1  0.63341000  0.91216000  0.11931000  1.0
  H  H37  1  0.59926000  0.74667000  0.12607000  1.0
  H  H38  1  0.54602000  0.80175000  0.21609000  1.0
  H  H39  1  0.74921000  0.61762000  0.11263000  1.0
  H  H40  1  0.82162000  0.57392000  0.18687000  1.0
  H  H41  1  0.83440000  0.73371000  0.00658000  1.0
  H  H42  1  0.90840000  0.68471000  0.08084000  1.0
  H  H43  1  0.79250000  0.70420000  0.25143000  1.0
  H  H44  1  0.79448000  0.37776000  0.82858000  1.0
  H  H45  1  0.70326000  0.31864000  0.89145000  1.0
  H  H46  1  0.70422000  0.48497000  0.71714000  1.0
  H  H47  1  0.61337000  0.42559000  0.78561000  1.0
  H  H48  1  0.84239000  0.44257000  0.58667000  1.0
  H  H49  1  0.86722000  0.34395000  0.55433000  1.0
  H  H50  1  0.93460000  0.33949000  0.69696000  1.0
  H  H51  1  0.96066000  0.24385000  0.65956000  1.0
  H  H52  1  0.79249000  0.21807000  0.69867000  1.0
  H  H53  1  0.00768000  0.73483000  0.85316000  1.0
  H  H54  1  0.09496000  0.66889000  0.91591000  1.0
  H  H55  1  0.10577000  0.63617000  0.74902000  1.0
  H  H56  1  0.18956000  0.57218000  0.81535000  1.0
  H  H57  1  0.12231000  0.77145000  0.61570000  1.0
  H  H58  1  0.21991000  0.81810000  0.57418000  1.0
  H  H59  1  0.02333000  0.87036000  0.71911000  1.0
  H  H60  1  0.12274000  0.91539000  0.67503000  1.0
  H  H61  1  0.28028000  0.77874000  0.71302000  1.0
  C  C62  1  0.84271000  0.16600000  0.11647000  1.0
  C  C63  1  0.77114000  0.25770000  0.13951000  1.0
  C  C64  1  0.81430000  0.33907000  0.09819000  1.0
  C  C65  1  0.74084000  0.40081000  0.16521000  1.0
  C  C66  1  0.66761000  0.34375000  0.23574000  1.0
  C  C67  1  0.60072000  0.35603000  0.18441000  1.0
  C  C68  1  0.67374000  0.29614000  0.11576000  1.0
  C  C69  1  0.61357000  0.36658000  0.32932000  1.0
  C  C70  1  0.08675000  0.85170000  0.19535000  1.0
  C  C71  1  0.10177000  0.79164000  0.29119000  1.0
  C  C72  1  0.07152000  0.84547000  0.35981000  1.0
  C  C73  1  0.13297000  0.77278000  0.42722000  1.0
  C  C74  1  0.19160000  0.68941000  0.38458000  1.0
  C  C75  1  0.11953000  0.63780000  0.40870000  1.0
  C  C76  1  0.05439000  0.71056000  0.34451000  1.0
  C  C77  1  0.28804000  0.62752000  0.40772000  1.0
  C  C78  1  0.18601000  0.09181000  0.87443000  1.0
  C  C79  1  0.28508000  0.10956000  0.81412000  1.0
  C  C80  1  0.35686000  0.08274000  0.86586000  1.0
  C  C81  1  0.42549000  0.14382000  0.79248000  1.0
  C  C82  1  0.37883000  0.19985000  0.71216000  1.0
  C  C83  1  0.40510000  0.13300000  0.65695000  1.0
  C  C84  1  0.34195000  0.06661000  0.73017000  1.0
  C  C85  1  0.39669000  0.29501000  0.65210000  1.0
  C  C86  1  0.82881000  0.85676000  0.10273000  1.0
  C  C87  1  0.77007000  0.79519000  0.12375000  1.0
  C  C88  1  0.67241000  0.84613000  0.10063000  1.0
  C  C89  1  0.61563000  0.77297000  0.16534000  1.0
  C  C90  1  0.68872000  0.69258000  0.21807000  1.0
  C  C91  1  0.77548000  0.63855000  0.14862000  1.0
  C  C92  1  0.83191000  0.71169000  0.08021000  1.0
  C  C93  1  0.63846000  0.63217000  0.31390000  1.0
  C  C94  1  0.86172000  0.17137000  0.84277000  1.0
  C  C95  1  0.82127000  0.26642000  0.77553000  1.0
  C  C96  1  0.75201000  0.34635000  0.82122000  1.0
  C  C97  1  0.69293000  0.41546000  0.75104000  1.0
  C  C98  1  0.73530000  0.36296000  0.67742000  1.0
  C  C99  1  0.84068000  0.36960000  0.61472000  1.0
  C  C100  1  0.90108000  0.30316000  0.68440000  1.0
  C  C101  1  0.66425000  0.38938000  0.62558000  1.0
  C  C102  1  0.11677000  0.84012000  0.85752000  1.0
  C  C103  1  0.13397000  0.78645000  0.79461000  1.0
  C  C104  1  0.08702000  0.70656000  0.84531000  1.0
  C  C105  1  0.14964000  0.64315000  0.77914000  1.0
  C  C106  1  0.22338000  0.69615000  0.70108000  1.0
  C  C107  1  0.16698000  0.78668000  0.63806000  1.0
  C  C108  1  0.10350000  0.85029000  0.70417000  1.0
  C  C109  1  0.31950000  0.63505000  0.64730000  1.0
  N  N110  1  0.73729000  0.24549000  0.24286000  1.0
  N  N111  1  0.20918000  0.74222000  0.28166000  1.0
  N  N112  1  0.27149000  0.21282000  0.76779000  1.0
  N  N113  1  0.73297000  0.74856000  0.22755000  1.0
  N  N114  1  0.75289000  0.26264000  0.74000000  1.0
  N  N115  1  0.24073000  0.73218000  0.75807000  1.0
  O  O116  1  0.99292000  0.99033000  0.00169000  1.0
  O  O117  1  0.80456000  0.10532000  0.13232000  1.0
  O  O118  1  0.93516000  0.15601000  0.08285000  1.0
  O  O119  1  0.66614000  0.35519000  0.37480000  1.0
  O  O120  1  0.51902000  0.39865000  0.35309000  1.0
  O  O121  1  0.10231000  0.80637000  0.14217000  1.0
  O  O122  1  0.05993000  0.94101000  0.17552000  1.0
  O  O123  1  0.34209000  0.67020000  0.39862000  1.0
  O  O124  1  0.30619000  0.53804000  0.43522000  1.0
  O  O125  1  0.13105000  0.10789000  0.82877000  1.0
  O  O126  1  0.16489000  0.06270000  0.96409000  1.0
  O  O127  1  0.41787000  0.33221000  0.68949000  1.0
  O  O128  1  0.38805000  0.32989000  0.56965000  1.0
  O  O129  1  0.91060000  0.81406000  0.12061000  1.0
  O  O130  1  0.79180000  0.94595000  0.06891000  1.0
  O  O131  1  0.55393000  0.67557000  0.36190000  1.0
  O  O132  1  0.68423000  0.54379000  0.33806000  1.0
  O  O133  1  0.94295000  0.11442000  0.80566000  1.0
  O  O134  1  0.81242000  0.15569000  0.93054000  1.0
  O  O135  1  0.57237000  0.41240000  0.67203000  1.0
  O  O136  1  0.70257000  0.38624000  0.54031000  1.0
  O  O137  1  0.12660000  0.92246000  0.81591000  1.0
  O  O138  1  0.09276000  0.79946000  0.94641000  1.0
  O  O139  1  0.34331000  0.54624000  0.68795000  1.0
  O  O140  1  0.36826000  0.67743000  0.56549000  1.0
  O  O141  1  0.49214000  0.48849000  0.49948000  1.0
