# generated using pymatgen
data_ZnH5C10N3O4
_symmetry_space_group_name_H-M   'P 1'
_cell_length_a   12.00770000
_cell_length_b   14.85550000
_cell_length_c   20.50970000
_cell_angle_alpha   89.99950000
_cell_angle_beta   90.00060000
_cell_angle_gamma   89.99910000
_symmetry_Int_Tables_number   1
_chemical_formula_structural   ZnH5C10N3O4
_chemical_formula_sum   'Zn8 H40 C80 N24 O32'
_cell_volume   3658.52822964
_cell_formula_units_Z   8
loop_
 _symmetry_equiv_pos_site_id
 _symmetry_equiv_pos_as_xyz
  1  'x, y, z'
loop_
 _atom_site_type_symbol
 _atom_site_label
 _atom_site_symmetry_multiplicity
 _atom_site_fract_x
 _atom_site_fract_y
 _atom_site_fract_z
 _atom_site_occupancy
  Zn  Zn0  1  0.08372000  0.62469000  0.30192000  1.0
  Zn  Zn1  1  0.91626000  0.62469000  0.19806000  1.0
  Zn  Zn2  1  0.41627000  0.87531000  0.80194000  1.0
  Zn  Zn3  1  0.58372000  0.87531000  0.69807000  1.0
  Zn  Zn4  1  0.91628000  0.37531000  0.69808000  1.0
  Zn  Zn5  1  0.08374000  0.37531000  0.80194000  1.0
  Zn  Zn6  1  0.58373000  0.12469000  0.19806000  1.0
  Zn  Zn7  1  0.41627000  0.12469000  0.30193000  1.0
  H  H8  1  0.37503000  0.72925000  0.55582000  1.0
  H  H9  1  0.62497000  0.72925000  0.94418000  1.0
  H  H10  1  0.12496000  0.77075000  0.05582000  1.0
  H  H11  1  0.87504000  0.77076000  0.44417000  1.0
  H  H12  1  0.62496000  0.27076000  0.44418000  1.0
  H  H13  1  0.37504000  0.27074000  0.05582000  1.0
  H  H14  1  0.87504000  0.22924000  0.94418000  1.0
  H  H15  1  0.12497000  0.22925000  0.55582000  1.0
  H  H16  1  0.12760000  0.51745000  0.55763000  1.0
  H  H17  1  0.87241000  0.51745000  0.94238000  1.0
  H  H18  1  0.37240000  0.98255000  0.05762000  1.0
  H  H19  1  0.62759000  0.98254000  0.44238000  1.0
  H  H20  1  0.87241000  0.48255000  0.44237000  1.0
  H  H21  1  0.12761000  0.48255000  0.05761000  1.0
  H  H22  1  0.62759000  0.01745000  0.94238000  1.0
  H  H23  1  0.37241000  0.01746000  0.55762000  1.0
  H  H24  1  0.25106000  0.62601000  0.73798000  1.0
  H  H25  1  0.74896000  0.62601000  0.76203000  1.0
  H  H26  1  0.24895000  0.87399000  0.23797000  1.0
  H  H27  1  0.75104000  0.87400000  0.26202000  1.0
  H  H28  1  0.74894000  0.37399000  0.26202000  1.0
  H  H29  1  0.25103000  0.37398000  0.23797000  1.0
  H  H30  1  0.75105000  0.12600000  0.76203000  1.0
  H  H31  1  0.24895000  0.12601000  0.73797000  1.0
  H  H32  1  0.07363000  0.63243000  0.45685000  1.0
  H  H33  1  0.92638000  0.63242000  0.04315000  1.0
  H  H34  1  0.42638000  0.86758000  0.95685000  1.0
  H  H35  1  0.57362000  0.86757000  0.54316000  1.0
  H  H36  1  0.92638000  0.36758000  0.54315000  1.0
  H  H37  1  0.07363000  0.36757000  0.95685000  1.0
  H  H38  1  0.57362000  0.13242000  0.04315000  1.0
  H  H39  1  0.42638000  0.13243000  0.45685000  1.0
  H  H40  1  0.42485000  0.61232000  0.45425000  1.0
  H  H41  1  0.57516000  0.61233000  0.04574000  1.0
  H  H42  1  0.07516000  0.88767000  0.95425000  1.0
  H  H43  1  0.92485000  0.88767000  0.54575000  1.0
  H  H44  1  0.57516000  0.38767000  0.54575000  1.0
  H  H45  1  0.42485000  0.38767000  0.95426000  1.0
  H  H46  1  0.92484000  0.11233000  0.04575000  1.0
  H  H47  1  0.07516000  0.11233000  0.45425000  1.0
  C  C48  1  0.18255000  0.56497000  0.65138000  1.0
  C  C49  1  0.81747000  0.56498000  0.84864000  1.0
  C  C50  1  0.31746000  0.93501000  0.15137000  1.0
  C  C51  1  0.68254000  0.93504000  0.34863000  1.0
  C  C52  1  0.81745000  0.43503000  0.34862000  1.0
  C  C53  1  0.18253000  0.43502000  0.15136000  1.0
  C  C54  1  0.68253000  0.06498000  0.84864000  1.0
  C  C55  1  0.31746000  0.06497000  0.65137000  1.0
  C  C56  1  0.32078000  0.68315000  0.58225000  1.0
  C  C57  1  0.67923000  0.68316000  0.91775000  1.0
  C  C58  1  0.17923000  0.81685000  0.08224000  1.0
  C  C59  1  0.82077000  0.81685000  0.41775000  1.0
  C  C60  1  0.67922000  0.31685000  0.41775000  1.0
  C  C61  1  0.32077000  0.31684000  0.08225000  1.0
  C  C62  1  0.82078000  0.18315000  0.91776000  1.0
  C  C63  1  0.17924000  0.18316000  0.58225000  1.0
  C  C64  1  0.18108000  0.56498000  0.58320000  1.0
  C  C65  1  0.81893000  0.56498000  0.91681000  1.0
  C  C66  1  0.31892000  0.93502000  0.08319000  1.0
  C  C67  1  0.68108000  0.93503000  0.41681000  1.0
  C  C68  1  0.81892000  0.43502000  0.41680000  1.0
  C  C69  1  0.18108000  0.43502000  0.08319000  1.0
  C  C70  1  0.68107000  0.06498000  0.91681000  1.0
  C  C71  1  0.31893000  0.06498000  0.58320000  1.0
  C  C72  1  0.25061000  0.62377000  0.54936000  1.0
  C  C73  1  0.74939000  0.62377000  0.95064000  1.0
  C  C74  1  0.24939000  0.87622000  0.04935000  1.0
  C  C75  1  0.75061000  0.87623000  0.45064000  1.0
  C  C76  1  0.74939000  0.37623000  0.45064000  1.0
  C  C77  1  0.25061000  0.37622000  0.04936000  1.0
  C  C78  1  0.75061000  0.12377000  0.95064000  1.0
  C  C79  1  0.24940000  0.12378000  0.54936000  1.0
  C  C80  1  0.25090000  0.62552000  0.68489000  1.0
  C  C81  1  0.74912000  0.62553000  0.81511000  1.0
  C  C82  1  0.24911000  0.87447000  0.18489000  1.0
  C  C83  1  0.75088000  0.87449000  0.31511000  1.0
  C  C84  1  0.74910000  0.37448000  0.31511000  1.0
  C  C85  1  0.25087000  0.37447000  0.18489000  1.0
  C  C86  1  0.75089000  0.12552000  0.81512000  1.0
  C  C87  1  0.24912000  0.12553000  0.68489000  1.0
  C  C88  1  0.39099000  0.75239000  0.68557000  1.0
  C  C89  1  0.60899000  0.75238000  0.81444000  1.0
  C  C90  1  0.10897000  0.74762000  0.18555000  1.0
  C  C91  1  0.89098000  0.74762000  0.31443000  1.0
  C  C92  1  0.60900000  0.24762000  0.31443000  1.0
  C  C93  1  0.39100000  0.24760000  0.18555000  1.0
  C  C94  1  0.89102000  0.25238000  0.81445000  1.0
  C  C95  1  0.10902000  0.25239000  0.68557000  1.0
  C  C96  1  0.15890000  0.62646000  0.44013000  1.0
  C  C97  1  0.84110000  0.62646000  0.05986000  1.0
  C  C98  1  0.34111000  0.87354000  0.94014000  1.0
  C  C99  1  0.65890000  0.87353000  0.55987000  1.0
  C  C100  1  0.84111000  0.37354000  0.55986000  1.0
  C  C101  1  0.15890000  0.37353000  0.94014000  1.0
  C  C102  1  0.65889000  0.12646000  0.05986000  1.0
  C  C103  1  0.34111000  0.12646000  0.44014000  1.0
  C  C104  1  0.33925000  0.61731000  0.43774000  1.0
  C  C105  1  0.66075000  0.61732000  0.06226000  1.0
  C  C106  1  0.16076000  0.88268000  0.93774000  1.0
  C  C107  1  0.83925000  0.88268000  0.56226000  1.0
  C  C108  1  0.66076000  0.38268000  0.56226000  1.0
  C  C109  1  0.33925000  0.38268000  0.93774000  1.0
  C  C110  1  0.83924000  0.11732000  0.06226000  1.0
  C  C111  1  0.16076000  0.11732000  0.43774000  1.0
  C  C112  1  0.31945000  0.68492000  0.65041000  1.0
  C  C113  1  0.68055000  0.68492000  0.84959000  1.0
  C  C114  1  0.18054000  0.81508000  0.15041000  1.0
  C  C115  1  0.81944000  0.81509000  0.34959000  1.0
  C  C116  1  0.68054000  0.31509000  0.34958000  1.0
  C  C117  1  0.31944000  0.31507000  0.15041000  1.0
  C  C118  1  0.81946000  0.18491000  0.84959000  1.0
  C  C119  1  0.18056000  0.18493000  0.65041000  1.0
  C  C120  1  0.11206000  0.49751000  0.68737000  1.0
  C  C121  1  0.88798000  0.49751000  0.81267000  1.0
  C  C122  1  0.38797000  0.00248000  0.18734000  1.0
  C  C123  1  0.61205000  0.00250000  0.31264000  1.0
  C  C124  1  0.88794000  0.50249000  0.31263000  1.0
  C  C125  1  0.11201000  0.50249000  0.18733000  1.0
  C  C126  1  0.61202000  0.99752000  0.81266000  1.0
  C  C127  1  0.38795000  0.99751000  0.68736000  1.0
  N  N128  1  0.19170000  0.62324000  0.37870000  1.0
  N  N129  1  0.80829000  0.62323000  0.12129000  1.0
  N  N130  1  0.30830000  0.87677000  0.87871000  1.0
  N  N131  1  0.69170000  0.87676000  0.62130000  1.0
  N  N132  1  0.80830000  0.37677000  0.62130000  1.0
  N  N133  1  0.19171000  0.37676000  0.87871000  1.0
  N  N134  1  0.69170000  0.12323000  0.12129000  1.0
  N  N135  1  0.30830000  0.12324000  0.37870000  1.0
  N  N136  1  0.24983000  0.62292000  0.47964000  1.0
  N  N137  1  0.75017000  0.62293000  0.02036000  1.0
  N  N138  1  0.25018000  0.87707000  0.97964000  1.0
  N  N139  1  0.74983000  0.87706000  0.52036000  1.0
  N  N140  1  0.75017000  0.37707000  0.52036000  1.0
  N  N141  1  0.24983000  0.37706000  0.97964000  1.0
  N  N142  1  0.74983000  0.12293000  0.02036000  1.0
  N  N143  1  0.25018000  0.12293000  0.47964000  1.0
  N  N144  1  0.30588000  0.61722000  0.37663000  1.0
  N  N145  1  0.69412000  0.61722000  0.12337000  1.0
  N  N146  1  0.19413000  0.88279000  0.87663000  1.0
  N  N147  1  0.80588000  0.88279000  0.62338000  1.0
  N  N148  1  0.69412000  0.38278000  0.62337000  1.0
  N  N149  1  0.30588000  0.38278000  0.87663000  1.0
  N  N150  1  0.80588000  0.11721000  0.12337000  1.0
  N  N151  1  0.19412000  0.11722000  0.37663000  1.0
  O  O152  1  0.35439000  0.77964000  0.74025000  1.0
  O  O153  1  0.64558000  0.77965000  0.75976000  1.0
  O  O154  1  0.14556000  0.72034000  0.24023000  1.0
  O  O155  1  0.85437000  0.72037000  0.25974000  1.0
  O  O156  1  0.64561000  0.22037000  0.25975000  1.0
  O  O157  1  0.35440000  0.22034000  0.24024000  1.0
  O  O158  1  0.85443000  0.27964000  0.75976000  1.0
  O  O159  1  0.14562000  0.27964000  0.74026000  1.0
  O  O160  1  0.48002000  0.77661000  0.65708000  1.0
  O  O161  1  0.51997000  0.77660000  0.84294000  1.0
  O  O162  1  0.01994000  0.72342000  0.15705000  1.0
  O  O163  1  0.98001000  0.72339000  0.34292000  1.0
  O  O164  1  0.51998000  0.22340000  0.34292000  1.0
  O  O165  1  0.48003000  0.22339000  0.15706000  1.0
  O  O166  1  0.98004000  0.27660000  0.84294000  1.0
  O  O167  1  0.01999000  0.27661000  0.65708000  1.0
  O  O168  1  0.03101000  0.46364000  0.65588000  1.0
  O  O169  1  0.96902000  0.46365000  0.84416000  1.0
  O  O170  1  0.46901000  0.03635000  0.15585000  1.0
  O  O171  1  0.53099000  0.03636000  0.34412000  1.0
  O  O172  1  0.96899000  0.53636000  0.34411000  1.0
  O  O173  1  0.03098000  0.53636000  0.15583000  1.0
  O  O174  1  0.53098000  0.96365000  0.84416000  1.0
  O  O175  1  0.46900000  0.96364000  0.65588000  1.0
  O  O176  1  0.14088000  0.47956000  0.74551000  1.0
  O  O177  1  0.85917000  0.47954000  0.75452000  1.0
  O  O178  1  0.35916000  0.02045000  0.24549000  1.0
  O  O179  1  0.64087000  0.02045000  0.25450000  1.0
  O  O180  1  0.85911000  0.52043000  0.25448000  1.0
  O  O181  1  0.14082000  0.52046000  0.24548000  1.0
  O  O182  1  0.64084000  0.97955000  0.75452000  1.0
  O  O183  1  0.35912000  0.97956000  0.74550000  1.0
