# generated using pymatgen
data_CdH4C8(N3O)2
_symmetry_space_group_name_H-M   'P 1'
_cell_length_a   6.92387000
_cell_length_b   8.78990760
_cell_length_c   11.74530000
_cell_angle_alpha   88.98261706
_cell_angle_beta   72.88260000
_cell_angle_gamma   66.84947734
_symmetry_Int_Tables_number   1
_chemical_formula_structural   CdH4C8(N3O)2
_chemical_formula_sum   'Cd2 H8 C16 N12 O4'
_cell_volume   624.23078819
_cell_formula_units_Z   2
loop_
 _symmetry_equiv_pos_site_id
 _symmetry_equiv_pos_as_xyz
  1  'x, y, z'
loop_
 _atom_site_type_symbol
 _atom_site_label
 _atom_site_symmetry_multiplicity
 _atom_site_fract_x
 _atom_site_fract_y
 _atom_site_fract_z
 _atom_site_occupancy
  Cd  Cd0  1  0.16578000  0.24973000  0.24977000  1.0
  Cd  Cd1  1  0.83421000  0.75026000  0.75023000  1.0
  H  H2  1  0.65870000  0.50924000  0.92538000  1.0
  H  H3  1  0.40627000  0.00955000  0.42540000  1.0
  H  H4  1  0.34133000  0.49074000  0.07462000  1.0
  H  H5  1  0.59375000  0.99048000  0.57460000  1.0
  H  H6  1  0.75703000  0.29342000  0.91198000  1.0
  H  H7  1  0.53707000  0.79373000  0.41240000  1.0
  H  H8  1  0.24298000  0.70656000  0.08803000  1.0
  H  H9  1  0.46294000  0.20630000  0.58759000  1.0
  C  C10  1  0.77706000  0.40188000  0.75365000  1.0
  C  C11  1  0.56738000  0.90173000  0.25383000  1.0
  C  C12  1  0.22298000  0.59809000  0.24635000  1.0
  C  C13  1  0.43260000  0.09830000  0.74617000  1.0
  C  C14  1  0.89404000  0.24242000  0.67926000  1.0
  C  C15  1  0.68417000  0.74213000  0.17967000  1.0
  C  C16  1  0.10597000  0.75755000  0.32074000  1.0
  C  C17  1  0.31580000  0.25790000  0.82033000  1.0
  C  C18  1  0.99521000  0.23829000  0.55711000  1.0
  C  C19  1  0.70932000  0.73805000  0.05752000  1.0
  C  C20  1  0.00480000  0.76169000  0.44290000  1.0
  C  C21  1  0.29064000  0.26196000  0.94249000  1.0
  C  C22  1  0.92495000  0.09043000  0.72517000  1.0
  C  C23  1  0.75945000  0.59020000  0.22561000  1.0
  C  C24  1  0.07507000  0.90953000  0.27483000  1.0
  C  C25  1  0.24055000  0.40982000  0.77439000  1.0
  N  N26  1  0.70393000  0.40100000  0.87451000  1.0
  N  N27  1  0.52017000  0.90121000  0.37474000  1.0
  N  N28  1  0.29609000  0.59898000  0.12549000  1.0
  N  N29  1  0.47983000  0.09882000  0.62526000  1.0
  N  N30  1  0.08929000  0.22835000  0.45471000  1.0
  N  N31  1  0.72771000  0.72827000  0.95507000  1.0
  N  N32  1  0.91067000  0.77165000  0.54530000  1.0
  N  N33  1  0.27226000  0.27173000  0.04494000  1.0
  N  N34  1  0.95149000  0.96252000  0.76465000  1.0
  N  N35  1  0.82171000  0.46218000  0.26486000  1.0
  N  N36  1  0.04853000  0.03745000  0.23535000  1.0
  N  N37  1  0.17829000  0.53785000  0.73514000  1.0
  O  O38  1  0.74463000  0.53551000  0.70603000  1.0
  O  O39  1  0.51415000  0.03517000  0.20594000  1.0
  O  O40  1  0.25539000  0.46446000  0.29397000  1.0
  O  O41  1  0.48585000  0.96485000  0.79404000  1.0
