# generated using pymatgen
data_ZnH8C13N5
_symmetry_space_group_name_H-M   'P 1'
_cell_length_a   20.30325446
_cell_length_b   20.30240000
_cell_length_c   20.30310000
_cell_angle_alpha   109.47000000
_cell_angle_beta   109.46970727
_cell_angle_gamma   109.47191375
_symmetry_Int_Tables_number   1
_chemical_formula_structural   ZnH8C13N5
_chemical_formula_sum   'Zn12 H96 C156 N60'
_cell_volume   6442.64851607
_cell_formula_units_Z   12
loop_
 _symmetry_equiv_pos_site_id
 _symmetry_equiv_pos_as_xyz
  1  'x, y, z'
loop_
 _atom_site_type_symbol
 _atom_site_label
 _atom_site_symmetry_multiplicity
 _atom_site_fract_x
 _atom_site_fract_y
 _atom_site_fract_z
 _atom_site_occupancy
  Zn  Zn0  1  0.21573000  0.60660000  0.60917000  1.0
  Zn  Zn1  1  0.99734000  0.39061000  0.60650000  1.0
  Zn  Zn2  1  0.60925000  0.21594000  0.60669000  1.0
  Zn  Zn3  1  0.60640000  0.99740000  0.39067000  1.0
  Zn  Zn4  1  0.60657000  0.60922000  0.21583000  1.0
  Zn  Zn5  1  0.39062000  0.60650000  0.99734000  1.0
  Zn  Zn6  1  0.78416000  0.39339000  0.39077000  1.0
  Zn  Zn7  1  0.00256000  0.60937000  0.39343000  1.0
  Zn  Zn8  1  0.39072000  0.78406000  0.39337000  1.0
  Zn  Zn9  1  0.39358000  0.00261000  0.60937000  1.0
  Zn  Zn10  1  0.39335000  0.39077000  0.78409000  1.0
  Zn  Zn11  1  0.60928000  0.39351000  0.00254000  1.0
  H  H12  1  0.26053000  0.60802000  0.48265000  1.0
  H  H13  1  0.32065000  0.54276000  0.41276000  1.0
  H  H14  1  0.87445000  0.39294000  0.65268000  1.0
  H  H15  1  0.87038000  0.45840000  0.77819000  1.0
  H  H16  1  0.12544000  0.77851000  0.51857000  1.0
  H  H17  1  0.12952000  0.90807000  0.58820000  1.0
  H  H18  1  0.73957000  0.22222000  0.34740000  1.0
  H  H19  1  0.67969000  0.09224000  0.22212000  1.0
  H  H20  1  0.34721000  0.60783000  0.12520000  1.0
  H  H21  1  0.22190000  0.54251000  0.12990000  1.0
  H  H22  1  0.51851000  0.39309000  0.74020000  1.0
  H  H23  1  0.58821000  0.45871000  0.68035000  1.0
  H  H24  1  0.65284000  0.77840000  0.25985000  1.0
  H  H25  1  0.77836000  0.90800000  0.31991000  1.0
  H  H26  1  0.48275000  0.22234000  0.87467000  1.0
  H  H27  1  0.41282000  0.09235000  0.87002000  1.0
  H  H28  1  0.48274000  0.26067000  0.60813000  1.0
  H  H29  1  0.41276000  0.32069000  0.54281000  1.0
  H  H30  1  0.65263000  0.87453000  0.39301000  1.0
  H  H31  1  0.77812000  0.87042000  0.45845000  1.0
  H  H32  1  0.51869000  0.12551000  0.77849000  1.0
  H  H33  1  0.58833000  0.12958000  0.90806000  1.0
  H  H34  1  0.34735000  0.73940000  0.22223000  1.0
  H  H35  1  0.22206000  0.67942000  0.09221000  1.0
  H  H36  1  0.12523000  0.34725000  0.60793000  1.0
  H  H37  1  0.12993000  0.22195000  0.54256000  1.0
  H  H38  1  0.74032000  0.51860000  0.39318000  1.0
  H  H39  1  0.68036000  0.58822000  0.45871000  1.0
  H  H40  1  0.25974000  0.65279000  0.77833000  1.0
  H  H41  1  0.31990000  0.77832000  0.90795000  1.0
  H  H42  1  0.87472000  0.48283000  0.22226000  1.0
  H  H43  1  0.87005000  0.41278000  0.09228000  1.0
  H  H44  1  0.60809000  0.48280000  0.26070000  1.0
  H  H45  1  0.54277000  0.41283000  0.32074000  1.0
  H  H46  1  0.39302000  0.65265000  0.87446000  1.0
  H  H47  1  0.45855000  0.77813000  0.87039000  1.0
  H  H48  1  0.77844000  0.51863000  0.12543000  1.0
  H  H49  1  0.90806000  0.58813000  0.12952000  1.0
  H  H50  1  0.22217000  0.34738000  0.73942000  1.0
  H  H51  1  0.09220000  0.22211000  0.67956000  1.0
  H  H52  1  0.60786000  0.12527000  0.34726000  1.0
  H  H53  1  0.54257000  0.12994000  0.22193000  1.0
  H  H54  1  0.39309000  0.74023000  0.51855000  1.0
  H  H55  1  0.45869000  0.68034000  0.58821000  1.0
  H  H56  1  0.77840000  0.25988000  0.65286000  1.0
  H  H57  1  0.90800000  0.31991000  0.77838000  1.0
  H  H58  1  0.22234000  0.87475000  0.48283000  1.0
  H  H59  1  0.09234000  0.87007000  0.41284000  1.0
  H  H60  1  0.73943000  0.39199000  0.51736000  1.0
  H  H61  1  0.67943000  0.45734000  0.58736000  1.0
  H  H62  1  0.12547000  0.60701000  0.34727000  1.0
  H  H63  1  0.12955000  0.54149000  0.22178000  1.0
  H  H64  1  0.87450000  0.22147000  0.48139000  1.0
  H  H65  1  0.87045000  0.09191000  0.41181000  1.0
  H  H66  1  0.26043000  0.77776000  0.65254000  1.0
  H  H67  1  0.32046000  0.90776000  0.77785000  1.0
  H  H68  1  0.65271000  0.39214000  0.87470000  1.0
  H  H69  1  0.77805000  0.45739000  0.87002000  1.0
  H  H70  1  0.48144000  0.60691000  0.25978000  1.0
  H  H71  1  0.41186000  0.54138000  0.31977000  1.0
  H  H72  1  0.34711000  0.22161000  0.74007000  1.0
  H  H73  1  0.22163000  0.09203000  0.68010000  1.0
  H  H74  1  0.51723000  0.77763000  0.12521000  1.0
  H  H75  1  0.58729000  0.90761000  0.12991000  1.0
  H  H76  1  0.51726000  0.73938000  0.39195000  1.0
  H  H77  1  0.58732000  0.67944000  0.45734000  1.0
  H  H78  1  0.34736000  0.12550000  0.60704000  1.0
  H  H79  1  0.22187000  0.12961000  0.54159000  1.0
  H  H80  1  0.48135000  0.87452000  0.22151000  1.0
  H  H81  1  0.41184000  0.87044000  0.09191000  1.0
  H  H82  1  0.65260000  0.26054000  0.77780000  1.0
  H  H83  1  0.77789000  0.32045000  0.90780000  1.0
  H  H84  1  0.87472000  0.65276000  0.39207000  1.0
  H  H85  1  0.87003000  0.77805000  0.45746000  1.0
  H  H86  1  0.25967000  0.48146000  0.60686000  1.0
  H  H87  1  0.31973000  0.41191000  0.54141000  1.0
  H  H88  1  0.74022000  0.34718000  0.22159000  1.0
  H  H89  1  0.68022000  0.22167000  0.09200000  1.0
  H  H90  1  0.12518000  0.51709000  0.77763000  1.0
  H  H91  1  0.12989000  0.58711000  0.90766000  1.0
  H  H92  1  0.39189000  0.51723000  0.73930000  1.0
  H  H93  1  0.45732000  0.58731000  0.67939000  1.0
  H  H94  1  0.60699000  0.34737000  0.12543000  1.0
  H  H95  1  0.54158000  0.22187000  0.12953000  1.0
  H  H96  1  0.22142000  0.48130000  0.87446000  1.0
  H  H97  1  0.09184000  0.41175000  0.87040000  1.0
  H  H98  1  0.77778000  0.65261000  0.26055000  1.0
  H  H99  1  0.90777000  0.77790000  0.32047000  1.0
  H  H100  1  0.39216000  0.87476000  0.65274000  1.0
  H  H101  1  0.45757000  0.87008000  0.77804000  1.0
  H  H102  1  0.60693000  0.25983000  0.48157000  1.0
  H  H103  1  0.54141000  0.31980000  0.41197000  1.0
  H  H104  1  0.22153000  0.74010000  0.34714000  1.0
  H  H105  1  0.09192000  0.68000000  0.22160000  1.0
  H  H106  1  0.77765000  0.12529000  0.51726000  1.0
  H  H107  1  0.90764000  0.12995000  0.58724000  1.0
  C  C108  1  0.27602000  0.56535000  0.49522000  1.0
  C  C109  1  0.30848000  0.52871000  0.45613000  1.0
  C  C110  1  0.92990000  0.43519000  0.71077000  1.0
  C  C111  1  0.92768000  0.47191000  0.77995000  1.0
  C  C112  1  0.06999000  0.78113000  0.50548000  1.0
  C  C113  1  0.07221000  0.85254000  0.54447000  1.0
  C  C114  1  0.72409000  0.21928000  0.28924000  1.0
  C  C115  1  0.69174000  0.14774000  0.22017000  1.0
  C  C116  1  0.28907000  0.56513000  0.07000000  1.0
  C  C117  1  0.21996000  0.52843000  0.07246000  1.0
  C  C118  1  0.50538000  0.43542000  0.72445000  1.0
  C  C119  1  0.54441000  0.47222000  0.69209000  1.0
  C  C120  1  0.71093000  0.78104000  0.27563000  1.0
  C  C121  1  0.78012000  0.85245000  0.30809000  1.0
  C  C122  1  0.49534000  0.21940000  0.92988000  1.0
  C  C123  1  0.45624000  0.14785000  0.92743000  1.0
  C  C124  1  0.33082000  0.47592000  0.47568000  1.0
  C  C125  1  0.37760000  0.44658000  0.44644000  1.0
  C  C126  1  0.00015000  0.52407000  0.85497000  1.0
  C  C127  1  0.00016000  0.55335000  0.93101000  1.0
  C  C128  1  0.99976000  0.85510000  0.52428000  1.0
  C  C129  1  0.99978000  0.93123000  0.55362000  1.0
  C  C130  1  0.66932000  0.14487000  0.14501000  1.0
  C  C131  1  0.62258000  0.06876000  0.06897000  1.0
  C  C132  1  0.89918000  0.37625000  0.52265000  1.0
  C  C133  1  0.47727000  0.37650000  0.85357000  1.0
  C  C134  1  0.49529000  0.27616000  0.56547000  1.0
  C  C135  1  0.45616000  0.30857000  0.52879000  1.0
  C  C136  1  0.71074000  0.92997000  0.43528000  1.0
  C  C137  1  0.77991000  0.92773000  0.47199000  1.0
  C  C138  1  0.50560000  0.07004000  0.78111000  1.0
  C  C139  1  0.54461000  0.07226000  0.85252000  1.0
  C  C140  1  0.28918000  0.72389000  0.21925000  1.0
  C  C141  1  0.22010000  0.69148000  0.14770000  1.0
  C  C142  1  0.07003000  0.28911000  0.56521000  1.0
  C  C143  1  0.07250000  0.22001000  0.52851000  1.0
  C  C144  1  0.72452000  0.50544000  0.43549000  1.0
  C  C145  1  0.69211000  0.54444000  0.47224000  1.0
  C  C146  1  0.27555000  0.71089000  0.78098000  1.0
  C  C147  1  0.30807000  0.78010000  0.85240000  1.0
  C  C148  1  0.92993000  0.49539000  0.21932000  1.0
  C  C149  1  0.92747000  0.45623000  0.14779000  1.0
  C  C150  1  0.47569000  0.33090000  0.47600000  1.0
  C  C151  1  0.44642000  0.37766000  0.44663000  1.0
  C  C152  1  0.85496000  0.00019000  0.52420000  1.0
  C  C153  1  0.93099000  0.00020000  0.55352000  1.0
  C  C154  1  0.52444000  0.99982000  0.85509000  1.0
  C  C155  1  0.55377000  0.99981000  0.93121000  1.0
  C  C156  1  0.14496000  0.66905000  0.14484000  1.0
  C  C157  1  0.06893000  0.62226000  0.06873000  1.0
  C  C158  1  0.52255000  0.89921000  0.37632000  1.0
  C  C159  1  0.85365000  0.47733000  0.37648000  1.0
  C  C160  1  0.56539000  0.49533000  0.27614000  1.0
  C  C161  1  0.52872000  0.45620000  0.30857000  1.0
  C  C162  1  0.43529000  0.71072000  0.92991000  1.0
  C  C163  1  0.47206000  0.77991000  0.92769000  1.0
  C  C164  1  0.78108000  0.50551000  0.06998000  1.0
  C  C165  1  0.85251000  0.54443000  0.07221000  1.0
  C  C166  1  0.21923000  0.28923000  0.72396000  1.0
  C  C167  1  0.14769000  0.22016000  0.69160000  1.0
  C  C168  1  0.56516000  0.07004000  0.28911000  1.0
  C  C169  1  0.52849000  0.07249000  0.22000000  1.0
  C  C170  1  0.43541000  0.72446000  0.50540000  1.0
  C  C171  1  0.47220000  0.69209000  0.54442000  1.0
  C  C172  1  0.78105000  0.27566000  0.71096000  1.0
  C  C173  1  0.85245000  0.30810000  0.78014000  1.0
  C  C174  1  0.21939000  0.92997000  0.49540000  1.0
  C  C175  1  0.14785000  0.92751000  0.45628000  1.0
  C  C176  1  0.47591000  0.47571000  0.33087000  1.0
  C  C177  1  0.44657000  0.44644000  0.37763000  1.0
  C  C178  1  0.52429000  0.85495000  0.00016000  1.0
  C  C179  1  0.55364000  0.93100000  0.00017000  1.0
  C  C180  1  0.85507000  0.52421000  0.99976000  1.0
  C  C181  1  0.93118000  0.55346000  0.99978000  1.0
  C  C182  1  0.14484000  0.14502000  0.66919000  1.0
  C  C183  1  0.06874000  0.06899000  0.62246000  1.0
  C  C184  1  0.37619000  0.52259000  0.89912000  1.0
  C  C185  1  0.37643000  0.85357000  0.47727000  1.0
  C  C186  1  0.72397000  0.43469000  0.50482000  1.0
  C  C187  1  0.69158000  0.47139000  0.54397000  1.0
  C  C188  1  0.07003000  0.56476000  0.28918000  1.0
  C  C189  1  0.07226000  0.52800000  0.22002000  1.0
  C  C190  1  0.92996000  0.21886000  0.49450000  1.0
  C  C191  1  0.92775000  0.14745000  0.45553000  1.0
  C  C192  1  0.27594000  0.78071000  0.71071000  1.0
  C  C193  1  0.30839000  0.85227000  0.77980000  1.0
  C  C194  1  0.71085000  0.43482000  0.92991000  1.0
  C  C195  1  0.77997000  0.47147000  0.92745000  1.0
  C  C196  1  0.49462000  0.56462000  0.27557000  1.0
  C  C197  1  0.45565000  0.52788000  0.30801000  1.0
  C  C198  1  0.28902000  0.21897000  0.72433000  1.0
  C  C199  1  0.21985000  0.14756000  0.69190000  1.0
  C  C200  1  0.50468000  0.78058000  0.07002000  1.0
  C  C201  1  0.54385000  0.85212000  0.07248000  1.0
  C  C202  1  0.66926000  0.52420000  0.52444000  1.0
  C  C203  1  0.62250000  0.55355000  0.55371000  1.0
  C  C204  1  0.99979000  0.47580000  0.14498000  1.0
  C  C205  1  0.99979000  0.44649000  0.06896000  1.0
  C  C206  1  0.00020000  0.14489000  0.47573000  1.0
  C  C207  1  0.00020000  0.06879000  0.44643000  1.0
  C  C208  1  0.33083000  0.85513000  0.85495000  1.0
  C  C209  1  0.37761000  0.93123000  0.93099000  1.0
  C  C210  1  0.10073000  0.62372000  0.47727000  1.0
  C  C211  1  0.52267000  0.62348000  0.14633000  1.0
  C  C212  1  0.50473000  0.72391000  0.43464000  1.0
  C  C213  1  0.54391000  0.69156000  0.47135000  1.0
  C  C214  1  0.28924000  0.07005000  0.56477000  1.0
  C  C215  1  0.22008000  0.07230000  0.52806000  1.0
  C  C216  1  0.49447000  0.92998000  0.21888000  1.0
  C  C217  1  0.45555000  0.92776000  0.14747000  1.0
  C  C218  1  0.71077000  0.27604000  0.78077000  1.0
  C  C219  1  0.77984000  0.30841000  0.85230000  1.0
  C  C220  1  0.92992000  0.71090000  0.43478000  1.0
  C  C221  1  0.92746000  0.77999000  0.47151000  1.0
  C  C222  1  0.27547000  0.49461000  0.56456000  1.0
  C  C223  1  0.30795000  0.45567000  0.52786000  1.0
  C  C224  1  0.72446000  0.28908000  0.21896000  1.0
  C  C225  1  0.69204000  0.21990000  0.14756000  1.0
  C  C226  1  0.06999000  0.50453000  0.78061000  1.0
  C  C227  1  0.07247000  0.54367000  0.85216000  1.0
  C  C228  1  0.52441000  0.66925000  0.52417000  1.0
  C  C229  1  0.55370000  0.62250000  0.55354000  1.0
  C  C230  1  0.14502000  0.99983000  0.47585000  1.0
  C  C231  1  0.06899000  0.99982000  0.44653000  1.0
  C  C232  1  0.47573000  0.00021000  0.14488000  1.0
  C  C233  1  0.44645000  0.00020000  0.06877000  1.0
  C  C234  1  0.85497000  0.33082000  0.85514000  1.0
  C  C235  1  0.93100000  0.37757000  0.93123000  1.0
  C  C236  1  0.47742000  0.10083000  0.62374000  1.0
  C  C237  1  0.14625000  0.52265000  0.62347000  1.0
  C  C238  1  0.43461000  0.50472000  0.72388000  1.0
  C  C239  1  0.47134000  0.54391000  0.69153000  1.0
  C  C240  1  0.56473000  0.28927000  0.06998000  1.0
  C  C241  1  0.52804000  0.22009000  0.07222000  1.0
  C  C242  1  0.21881000  0.49442000  0.92992000  1.0
  C  C243  1  0.14740000  0.45547000  0.92771000  1.0
  C  C244  1  0.78072000  0.71076000  0.27601000  1.0
  C  C245  1  0.85228000  0.77985000  0.30842000  1.0
  C  C246  1  0.43490000  0.92997000  0.71088000  1.0
  C  C247  1  0.47163000  0.92752000  0.77998000  1.0
  C  C248  1  0.56463000  0.27562000  0.49472000  1.0
  C  C249  1  0.52788000  0.30804000  0.45574000  1.0
  C  C250  1  0.21888000  0.72428000  0.28904000  1.0
  C  C251  1  0.14748000  0.69180000  0.21985000  1.0
  C  C252  1  0.78059000  0.07005000  0.50467000  1.0
  C  C253  1  0.85213000  0.07251000  0.54379000  1.0
  C  C254  1  0.52418000  0.52442000  0.66926000  1.0
  C  C255  1  0.55355000  0.55372000  0.62253000  1.0
  C  C256  1  0.47584000  0.14504000  0.99975000  1.0
  C  C257  1  0.44655000  0.06900000  0.99978000  1.0
  C  C258  1  0.14486000  0.47568000  0.00017000  1.0
  C  C259  1  0.06875000  0.44638000  0.00016000  1.0
  C  C260  1  0.85513000  0.85499000  0.33083000  1.0
  C  C261  1  0.93124000  0.93102000  0.37759000  1.0
  C  C262  1  0.62368000  0.47741000  0.10075000  1.0
  C  C263  1  0.62351000  0.14643000  0.52276000  1.0
  N  N264  1  0.26223000  0.55213000  0.55215000  1.0
  N  N265  1  0.99982000  0.44758000  0.70993000  1.0
  N  N266  1  0.00007000  0.71038000  0.44797000  1.0
  N  N267  1  0.73775000  0.28994000  0.28973000  1.0
  N  N268  1  0.15399000  0.62731000  0.52683000  1.0
  N  N269  1  0.47297000  0.62705000  0.10036000  1.0
  N  N270  1  0.39900000  0.39919000  0.47163000  1.0
  N  N271  1  0.07264000  0.60073000  0.99993000  1.0
  N  N272  1  0.92732000  0.92762000  0.52847000  1.0
  N  N273  1  0.60122000  0.07237000  0.00004000  1.0
  N  N274  1  0.55224000  0.26241000  0.55226000  1.0
  N  N275  1  0.70989000  0.99989000  0.44770000  1.0
  N  N276  1  0.44812000  0.00014000  0.71038000  1.0
  N  N277  1  0.28966000  0.73758000  0.28990000  1.0
  N  N278  1  0.52697000  0.15422000  0.62747000  1.0
  N  N279  1  0.10039000  0.47298000  0.62717000  1.0
  N  N280  1  0.47158000  0.39904000  0.39919000  1.0
  N  N281  1  0.99991000  0.07266000  0.60091000  1.0
  N  N282  1  0.52862000  0.92736000  0.92761000  1.0
  N  N283  1  0.00000000  0.60089000  0.07234000  1.0
  N  N284  1  0.55215000  0.55225000  0.26237000  1.0
  N  N285  1  0.44769000  0.70990000  0.99984000  1.0
  N  N286  1  0.71032000  0.44804000  0.00005000  1.0
  N  N287  1  0.28988000  0.28973000  0.73762000  1.0
  N  N288  1  0.62735000  0.52694000  0.15411000  1.0
  N  N289  1  0.62707000  0.10046000  0.47307000  1.0
  N  N290  1  0.39914000  0.47158000  0.39901000  1.0
  N  N291  1  0.60104000  0.99993000  0.07264000  1.0
  N  N292  1  0.92759000  0.52831000  0.92734000  1.0
  N  N293  1  0.07232000  0.00005000  0.60107000  1.0
  N  N294  1  0.73773000  0.44790000  0.44788000  1.0
  N  N295  1  0.00010000  0.55238000  0.29000000  1.0
  N  N296  1  0.99987000  0.28961000  0.55201000  1.0
  N  N297  1  0.26222000  0.71004000  0.71020000  1.0
  N  N298  1  0.84590000  0.37264000  0.47310000  1.0
  N  N299  1  0.52696000  0.37291000  0.89950000  1.0
  N  N300  1  0.60110000  0.60095000  0.52852000  1.0
  N  N301  1  0.92731000  0.39911000  0.00005000  1.0
  N  N302  1  0.07265000  0.07238000  0.47157000  1.0
  N  N303  1  0.39900000  0.92764000  0.99994000  1.0
  N  N304  1  0.44778000  0.73765000  0.44785000  1.0
  N  N305  1  0.29009000  0.00013000  0.55236000  1.0
  N  N306  1  0.55192000  0.99988000  0.28963000  1.0
  N  N307  1  0.71028000  0.26238000  0.71011000  1.0
  N  N308  1  0.47300000  0.84583000  0.37261000  1.0
  N  N309  1  0.89951000  0.52700000  0.37278000  1.0
  N  N310  1  0.52854000  0.60112000  0.60097000  1.0
  N  N311  1  0.00006000  0.92734000  0.39913000  1.0
  N  N312  1  0.47158000  0.07264000  0.07233000  1.0
  N  N313  1  0.99992000  0.39893000  0.92762000  1.0
  N  N314  1  0.44783000  0.44779000  0.73762000  1.0
  N  N315  1  0.55230000  0.29011000  0.00005000  1.0
  N  N316  1  0.28957000  0.55191000  0.99984000  1.0
  N  N317  1  0.71007000  0.71027000  0.26233000  1.0
  N  N318  1  0.37256000  0.47305000  0.84579000  1.0
  N  N319  1  0.37287000  0.89955000  0.52695000  1.0
  N  N320  1  0.60098000  0.52857000  0.60115000  1.0
  N  N321  1  0.39917000  0.00006000  0.92732000  1.0
  N  N322  1  0.07235000  0.47152000  0.07261000  1.0
  N  N323  1  0.92765000  0.99995000  0.39896000  1.0
