# generated using pymatgen
data_CdH7C8(NO3)2
_symmetry_space_group_name_H-M   'P 1'
_cell_length_a   6.88823000
_cell_length_b   9.74316000
_cell_length_c   15.14550000
_cell_angle_alpha   90.00000000
_cell_angle_beta   90.00000000
_cell_angle_gamma   106.25300000
_symmetry_Int_Tables_number   1
_chemical_formula_structural   CdH7C8(NO3)2
_chemical_formula_sum   'Cd4 H28 C32 N8 O24'
_cell_volume   975.83917121
_cell_formula_units_Z   4
loop_
 _symmetry_equiv_pos_site_id
 _symmetry_equiv_pos_as_xyz
  1  'x, y, z'
loop_
 _atom_site_type_symbol
 _atom_site_label
 _atom_site_symmetry_multiplicity
 _atom_site_fract_x
 _atom_site_fract_y
 _atom_site_fract_z
 _atom_site_occupancy
  Cd  Cd0  1  0.64170000  0.09405000  0.25000000  1.0
  Cd  Cd1  1  0.35830000  0.90595000  0.75000000  1.0
  Cd  Cd2  1  0.50000000  0.50000000  0.50000000  1.0
  Cd  Cd3  1  0.50000000  0.50000000  0.00000000  1.0
  H  H4  1  0.15624000  0.92259000  0.51127000  1.0
  H  H5  1  0.84376000  0.07741000  0.01127000  1.0
  H  H6  1  0.84377000  0.07741000  0.48873000  1.0
  H  H7  1  0.15624000  0.92259000  0.98873000  1.0
  H  H8  1  0.07679000  0.11459000  0.30094000  1.0
  H  H9  1  0.92321000  0.88541000  0.80094000  1.0
  H  H10  1  0.92321000  0.88541000  0.69906000  1.0
  H  H11  1  0.07679000  0.11459000  0.19906000  1.0
  H  H12  1  0.74576000  0.38021000  0.30409000  1.0
  H  H13  1  0.25424000  0.61979000  0.80409000  1.0
  H  H14  1  0.25424000  0.61979000  0.69591000  1.0
  H  H15  1  0.74576000  0.38021000  0.19591000  1.0
  H  H16  1  0.88729000  0.67828000  0.58595000  1.0
  H  H17  1  0.11271000  0.32172000  0.08595000  1.0
  H  H18  1  0.11271000  0.32172000  0.41405000  1.0
  H  H19  1  0.88729000  0.67828000  0.91405000  1.0
  H  H20  1  0.69599000  0.71593000  0.62055000  1.0
  H  H21  1  0.30401000  0.28407000  0.12055000  1.0
  H  H22  1  0.30401000  0.28407000  0.37945000  1.0
  H  H23  1  0.69599000  0.71593000  0.87945000  1.0
  H  H24  1  0.90267000  0.69026000  0.41318000  1.0
  H  H25  1  0.09733000  0.30974000  0.91319000  1.0
  H  H26  1  0.09733000  0.30974000  0.58681000  1.0
  H  H27  1  0.90267000  0.69026000  0.08681000  1.0
  H  H28  1  0.15208000  0.59594000  0.33192000  1.0
  H  H29  1  0.84791000  0.40405000  0.83192000  1.0
  H  H30  1  0.84792000  0.40405000  0.66807000  1.0
  H  H31  1  0.15208000  0.59594000  0.16807000  1.0
  C  C32  1  0.31616000  0.01800000  0.41045000  1.0
  C  C33  1  0.68383000  0.98199000  0.91045000  1.0
  C  C34  1  0.68383000  0.98199000  0.58955000  1.0
  C  C35  1  0.31616000  0.01800000  0.08955000  1.0
  C  C36  1  0.41336000  0.90288000  0.40744000  1.0
  C  C37  1  0.58664000  0.09712000  0.90744000  1.0
  C  C38  1  0.58664000  0.09712000  0.59256000  1.0
  C  C39  1  0.41336000  0.90288000  0.09256000  1.0
  C  C40  1  0.38816000  0.77732000  0.45705000  1.0
  C  C41  1  0.61184000  0.22268000  0.95704000  1.0
  C  C42  1  0.61184000  0.22268000  0.54296000  1.0
  C  C43  1  0.38816000  0.77732000  0.04295000  1.0
  C  C44  1  0.25775000  0.72183000  0.53373000  1.0
  C  C45  1  0.74225000  0.27817000  0.03373000  1.0
  C  C46  1  0.74225000  0.27817000  0.46627000  1.0
  C  C47  1  0.25775000  0.72183000  0.96627000  1.0
  C  C48  1  0.61022000  0.78409000  0.35285000  1.0
  C  C49  1  0.38978000  0.21591000  0.85285000  1.0
  C  C50  1  0.38978000  0.21591000  0.64715000  1.0
  C  C51  1  0.61022000  0.78409000  0.14715000  1.0
  C  C52  1  0.75902000  0.74161000  0.29703000  1.0
  C  C53  1  0.24098000  0.25839000  0.79703000  1.0
  C  C54  1  0.24098000  0.25839000  0.70297000  1.0
  C  C55  1  0.75902000  0.74161000  0.20297000  1.0
  C  C56  1  0.90382000  0.69035000  0.34129000  1.0
  C  C57  1  0.09618000  0.30965000  0.84129000  1.0
  C  C58  1  0.09618000  0.30965000  0.65871000  1.0
  C  C59  1  0.90382000  0.69035000  0.15871000  1.0
  C  C60  1  0.04500000  0.63887000  0.29601000  1.0
  C  C61  1  0.95499000  0.36113000  0.79601000  1.0
  C  C62  1  0.95499000  0.36113000  0.70399000  1.0
  C  C63  1  0.04500000  0.63887000  0.20399000  1.0
  N  N64  1  0.55472000  0.90574000  0.34407000  1.0
  N  N65  1  0.44528000  0.09426000  0.84407000  1.0
  N  N66  1  0.44528000  0.09426000  0.65593000  1.0
  N  N67  1  0.55472000  0.90574000  0.15593000  1.0
  N  N68  1  0.51361000  0.70466000  0.42224000  1.0
  N  N69  1  0.48639000  0.29534000  0.92224000  1.0
  N  N70  1  0.48639000  0.29534000  0.57776000  1.0
  N  N71  1  0.51361000  0.70466000  0.07776000  1.0
  O  O72  1  0.18076000  0.01562000  0.47104000  1.0
  O  O73  1  0.81924000  0.98438000  0.97104000  1.0
  O  O74  1  0.81924000  0.98438000  0.52896000  1.0
  O  O75  1  0.18076000  0.01562000  0.02896000  1.0
  O  O76  1  0.35969000  0.11753000  0.35419000  1.0
  O  O77  1  0.64031000  0.88247000  0.85419000  1.0
  O  O78  1  0.64031000  0.88247000  0.64581000  1.0
  O  O79  1  0.35969000  0.11753000  0.14581000  1.0
  O  O80  1  0.26781000  0.60690000  0.57066000  1.0
  O  O81  1  0.73220000  0.39310000  0.07066000  1.0
  O  O82  1  0.73220000  0.39310000  0.42934000  1.0
  O  O83  1  0.26781000  0.60690000  0.92934000  1.0
  O  O84  1  0.13836000  0.79381000  0.56119000  1.0
  O  O85  1  0.86164000  0.20619000  0.06119000  1.0
  O  O86  1  0.86165000  0.20619000  0.43882000  1.0
  O  O87  1  0.13836000  0.79381000  0.93881000  1.0
  O  O88  1  0.98601000  0.09606000  0.25000000  1.0
  O  O89  1  0.01399000  0.90394000  0.75000000  1.0
  O  O90  1  0.68643000  0.32879000  0.25000000  1.0
  O  O91  1  0.31357000  0.67121000  0.75000000  1.0
  O  O92  1  0.74451000  0.63359000  0.60252000  1.0
  O  O93  1  0.25549000  0.36641000  0.10253000  1.0
  O  O94  1  0.25549000  0.36641000  0.39748000  1.0
  O  O95  1  0.74451000  0.63359000  0.89748000  1.0
