# generated using pymatgen
data_CdH18C22(NO)4
_symmetry_space_group_name_H-M   'P 1'
_cell_length_a   8.27485000
_cell_length_b   18.44540000
_cell_length_c   18.44630000
_cell_angle_alpha   89.99870000
_cell_angle_beta   90.00060000
_cell_angle_gamma   89.99970000
_symmetry_Int_Tables_number   1
_chemical_formula_structural   CdH18C22(NO)4
_chemical_formula_sum   'Cd4 H72 C88 N16 O16'
_cell_volume   2815.51259789
_cell_formula_units_Z   4
loop_
 _symmetry_equiv_pos_site_id
 _symmetry_equiv_pos_as_xyz
  1  'x, y, z'
loop_
 _atom_site_type_symbol
 _atom_site_label
 _atom_site_symmetry_multiplicity
 _atom_site_fract_x
 _atom_site_fract_y
 _atom_site_fract_z
 _atom_site_occupancy
  Cd  Cd0  1  0.50002000  0.21097000  0.21097000  1.0
  Cd  Cd1  1  0.50003000  0.78902000  0.78903000  1.0
  Cd  Cd2  1  0.50001000  0.71097000  0.28903000  1.0
  Cd  Cd3  1  0.49998000  0.28902000  0.71097000  1.0
  H  H4  1  0.68401000  0.80161000  0.16977000  1.0
  H  H5  1  0.68401000  0.19837000  0.83024000  1.0
  H  H6  1  0.68404000  0.66977000  0.69839000  1.0
  H  H7  1  0.68405000  0.33023000  0.30161000  1.0
  H  H8  1  0.31598000  0.69840000  0.66976000  1.0
  H  H9  1  0.31596000  0.30160000  0.33022000  1.0
  H  H10  1  0.31593000  0.83023000  0.19841000  1.0
  H  H11  1  0.31595000  0.16976000  0.80161000  1.0
  H  H12  1  0.87207000  0.79837000  0.21475000  1.0
  H  H13  1  0.87207000  0.20162000  0.78527000  1.0
  H  H14  1  0.87210000  0.71474000  0.70163000  1.0
  H  H15  1  0.87210000  0.28525000  0.29836000  1.0
  H  H16  1  0.12792000  0.70164000  0.71474000  1.0
  H  H17  1  0.12790000  0.29836000  0.28525000  1.0
  H  H18  1  0.12787000  0.78525000  0.20165000  1.0
  H  H19  1  0.12790000  0.21474000  0.79836000  1.0
  H  H20  1  0.81569000  0.87844000  0.16649000  1.0
  H  H21  1  0.81569000  0.12154000  0.83351000  1.0
  H  H22  1  0.81571000  0.66649000  0.62157000  1.0
  H  H23  1  0.81574000  0.33350000  0.37843000  1.0
  H  H24  1  0.18430000  0.62157000  0.66649000  1.0
  H  H25  1  0.18428000  0.37842000  0.33351000  1.0
  H  H26  1  0.18424000  0.83351000  0.12158000  1.0
  H  H27  1  0.18428000  0.16649000  0.87844000  1.0
  H  H28  1  0.41934000  0.86606000  0.39172000  1.0
  H  H29  1  0.41933000  0.13395000  0.60829000  1.0
  H  H30  1  0.41934000  0.89172000  0.63396000  1.0
  H  H31  1  0.41933000  0.10829000  0.36605000  1.0
  H  H32  1  0.58065000  0.63395000  0.89172000  1.0
  H  H33  1  0.58065000  0.36606000  0.10829000  1.0
  H  H34  1  0.58067000  0.60830000  0.13395000  1.0
  H  H35  1  0.58067000  0.39171000  0.86605000  1.0
  H  H36  1  0.62745000  0.98589000  0.38989000  1.0
  H  H37  1  0.62743000  0.01412000  0.61011000  1.0
  H  H38  1  0.62743000  0.88990000  0.51412000  1.0
  H  H39  1  0.62741000  0.11011000  0.48589000  1.0
  H  H40  1  0.37256000  0.51411000  0.88988000  1.0
  H  H41  1  0.37255000  0.48590000  0.11012000  1.0
  H  H42  1  0.37258000  0.61013000  0.01412000  1.0
  H  H43  1  0.37257000  0.38988000  0.98588000  1.0
  H  H44  1  0.70741000  0.06442000  0.26200000  1.0
  H  H45  1  0.70740000  0.93558000  0.73799000  1.0
  H  H46  1  0.70738000  0.76201000  0.43560000  1.0
  H  H47  1  0.70740000  0.23800000  0.56439000  1.0
  H  H48  1  0.29262000  0.43560000  0.76199000  1.0
  H  H49  1  0.29260000  0.56441000  0.23801000  1.0
  H  H50  1  0.29263000  0.73800000  0.93561000  1.0
  H  H51  1  0.29262000  0.26199000  0.06439000  1.0
  H  H52  1  0.03950000  0.88831000  0.29951000  1.0
  H  H53  1  0.03950000  0.11168000  0.70048000  1.0
  H  H54  1  0.03952000  0.79951000  0.61168000  1.0
  H  H55  1  0.03954000  0.20048000  0.38832000  1.0
  H  H56  1  0.96049000  0.61168000  0.79950000  1.0
  H  H57  1  0.96046000  0.38832000  0.20049000  1.0
  H  H58  1  0.96047000  0.70050000  0.11168000  1.0
  H  H59  1  0.96047000  0.29950000  0.88832000  1.0
  H  H60  1  0.93919000  0.14599000  0.23218000  1.0
  H  H61  1  0.93917000  0.85400000  0.76781000  1.0
  H  H62  1  0.93914000  0.73219000  0.35402000  1.0
  H  H63  1  0.93916000  0.26782000  0.64597000  1.0
  H  H64  1  0.06086000  0.35401000  0.73217000  1.0
  H  H65  1  0.06083000  0.64599000  0.26783000  1.0
  H  H66  1  0.06088000  0.76782000  0.85402000  1.0
  H  H67  1  0.06086000  0.23218000  0.14598000  1.0
  H  H68  1  0.27176000  0.96965000  0.26603000  1.0
  H  H69  1  0.27174000  0.03034000  0.73397000  1.0
  H  H70  1  0.27175000  0.76603000  0.53034000  1.0
  H  H71  1  0.27177000  0.23396000  0.46967000  1.0
  H  H72  1  0.72826000  0.53034000  0.76601000  1.0
  H  H73  1  0.72823000  0.46968000  0.23396000  1.0
  H  H74  1  0.72825000  0.73398000  0.03032000  1.0
  H  H75  1  0.72824000  0.26602000  0.96967000  1.0
  C  C76  1  0.77079000  0.83418000  0.20072000  1.0
  C  C77  1  0.77078000  0.16581000  0.79929000  1.0
  C  C78  1  0.77081000  0.70072000  0.66583000  1.0
  C  C79  1  0.77082000  0.29927000  0.33417000  1.0
  C  C80  1  0.22921000  0.66583000  0.70072000  1.0
  C  C81  1  0.22919000  0.33416000  0.29928000  1.0
  C  C82  1  0.22916000  0.79928000  0.16584000  1.0
  C  C83  1  0.22919000  0.20072000  0.83417000  1.0
  C  C84  1  0.68978000  0.86284000  0.26658000  1.0
  C  C85  1  0.68978000  0.13716000  0.73343000  1.0
  C  C86  1  0.68981000  0.76658000  0.63717000  1.0
  C  C87  1  0.68982000  0.23341000  0.36283000  1.0
  C  C88  1  0.31022000  0.63717000  0.76657000  1.0
  C  C89  1  0.31019000  0.36283000  0.23343000  1.0
  C  C90  1  0.31018000  0.73343000  0.13718000  1.0
  C  C91  1  0.31019000  0.26658000  0.86283000  1.0
  C  C92  1  0.51866000  0.87910000  0.35574000  1.0
  C  C93  1  0.51865000  0.12092000  0.64426000  1.0
  C  C94  1  0.51867000  0.85574000  0.62092000  1.0
  C  C95  1  0.51866000  0.14426000  0.37908000  1.0
  C  C96  1  0.48134000  0.62091000  0.85574000  1.0
  C  C97  1  0.48131000  0.37910000  0.14427000  1.0
  C  C98  1  0.48134000  0.64427000  0.12092000  1.0
  C  C99  1  0.48133000  0.35574000  0.87909000  1.0
  C  C100  1  0.62047000  0.93769000  0.35648000  1.0
  C  C101  1  0.62044000  0.06232000  0.64352000  1.0
  C  C102  1  0.62045000  0.85648000  0.56232000  1.0
  C  C103  1  0.62045000  0.14351000  0.43768000  1.0
  C  C104  1  0.37954000  0.56231000  0.85647000  1.0
  C  C105  1  0.37954000  0.43769000  0.14353000  1.0
  C  C106  1  0.37955000  0.64354000  0.06232000  1.0
  C  C107  1  0.37954000  0.35647000  0.93768000  1.0
  C  C108  1  0.86191000  0.97256000  0.28256000  1.0
  C  C109  1  0.86190000  0.02743000  0.71744000  1.0
  C  C110  1  0.86191000  0.78256000  0.52745000  1.0
  C  C111  1  0.86192000  0.21743000  0.47256000  1.0
  C  C112  1  0.13810000  0.52744000  0.78255000  1.0
  C  C113  1  0.13808000  0.47256000  0.21744000  1.0
  C  C114  1  0.13808000  0.71745000  0.02745000  1.0
  C  C115  1  0.13809000  0.28255000  0.97256000  1.0
  C  C116  1  0.83166000  0.04475000  0.26429000  1.0
  C  C117  1  0.83165000  0.95525000  0.73570000  1.0
  C  C118  1  0.83164000  0.76430000  0.45526000  1.0
  C  C119  1  0.83166000  0.23570000  0.54474000  1.0
  C  C120  1  0.16836000  0.45526000  0.76428000  1.0
  C  C121  1  0.16834000  0.54475000  0.23571000  1.0
  C  C122  1  0.16837000  0.73571000  0.95527000  1.0
  C  C123  1  0.16836000  0.26429000  0.04474000  1.0
  C  C124  1  0.01915000  0.94462000  0.28385000  1.0
  C  C125  1  0.01912000  0.05538000  0.71615000  1.0
  C  C126  1  0.01913000  0.78384000  0.55538000  1.0
  C  C127  1  0.01914000  0.21615000  0.44462000  1.0
  C  C128  1  0.98087000  0.55538000  0.78383000  1.0
  C  C129  1  0.98086000  0.44463000  0.21615000  1.0
  C  C130  1  0.98086000  0.71617000  0.05538000  1.0
  C  C131  1  0.98086000  0.28384000  0.94462000  1.0
  C  C132  1  0.96139000  0.08987000  0.24768000  1.0
  C  C133  1  0.96138000  0.91013000  0.75232000  1.0
  C  C134  1  0.96135000  0.74768000  0.41014000  1.0
  C  C135  1  0.96138000  0.25232000  0.58986000  1.0
  C  C136  1  0.03864000  0.41014000  0.74766000  1.0
  C  C137  1  0.03861000  0.58987000  0.25233000  1.0
  C  C138  1  0.03866000  0.75233000  0.91014000  1.0
  C  C139  1  0.03863000  0.24767000  0.08986000  1.0
  C  C140  1  0.14788000  0.98981000  0.26584000  1.0
  C  C141  1  0.14787000  0.01019000  0.73416000  1.0
  C  C142  1  0.14787000  0.76584000  0.51020000  1.0
  C  C143  1  0.14789000  0.23415000  0.48980000  1.0
  C  C144  1  0.85214000  0.51020000  0.76582000  1.0
  C  C145  1  0.85211000  0.48981000  0.23416000  1.0
  C  C146  1  0.85214000  0.73418000  0.01019000  1.0
  C  C147  1  0.85214000  0.26583000  0.98980000  1.0
  C  C148  1  0.11976000  0.06266000  0.24814000  1.0
  C  C149  1  0.11975000  0.93733000  0.75185000  1.0
  C  C150  1  0.11973000  0.74814000  0.43734000  1.0
  C  C151  1  0.11976000  0.25185000  0.56266000  1.0
  C  C152  1  0.88027000  0.43734000  0.74813000  1.0
  C  C153  1  0.88022000  0.56267000  0.25186000  1.0
  C  C154  1  0.88028000  0.75186000  0.93733000  1.0
  C  C155  1  0.88026000  0.24814000  0.06266000  1.0
  C  C156  1  0.25868000  0.11182000  0.23070000  1.0
  C  C157  1  0.25867000  0.88818000  0.76930000  1.0
  C  C158  1  0.25864000  0.73071000  0.38818000  1.0
  C  C159  1  0.25865000  0.26930000  0.61182000  1.0
  C  C160  1  0.74136000  0.38818000  0.73069000  1.0
  C  C161  1  0.74132000  0.61183000  0.26930000  1.0
  C  C162  1  0.74137000  0.76930000  0.88817000  1.0
  C  C163  1  0.74136000  0.23070000  0.11182000  1.0
  N  N164  1  0.56265000  0.83325000  0.29986000  1.0
  N  N165  1  0.56264000  0.16675000  0.70016000  1.0
  N  N166  1  0.56266000  0.79985000  0.66676000  1.0
  N  N167  1  0.56266000  0.20015000  0.33324000  1.0
  N  N168  1  0.43735000  0.66676000  0.79985000  1.0
  N  N169  1  0.43733000  0.33325000  0.20015000  1.0
  N  N170  1  0.43733000  0.70015000  0.16677000  1.0
  N  N171  1  0.43735000  0.29985000  0.83324000  1.0
  N  N172  1  0.72947000  0.92641000  0.30042000  1.0
  N  N173  1  0.72947000  0.07359000  0.69958000  1.0
  N  N174  1  0.72948000  0.80042000  0.57360000  1.0
  N  N175  1  0.72949000  0.19957000  0.42640000  1.0
  N  N176  1  0.27053000  0.57360000  0.80042000  1.0
  N  N177  1  0.27051000  0.42641000  0.19958000  1.0
  N  N178  1  0.27051000  0.69959000  0.07361000  1.0
  N  N179  1  0.27052000  0.30042000  0.92639000  1.0
  O  O180  1  0.22896000  0.17995000  0.22582000  1.0
  O  O181  1  0.22896000  0.82004000  0.77417000  1.0
  O  O182  1  0.22892000  0.72584000  0.32005000  1.0
  O  O183  1  0.22895000  0.27416000  0.67995000  1.0
  O  O184  1  0.77109000  0.32004000  0.72581000  1.0
  O  O185  1  0.77103000  0.67997000  0.27418000  1.0
  O  O186  1  0.77109000  0.77417000  0.82003000  1.0
  O  O187  1  0.77107000  0.22582000  0.17996000  1.0
  O  O188  1  0.39986000  0.08561000  0.22310000  1.0
  O  O189  1  0.39984000  0.91439000  0.77689000  1.0
  O  O190  1  0.39982000  0.72311000  0.41438000  1.0
  O  O191  1  0.39983000  0.27690000  0.58562000  1.0
  O  O192  1  0.60017000  0.41438000  0.72310000  1.0
  O  O193  1  0.60015000  0.58562000  0.27690000  1.0
  O  O194  1  0.60018000  0.77689000  0.91437000  1.0
  O  O195  1  0.60017000  0.22312000  0.08562000  1.0
