# generated using pymatgen
data_Cu3H4C5N3Cl2
_symmetry_space_group_name_H-M   'P 1'
_cell_length_a   3.57404000
_cell_length_b   6.80684000
_cell_length_c   17.03030000
_cell_angle_alpha   89.99990000
_cell_angle_beta   89.99970000
_cell_angle_gamma   88.27210000
_symmetry_Int_Tables_number   1
_chemical_formula_structural   Cu3H4C5N3Cl2
_chemical_formula_sum   'Cu6 H8 C10 N6 Cl4'
_cell_volume   414.12335997
_cell_formula_units_Z   2
loop_
 _symmetry_equiv_pos_site_id
 _symmetry_equiv_pos_as_xyz
  1  'x, y, z'
loop_
 _atom_site_type_symbol
 _atom_site_label
 _atom_site_symmetry_multiplicity
 _atom_site_fract_x
 _atom_site_fract_y
 _atom_site_fract_z
 _atom_site_occupancy
  Cu  Cu0  1  0.44928000  0.25100000  0.67594000  1.0
  Cu  Cu1  1  0.44927000  0.25101000  0.82406000  1.0
  Cu  Cu2  1  0.55073000  0.74900000  0.32406000  1.0
  Cu  Cu3  1  0.55072000  0.74900000  0.17594000  1.0
  Cu  Cu4  1  0.22097000  0.89399000  0.75000000  1.0
  Cu  Cu5  1  0.77904000  0.10603000  0.25000000  1.0
  H  H6  1  0.36108000  0.33863000  0.37639000  1.0
  H  H7  1  0.36108000  0.33864000  0.12360000  1.0
  H  H8  1  0.63892000  0.66135000  0.62360000  1.0
  H  H9  1  0.63891000  0.66136000  0.87640000  1.0
  H  H10  1  0.71142000  0.83580000  0.49451000  1.0
  H  H11  1  0.71140000  0.83581000  0.00549000  1.0
  H  H12  1  0.28858000  0.16418000  0.50549000  1.0
  H  H13  1  0.28860000  0.16419000  0.99451000  1.0
  C  C14  1  0.43428000  0.46339000  0.75000000  1.0
  C  C15  1  0.56572000  0.53662000  0.25000000  1.0
  C  C16  1  0.42180000  0.41121000  0.43177000  1.0
  C  C17  1  0.42178000  0.41121000  0.06823000  1.0
  C  C18  1  0.57823000  0.58878000  0.56823000  1.0
  C  C19  1  0.57820000  0.58879000  0.93177000  1.0
  C  C20  1  0.38511000  0.31452000  0.50309000  1.0
  C  C21  1  0.38510000  0.31452000  0.99690000  1.0
  C  C22  1  0.61491000  0.68547000  0.49690000  1.0
  C  C23  1  0.61489000  0.68548000  0.00310000  1.0
  N  N24  1  0.41284000  0.63831000  0.75000000  1.0
  N  N25  1  0.58715000  0.36171000  0.25000000  1.0
  N  N26  1  0.53774000  0.59733000  0.42827000  1.0
  N  N27  1  0.53773000  0.59734000  0.07173000  1.0
  N  N28  1  0.46225000  0.40265000  0.57172000  1.0
  N  N29  1  0.46225000  0.40266000  0.92827000  1.0
  Cl  Cl30  1  0.96303000  0.03062000  0.63947000  1.0
  Cl  Cl31  1  0.96304000  0.03062000  0.86053000  1.0
  Cl  Cl32  1  0.03695000  0.96938000  0.36053000  1.0
  Cl  Cl33  1  0.03695000  0.96940000  0.13947000  1.0
