# generated using pymatgen
data_Co3H14C22(N2O3)4
_symmetry_space_group_name_H-M   'P 1'
_cell_length_a   13.47400000
_cell_length_b   13.47440000
_cell_length_c   15.74100000
_cell_angle_alpha   91.01590000
_cell_angle_beta   91.01900000
_cell_angle_gamma   94.49650000
_symmetry_Int_Tables_number   1
_chemical_formula_structural   Co3H14C22(N2O3)4
_chemical_formula_sum   'Co6 H28 C44 N16 O24'
_cell_volume   2848.07154881
_cell_formula_units_Z   2
loop_
 _symmetry_equiv_pos_site_id
 _symmetry_equiv_pos_as_xyz
  1  'x, y, z'
loop_
 _atom_site_type_symbol
 _atom_site_label
 _atom_site_symmetry_multiplicity
 _atom_site_fract_x
 _atom_site_fract_y
 _atom_site_fract_z
 _atom_site_occupancy
  Co  Co0  1  0.58486000  0.61135000  0.51684000  1.0
  Co  Co1  1  0.38857000  0.41507000  0.98317000  1.0
  Co  Co2  1  0.41503000  0.38856000  0.48316000  1.0
  Co  Co3  1  0.61137000  0.58485000  0.01685000  1.0
  Co  Co4  1  0.30040000  0.69971000  0.25000000  1.0
  Co  Co5  1  0.69969000  0.30035000  0.74998000  1.0
  H  H6  1  0.74089000  0.08103000  0.90877000  1.0
  H  H7  1  0.91897000  0.25915000  0.59123000  1.0
  H  H8  1  0.25909000  0.91899000  0.09122000  1.0
  H  H9  1  0.08104000  0.74088000  0.40877000  1.0
  H  H10  1  0.50560000  0.80062000  0.46140000  1.0
  H  H11  1  0.19939000  0.49440000  0.03858000  1.0
  H  H12  1  0.49439000  0.19938000  0.53859000  1.0
  H  H13  1  0.80060000  0.50564000  0.96142000  1.0
  H  H14  1  0.42264000  0.82538000  0.37714000  1.0
  H  H15  1  0.17463000  0.57733000  0.12282000  1.0
  H  H16  1  0.57736000  0.17462000  0.62285000  1.0
  H  H17  1  0.82537000  0.42269000  0.87715000  1.0
  H  H18  1  0.63959000  0.98605000  0.65220000  1.0
  H  H19  1  0.01395000  0.36044000  0.84780000  1.0
  H  H20  1  0.36041000  0.01395000  0.34781000  1.0
  H  H21  1  0.98605000  0.63957000  0.15222000  1.0
  H  H22  1  0.67336000  0.95829000  0.92725000  1.0
  H  H23  1  0.04173000  0.32665000  0.57275000  1.0
  H  H24  1  0.32663000  0.04172000  0.07274000  1.0
  H  H25  1  0.95829000  0.67333000  0.42727000  1.0
  H  H26  1  0.60936000  0.70030000  0.76974000  1.0
  H  H27  1  0.29968000  0.39068000  0.73028000  1.0
  H  H28  1  0.39066000  0.29967000  0.23028000  1.0
  H  H29  1  0.70031000  0.60931000  0.26973000  1.0
  H  H30  1  0.28742000  0.48631000  0.33979000  1.0
  H  H31  1  0.51372000  0.71254000  0.16022000  1.0
  H  H32  1  0.71259000  0.51370000  0.66019000  1.0
  H  H33  1  0.48629000  0.28750000  0.83982000  1.0
  C  C34  1  0.59812000  0.78954000  0.61678000  1.0
  C  C35  1  0.21046000  0.40192000  0.88319000  1.0
  C  C36  1  0.40187000  0.21044000  0.38319000  1.0
  C  C37  1  0.78953000  0.59809000  0.11680000  1.0
  C  C38  1  0.62137000  0.83872000  0.70240000  1.0
  C  C39  1  0.16128000  0.37867000  0.79759000  1.0
  C  C40  1  0.37863000  0.16125000  0.29759000  1.0
  C  C41  1  0.83872000  0.62133000  0.20241000  1.0
  C  C42  1  0.64076000  0.94172000  0.70939000  1.0
  C  C43  1  0.05828000  0.35927000  0.79061000  1.0
  C  C44  1  0.35924000  0.05826000  0.29061000  1.0
  C  C45  1  0.94171000  0.64074000  0.20940000  1.0
  C  C46  1  0.66348000  0.98644000  0.78954000  1.0
  C  C47  1  0.01357000  0.33652000  0.71046000  1.0
  C  C48  1  0.33652000  0.01356000  0.21045000  1.0
  C  C49  1  0.98643000  0.66346000  0.28954000  1.0
  C  C50  1  0.68842000  0.09388000  0.79617000  1.0
  C  C51  1  0.90612000  0.31159000  0.70382000  1.0
  C  C52  1  0.31157000  0.90613000  0.20381000  1.0
  C  C53  1  0.09388000  0.68840000  0.29618000  1.0
  C  C54  1  0.66241000  0.92783000  0.86252000  1.0
  C  C55  1  0.07218000  0.33760000  0.63748000  1.0
  C  C56  1  0.33758000  0.07218000  0.13747000  1.0
  C  C57  1  0.92783000  0.66238000  0.36253000  1.0
  C  C58  1  0.64194000  0.82510000  0.85574000  1.0
  C  C59  1  0.17489000  0.35811000  0.64428000  1.0
  C  C60  1  0.35808000  0.17489000  0.14427000  1.0
  C  C61  1  0.82511000  0.64188000  0.35574000  1.0
  C  C62  1  0.63739000  0.76474000  0.93558000  1.0
  C  C63  1  0.23525000  0.36265000  0.56447000  1.0
  C  C64  1  0.36264000  0.23527000  0.06446000  1.0
  C  C65  1  0.76474000  0.63735000  0.43558000  1.0
  C  C66  1  0.62352000  0.78078000  0.77543000  1.0
  C  C67  1  0.21921000  0.37652000  0.72458000  1.0
  C  C68  1  0.37651000  0.21919000  0.22458000  1.0
  C  C69  1  0.78079000  0.62346000  0.27543000  1.0
  C  C70  1  0.33955000  0.54133000  0.37097000  1.0
  C  C71  1  0.45870000  0.66041000  0.12902000  1.0
  C  C72  1  0.66045000  0.45866000  0.62901000  1.0
  C  C73  1  0.54133000  0.33960000  0.87098000  1.0
  C  C74  1  0.42215000  0.67971000  0.40826000  1.0
  C  C75  1  0.32031000  0.57785000  0.09172000  1.0
  C  C76  1  0.57786000  0.32029000  0.59172000  1.0
  C  C77  1  0.67969000  0.42218000  0.90826000  1.0
  N  N78  1  0.45461000  0.60803000  0.45805000  1.0
  N  N79  1  0.39197000  0.54538000  0.04192000  1.0
  N  N80  1  0.54535000  0.39194000  0.54192000  1.0
  N  N81  1  0.60804000  0.45466000  0.95806000  1.0
  N  N82  1  0.34948000  0.64011000  0.35221000  1.0
  N  N83  1  0.35992000  0.65051000  0.14778000  1.0
  N  N84  1  0.65055000  0.35989000  0.64778000  1.0
  N  N85  1  0.64010000  0.34950000  0.85219000  1.0
  N  N86  1  0.40090000  0.51982000  0.43318000  1.0
  N  N87  1  0.48019000  0.59907000  0.06680000  1.0
  N  N88  1  0.59908000  0.48014000  0.56680000  1.0
  N  N89  1  0.51983000  0.40094000  0.93319000  1.0
  N  N90  1  0.45761000  0.77567000  0.41204000  1.0
  N  N91  1  0.22436000  0.54237000  0.08795000  1.0
  N  N92  1  0.54239000  0.22434000  0.58795000  1.0
  N  N93  1  0.77564000  0.45766000  0.91203000  1.0
  O  O94  1  0.59832000  0.69339000  0.61756000  1.0
  O  O95  1  0.30660000  0.40168000  0.88243000  1.0
  O  O96  1  0.40164000  0.30658000  0.38242000  1.0
  O  O97  1  0.69338000  0.59831000  0.11757000  1.0
  O  O98  1  0.58067000  0.84114000  0.55374000  1.0
  O  O99  1  0.15888000  0.41938000  0.94622000  1.0
  O  O100  1  0.41930000  0.15885000  0.44624000  1.0
  O  O101  1  0.84111000  0.58063000  0.05375000  1.0
  O  O102  1  0.63738000  0.80675000  0.00659000  1.0
  O  O103  1  0.19327000  0.36265000  0.49344000  1.0
  O  O104  1  0.36264000  0.19331000  0.99344000  1.0
  O  O105  1  0.80675000  0.63732000  0.50659000  1.0
  O  O106  1  0.63285000  0.66889000  0.92138000  1.0
  O  O107  1  0.33110000  0.36718000  0.57868000  1.0
  O  O108  1  0.36719000  0.33112000  0.07869000  1.0
  O  O109  1  0.66888000  0.63282000  0.42137000  1.0
  O  O110  1  0.67327000  0.15274000  0.73739000  1.0
  O  O111  1  0.84727000  0.32673000  0.76259000  1.0
  O  O112  1  0.32675000  0.84729000  0.26258000  1.0
  O  O113  1  0.15273000  0.67326000  0.23742000  1.0
  O  O114  1  0.73069000  0.13356000  0.86804000  1.0
  O  O115  1  0.86643000  0.26932000  0.63194000  1.0
  O  O116  1  0.26930000  0.86646000  0.13194000  1.0
  O  O117  1  0.13356000  0.73069000  0.36805000  1.0
