# generated using pymatgen
data_UH12C7N2O7
_symmetry_space_group_name_H-M   'P 1'
_cell_length_a   8.09966000
_cell_length_b   8.46260000
_cell_length_c   9.19513000
_cell_angle_alpha   86.34360000
_cell_angle_beta   74.39840000
_cell_angle_gamma   69.54290000
_symmetry_Int_Tables_number   1
_chemical_formula_structural   UH12C7N2O7
_chemical_formula_sum   'U2 H24 C14 N4 O14'
_cell_volume   568.44703477
_cell_formula_units_Z   2
loop_
 _symmetry_equiv_pos_site_id
 _symmetry_equiv_pos_as_xyz
  1  'x, y, z'
loop_
 _atom_site_type_symbol
 _atom_site_label
 _atom_site_symmetry_multiplicity
 _atom_site_fract_x
 _atom_site_fract_y
 _atom_site_fract_z
 _atom_site_occupancy
  U  U0  1  0.30542000  0.20574000  0.24609000  1.0
  U  U1  1  0.69458000  0.79426000  0.75391000  1.0
  H  H2  1  0.81635000  0.42273000  0.34169000  1.0
  H  H3  1  0.18365000  0.57727000  0.65831000  1.0
  H  H4  1  0.61734000  0.10970000  0.42862000  1.0
  H  H5  1  0.38266000  0.89030000  0.57138000  1.0
  H  H6  1  0.81432000  0.16159000  0.41960000  1.0
  H  H7  1  0.18568000  0.83841000  0.58040000  1.0
  H  H8  1  0.82274000  0.17372000  0.66750000  1.0
  H  H9  1  0.17726000  0.82627000  0.33250000  1.0
  H  H10  1  0.80394000  0.38451000  0.69980000  1.0
  H  H11  1  0.19606000  0.61548000  0.30020000  1.0
  H  H12  1  0.07435000  0.07010000  0.80038000  1.0
  H  H13  1  0.92565000  0.92990000  0.19962000  1.0
  H  H14  1  0.05286000  0.28148000  0.83204000  1.0
  H  H15  1  0.94714000  0.71852000  0.16797000  1.0
  H  H16  1  0.88468000  0.17534000  0.05939000  1.0
  H  H17  1  0.11532000  0.82466000  0.94061000  1.0
  H  H18  1  0.73439000  0.34784000  0.98728000  1.0
  H  H19  1  0.26561000  0.65216000  0.01272000  1.0
  H  H20  1  0.63284000  0.71238000  0.29763000  1.0
  H  H21  1  0.36716000  0.28762000  0.70237000  1.0
  H  H22  1  0.50130000  0.62543000  0.22184000  1.0
  H  H23  1  0.49869000  0.37457000  0.77815000  1.0
  H  H24  1  0.73085000  0.59740000  0.12028000  1.0
  H  H25  1  0.26915000  0.40260000  0.87972000  1.0
  C  C26  1  0.03923000  0.24621000  0.53497000  1.0
  C  C27  1  0.96077000  0.75380000  0.46503000  1.0
  C  C28  1  0.89937000  0.25332000  0.68168000  1.0
  C  C29  1  0.10063000  0.74668000  0.31832000  1.0
  C  C30  1  0.97767000  0.20043000  0.81839000  1.0
  C  C31  1  0.02233000  0.79957000  0.18161000  1.0
  C  C32  1  0.82499000  0.21597000  0.96283000  1.0
  C  C33  1  0.17501000  0.78403000  0.03717000  1.0
  C  C34  1  0.70856000  0.11042000  0.95999000  1.0
  C  C35  1  0.29144000  0.88958000  0.04001000  1.0
  C  C36  1  0.61235000  0.33651000  0.33835000  1.0
  C  C37  1  0.38765000  0.66349000  0.66165000  1.0
  C  C38  1  0.63766000  0.60544000  0.23352000  1.0
  C  C39  1  0.36234000  0.39456000  0.76648000  1.0
  N  N40  1  0.69677000  0.45074000  0.31303000  1.0
  N  N41  1  0.30323000  0.54926000  0.68697000  1.0
  N  N42  1  0.68856000  0.18979000  0.39959000  1.0
  N  N43  1  0.31143000  0.81021000  0.60041000  1.0
  O  O44  1  0.15549000  0.38785000  0.17299000  1.0
  O  O45  1  0.84451000  0.61215000  0.82701000  1.0
  O  O46  1  0.44842000  0.02165000  0.32318000  1.0
  O  O47  1  0.55158000  0.97835000  0.67682000  1.0
  O  O48  1  0.03267000  0.17273000  0.41804000  1.0
  O  O49  1  0.96733000  0.82727000  0.58196000  1.0
  O  O50  1  0.16301000  0.31041000  0.51873000  1.0
  O  O51  1  0.83699000  0.68960000  0.48127000  1.0
  O  O52  1  0.78149000  0.96921000  0.88749000  1.0
  O  O53  1  0.21851000  0.03079000  0.11251000  1.0
  O  O54  1  0.53934000  0.16765000  0.03054000  1.0
  O  O55  1  0.46065000  0.83235000  0.96946000  1.0
  O  O56  1  0.46049000  0.36880000  0.30291000  1.0
  O  O57  1  0.53952000  0.63120000  0.69709000  1.0
