# generated using pymatgen
data_CdH10C9(NO3)2
_symmetry_space_group_name_H-M   'P 1'
_cell_length_a   7.53205000
_cell_length_b   7.53207000
_cell_length_c   21.76300000
_cell_angle_alpha   89.99990000
_cell_angle_beta   90.00000000
_cell_angle_gamma   91.42410000
_symmetry_Int_Tables_number   1
_chemical_formula_structural   CdH10C9(NO3)2
_chemical_formula_sum   'Cd4 H40 C36 N8 O24'
_cell_volume   1234.27559047
_cell_formula_units_Z   4
loop_
 _symmetry_equiv_pos_site_id
 _symmetry_equiv_pos_as_xyz
  1  'x, y, z'
loop_
 _atom_site_type_symbol
 _atom_site_label
 _atom_site_symmetry_multiplicity
 _atom_site_fract_x
 _atom_site_fract_y
 _atom_site_fract_z
 _atom_site_occupancy
  Cd  Cd0  1  0.74159000  0.65114000  0.29282000  1.0
  Cd  Cd1  1  0.34886000  0.25841000  0.70718000  1.0
  Cd  Cd2  1  0.84886000  0.75841000  0.79282000  1.0
  Cd  Cd3  1  0.24159000  0.15114000  0.20718000  1.0
  H  H4  1  0.01599000  0.25268000  0.60054000  1.0
  H  H5  1  0.74733000  0.98402000  0.39946000  1.0
  H  H6  1  0.24732000  0.48401000  0.10054000  1.0
  H  H7  1  0.51599000  0.75267000  0.89946000  1.0
  H  H8  1  0.64980000  0.38250000  0.39793000  1.0
  H  H9  1  0.61750000  0.35020000  0.60207000  1.0
  H  H10  1  0.11751000  0.85020000  0.89793000  1.0
  H  H11  1  0.14980000  0.88249000  0.10207000  1.0
  H  H12  1  0.41180000  0.29844000  0.47230000  1.0
  H  H13  1  0.70156000  0.58819000  0.52770000  1.0
  H  H14  1  0.20156000  0.08820000  0.97230000  1.0
  H  H15  1  0.91180000  0.79844000  0.02770000  1.0
  H  H16  1  0.10745000  0.73082000  0.40094000  1.0
  H  H17  1  0.26917000  0.89254000  0.59906000  1.0
  H  H18  1  0.76918000  0.39255000  0.90094000  1.0
  H  H19  1  0.60746000  0.23082000  0.09906000  1.0
  H  H20  1  0.35831000  0.79771000  0.32888000  1.0
  H  H21  1  0.20230000  0.64168000  0.67112000  1.0
  H  H22  1  0.70230000  0.14168000  0.82888000  1.0
  H  H23  1  0.85832000  0.29771000  0.17112000  1.0
  H  H24  1  0.97609000  0.55083000  0.48467000  1.0
  H  H25  1  0.44916000  0.02391000  0.51533000  1.0
  H  H26  1  0.94916000  0.52391000  0.98467000  1.0
  H  H27  1  0.47609000  0.05084000  0.01533000  1.0
  H  H28  1  0.70955000  0.66423000  0.14630000  1.0
  H  H29  1  0.33577000  0.29046000  0.85370000  1.0
  H  H30  1  0.83577000  0.79046000  0.64630000  1.0
  H  H31  1  0.20955000  0.16423000  0.35370000  1.0
  H  H32  1  0.50837000  0.66870000  0.10129000  1.0
  H  H33  1  0.33130000  0.49163000  0.89871000  1.0
  H  H34  1  0.83130000  0.99163000  0.60129000  1.0
  H  H35  1  0.00836000  0.16870000  0.39871000  1.0
  H  H36  1  0.02040000  0.54600000  0.22997000  1.0
  H  H37  1  0.45400000  0.97959000  0.77003000  1.0
  H  H38  1  0.95400000  0.47959000  0.72997000  1.0
  H  H39  1  0.52041000  0.04600000  0.27003000  1.0
  H  H40  1  0.02488000  0.75967000  0.23294000  1.0
  H  H41  1  0.24033000  0.97512000  0.76706000  1.0
  H  H42  1  0.74034000  0.47512000  0.73294000  1.0
  H  H43  1  0.52488000  0.25966000  0.26706000  1.0
  C  C44  1  0.52796000  0.45688000  0.40044000  1.0
  C  C45  1  0.54313000  0.47204000  0.59956000  1.0
  C  C46  1  0.04313000  0.97204000  0.90044000  1.0
  C  C47  1  0.02796000  0.95687000  0.09956000  1.0
  C  C48  1  0.39497000  0.41076000  0.44169000  1.0
  C  C49  1  0.58924000  0.60502000  0.55831000  1.0
  C  C50  1  0.08924000  0.10502000  0.94169000  1.0
  C  C51  1  0.89498000  0.91076000  0.05831000  1.0
  C  C52  1  0.23975000  0.51009000  0.44375000  1.0
  C  C53  1  0.48991000  0.76025000  0.55625000  1.0
  C  C54  1  0.98991000  0.26025000  0.94375000  1.0
  C  C55  1  0.73975000  0.01008000  0.05625000  1.0
  C  C56  1  0.22652000  0.65170000  0.40211000  1.0
  C  C57  1  0.34830000  0.77347000  0.59789000  1.0
  C  C58  1  0.84830000  0.27347000  0.90211000  1.0
  C  C59  1  0.72653000  0.15170000  0.09789000  1.0
  C  C60  1  0.36558000  0.68921000  0.36184000  1.0
  C  C61  1  0.31080000  0.63442000  0.63816000  1.0
  C  C62  1  0.81080000  0.13442000  0.86184000  1.0
  C  C63  1  0.86558000  0.18921000  0.13816000  1.0
  C  C64  1  0.09712000  0.47298000  0.48735000  1.0
  C  C65  1  0.52702000  0.90287000  0.51264000  1.0
  C  C66  1  0.02702000  0.40288000  0.98735000  1.0
  C  C67  1  0.59712000  0.97298000  0.01265000  1.0
  C  C68  1  0.50294000  0.49102000  0.17956000  1.0
  C  C69  1  0.50898000  0.49707000  0.82044000  1.0
  C  C70  1  0.00898000  0.99706000  0.67956000  1.0
  C  C71  1  0.00294000  0.99102000  0.32044000  1.0
  C  C72  1  0.56344000  0.66201000  0.14772000  1.0
  C  C73  1  0.33799000  0.43656000  0.85228000  1.0
  C  C74  1  0.83798000  0.93656000  0.64772000  1.0
  C  C75  1  0.06344000  0.16201000  0.35228000  1.0
  C  C76  1  0.50656000  0.82530000  0.18405000  1.0
  C  C77  1  0.17469000  0.49344000  0.81595000  1.0
  C  C78  1  0.67469000  0.99344000  0.68405000  1.0
  C  C79  1  0.00656000  0.32531000  0.31595000  1.0
  N  N80  1  0.51501000  0.59465000  0.36109000  1.0
  N  N81  1  0.40535000  0.48499000  0.63891000  1.0
  N  N82  1  0.90536000  0.98499000  0.86109000  1.0
  N  N83  1  0.01501000  0.09464000  0.13891000  1.0
  N  N84  1  0.11767000  0.35359000  0.52919000  1.0
  N  N85  1  0.64641000  0.88233000  0.47081000  1.0
  N  N86  1  0.14640000  0.38233000  0.02919000  1.0
  N  N87  1  0.61767000  0.85359000  0.97081000  1.0
  O  O88  1  0.97448000  0.33747000  0.56805000  1.0
  O  O89  1  0.66253000  0.02552000  0.43195000  1.0
  O  O90  1  0.16253000  0.52552000  0.06805000  1.0
  O  O91  1  0.47448000  0.83747000  0.93195000  1.0
  O  O92  1  0.57538000  0.85289000  0.23714000  1.0
  O  O93  1  0.14711000  0.42462000  0.76286000  1.0
  O  O94  1  0.64711000  0.92462000  0.73714000  1.0
  O  O95  1  0.07538000  0.35289000  0.26286000  1.0
  O  O96  1  0.58669000  0.44265000  0.22711000  1.0
  O  O97  1  0.55736000  0.41331000  0.77289000  1.0
  O  O98  1  0.05736000  0.91331000  0.72711000  1.0
  O  O99  1  0.08669000  0.94265000  0.27289000  1.0
  O  O100  1  0.39466000  0.92441000  0.15901000  1.0
  O  O101  1  0.07559000  0.60534000  0.84099000  1.0
  O  O102  1  0.57559000  0.10534000  0.65902000  1.0
  O  O103  1  0.89466000  0.42441000  0.34098000  1.0
  O  O104  1  0.37108000  0.40313000  0.15663000  1.0
  O  O105  1  0.59687000  0.62892000  0.84337000  1.0
  O  O106  1  0.09687000  0.12892000  0.65663000  1.0
  O  O107  1  0.87108000  0.90313000  0.34337000  1.0
  O  O108  1  0.95704000  0.65453000  0.21650000  1.0
  O  O109  1  0.34547000  0.04296000  0.78350000  1.0
  O  O110  1  0.84547000  0.54296000  0.71650000  1.0
  O  O111  1  0.45704000  0.15452000  0.28350000  1.0
