# generated using pymatgen
data_CuH11C13(NO)2
_symmetry_space_group_name_H-M   'P 1'
_cell_length_a   9.75238518
_cell_length_b   9.75289000
_cell_length_c   10.39260000
_cell_angle_alpha   90.00330000
_cell_angle_beta   90.01080024
_cell_angle_gamma   59.99886304
_symmetry_Int_Tables_number   1
_chemical_formula_structural   CuH11C13(NO)2
_chemical_formula_sum   'Cu3 H33 C39 N6 O6'
_cell_volume   856.03994776
_cell_formula_units_Z   3
loop_
 _symmetry_equiv_pos_site_id
 _symmetry_equiv_pos_as_xyz
  1  'x, y, z'
loop_
 _atom_site_type_symbol
 _atom_site_label
 _atom_site_symmetry_multiplicity
 _atom_site_fract_x
 _atom_site_fract_y
 _atom_site_fract_z
 _atom_site_occupancy
  Cu  Cu0  1  0.65739000  0.89344000  0.38006000  1.0
  Cu  Cu1  1  0.89330000  0.44928000  0.04681000  1.0
  Cu  Cu2  1  0.44925000  0.65750000  0.71341000  1.0
  H  H3  1  0.82728000  0.75875000  0.57958000  1.0
  H  H4  1  0.75869000  0.41409000  0.24633000  1.0
  H  H5  1  0.41393000  0.82728000  0.91292000  1.0
  H  H6  1  0.53856000  0.09736000  0.55326000  1.0
  H  H7  1  0.09733000  0.36415000  0.21991000  1.0
  H  H8  1  0.36441000  0.53831000  0.88656000  1.0
  H  H9  1  0.99257000  0.84531000  0.54127000  1.0
  H  H10  1  0.84513000  0.16234000  0.20830000  1.0
  H  H11  1  0.16233000  0.99223000  0.87451000  1.0
  H  H12  1  0.16342000  0.96538000  0.54884000  1.0
  H  H13  1  0.96513000  0.87144000  0.21578000  1.0
  H  H14  1  0.87146000  0.16306000  0.88217000  1.0
  H  H15  1  0.57935000  0.31148000  0.52723000  1.0
  H  H16  1  0.31136000  0.10923000  0.19360000  1.0
  H  H17  1  0.10930000  0.57904000  0.86054000  1.0
  H  H18  1  0.75100000  0.43115000  0.52999000  1.0
  H  H19  1  0.43092000  0.81799000  0.19638000  1.0
  H  H20  1  0.81801000  0.75077000  0.86324000  1.0
  H  H21  1  0.18990000  0.20433000  0.51652000  1.0
  H  H22  1  0.20431000  0.60585000  0.18302000  1.0
  H  H23  1  0.60603000  0.18956000  0.84960000  1.0
  H  H24  1  0.01673000  0.39619000  0.50864000  1.0
  H  H25  1  0.39610000  0.58734000  0.17510000  1.0
  H  H26  1  0.58729000  0.01644000  0.84162000  1.0
  H  H27  1  0.85079000  0.47135000  0.74759000  1.0
  H  H28  1  0.47129000  0.67813000  0.41410000  1.0
  H  H29  1  0.67807000  0.85056000  0.08080000  1.0
  H  H30  1  0.33786000  0.13064000  0.71657000  1.0
  H  H31  1  0.13065000  0.53167000  0.38301000  1.0
  H  H32  1  0.53138000  0.33766000  0.04938000  1.0
  H  H33  1  0.26370000  0.22229000  0.97483000  1.0
  H  H34  1  0.22221000  0.51435000  0.64124000  1.0
  H  H35  1  0.51381000  0.26373000  0.30764000  1.0
  C  C36  1  0.58287000  0.81234000  0.61311000  1.0
  C  C37  1  0.81211000  0.60501000  0.27982000  1.0
  C  C38  1  0.60494000  0.58295000  0.94643000  1.0
  C  C39  1  0.70403000  0.85086000  0.56655000  1.0
  C  C40  1  0.85075000  0.44528000  0.23330000  1.0
  C  C41  1  0.44521000  0.70399000  0.89989000  1.0
  C  C42  1  0.66355000  0.00795000  0.54006000  1.0
  C  C43  1  0.00784000  0.32866000  0.20676000  1.0
  C  C44  1  0.32872000  0.66332000  0.87334000  1.0
  C  C45  1  0.77272000  0.07001000  0.53426000  1.0
  C  C46  1  0.06984000  0.15744000  0.20091000  1.0
  C  C47  1  0.15748000  0.77239000  0.86751000  1.0
  C  C48  1  0.93855000  0.97373000  0.53851000  1.0
  C  C49  1  0.97356000  0.08791000  0.20536000  1.0
  C  C50  1  0.08793000  0.93820000  0.87177000  1.0
  C  C51  1  0.03512000  0.04085000  0.54214000  1.0
  C  C52  1  0.04064000  0.92421000  0.20895000  1.0
  C  C53  1  0.92425000  0.03480000  0.87547000  1.0
  C  C54  1  0.70771000  0.23518000  0.52932000  1.0
  C  C55  1  0.23500000  0.05724000  0.19579000  1.0
  C  C56  1  0.05731000  0.70739000  0.86259000  1.0
  C  C57  1  0.80405000  0.30256000  0.53123000  1.0
  C  C58  1  0.30234000  0.89353000  0.19771000  1.0
  C  C59  1  0.89358000  0.80376000  0.86451000  1.0
  C  C60  1  0.96861000  0.20577000  0.53963000  1.0
  C  C61  1  0.20556000  0.82579000  0.20623000  1.0
  C  C62  1  0.82582000  0.96830000  0.87293000  1.0
  C  C63  1  0.07096000  0.28002000  0.55599000  1.0
  C  C64  1  0.27995000  0.64917000  0.22247000  1.0
  C  C65  1  0.64919000  0.07065000  0.88907000  1.0
  C  C66  1  0.97252000  0.39189000  0.77685000  1.0
  C  C67  1  0.39188000  0.63582000  0.44333000  1.0
  C  C68  1  0.63568000  0.97231000  0.10997000  1.0
  C  C69  1  0.22979000  0.21891000  0.76337000  1.0
  C  C70  1  0.21891000  0.55150000  0.42980000  1.0
  C  C71  1  0.55119000  0.22962000  0.09623000  1.0
  C  C72  1  0.18978000  0.26203000  0.88968000  1.0
  C  C73  1  0.26198000  0.54847000  0.55613000  1.0
  C  C74  1  0.54803000  0.18973000  0.22259000  1.0
  N  N75  1  0.02896000  0.36938000  0.89694000  1.0
  N  N76  1  0.36933000  0.60195000  0.56341000  1.0
  N  N77  1  0.60163000  0.02890000  0.22999000  1.0
  N  N78  1  0.09128000  0.30211000  0.69380000  1.0
  N  N79  1  0.30215000  0.60674000  0.36026000  1.0
  N  N80  1  0.60662000  0.09102000  0.02681000  1.0
  O  O81  1  0.43813000  0.91678000  0.61825000  1.0
  O  O82  1  0.91651000  0.64536000  0.28507000  1.0
  O  O83  1  0.64529000  0.43820000  0.95171000  1.0
  O  O84  1  0.63598000  0.66634000  0.64673000  1.0
  O  O85  1  0.66605000  0.69793000  0.31327000  1.0
  O  O86  1  0.69787000  0.63608000  0.97990000  1.0
