# generated using pymatgen
data_CuH10C11N3
_symmetry_space_group_name_H-M   'P 1'
_cell_length_a   8.85949000
_cell_length_b   8.93588000
_cell_length_c   16.42246999
_cell_angle_alpha   74.22781860
_cell_angle_beta   82.31663430
_cell_angle_gamma   60.60420000
_symmetry_Int_Tables_number   1
_chemical_formula_structural   CuH10C11N3
_chemical_formula_sum   'Cu4 H40 C44 N12'
_cell_volume   1090.08478357
_cell_formula_units_Z   4
loop_
 _symmetry_equiv_pos_site_id
 _symmetry_equiv_pos_as_xyz
  1  'x, y, z'
loop_
 _atom_site_type_symbol
 _atom_site_label
 _atom_site_symmetry_multiplicity
 _atom_site_fract_x
 _atom_site_fract_y
 _atom_site_fract_z
 _atom_site_occupancy
  Cu  Cu0  1  0.65023000  0.97033000  0.56273000  1.0
  Cu  Cu1  1  0.15042000  0.53306000  0.43730000  1.0
  Cu  Cu2  1  0.71366000  0.54330000  0.06751000  1.0
  Cu  Cu3  1  0.21367000  0.61083000  0.93244000  1.0
  H  H4  1  0.97920000  0.87730000  0.64334000  1.0
  H  H5  1  0.47933000  0.52041000  0.35643000  1.0
  H  H6  1  0.15955000  0.01694000  0.65207000  1.0
  H  H7  1  0.65992000  0.66858000  0.34760000  1.0
  H  H8  1  0.03714000  0.34718000  0.59188000  1.0
  H  H9  1  0.53780000  0.93851000  0.40795000  1.0
  H  H10  1  0.73752000  0.52018000  0.53444000  1.0
  H  H11  1  0.23830000  0.05413000  0.46560000  1.0
  H  H12  1  0.57442000  0.35699000  0.52979000  1.0
  H  H13  1  0.07488000  0.88656000  0.47027000  1.0
  H  H14  1  0.78960000  0.66988000  0.71531000  1.0
  H  H15  1  0.28958000  0.38502000  0.28487000  1.0
  H  H16  1  0.73993000  0.62546000  0.87340000  1.0
  H  H17  1  0.24030000  0.49860000  0.12673000  1.0
  H  H18  1  0.47673000  0.85379000  0.92730000  1.0
  H  H19  1  0.97726000  0.78077000  0.07285000  1.0
  H  H20  1  0.27356000  0.12752000  0.82271000  1.0
  H  H21  1  0.77383000  0.95004000  0.17739000  1.0
  H  H22  1  0.34758000  0.15469000  0.66791000  1.0
  H  H23  1  0.84754000  0.82261000  0.33222000  1.0
  H  H24  1  0.92005000  0.45432000  0.21882000  1.0
  H  H25  1  0.42034000  0.67287000  0.78116000  1.0
  H  H26  1  0.95569000  0.28461000  0.36990000  1.0
  H  H27  1  0.45594000  0.65450000  0.63000000  1.0
  H  H28  1  0.78422000  0.11723000  0.42294000  1.0
  H  H29  1  0.28418000  0.54053000  0.57686000  1.0
  H  H30  1  0.58784000  0.13332000  0.32201000  1.0
  H  H31  1  0.08769000  0.45578000  0.67775000  1.0
  H  H32  1  0.57141000  0.30760000  0.17116000  1.0
  H  H33  1  0.07126000  0.47910000  0.82866000  1.0
  H  H34  1  0.40049000  0.70000000  0.17852000  1.0
  H  H35  1  0.90030000  0.87837000  0.82166000  1.0
  H  H36  1  0.16530000  0.99880000  0.19167000  1.0
  H  H37  1  0.66509000  0.19032000  0.80853000  1.0
  H  H38  1  0.19005000  0.26782000  0.10687000  1.0
  H  H39  1  0.68985000  0.37466000  0.89330000  1.0
  H  H40  1  0.45556000  0.22297000  0.01887000  1.0
  H  H41  1  0.95536000  0.24202000  0.98120000  1.0
  H  H42  1  0.68202000  0.91188000  0.01497000  1.0
  H  H43  1  0.18184000  0.92702000  0.98508000  1.0
  C  C44  1  0.32389000  0.30494000  0.47886000  1.0
  C  C45  1  0.82377000  0.78375000  0.52117000  1.0
  C  C46  1  0.92973000  0.01981000  0.62090000  1.0
  C  C47  1  0.43000000  0.64046000  0.37889000  1.0
  C  C48  1  0.02959000  0.09844000  0.62539000  1.0
  C  C49  1  0.52998000  0.72348000  0.37434000  1.0
  C  C50  1  0.96110000  0.28074000  0.59359000  1.0
  C  C51  1  0.46165000  0.87390000  0.40623000  1.0
  C  C52  1  0.79408000  0.37774000  0.55991000  1.0
  C  C53  1  0.29468000  0.93723000  0.44005000  1.0
  C  C54  1  0.70350000  0.28835000  0.55758000  1.0
  C  C55  1  0.20396000  0.84564000  0.44242000  1.0
  C  C56  1  0.67780000  0.76796000  0.74247000  1.0
  C  C57  1  0.17786000  0.51025000  0.25768000  1.0
  C  C58  1  0.64941000  0.74315000  0.82935000  1.0
  C  C59  1  0.14971000  0.57225000  0.17080000  1.0
  C  C60  1  0.50228000  0.87287000  0.85964000  1.0
  C  C61  1  0.00267000  0.73225000  0.14051000  1.0
  C  C62  1  0.39007000  0.02324000  0.80179000  1.0
  C  C63  1  0.89029000  0.82486000  0.19834000  1.0
  C  C64  1  0.42917000  0.03864000  0.71589000  1.0
  C  C65  1  0.92920000  0.75447000  0.28425000  1.0
  C  C66  1  0.40919000  0.55037000  0.99011000  1.0
  C  C67  1  0.90929000  0.54044000  0.00984000  1.0
  C  C68  1  0.85028000  0.37955000  0.24439000  1.0
  C  C69  1  0.35040000  0.62396000  0.75551000  1.0
  C  C70  1  0.86950000  0.28439000  0.32842000  1.0
  C  C71  1  0.36959000  0.61297000  0.67144000  1.0
  C  C72  1  0.77538000  0.19265000  0.35760000  1.0
  C  C73  1  0.27533000  0.55061000  0.64221000  1.0
  C  C74  1  0.66583000  0.20041000  0.30114000  1.0
  C  C75  1  0.16569000  0.50197000  0.69865000  1.0
  C  C76  1  0.65489000  0.29744000  0.21796000  1.0
  C  C77  1  0.15478000  0.51574000  0.78186000  1.0
  C  C78  1  0.40911000  0.81917000  0.14523000  1.0
  C  C79  1  0.90887000  0.96433000  0.85493000  1.0
  C  C80  1  0.27786000  0.98620000  0.15193000  1.0
  C  C81  1  0.77762000  0.13804000  0.84824000  1.0
  C  C82  1  0.29258000  0.13471000  0.10585000  1.0
  C  C83  1  0.79235000  0.24052000  0.89431000  1.0
  C  C84  1  0.43999000  0.10994000  0.05600000  1.0
  C  C85  1  0.93978000  0.16603000  0.94410000  1.0
  C  C86  1  0.56549000  0.93810000  0.05365000  1.0
  C  C87  1  0.06530000  0.99182000  0.94644000  1.0
  N  N88  1  0.44245000  0.16677000  0.50779000  1.0
  N  N89  1  0.94255000  0.67453000  0.49229000  1.0
  N  N90  1  0.76988000  0.11195000  0.58681000  1.0
  N  N91  1  0.27020000  0.69855000  0.41311000  1.0
  N  N92  1  0.57035000  0.91350000  0.68611000  1.0
  N  N93  1  0.07030000  0.59952000  0.31403000  1.0
  N  N94  1  0.53128000  0.52339000  0.02525000  1.0
  N  N95  1  0.03143000  0.54849000  0.97473000  1.0
  N  N96  1  0.74530000  0.38649000  0.18948000  1.0
  N  N97  1  0.24532000  0.57608000  0.81041000  1.0
  N  N98  1  0.55061000  0.79417000  0.09666000  1.0
  N  N99  1  0.05040000  0.89084000  0.90346000  1.0
