# generated using pymatgen
data_Co2H12C20NO8
_symmetry_space_group_name_H-M   'P 1'
_cell_length_a   9.63060000
_cell_length_b   9.98062000
_cell_length_c   11.01470000
_cell_angle_alpha   67.19320000
_cell_angle_beta   77.39680000
_cell_angle_gamma   66.58990000
_symmetry_Int_Tables_number   1
_chemical_formula_structural   Co2H12C20NO8
_chemical_formula_sum   'Co4 H24 C40 N2 O16'
_cell_volume   893.03367873
_cell_formula_units_Z   2
loop_
 _symmetry_equiv_pos_site_id
 _symmetry_equiv_pos_as_xyz
  1  'x, y, z'
loop_
 _atom_site_type_symbol
 _atom_site_label
 _atom_site_symmetry_multiplicity
 _atom_site_fract_x
 _atom_site_fract_y
 _atom_site_fract_z
 _atom_site_occupancy
  Co  Co0  1  0.12914000  0.04833000  0.89458000  1.0
  Co  Co1  1  0.87581000  0.94879000  0.09828000  1.0
  Co  Co2  1  0.91274000  0.03816000  0.74921000  1.0
  Co  Co3  1  0.08262000  0.96793000  0.24753000  1.0
  H  H4  1  0.08657000  0.51768000  0.89115000  1.0
  H  H5  1  0.90799000  0.48122000  0.10828000  1.0
  H  H6  1  0.54043000  0.17910000  0.90987000  1.0
  H  H7  1  0.45868000  0.82572000  0.08979000  1.0
  H  H8  1  0.47298000  0.65878000  0.82721000  1.0
  H  H9  1  0.51661000  0.34693000  0.17719000  1.0
  H  H10  1  0.88426000  0.49062000  0.84420000  1.0
  H  H11  1  0.10961000  0.51509000  0.16163000  1.0
  H  H12  1  0.98956000  0.66375000  0.64527000  1.0
  H  H13  1  0.01401000  0.33312000  0.35978000  1.0
  H  H14  1  0.70045000  0.65529000  0.40265000  1.0
  H  H15  1  0.30679000  0.34082000  0.59991000  1.0
  H  H16  1  0.59281000  0.48555000  0.60178000  1.0
  H  H17  1  0.40470000  0.51958000  0.40122000  1.0
  H  H18  1  0.85041000  0.13053000  0.48015000  1.0
  H  H19  1  0.14848000  0.86943000  0.51729000  1.0
  H  H20  1  0.68197000  0.10250000  0.35867000  1.0
  H  H21  1  0.31899000  0.89275000  0.64023000  1.0
  H  H22  1  0.44672000  0.92984000  0.73520000  1.0
  H  H23  1  0.55398000  0.06844000  0.26428000  1.0
  H  H24  1  0.62653000  0.95850000  0.84081000  1.0
  H  H25  1  0.37311000  0.04282000  0.15763000  1.0
  H  H26  1  0.83032000  0.18988000  0.89911000  1.0
  H  H27  1  0.17559000  0.82193000  0.09328000  1.0
  C  C28  1  0.16899000  0.76937000  0.83677000  1.0
  C  C29  1  0.82116000  0.23310000  0.16452000  1.0
  C  C30  1  0.26884000  0.60474000  0.85822000  1.0
  C  C31  1  0.72290000  0.39724000  0.14413000  1.0
  C  C32  1  0.20882000  0.48830000  0.88524000  1.0
  C  C33  1  0.78560000  0.51154000  0.11467000  1.0
  C  C34  1  0.30682000  0.33493000  0.90543000  1.0
  C  C35  1  0.69052000  0.66566000  0.09292000  1.0
  C  C36  1  0.46500000  0.29851000  0.89471000  1.0
  C  C37  1  0.53206000  0.70555000  0.10578000  1.0
  C  C38  1  0.52209000  0.41704000  0.86240000  1.0
  C  C39  1  0.47214000  0.58853000  0.14026000  1.0
  C  C40  1  0.42586000  0.56874000  0.84807000  1.0
  C  C41  1  0.56557000  0.43586000  0.15512000  1.0
  C  C42  1  0.25008000  0.20793000  0.92461000  1.0
  C  C43  1  0.75992000  0.78395000  0.06966000  1.0
  C  C44  1  0.73210000  0.48248000  0.73316000  1.0
  C  C45  1  0.26398000  0.52280000  0.27128000  1.0
  C  C46  1  0.84436000  0.52948000  0.74700000  1.0
  C  C47  1  0.15326000  0.47370000  0.25773000  1.0
  C  C48  1  0.90358000  0.62391000  0.63568000  1.0
  C  C49  1  0.09921000  0.37429000  0.36883000  1.0
  C  C50  1  0.85075000  0.67030000  0.51172000  1.0
  C  C51  1  0.15577000  0.32478000  0.49193000  1.0
  C  C52  1  0.73884000  0.61971000  0.50002000  1.0
  C  C53  1  0.26576000  0.37787000  0.50337000  1.0
  C  C54  1  0.67902000  0.52589000  0.61020000  1.0
  C  C55  1  0.32005000  0.47697000  0.39344000  1.0
  C  C56  1  0.90775000  0.77378000  0.39075000  1.0
  C  C57  1  0.10080000  0.21728000  0.61071000  1.0
  C  C58  1  0.76081000  0.08397000  0.53247000  1.0
  C  C59  1  0.23863000  0.91539000  0.46553000  1.0
  C  C60  1  0.66498000  0.06909000  0.46545000  1.0
  C  C61  1  0.33564000  0.92771000  0.53333000  1.0
  C  C62  1  0.55047000  0.00839000  0.53481000  1.0
  C  C63  1  0.45038000  0.98843000  0.46456000  1.0
  C  C64  1  0.53648000  0.97006000  0.67290000  1.0
  C  C65  1  0.46416000  0.02801000  0.32632000  1.0
  C  C66  1  0.63699000  0.98694000  0.73402000  1.0
  C  C67  1  0.36273000  0.01321000  0.26457000  1.0
  N  N68  1  0.74990000  0.04097000  0.66591000  1.0
  N  N69  1  0.24895000  0.96038000  0.33199000  1.0
  O  O70  1  0.67874000  0.38365000  0.84583000  1.0
  O  O71  1  0.31502000  0.62460000  0.15929000  1.0
  O  O72  1  0.34357000  0.07402000  0.93041000  1.0
  O  O73  1  0.67509000  0.91871000  0.07419000  1.0
  O  O74  1  0.10595000  0.23748000  0.92673000  1.0
  O  O75  1  0.90427000  0.74638000  0.05380000  1.0
  O  O76  1  0.21886000  0.84871000  0.87284000  1.0
  O  O77  1  0.76993000  0.15208000  0.13364000  1.0
  O  O78  1  0.04667000  0.82103000  0.78079000  1.0
  O  O79  1  0.94754000  0.18308000  0.21552000  1.0
  O  O80  1  0.01587000  0.81506000  0.39787000  1.0
  O  O81  1  0.98750000  0.18537000  0.60205000  1.0
  O  O82  1  0.84424000  0.81681000  0.28596000  1.0
  O  O83  1  0.17259000  0.16226000  0.71403000  1.0
  O  O84  1  0.89572000  0.08265000  0.90603000  1.0
  O  O85  1  0.10488000  0.92830000  0.08462000  1.0
