# generated using pymatgen
data_CdH12C15(SN3)2
_symmetry_space_group_name_H-M   'P 1'
_cell_length_a   8.04840000
_cell_length_b   10.66740000
_cell_length_c   10.87460000
_cell_angle_alpha   61.90550000
_cell_angle_beta   87.32840000
_cell_angle_gamma   89.95010000
_symmetry_Int_Tables_number   1
_chemical_formula_structural   CdH12C15(SN3)2
_chemical_formula_sum   'Cd2 H24 C30 S4 N12'
_cell_volume   822.50424527
_cell_formula_units_Z   2
loop_
 _symmetry_equiv_pos_site_id
 _symmetry_equiv_pos_as_xyz
  1  'x, y, z'
loop_
 _atom_site_type_symbol
 _atom_site_label
 _atom_site_symmetry_multiplicity
 _atom_site_fract_x
 _atom_site_fract_y
 _atom_site_fract_z
 _atom_site_occupancy
  Cd  Cd0  1  0.23877000  0.66067000  0.54948000  1.0
  Cd  Cd1  1  0.76123000  0.33933000  0.45051000  1.0
  H  H2  1  0.97115000  0.52011000  0.82456000  1.0
  H  H3  1  0.02885000  0.47990000  0.17544000  1.0
  H  H4  1  0.79353000  0.59189000  0.97661000  1.0
  H  H5  1  0.20647000  0.40811000  0.02338000  1.0
  H  H6  1  0.81191000  0.84444000  0.93100000  1.0
  H  H7  1  0.18809000  0.15556000  0.06900000  1.0
  H  H8  1  0.00285000  0.01512000  0.73787000  1.0
  H  H9  1  0.99715000  0.98488000  0.26213000  1.0
  H  H10  1  0.46867000  0.83980000  0.33291000  1.0
  H  H11  1  0.53133000  0.16020000  0.66709000  1.0
  H  H12  1  0.47538000  0.24189000  0.17847000  1.0
  H  H13  1  0.52462000  0.75811000  0.82153000  1.0
  H  H14  1  0.64421000  0.40467000  0.96403000  1.0
  H  H15  1  0.35579000  0.59533000  0.03597000  1.0
  H  H16  1  0.82963000  0.30451000  0.84343000  1.0
  H  H17  1  0.17037000  0.69549000  0.15657000  1.0
  H  H18  1  0.84361000  0.04441000  0.93546000  1.0
  H  H19  1  0.15639000  0.95559000  0.06454000  1.0
  H  H20  1  0.66916000  0.88084000  0.14752000  1.0
  H  H21  1  0.33084000  0.11916000  0.85248000  1.0
  H  H22  1  0.28848000  0.15488000  0.44203000  1.0
  H  H23  1  0.71152000  0.84512000  0.55797000  1.0
  H  H24  1  0.13314000  0.14008000  0.56545000  1.0
  H  H25  1  0.86685000  0.85992000  0.43455000  1.0
  C  C26  1  0.97431000  0.62878000  0.80937000  1.0
  C  C27  1  0.02569000  0.37122000  0.19062000  1.0
  C  C28  1  0.87629000  0.66918000  0.89324000  1.0
  C  C29  1  0.12371000  0.33083000  0.10676000  1.0
  C  C30  1  0.88732000  0.80953000  0.86758000  1.0
  C  C31  1  0.11268000  0.19047000  0.13242000  1.0
  C  C32  1  0.99462000  0.90469000  0.75950000  1.0
  C  C33  1  0.00538000  0.09531000  0.24050000  1.0
  C  C34  1  0.08841000  0.85650000  0.67921000  1.0
  C  C35  1  0.91159000  0.14351000  0.32079000  1.0
  C  C36  1  0.19975000  0.95381000  0.55852000  1.0
  C  C37  1  0.80025000  0.04619000  0.44148000  1.0
  C  C38  1  0.46404000  0.95391000  0.30206000  1.0
  C  C39  1  0.53596000  0.04610000  0.69794000  1.0
  C  C40  1  0.56176000  0.05109000  0.17721000  1.0
  C  C41  1  0.43824000  0.94890000  0.82279000  1.0
  C  C42  1  0.55634000  0.19957000  0.12454000  1.0
  C  C43  1  0.44367000  0.80044000  0.87547000  1.0
  C  C44  1  0.65185000  0.28994000  0.00548000  1.0
  C  C45  1  0.34816000  0.71006000  0.99452000  1.0
  C  C46  1  0.75527000  0.23407000  0.93706000  1.0
  C  C47  1  0.24473000  0.76593000  0.06294000  1.0
  C  C48  1  0.76169000  0.08714000  0.98859000  1.0
  C  C49  1  0.23831000  0.91286000  0.01141000  1.0
  C  C50  1  0.66501000  0.99584000  0.10727000  1.0
  C  C51  1  0.33499000  0.00416000  0.89273000  1.0
  C  C52  1  0.92262000  0.67231000  0.34988000  1.0
  C  C53  1  0.07737000  0.32769000  0.65012000  1.0
  C  C54  1  0.39447000  0.50707000  0.36362000  1.0
  C  C55  1  0.60554000  0.49293000  0.63638000  1.0
  S  S56  1  0.81712000  0.62007000  0.25786000  1.0
  S  S57  1  0.18288000  0.37993000  0.74214000  1.0
  S  S58  1  0.46046000  0.39005000  0.31715000  1.0
  S  S59  1  0.53954000  0.60994000  0.68286000  1.0
  N  N60  1  0.07783000  0.71952000  0.70580000  1.0
  N  N61  1  0.92217000  0.28049000  0.29420000  1.0
  N  N62  1  0.28373000  0.89973000  0.48698000  1.0
  N  N63  1  0.71627000  0.10027000  0.51302000  1.0
  N  N64  1  0.37511000  0.00030000  0.37380000  1.0
  N  N65  1  0.62489000  0.99970000  0.62620000  1.0
  N  N66  1  0.21122000  0.09098000  0.52555000  1.0
  N  N67  1  0.78878000  0.90902000  0.47445000  1.0
  N  N68  1  0.99689000  0.71476000  0.41527000  1.0
  N  N69  1  0.00311000  0.28524000  0.58473000  1.0
  N  N70  1  0.34834000  0.59448000  0.39414000  1.0
  N  N71  1  0.65166000  0.40551000  0.60587000  1.0
