# generated using pymatgen
data_AgH4C6N4ClO3
_symmetry_space_group_name_H-M   'P 1'
_cell_length_a   5.70173000
_cell_length_b   12.79840000
_cell_length_c   14.50700000
_cell_angle_alpha   112.66400000
_cell_angle_beta   101.30700000
_cell_angle_gamma   90.01230000
_symmetry_Int_Tables_number   1
_chemical_formula_structural   AgH4C6N4ClO3
_chemical_formula_sum   'Ag4 H16 C24 N16 Cl4 O12'
_cell_volume   954.54932664
_cell_formula_units_Z   4
loop_
 _symmetry_equiv_pos_site_id
 _symmetry_equiv_pos_as_xyz
  1  'x, y, z'
loop_
 _atom_site_type_symbol
 _atom_site_label
 _atom_site_symmetry_multiplicity
 _atom_site_fract_x
 _atom_site_fract_y
 _atom_site_fract_z
 _atom_site_occupancy
  Ag  Ag0  1  0.04092000  0.18545000  0.17788000  1.0
  Ag  Ag1  1  0.86211000  0.31448000  0.82221000  1.0
  Ag  Ag2  1  0.95909000  0.81455000  0.82212000  1.0
  Ag  Ag3  1  0.13789000  0.68551000  0.17778000  1.0
  H  H4  1  0.48334000  0.19125000  0.37998000  1.0
  H  H5  1  0.10221000  0.30833000  0.61983000  1.0
  H  H6  1  0.51667000  0.80876000  0.62003000  1.0
  H  H7  1  0.89782000  0.69167000  0.38017000  1.0
  H  H8  1  0.85073000  0.11970000  0.45772000  1.0
  H  H9  1  0.39278000  0.37958000  0.54195000  1.0
  H  H10  1  0.14928000  0.88031000  0.54228000  1.0
  H  H11  1  0.60723000  0.62043000  0.45806000  1.0
  H  H12  1  0.04928000  0.10433000  0.37366000  1.0
  H  H13  1  0.67509000  0.39570000  0.62636000  1.0
  H  H14  1  0.95073000  0.89567000  0.62633000  1.0
  H  H15  1  0.32492000  0.60431000  0.37364000  1.0
  H  H16  1  0.92749000  0.98036000  0.38277000  1.0
  H  H17  1  0.54346000  0.51920000  0.61667000  1.0
  H  H18  1  0.07252000  0.01965000  0.61723000  1.0
  H  H19  1  0.45654000  0.48081000  0.38333000  1.0
  C  C20  1  0.49868000  0.12146000  0.30986000  1.0
  C  C21  1  0.18771000  0.37816000  0.68988000  1.0
  C  C22  1  0.50133000  0.87855000  0.69015000  1.0
  C  C23  1  0.81229000  0.62184000  0.31012000  1.0
  C  C24  1  0.43322000  0.99897000  0.15293000  1.0
  C  C25  1  0.27902000  0.50077000  0.84674000  1.0
  C  C26  1  0.56678000  0.00104000  0.84707000  1.0
  C  C27  1  0.72096000  0.49923000  0.15326000  1.0
  C  C28  1  0.32337000  0.94219000  0.04925000  1.0
  C  C29  1  0.27368000  0.55761000  0.95050000  1.0
  C  C30  1  0.67663000  0.05782000  0.95075000  1.0
  C  C31  1  0.72631000  0.44238000  0.04949000  1.0
  C  C32  1  0.64983000  0.97682000  0.20381000  1.0
  C  C33  1  0.44449000  0.52296000  0.79574000  1.0
  C  C34  1  0.35016000  0.02319000  0.79619000  1.0
  C  C35  1  0.55549000  0.47704000  0.20426000  1.0
  C  C36  1  0.80707000  0.89400000  0.16770000  1.0
  C  C37  1  0.63765000  0.60583000  0.83179000  1.0
  C  C38  1  0.19293000  0.10601000  0.83230000  1.0
  C  C39  1  0.36233000  0.39416000  0.16820000  1.0
  C  C40  1  0.89163000  0.06526000  0.38463000  1.0
  C  C41  1  0.50617000  0.43435000  0.61503000  1.0
  C  C42  1  0.10838000  0.93474000  0.61537000  1.0
  C  C43  1  0.49384000  0.56566000  0.38497000  1.0
  N  N44  1  0.34192000  0.08919000  0.22056000  1.0
  N  N45  1  0.12026000  0.41047000  0.77922000  1.0
  N  N46  1  0.65808000  0.91082000  0.77945000  1.0
  N  N47  1  0.87973000  0.58952000  0.22077000  1.0
  N  N48  1  0.24004000  0.89574000  0.96211000  1.0
  N  N49  1  0.27847000  0.60403000  0.03775000  1.0
  N  N50  1  0.75994000  0.10426000  0.03789000  1.0
  N  N51  1  0.72152000  0.39597000  0.96224000  1.0
  N  N52  1  0.93912000  0.82568000  0.13640000  1.0
  N  N53  1  0.80108000  0.67413000  0.86313000  1.0
  N  N54  1  0.06086000  0.17433000  0.86361000  1.0
  N  N55  1  0.19890000  0.32587000  0.13687000  1.0
  N  N56  1  0.68578000  0.05544000  0.30312000  1.0
  N  N57  1  0.38135000  0.44426000  0.69649000  1.0
  N  N58  1  0.31423000  0.94457000  0.69688000  1.0
  N  N59  1  0.61865000  0.55574000  0.30351000  1.0
  Cl  Cl60  1  0.94568000  0.37158000  0.38862000  1.0
  Cl  Cl61  1  0.55650000  0.12825000  0.61144000  1.0
  Cl  Cl62  1  0.05432000  0.62841000  0.61137000  1.0
  Cl  Cl63  1  0.44351000  0.87175000  0.38856000  1.0
  O  O64  1  0.77841000  0.30689000  0.28537000  1.0
  O  O65  1  0.49212000  0.19288000  0.71467000  1.0
  O  O66  1  0.22158000  0.69311000  0.71463000  1.0
  O  O67  1  0.50788000  0.80712000  0.28533000  1.0
  O  O68  1  0.19166000  0.33402000  0.37392000  1.0
  O  O69  1  0.81718000  0.16586000  0.62617000  1.0
  O  O70  1  0.80834000  0.66596000  0.62607000  1.0
  O  O71  1  0.18282000  0.83415000  0.37383000  1.0
  O  O72  1  0.87588000  0.33287000  0.46485000  1.0
  O  O73  1  0.41079000  0.16698000  0.53522000  1.0
  O  O74  1  0.12411000  0.66713000  0.53515000  1.0
  O  O75  1  0.58922000  0.83300000  0.46477000  1.0
