# generated using pymatgen
data_Al2H31C38(N3O7)3
_symmetry_space_group_name_H-M   'P 1'
_cell_length_a   6.64934000
_cell_length_b   23.71340000
_cell_length_c   30.21830000
_cell_angle_alpha   90.50710000
_cell_angle_beta   90.71210000
_cell_angle_gamma   91.01600000
_symmetry_Int_Tables_number   1
_chemical_formula_structural   Al2H31C38(N3O7)3
_chemical_formula_sum   'Al4 H62 C76 N18 O42'
_cell_volume   4763.46186566
_cell_formula_units_Z   2
loop_
 _symmetry_equiv_pos_site_id
 _symmetry_equiv_pos_as_xyz
  1  'x, y, z'
loop_
 _atom_site_type_symbol
 _atom_site_label
 _atom_site_symmetry_multiplicity
 _atom_site_fract_x
 _atom_site_fract_y
 _atom_site_fract_z
 _atom_site_occupancy
  Al  Al0  1  0.77882000  0.74793000  0.74735000  1.0
  Al  Al1  1  0.19953000  0.24727000  0.25195000  1.0
  Al  Al2  1  0.27926000  0.74082000  0.74724000  1.0
  Al  Al3  1  0.69706000  0.25527000  0.24771000  1.0
  H  H4  1  0.31301000  0.66861000  0.87119000  1.0
  H  H5  1  0.68265000  0.33118000  0.12520000  1.0
  H  H6  1  0.22505000  0.05988000  0.41507000  1.0
  H  H7  1  0.58788000  0.97403000  0.61626000  1.0
  H  H8  1  0.72294000  0.10484000  0.06386000  1.0
  H  H9  1  0.23398000  0.87315000  0.93916000  1.0
  H  H10  1  0.18959000  0.98773000  0.94248000  1.0
  H  H11  1  0.72949000  0.00266000  0.05584000  1.0
  H  H12  1  0.61997000  0.68277000  0.59059000  1.0
  H  H13  1  0.26862000  0.30720000  0.34180000  1.0
  H  H14  1  0.31256000  0.40316000  0.97344000  1.0
  H  H15  1  0.77287000  0.61493000  0.97594000  1.0
  H  H16  1  0.80046000  0.22156000  0.34968000  1.0
  H  H17  1  0.92812000  0.19259000  0.39513000  1.0
  H  H18  1  0.32247000  0.74517000  0.62756000  1.0
  H  H19  1  0.24304000  0.76001000  0.57618000  1.0
  H  H20  1  0.93132000  0.08943000  0.45492000  1.0
  H  H21  1  0.00714000  0.10895000  0.40239000  1.0
  H  H22  1  0.35565000  0.84137000  0.49934000  1.0
  H  H23  1  0.42204000  0.77953000  0.52411000  1.0
  H  H24  1  0.14975000  0.14430000  0.32389000  1.0
  H  H25  1  0.70956000  0.88340000  0.70339000  1.0
  H  H26  1  0.32079000  0.99627000  0.39783000  1.0
  H  H27  1  0.81413000  0.96585000  0.58270000  1.0
  H  H28  1  0.16460000  0.91761000  0.46208000  1.0
  H  H29  1  0.87787000  0.06775000  0.53486000  1.0
  H  H30  1  0.75320000  0.18844000  0.16041000  1.0
  H  H31  1  0.12426000  0.80380000  0.89429000  1.0
  H  H32  1  0.03137000  0.03386000  0.12747000  1.0
  H  H33  1  0.74149000  0.00059000  0.91675000  1.0
  H  H34  1  0.69255000  0.60878000  0.51789000  1.0
  H  H35  1  0.54641000  0.58940000  0.55890000  1.0
  H  H36  1  0.32086000  0.40634000  0.47275000  1.0
  H  H37  1  0.40846000  0.35533000  0.43529000  1.0
  H  H38  1  0.96546000  0.11449000  0.15097000  1.0
  H  H39  1  0.10383000  0.12733000  0.19540000  1.0
  H  H40  1  0.92839000  0.93318000  0.83467000  1.0
  H  H41  1  0.86059000  0.87203000  0.80541000  1.0
  H  H42  1  0.99637000  0.04714000  0.98494000  1.0
  H  H43  1  0.04865000  0.06291000  0.03807000  1.0
  H  H44  1  0.85301000  0.91957000  0.96048000  1.0
  H  H45  1  0.93250000  0.94625000  0.00959000  1.0
  H  H46  1  0.29758000  0.51509000  0.56712000  1.0
  H  H47  1  0.58333000  0.46222000  0.37739000  1.0
  H  H48  1  0.45919000  0.58450000  0.64976000  1.0
  H  H49  1  0.37278000  0.63775000  0.68532000  1.0
  H  H50  1  0.63838000  0.38259000  0.30411000  1.0
  H  H51  1  0.49761000  0.38067000  0.34815000  1.0
  H  H52  1  0.60204000  0.57401000  0.84086000  1.0
  H  H53  1  0.40493000  0.41563000  0.16049000  1.0
  H  H54  1  0.69241000  0.50702000  0.92116000  1.0
  H  H55  1  0.54976000  0.56285000  0.91381000  1.0
  H  H56  1  0.46016000  0.43297000  0.08745000  1.0
  H  H57  1  0.32638000  0.49120000  0.08894000  1.0
  H  H58  1  0.31361000  0.58689000  0.96971000  1.0
  H  H59  1  0.70348000  0.41864000  0.03095000  1.0
  H  H60  1  0.22988000  0.49702000  0.90584000  1.0
  H  H61  1  0.70524000  0.55997000  0.06702000  1.0
  H  H62  1  0.54390000  0.67851000  0.77232000  1.0
  H  H63  1  0.42555000  0.31679000  0.22571000  1.0
  H  H64  1  0.05910000  0.81096000  0.76979000  1.0
  H  H65  1  0.91988000  0.18324000  0.27101000  1.0
  C  C66  1  0.51737000  0.80343000  0.68365000  1.0
  C  C67  1  0.46381000  0.18826000  0.31412000  1.0
  C  C68  1  0.53377000  0.81322000  0.80793000  1.0
  C  C69  1  0.43844000  0.17893000  0.19055000  1.0
  C  C70  1  0.02976000  0.68030000  0.80958000  1.0
  C  C71  1  0.95800000  0.31370000  0.18782000  1.0
  C  C72  1  0.00790000  0.68083000  0.68609000  1.0
  C  C73  1  0.95936000  0.32128000  0.31054000  1.0
  C  C74  1  0.84810000  0.64787000  0.61406000  1.0
  C  C75  1  0.12678000  0.35575000  0.37996000  1.0
  C  C76  1  0.83344000  0.60978000  0.57856000  1.0
  C  C77  1  0.13191000  0.38601000  0.42067000  1.0
  C  C78  1  0.99056000  0.57069000  0.57157000  1.0
  C  C79  1  0.96593000  0.42106000  0.43144000  1.0
  C  C80  1  0.16558000  0.57448000  0.59857000  1.0
  C  C81  1  0.80400000  0.42438000  0.40038000  1.0
  C  C82  1  0.17706000  0.61133000  0.63610000  1.0
  C  C83  1  0.79408000  0.39139000  0.36176000  1.0
  C  C84  1  0.01170000  0.64698000  0.64519000  1.0
  C  C85  1  0.95917000  0.35663000  0.35083000  1.0
  C  C86  1  0.96365000  0.45285000  0.47267000  1.0
  C  C87  1  0.97324000  0.52546000  0.53878000  1.0
  C  C88  1  0.84445000  0.60974000  0.85816000  1.0
  C  C89  1  0.15825000  0.38377000  0.14280000  1.0
  C  C90  1  0.84188000  0.57501000  0.89602000  1.0
  C  C91  1  0.16871000  0.42083000  0.10642000  1.0
  C  C92  1  0.01021000  0.57342000  0.92471000  1.0
  C  C93  1  0.00509000  0.42569000  0.07723000  1.0
  C  C94  1  0.17984000  0.60785000  0.91532000  1.0
  C  C95  1  0.83073000  0.39244000  0.08432000  1.0
  C  C96  1  0.18253000  0.64193000  0.87830000  1.0
  C  C97  1  0.81811000  0.35663000  0.12007000  1.0
  C  C98  1  0.01599000  0.64322000  0.84929000  1.0
  C  C99  1  0.98107000  0.35189000  0.14983000  1.0
  C  C100  1  0.13682000  0.48955000  0.96600000  1.0
  C  C101  1  0.88706000  0.51178000  0.03729000  1.0
  C  C102  1  0.13665000  0.45360000  0.00258000  1.0
  C  C103  1  0.88555000  0.54699000  0.00025000  1.0
  C  C104  1  0.01165000  0.46431000  0.03888000  1.0
  C  C105  1  0.01108000  0.53660000  0.96413000  1.0
  C  C106  1  0.67292000  0.15096000  0.37672000  1.0
  C  C107  1  0.44359000  0.81661000  0.60228000  1.0
  C  C108  1  0.70708000  0.10983000  0.41047000  1.0
  C  C109  1  0.46412000  0.84939000  0.56319000  1.0
  C  C110  1  0.54727000  0.07474000  0.42456000  1.0
  C  C111  1  0.51419000  0.90748000  0.56760000  1.0
  C  C112  1  0.35891000  0.08055000  0.40219000  1.0
  C  C113  1  0.57083000  0.92883000  0.61013000  1.0
  C  C114  1  0.33318000  0.11448000  0.36573000  1.0
  C  C115  1  0.59577000  0.89340000  0.64604000  1.0
  C  C116  1  0.49010000  0.15147000  0.35163000  1.0
  C  C117  1  0.52268000  0.83705000  0.64295000  1.0
  C  C118  1  0.42350000  0.98319000  0.45719000  1.0
  C  C119  1  0.67691000  0.98965000  0.52939000  1.0
  C  C120  1  0.39649000  0.94636000  0.49272000  1.0
  C  C121  1  0.67983000  0.03261000  0.49785000  1.0
  C  C122  1  0.52666000  0.94672000  0.52990000  1.0
  C  C123  1  0.55593000  0.03100000  0.45943000  1.0
  C  C124  1  0.60211000  0.13746000  0.12374000  1.0
  C  C125  1  0.36240000  0.84467000  0.87781000  1.0
  C  C126  1  0.59558000  0.10338000  0.08615000  1.0
  C  C127  1  0.35130000  0.87995000  0.91470000  1.0
  C  C128  1  0.42800000  0.06825000  0.07604000  1.0
  C  C129  1  0.49658000  0.92300000  0.92216000  1.0
  C  C130  1  0.26504000  0.06961000  0.10496000  1.0
  C  C131  1  0.65039000  0.93004000  0.89164000  1.0
  C  C132  1  0.26282000  0.10591000  0.14206000  1.0
  C  C133  1  0.66976000  0.89360000  0.85474000  1.0
  C  C134  1  0.43434000  0.14012000  0.15257000  1.0
  C  C135  1  0.52171000  0.85037000  0.84746000  1.0
  C  C136  1  0.27763000  0.02591000  0.00485000  1.0
  C  C137  1  0.64135000  0.96492000  0.99351000  1.0
  C  C138  1  0.30745000  0.99091000  0.96796000  1.0
  C  C139  1  0.61184000  0.00013000  0.03033000  1.0
  C  C140  1  0.48411000  0.96075000  0.96132000  1.0
  C  C141  1  0.43548000  0.03044000  0.03697000  1.0
  N  N142  1  0.13828000  0.49488000  0.53011000  1.0
  N  N143  1  0.78509000  0.47004000  0.49031000  1.0
  N  N144  1  0.13522000  0.45834000  0.49720000  1.0
  N  N145  1  0.78970000  0.50651000  0.52289000  1.0
  N  N146  1  0.82671000  0.18855000  0.36977000  1.0
  N  N147  1  0.36114000  0.76223000  0.59797000  1.0
  N  N148  1  0.90309000  0.11087000  0.42666000  1.0
  N  N149  1  0.44213000  0.82190000  0.52252000  1.0
  N  N150  1  0.66152000  0.61638000  0.55029000  1.0
  N  N151  1  0.29479000  0.37836000  0.44750000  1.0
  N  N152  1  0.09083000  0.10167000  0.16818000  1.0
  N  N153  1  0.82229000  0.90402000  0.82582000  1.0
  N  N154  1  0.10566000  0.05871000  0.00714000  1.0
  N  N155  1  0.81267000  0.93167000  0.99138000  1.0
  N  N156  1  0.34563000  0.60779000  0.66170000  1.0
  N  N157  1  0.62161000  0.40018000  0.33472000  1.0
  N  N158  1  0.66751000  0.54057000  0.90110000  1.0
  N  N159  1  0.34872000  0.45363000  0.10412000  1.0
  O  O160  1  0.37193000  0.80101000  0.78670000  1.0
  O  O161  1  0.61165000  0.19872000  0.20388000  1.0
  O  O162  1  0.67412000  0.80551000  0.70924000  1.0
  O  O163  1  0.28441000  0.19620000  0.29771000  1.0
  O  O164  1  0.84597000  0.70452000  0.69749000  1.0
  O  O165  1  0.12711000  0.29776000  0.30009000  1.0
  O  O166  1  0.70929000  0.79655000  0.79686000  1.0
  O  O167  1  0.27397000  0.19197000  0.20921000  1.0
  O  O168  1  0.86567000  0.69280000  0.79052000  1.0
  O  O169  1  0.11681000  0.29745000  0.20738000  1.0
  O  O170  1  0.35735000  0.77595000  0.69291000  1.0
  O  O171  1  0.61934000  0.21241000  0.29749000  1.0
  O  O172  1  0.53129000  0.70797000  0.75030000  1.0
  O  O173  1  0.44543000  0.28733000  0.24765000  1.0
  O  O174  1  0.20556000  0.69637000  0.79847000  1.0
  O  O175  1  0.77955000  0.29892000  0.19883000  1.0
  O  O176  1  0.17005000  0.68357000  0.71005000  1.0
  O  O177  1  0.79850000  0.31401000  0.28760000  1.0
  O  O178  1  0.03675000  0.78083000  0.74823000  1.0
  O  O179  1  0.94058000  0.21554000  0.25198000  1.0
  O  O180  1  0.70474000  0.68741000  0.61770000  1.0
  O  O181  1  0.29474000  0.32494000  0.37176000  1.0
  O  O182  1  0.25486000  0.40707000  0.00288000  1.0
  O  O183  1  0.75676000  0.59178000  0.00233000  1.0
  O  O184  1  0.15182000  0.11151000  0.34409000  1.0
  O  O185  1  0.67489000  0.91555000  0.68450000  1.0
  O  O186  1  0.30533000  0.96768000  0.42088000  1.0
  O  O187  1  0.83079000  0.99530000  0.56019000  1.0
  O  O188  1  0.23469000  0.90915000  0.48991000  1.0
  O  O189  1  0.80912000  0.07743000  0.50706000  1.0
  O  O190  1  0.77249000  0.16939000  0.13113000  1.0
  O  O191  1  0.22426000  0.80143000  0.87111000  1.0
  O  O192  1  0.10237000  0.03312000  0.09902000  1.0
  O  O193  1  0.79269000  0.97347000  0.89526000  1.0
  O  O194  1  0.33093000  0.54208000  0.59279000  1.0
  O  O195  1  0.65554000  0.46256000  0.40632000  1.0
  O  O196  1  0.68103000  0.60694000  0.83065000  1.0
  O  O197  1  0.32041000  0.38349000  0.17082000  1.0
  O  O198  1  0.34723000  0.60851000  0.94324000  1.0
  O  O199  1  0.66768000  0.39407000  0.05555000  1.0
  O  O200  1  0.26250000  0.47468000  0.93195000  1.0
  O  O201  1  0.76714000  0.52359000  0.07265000  1.0
