# generated using pymatgen
data_CuH13C18N3O4
_symmetry_space_group_name_H-M   'P 1'
_cell_length_a   9.95372000
_cell_length_b   9.95371000
_cell_length_c   19.91520000
_cell_angle_alpha   79.64740000
_cell_angle_beta   79.64740000
_cell_angle_gamma   71.29390000
_symmetry_Int_Tables_number   1
_chemical_formula_structural   CuH13C18N3O4
_chemical_formula_sum   'Cu4 H52 C72 N12 O16'
_cell_volume   1822.62794680
_cell_formula_units_Z   4
loop_
 _symmetry_equiv_pos_site_id
 _symmetry_equiv_pos_as_xyz
  1  'x, y, z'
loop_
 _atom_site_type_symbol
 _atom_site_label
 _atom_site_symmetry_multiplicity
 _atom_site_fract_x
 _atom_site_fract_y
 _atom_site_fract_z
 _atom_site_occupancy
  Cu  Cu0  1  0.41877000  0.92072000  0.93780000  1.0
  Cu  Cu1  1  0.07928000  0.58123000  0.56220000  1.0
  Cu  Cu2  1  0.58123000  0.07928000  0.06220000  1.0
  Cu  Cu3  1  0.92072000  0.41877000  0.43780000  1.0
  H  H4  1  0.35887000  0.47721000  0.68302000  1.0
  H  H5  1  0.52279000  0.64113000  0.81698000  1.0
  H  H6  1  0.64113000  0.52279000  0.31698000  1.0
  H  H7  1  0.47720000  0.35887000  0.18302000  1.0
  H  H8  1  0.21774000  0.37129000  0.77521000  1.0
  H  H9  1  0.62871000  0.78226000  0.72479000  1.0
  H  H10  1  0.78226000  0.62871000  0.22479000  1.0
  H  H11  1  0.37129000  0.21774000  0.27521000  1.0
  H  H12  1  0.47647000  0.61789000  0.60601000  1.0
  H  H13  1  0.38211000  0.52353000  0.89399000  1.0
  H  H14  1  0.52353000  0.38212000  0.39399000  1.0
  H  H15  1  0.61788000  0.47647000  0.10601000  1.0
  H  H16  1  0.98617000  0.90598000  0.94477000  1.0
  H  H17  1  0.09402000  0.01383000  0.55523000  1.0
  H  H18  1  0.01383000  0.09402000  0.05523000  1.0
  H  H19  1  0.90598000  0.98617000  0.44477000  1.0
  H  H20  1  0.67504000  0.17201000  0.73451000  1.0
  H  H21  1  0.82799000  0.32495000  0.76549000  1.0
  H  H22  1  0.32495000  0.82800000  0.26549000  1.0
  H  H23  1  0.17200000  0.67505000  0.23451000  1.0
  H  H24  1  0.21602000  0.18362000  0.87706000  1.0
  H  H25  1  0.81638000  0.78398000  0.62294000  1.0
  H  H26  1  0.78398000  0.81638000  0.12294000  1.0
  H  H27  1  0.18362000  0.21602000  0.37706000  1.0
  H  H28  1  0.66073000  0.15722000  0.63355000  1.0
  H  H29  1  0.84278000  0.33927000  0.86644000  1.0
  H  H30  1  0.33927000  0.84278000  0.36645000  1.0
  H  H31  1  0.15722000  0.66073000  0.13355000  1.0
  H  H32  1  0.66160000  0.62524000  0.50498000  1.0
  H  H33  1  0.37476000  0.33840000  0.99502000  1.0
  H  H34  1  0.33840000  0.37476000  0.49502000  1.0
  H  H35  1  0.62524000  0.66160000  0.00498000  1.0
  H  H36  1  0.65077000  0.99153000  0.83379000  1.0
  H  H37  1  0.00847000  0.34923000  0.66621000  1.0
  H  H38  1  0.34923000  0.00847000  0.16621000  1.0
  H  H39  1  0.99153000  0.65077000  0.33379000  1.0
  H  H40  1  0.84248000  0.18645000  0.53413000  1.0
  H  H41  1  0.81355000  0.15752000  0.96587000  1.0
  H  H42  1  0.15752000  0.81355000  0.46587000  1.0
  H  H43  1  0.18645000  0.84248000  0.03413000  1.0
  H  H44  1  0.23471000  0.64872000  0.78728000  1.0
  H  H45  1  0.35128000  0.76529000  0.71272000  1.0
  H  H46  1  0.76529000  0.35128000  0.21272000  1.0
  H  H47  1  0.64872000  0.23471000  0.28728000  1.0
  H  H48  1  0.79054000  0.67437000  0.85020000  1.0
  H  H49  1  0.32563000  0.20946000  0.64980000  1.0
  H  H50  1  0.20946000  0.32563000  0.14980000  1.0
  H  H51  1  0.67437000  0.79054000  0.35020000  1.0
  H  H52  1  0.02236000  0.57974000  0.77556000  1.0
  H  H53  1  0.42026000  0.97764000  0.72444000  1.0
  H  H54  1  0.97764000  0.42026000  0.22444000  1.0
  H  H55  1  0.57974000  0.02236000  0.27556000  1.0
  C  C56  1  0.44642000  0.28605000  0.74327000  1.0
  C  C57  1  0.71395000  0.55358000  0.75673000  1.0
  C  C58  1  0.55358000  0.71394000  0.25673000  1.0
  C  C59  1  0.28605000  0.44642000  0.24327000  1.0
  C  C60  1  0.55486000  0.38721000  0.63140000  1.0
  C  C61  1  0.61279000  0.44514000  0.86860000  1.0
  C  C62  1  0.44514000  0.61279000  0.36860000  1.0
  C  C63  1  0.38721000  0.55486000  0.13140000  1.0
  C  C64  1  0.31666000  0.28913000  0.78663000  1.0
  C  C65  1  0.71087000  0.68334000  0.71337000  1.0
  C  C66  1  0.68334000  0.71087000  0.21337000  1.0
  C  C67  1  0.28913000  0.31666000  0.28663000  1.0
  C  C68  1  0.55604000  0.51948000  0.59210000  1.0
  C  C69  1  0.48051000  0.44396000  0.90790000  1.0
  C  C70  1  0.44396000  0.48052000  0.40790000  1.0
  C  C71  1  0.51948000  0.55604000  0.09210000  1.0
  C  C72  1  0.87545000  0.79379000  0.90232000  1.0
  C  C73  1  0.20621000  0.12455000  0.59768000  1.0
  C  C74  1  0.12455000  0.20621000  0.09768000  1.0
  C  C75  1  0.79379000  0.87545000  0.40232000  1.0
  C  C76  1  0.99474000  0.83366000  0.90809000  1.0
  C  C77  1  0.16634000  0.00526000  0.59191000  1.0
  C  C78  1  0.00526000  0.16634000  0.09191000  1.0
  C  C79  1  0.83367000  0.99474000  0.40809000  1.0
  C  C80  1  0.56959000  0.17808000  0.76268000  1.0
  C  C81  1  0.82192000  0.43041000  0.73732000  1.0
  C  C82  1  0.43041000  0.82192000  0.23732000  1.0
  C  C83  1  0.17808000  0.56959000  0.26268000  1.0
  C  C84  1  0.31457000  0.18544000  0.84315000  1.0
  C  C85  1  0.81456000  0.68543000  0.65685000  1.0
  C  C86  1  0.68543000  0.81456000  0.15685000  1.0
  C  C87  1  0.18544000  0.31457000  0.34315000  1.0
  C  C88  1  0.65924000  0.26434000  0.60898000  1.0
  C  C89  1  0.73566000  0.34076000  0.89102000  1.0
  C  C90  1  0.34076000  0.73566000  0.39102000  1.0
  C  C91  1  0.26434000  0.65924000  0.10898000  1.0
  C  C92  1  0.12441000  0.78228000  0.86637000  1.0
  C  C93  1  0.21772000  0.87559000  0.63363000  1.0
  C  C94  1  0.87559000  0.21772000  0.13363000  1.0
  C  C95  1  0.78228000  0.12441000  0.36637000  1.0
  C  C96  1  0.73468000  0.85422000  0.94484000  1.0
  C  C97  1  0.14578000  0.26533000  0.55516000  1.0
  C  C98  1  0.26533000  0.14578000  0.05516000  1.0
  C  C99  1  0.85422000  0.73467000  0.44484000  1.0
  C  C100  1  0.25220000  0.82688000  0.87182000  1.0
  C  C101  1  0.17312000  0.74779000  0.62818000  1.0
  C  C102  1  0.74780000  0.17312000  0.12818000  1.0
  C  C103  1  0.82688000  0.25220000  0.37182000  1.0
  C  C104  1  0.65929000  0.52434000  0.53604000  1.0
  C  C105  1  0.47566000  0.34071000  0.96396000  1.0
  C  C106  1  0.34071000  0.47566000  0.46396000  1.0
  C  C107  1  0.52434000  0.65929000  0.03604000  1.0
  C  C108  1  0.55734000  0.07803000  0.81952000  1.0
  C  C109  1  0.92197000  0.44266000  0.68048000  1.0
  C  C110  1  0.44266000  0.92197000  0.18048000  1.0
  C  C111  1  0.07803000  0.55734000  0.31952000  1.0
  C  C112  1  0.76022000  0.27930000  0.55250000  1.0
  C  C113  1  0.72070000  0.23978000  0.94750000  1.0
  C  C114  1  0.23978000  0.72070000  0.44750000  1.0
  C  C115  1  0.27930000  0.76022000  0.05250000  1.0
  C  C116  1  0.13415000  0.68832000  0.81981000  1.0
  C  C117  1  0.31168000  0.86585000  0.68019000  1.0
  C  C118  1  0.86585000  0.31168000  0.18019000  1.0
  C  C119  1  0.68832000  0.13415000  0.31981000  1.0
  C  C120  1  0.88572000  0.70178000  0.85460000  1.0
  C  C121  1  0.29822000  0.11428000  0.64540000  1.0
  C  C122  1  0.11428000  0.29822000  0.14540000  1.0
  C  C123  1  0.70178000  0.88572000  0.35460000  1.0
  C  C124  1  0.01492000  0.64881000  0.81368000  1.0
  C  C125  1  0.35119000  0.98508000  0.68632000  1.0
  C  C126  1  0.98508000  0.35119000  0.18632000  1.0
  C  C127  1  0.64881000  0.01492000  0.31368000  1.0
  N  N128  1  0.43263000  0.07877000  0.85947000  1.0
  N  N129  1  0.92123000  0.56737000  0.64053000  1.0
  N  N130  1  0.56737000  0.92123000  0.14053000  1.0
  N  N131  1  0.07877000  0.43263000  0.35947000  1.0
  N  N132  1  0.76280000  0.40703000  0.51645000  1.0
  N  N133  1  0.59297000  0.23720000  0.98355000  1.0
  N  N134  1  0.23720000  0.59297000  0.48355000  1.0
  N  N135  1  0.40703000  0.76280000  0.01645000  1.0
  N  N136  1  0.44801000  0.38741000  0.68651000  1.0
  N  N137  1  0.61259000  0.55199000  0.81349000  1.0
  N  N138  1  0.55200000  0.61259000  0.31349000  1.0
  N  N139  1  0.38741000  0.44801000  0.18650000  1.0
  O  O140  1  0.23097000  0.91823000  0.91378000  1.0
  O  O141  1  0.08177000  0.76903000  0.58622000  1.0
  O  O142  1  0.76903000  0.08177000  0.08622000  1.0
  O  O143  1  0.91823000  0.23097000  0.41378000  1.0
  O  O144  1  0.37127000  0.77387000  0.83722000  1.0
  O  O145  1  0.22613000  0.62873000  0.66278000  1.0
  O  O146  1  0.62873000  0.22613000  0.16278000  1.0
  O  O147  1  0.77387000  0.37127000  0.33722000  1.0
  O  O148  1  0.73086000  0.91336000  0.99590000  1.0
  O  O149  1  0.08664000  0.26914000  0.50411000  1.0
  O  O150  1  0.26914000  0.08664000  0.00410000  1.0
  O  O151  1  0.91336000  0.73086000  0.49589000  1.0
  O  O152  1  0.62751000  0.83860000  0.92243000  1.0
  O  O153  1  0.16140000  0.37249000  0.57757000  1.0
  O  O154  1  0.37248000  0.16140000  0.07757000  1.0
  O  O155  1  0.83860000  0.62752000  0.42243000  1.0
