# generated using pymatgen
data_ZnH6C11O6
_symmetry_space_group_name_H-M   'P 1'
_cell_length_a   8.91267000
_cell_length_b   13.61090000
_cell_length_c   16.96440000
_cell_angle_alpha   89.89330000
_cell_angle_beta   89.41320000
_cell_angle_gamma   87.06470000
_symmetry_Int_Tables_number   1
_chemical_formula_structural   ZnH6C11O6
_chemical_formula_sum   'Zn4 H24 C44 O24'
_cell_volume   2055.13254859
_cell_formula_units_Z   4
loop_
 _symmetry_equiv_pos_site_id
 _symmetry_equiv_pos_as_xyz
  1  'x, y, z'
loop_
 _atom_site_type_symbol
 _atom_site_label
 _atom_site_symmetry_multiplicity
 _atom_site_fract_x
 _atom_site_fract_y
 _atom_site_fract_z
 _atom_site_occupancy
  Zn  Zn0  1  0.35304000  0.01330000  0.50483000  1.0
  Zn  Zn1  1  0.65308000  0.99277000  0.49950000  1.0
  Zn  Zn2  1  0.64838000  0.49949000  0.00151000  1.0
  Zn  Zn3  1  0.34637000  0.50480000  0.00157000  1.0
  H  H4  1  0.69772000  0.70919000  0.16169000  1.0
  H  H5  1  0.12950000  0.65965000  0.25057000  1.0
  H  H6  1  0.10137000  0.76712000  0.19113000  1.0
  H  H7  1  0.13894000  0.87349000  0.30842000  1.0
  H  H8  1  0.16396000  0.76736000  0.36906000  1.0
  H  H9  1  0.71130000  0.27900000  0.85232000  1.0
  H  H10  1  0.16654000  0.37091000  0.73672000  1.0
  H  H11  1  0.12302000  0.26581000  0.79435000  1.0
  H  H12  1  0.18719000  0.15510000  0.68208000  1.0
  H  H13  1  0.22618000  0.25761000  0.62098000  1.0
  H  H14  1  0.76510000  0.29039000  0.20422000  1.0
  H  H15  1  0.17978000  0.26564000  0.14130000  1.0
  H  H16  1  0.17233000  0.37199000  0.20270000  1.0
  H  H17  1  0.14028000  0.26348000  0.32246000  1.0
  H  H18  1  0.15310000  0.15778000  0.26145000  1.0
  H  H19  1  0.28594000  0.69362000  0.82623000  1.0
  H  H20  1  0.87510000  0.65756000  0.75620000  1.0
  H  H21  1  0.87034000  0.76299000  0.81867000  1.0
  H  H22  1  0.82426000  0.87254000  0.70294000  1.0
  H  H23  1  0.83293000  0.76907000  0.63907000  1.0
  H  H24  1  0.80192000  0.70235000  0.34115000  1.0
  H  H25  1  0.81724000  0.11359000  0.64391000  1.0
  H  H26  1  0.79489000  0.05455000  0.28318000  1.0
  H  H27  1  0.22717000  0.72229000  0.61257000  1.0
  C  C28  1  0.46227000  0.87868000  0.61233000  1.0
  C  C29  1  0.51964000  0.87931000  0.38747000  1.0
  C  C30  1  0.47575000  0.13086000  0.39312000  1.0
  C  C31  1  0.56146000  0.12101000  0.61796000  1.0
  C  C32  1  0.54209000  0.37628000  0.11286000  1.0
  C  C33  1  0.44777000  0.63358000  0.10858000  1.0
  C  C34  1  0.54278000  0.62502000  0.88988000  1.0
  C  C35  1  0.45477000  0.37435000  0.89455000  1.0
  C  C36  1  0.45856000  0.70180000  0.17687000  1.0
  C  C37  1  0.50019000  0.82129000  0.31454000  1.0
  C  C38  1  0.33859000  0.73494000  0.22440000  1.0
  C  C39  1  0.62246000  0.79084000  0.26480000  1.0
  C  C40  1  0.35936000  0.79332000  0.29098000  1.0
  C  C41  1  0.60155000  0.73267000  0.19844000  1.0
  C  C42  1  0.17065000  0.73270000  0.23771000  1.0
  C  C43  1  0.19384000  0.79955000  0.31208000  1.0
  C  C44  1  0.47655000  0.30537000  0.82683000  1.0
  C  C45  1  0.54841000  0.18117000  0.69138000  1.0
  C  C46  1  0.36699000  0.28109000  0.77370000  1.0
  C  C47  1  0.66202000  0.20340000  0.74725000  1.0
  C  C48  1  0.40335000  0.22049000  0.70890000  1.0
  C  C49  1  0.62181000  0.26369000  0.81176000  1.0
  C  C50  1  0.20336000  0.29499000  0.75199000  1.0
  C  C51  1  0.24275000  0.22521000  0.67978000  1.0
  C  C52  1  0.52817000  0.30915000  0.18168000  1.0
  C  C53  1  0.49362000  0.18980000  0.32040000  1.0
  C  C54  1  0.38738000  0.28383000  0.20958000  1.0
  C  C55  1  0.63832000  0.21298000  0.29141000  1.0
  C  C56  1  0.37114000  0.22571000  0.27681000  1.0
  C  C57  1  0.65340000  0.27147000  0.22404000  1.0
  C  C58  1  0.21936000  0.29609000  0.19680000  1.0
  C  C59  1  0.20130000  0.22916000  0.27227000  1.0
  C  C60  1  0.52746000  0.68998000  0.81924000  1.0
  C  C61  1  0.47826000  0.81221000  0.68160000  1.0
  C  C62  1  0.64633000  0.72494000  0.77551000  1.0
  C  C63  1  0.35628000  0.77703000  0.72601000  1.0
  C  C64  1  0.62139000  0.78490000  0.70926000  1.0
  C  C65  1  0.38182000  0.71856000  0.79283000  1.0
  C  C66  1  0.81555000  0.72852000  0.76898000  1.0
  C  C67  1  0.78719000  0.79751000  0.69528000  1.0
  C  C68  1  0.77898000  0.82111000  0.28089000  1.0
  C  C69  1  0.82837000  0.17049000  0.74886000  1.0
  C  C70  1  0.78344000  0.18527000  0.33312000  1.0
  C  C71  1  0.19452000  0.80062000  0.70612000  1.0
  O  O72  1  0.33272000  0.91622000  0.59308000  1.0
  O  O73  1  0.58565000  0.89437000  0.57669000  1.0
  O  O74  1  0.65348000  0.89769000  0.40843000  1.0
  O  O75  1  0.39917000  0.90664000  0.42398000  1.0
  O  O76  1  0.59796000  0.10160000  0.42630000  1.0
  O  O77  1  0.34337000  0.11223000  0.41754000  1.0
  O  O78  1  0.43887000  0.10644000  0.58377000  1.0
  O  O79  1  0.68977000  0.08577000  0.59061000  1.0
  O  O80  1  0.67225000  0.40190000  0.08977000  1.0
  O  O81  1  0.41711000  0.40517000  0.08265000  1.0
  O  O82  1  0.31819000  0.60718000  0.08696000  1.0
  O  O83  1  0.57303000  0.60475000  0.07757000  1.0
  O  O84  1  0.41970000  0.60307000  0.92262000  1.0
  O  O85  1  0.67441000  0.59477000  0.91262000  1.0
  O  O86  1  0.57539000  0.39864000  0.92727000  1.0
  O  O87  1  0.32195000  0.40637000  0.91527000  1.0
  O  O88  1  0.86480000  0.75510000  0.32365000  1.0
  O  O89  1  0.83315000  0.89470000  0.25435000  1.0
  O  O90  1  0.89355000  0.12783000  0.68549000  1.0
  O  O91  1  0.90330000  0.18526000  0.80747000  1.0
  O  O92  1  0.85450000  0.09724000  0.31570000  1.0
  O  O93  1  0.84436000  0.24321000  0.37532000  1.0
  O  O94  1  0.14282000  0.75641000  0.63988000  1.0
  O  O95  1  0.10889000  0.84955000  0.74806000  1.0
