# generated using pymatgen
data_CdH8C10(N4Cl)2
_symmetry_space_group_name_H-M   'P 1'
_cell_length_a   6.98060000
_cell_length_b   8.57676000
_cell_length_c   12.05070000
_cell_angle_alpha   90.89770000
_cell_angle_beta   96.42650000
_cell_angle_gamma   96.89950000
_symmetry_Int_Tables_number   1
_chemical_formula_structural   CdH8C10(N4Cl)2
_chemical_formula_sum   'Cd2 H16 C20 N16 Cl4'
_cell_volume   711.45109791
_cell_formula_units_Z   2
loop_
 _symmetry_equiv_pos_site_id
 _symmetry_equiv_pos_as_xyz
  1  'x, y, z'
loop_
 _atom_site_type_symbol
 _atom_site_label
 _atom_site_symmetry_multiplicity
 _atom_site_fract_x
 _atom_site_fract_y
 _atom_site_fract_z
 _atom_site_occupancy
  Cd  Cd0  1  0.24574000  0.02812000  0.94042000  1.0
  Cd  Cd1  1  0.75426000  0.97188000  0.05958000  1.0
  H  H2  1  0.19757000  0.27293000  0.50403000  1.0
  H  H3  1  0.80243000  0.72707000  0.49597000  1.0
  H  H4  1  0.22236000  0.11432000  0.41273000  1.0
  H  H5  1  0.77764000  0.88567000  0.58727000  1.0
  H  H6  1  0.13839000  0.40595000  0.97259000  1.0
  H  H7  1  0.86161000  0.59405000  0.02741000  1.0
  H  H8  1  0.10095000  0.64635000  0.85312000  1.0
  H  H9  1  0.89904000  0.35366000  0.14688000  1.0
  H  H10  1  0.12577000  0.61322000  0.64707000  1.0
  H  H11  1  0.87423000  0.38678000  0.35293000  1.0
  H  H12  1  0.41196000  0.48493000  0.40074000  1.0
  H  H13  1  0.58803000  0.51506000  0.59927000  1.0
  H  H14  1  0.34911000  0.59980000  0.20918000  1.0
  H  H15  1  0.65088000  0.40019000  0.79082000  1.0
  H  H16  1  0.26484000  0.87884000  0.20254000  1.0
  H  H17  1  0.73516000  0.12115000  0.79746000  1.0
  C  C18  1  0.28391000  0.92076000  0.57257000  1.0
  C  C19  1  0.71610000  0.07924000  0.42743000  1.0
  C  C20  1  0.22606000  0.11065000  0.68206000  1.0
  C  C21  1  0.77394000  0.88936000  0.31793000  1.0
  C  C22  1  0.18404000  0.25926000  0.72675000  1.0
  C  C23  1  0.81597000  0.74075000  0.27325000  1.0
  C  C24  1  0.14416000  0.40315000  0.88243000  1.0
  C  C25  1  0.85583000  0.59685000  0.11757000  1.0
  C  C26  1  0.12400000  0.53399000  0.81699000  1.0
  C  C27  1  0.87599000  0.46601000  0.18301000  1.0
  C  C28  1  0.13566000  0.51521000  0.70293000  1.0
  C  C29  1  0.86433000  0.48478000  0.29707000  1.0
  C  C30  1  0.30377000  0.82925000  0.47222000  1.0
  C  C31  1  0.69624000  0.17075000  0.52778000  1.0
  C  C32  1  0.36821000  0.60273000  0.39095000  1.0
  C  C33  1  0.63178000  0.39726000  0.60905000  1.0
  C  C34  1  0.33537000  0.66547000  0.28530000  1.0
  C  C35  1  0.66462000  0.33453000  0.71470000  1.0
  C  C36  1  0.28865000  0.81893000  0.28118000  1.0
  C  C37  1  0.71135000  0.18106000  0.71883000  1.0
  N  N38  1  0.27771000  0.99162000  0.74493000  1.0
  N  N39  1  0.72229000  0.00839000  0.25507000  1.0
  N  N40  1  0.31334000  0.87410000  0.67821000  1.0
  N  N41  1  0.68668000  0.12590000  0.32179000  1.0
  N  N42  1  0.23012000  0.07047000  0.57248000  1.0
  N  N43  1  0.76988000  0.92953000  0.42752000  1.0
  N  N44  1  0.16738000  0.15577000  0.48187000  1.0
  N  N45  1  0.83262000  0.84423000  0.51812000  1.0
  N  N46  1  0.17229000  0.26509000  0.83749000  1.0
  N  N47  1  0.82771000  0.73492000  0.16251000  1.0
  N  N48  1  0.16674000  0.37835000  0.65677000  1.0
  N  N49  1  0.83326000  0.62166000  0.34323000  1.0
  N  N50  1  0.35334000  0.68318000  0.48539000  1.0
  N  N51  1  0.64666000  0.31682000  0.51461000  1.0
  N  N52  1  0.27210000  0.90119000  0.37442000  1.0
  N  N53  1  0.72790000  0.09881000  0.62557000  1.0
  Cl  Cl54  1  0.10929000  0.12876000  0.11625000  1.0
  Cl  Cl55  1  0.89072000  0.87124000  0.88375000  1.0
  Cl  Cl56  1  0.41039000  0.79175000  0.01226000  1.0
  Cl  Cl57  1  0.58962000  0.20825000  0.98774000  1.0
