# generated using pymatgen
data_H15Pb4C19NO11
_symmetry_space_group_name_H-M   'P 1'
_cell_length_a   10.74890000
_cell_length_b   12.19760000
_cell_length_c   22.17610000
_cell_angle_alpha   90.00010000
_cell_angle_beta   90.00030000
_cell_angle_gamma   90.00000000
_symmetry_Int_Tables_number   1
_chemical_formula_structural   H15Pb4C19NO11
_chemical_formula_sum   'H60 Pb16 C76 N4 O44'
_cell_volume   2907.52582686
_cell_formula_units_Z   4
loop_
 _symmetry_equiv_pos_site_id
 _symmetry_equiv_pos_as_xyz
  1  'x, y, z'
loop_
 _atom_site_type_symbol
 _atom_site_label
 _atom_site_symmetry_multiplicity
 _atom_site_fract_x
 _atom_site_fract_y
 _atom_site_fract_z
 _atom_site_occupancy
  H  H0  1  0.42325000  0.82221000  0.78103000  1.0
  H  H1  1  0.07675000  0.17779000  0.28102000  1.0
  H  H2  1  0.92325000  0.67779000  0.21898000  1.0
  H  H3  1  0.57675000  0.32222000  0.71897000  1.0
  H  H4  1  0.46663000  0.93498000  0.68842000  1.0
  H  H5  1  0.03337000  0.06501000  0.18841000  1.0
  H  H6  1  0.96663000  0.56502000  0.31158000  1.0
  H  H7  1  0.53337000  0.43499000  0.81158000  1.0
  H  H8  1  0.18647000  0.16574000  0.74205000  1.0
  H  H9  1  0.31353000  0.83426000  0.24204000  1.0
  H  H10  1  0.68647000  0.33426000  0.25796000  1.0
  H  H11  1  0.81353000  0.66574000  0.75796000  1.0
  H  H12  1  0.13316000  0.04697000  0.83114000  1.0
  H  H13  1  0.36684000  0.95302000  0.33113000  1.0
  H  H14  1  0.63316000  0.45302000  0.16887000  1.0
  H  H15  1  0.86684000  0.54698000  0.66887000  1.0
  H  H16  1  0.73238000  0.21352000  0.87770000  1.0
  H  H17  1  0.76762000  0.78647000  0.37770000  1.0
  H  H18  1  0.23238000  0.28648000  0.12230000  1.0
  H  H19  1  0.26762000  0.71352000  0.62230000  1.0
  H  H20  1  0.78685000  0.41264000  0.88716000  1.0
  H  H21  1  0.71314000  0.58735000  0.38717000  1.0
  H  H22  1  0.28686000  0.08736000  0.11283000  1.0
  H  H23  1  0.21314000  0.91264000  0.61283000  1.0
  H  H24  1  0.10470000  0.32805000  0.99531000  1.0
  H  H25  1  0.39529000  0.67195000  0.49530000  1.0
  H  H26  1  0.60471000  0.17195000  0.00470000  1.0
  H  H27  1  0.89530000  0.82805000  0.50469000  1.0
  H  H28  1  0.04839000  0.12930000  0.98662000  1.0
  H  H29  1  0.45161000  0.87070000  0.48662000  1.0
  H  H30  1  0.54839000  0.37071000  0.01338000  1.0
  H  H31  1  0.95161000  0.62929000  0.51338000  1.0
  H  H32  1  0.00773000  0.50853000  0.82695000  1.0
  H  H33  1  0.49227000  0.49146000  0.32695000  1.0
  H  H34  1  0.50773000  0.99147000  0.17305000  1.0
  H  H35  1  0.99228000  0.00854000  0.67305000  1.0
  H  H36  1  0.20304000  0.35401000  0.74207000  1.0
  H  H37  1  0.29696000  0.64599000  0.24208000  1.0
  H  H38  1  0.70303000  0.14599000  0.25793000  1.0
  H  H39  1  0.79696000  0.85401000  0.75792000  1.0
  H  H40  1  0.09857000  0.42934000  0.69594000  1.0
  H  H41  1  0.40142000  0.57067000  0.19594000  1.0
  H  H42  1  0.59857000  0.07067000  0.30406000  1.0
  H  H43  1  0.90142000  0.92933000  0.80406000  1.0
  H  H44  1  0.04587000  0.37582000  0.76668000  1.0
  H  H45  1  0.45413000  0.62418000  0.26669000  1.0
  H  H46  1  0.54587000  0.12418000  0.23331000  1.0
  H  H47  1  0.95413000  0.87583000  0.73331000  1.0
  H  H48  1  0.28847000  0.64248000  0.77762000  1.0
  H  H49  1  0.21153000  0.35752000  0.27761000  1.0
  H  H50  1  0.78847000  0.85752000  0.22239000  1.0
  H  H51  1  0.71153000  0.14248000  0.72239000  1.0
  H  H52  1  0.26600000  0.58503000  0.70327000  1.0
  H  H53  1  0.23400000  0.41498000  0.20327000  1.0
  H  H54  1  0.76600000  0.91498000  0.29673000  1.0
  H  H55  1  0.73400000  0.08503000  0.79673000  1.0
  H  H56  1  0.35540000  0.51266000  0.75769000  1.0
  H  H57  1  0.14460000  0.48734000  0.25769000  1.0
  H  H58  1  0.85540000  0.98734000  0.24231000  1.0
  H  H59  1  0.64460000  0.01266000  0.74231000  1.0
  Pb  Pb60  1  0.15817000  0.90192000  0.00994000  1.0
  Pb  Pb61  1  0.34184000  0.09808000  0.50994000  1.0
  Pb  Pb62  1  0.65817000  0.59808000  0.99006000  1.0
  Pb  Pb63  1  0.84183000  0.40192000  0.49006000  1.0
  Pb  Pb64  1  0.92537000  0.76628000  0.91422000  1.0
  Pb  Pb65  1  0.57464000  0.23371000  0.41422000  1.0
  Pb  Pb66  1  0.42537000  0.73372000  0.08578000  1.0
  Pb  Pb67  1  0.07465000  0.26628000  0.58577000  1.0
  Pb  Pb68  1  0.82300000  0.86733000  0.05442000  1.0
  Pb  Pb69  1  0.67701000  0.13267000  0.55442000  1.0
  Pb  Pb70  1  0.32300000  0.63268000  0.94559000  1.0
  Pb  Pb71  1  0.17700000  0.36733000  0.44558000  1.0
  Pb  Pb72  1  0.08167000  0.64312000  0.07397000  1.0
  Pb  Pb73  1  0.41833000  0.35688000  0.57397000  1.0
  Pb  Pb74  1  0.58167000  0.85689000  0.92603000  1.0
  Pb  Pb75  1  0.91833000  0.14311000  0.42603000  1.0
  C  C76  1  0.25196000  0.86397000  0.86759000  1.0
  C  C77  1  0.24804000  0.13603000  0.36759000  1.0
  C  C78  1  0.75195000  0.63603000  0.13241000  1.0
  C  C79  1  0.74805000  0.36397000  0.63241000  1.0
  C  C80  1  0.27565000  0.92838000  0.81139000  1.0
  C  C81  1  0.22435000  0.07162000  0.31139000  1.0
  C  C82  1  0.77565000  0.57162000  0.18861000  1.0
  C  C83  1  0.72435000  0.42838000  0.68861000  1.0
  C  C84  1  0.37014000  0.89637000  0.77146000  1.0
  C  C85  1  0.12986000  0.10362000  0.27146000  1.0
  C  C86  1  0.87014000  0.60363000  0.22854000  1.0
  C  C87  1  0.62987000  0.39638000  0.72854000  1.0
  C  C88  1  0.39557000  0.95955000  0.72075000  1.0
  C  C89  1  0.10443000  0.04045000  0.22075000  1.0
  C  C90  1  0.89557000  0.54045000  0.27925000  1.0
  C  C91  1  0.60443000  0.45955000  0.77925000  1.0
  C  C92  1  0.33125000  0.05799000  0.71074000  1.0
  C  C93  1  0.16875000  0.94201000  0.21074000  1.0
  C  C94  1  0.83126000  0.44201000  0.28926000  1.0
  C  C95  1  0.66875000  0.55799000  0.78926000  1.0
  C  C96  1  0.23640000  0.08953000  0.75050000  1.0
  C  C97  1  0.26360000  0.91047000  0.25050000  1.0
  C  C98  1  0.73640000  0.41047000  0.24950000  1.0
  C  C99  1  0.76360000  0.58953000  0.74950000  1.0
  C  C100  1  0.20707000  0.02404000  0.79990000  1.0
  C  C101  1  0.29293000  0.97596000  0.29989000  1.0
  C  C102  1  0.70707000  0.47596000  0.20011000  1.0
  C  C103  1  0.79293000  0.52404000  0.70011000  1.0
  C  C104  1  0.36535000  0.12817000  0.65763000  1.0
  C  C105  1  0.13465000  0.87182000  0.15763000  1.0
  C  C106  1  0.86535000  0.37183000  0.34237000  1.0
  C  C107  1  0.63465000  0.62818000  0.84237000  1.0
  C  C108  1  0.85123000  0.04030000  0.92833000  1.0
  C  C109  1  0.64877000  0.95970000  0.42833000  1.0
  C  C110  1  0.35123000  0.45970000  0.07167000  1.0
  C  C111  1  0.14877000  0.54030000  0.57167000  1.0
  C  C112  1  0.88677000  0.15938000  0.93178000  1.0
  C  C113  1  0.61322000  0.84062000  0.43177000  1.0
  C  C114  1  0.38678000  0.34062000  0.06822000  1.0
  C  C115  1  0.11323000  0.65938000  0.56822000  1.0
  C  C116  1  0.81388000  0.23942000  0.90322000  1.0
  C  C117  1  0.68611000  0.76057000  0.40322000  1.0
  C  C118  1  0.31388000  0.26057000  0.09678000  1.0
  C  C119  1  0.18611000  0.73943000  0.59678000  1.0
  C  C120  1  0.84409000  0.34999000  0.90863000  1.0
  C  C121  1  0.65590000  0.65000000  0.40863000  1.0
  C  C122  1  0.34409000  0.15001000  0.09137000  1.0
  C  C123  1  0.15591000  0.84999000  0.59137000  1.0
  C  C124  1  0.94872000  0.38213000  0.94225000  1.0
  C  C125  1  0.55127000  0.61787000  0.44224000  1.0
  C  C126  1  0.44872000  0.11787000  0.05775000  1.0
  C  C127  1  0.05128000  0.88213000  0.55775000  1.0
  C  C128  1  0.02358000  0.30204000  0.96951000  1.0
  C  C129  1  0.47641000  0.69796000  0.46951000  1.0
  C  C130  1  0.52358000  0.19796000  0.03049000  1.0
  C  C131  1  0.97642000  0.80204000  0.53049000  1.0
  C  C132  1  0.99220000  0.19183000  0.96457000  1.0
  C  C133  1  0.50779000  0.80817000  0.46456000  1.0
  C  C134  1  0.49220000  0.30817000  0.03543000  1.0
  C  C135  1  0.00780000  0.69183000  0.53543000  1.0
  C  C136  1  0.97828000  0.50118000  0.95123000  1.0
  C  C137  1  0.52171000  0.49882000  0.45123000  1.0
  C  C138  1  0.47829000  0.99882000  0.04877000  1.0
  C  C139  1  0.02172000  0.00118000  0.54877000  1.0
  C  C140  1  0.09172000  0.55781000  0.81668000  1.0
  C  C141  1  0.40829000  0.44219000  0.31667000  1.0
  C  C142  1  0.59171000  0.94219000  0.18333000  1.0
  C  C143  1  0.90829000  0.05782000  0.68333000  1.0
  C  C144  1  0.12514000  0.41244000  0.74290000  1.0
  C  C145  1  0.37486000  0.58757000  0.24290000  1.0
  C  C146  1  0.62514000  0.08757000  0.25710000  1.0
  C  C147  1  0.87486000  0.91244000  0.75710000  1.0
  C  C148  1  0.27483000  0.56707000  0.75166000  1.0
  C  C149  1  0.22517000  0.43293000  0.25166000  1.0
  C  C150  1  0.77482000  0.93293000  0.24834000  1.0
  C  C151  1  0.72517000  0.06708000  0.74834000  1.0
  N  N152  1  0.16233000  0.51311000  0.77308000  1.0
  N  N153  1  0.33767000  0.48689000  0.27308000  1.0
  N  N154  1  0.66233000  0.98689000  0.22692000  1.0
  N  N155  1  0.83767000  0.01312000  0.72692000  1.0
  O  O156  1  0.15091000  0.88064000  0.89603000  1.0
  O  O157  1  0.34909000  0.11936000  0.39603000  1.0
  O  O158  1  0.65091000  0.61936000  0.10397000  1.0
  O  O159  1  0.84909000  0.38064000  0.60397000  1.0
  O  O160  1  0.33859000  0.79928000  0.88504000  1.0
  O  O161  1  0.16141000  0.20071000  0.38504000  1.0
  O  O162  1  0.83858000  0.70071000  0.11496000  1.0
  O  O163  1  0.66142000  0.29929000  0.61496000  1.0
  O  O164  1  0.42973000  0.08265000  0.61606000  1.0
  O  O165  1  0.07027000  0.91735000  0.11606000  1.0
  O  O166  1  0.92973000  0.41735000  0.38394000  1.0
  O  O167  1  0.57027000  0.58265000  0.88394000  1.0
  O  O168  1  0.32812000  0.22744000  0.65691000  1.0
  O  O169  1  0.17189000  0.77256000  0.15691000  1.0
  O  O170  1  0.82812000  0.27256000  0.34309000  1.0
  O  O171  1  0.67188000  0.72745000  0.84309000  1.0
  O  O172  1  0.91449000  0.97349000  0.96147000  1.0
  O  O173  1  0.58551000  0.02651000  0.46147000  1.0
  O  O174  1  0.41450000  0.52652000  0.03854000  1.0
  O  O175  1  0.08552000  0.47349000  0.53853000  1.0
  O  O176  1  0.76351000  0.01100000  0.89408000  1.0
  O  O177  1  0.73649000  0.98899000  0.39408000  1.0
  O  O178  1  0.26351000  0.48900000  0.10592000  1.0
  O  O179  1  0.23649000  0.51100000  0.60592000  1.0
  O  O180  1  0.89513000  0.57006000  0.93403000  1.0
  O  O181  1  0.60487000  0.42993000  0.43403000  1.0
  O  O182  1  0.39513000  0.92994000  0.06597000  1.0
  O  O183  1  0.10487000  0.07006000  0.56597000  1.0
  O  O184  1  0.08072000  0.52671000  0.97615000  1.0
  O  O185  1  0.41927000  0.47328000  0.47615000  1.0
  O  O186  1  0.58073000  0.97329000  0.02385000  1.0
  O  O187  1  0.91927000  0.02671000  0.52385000  1.0
  O  O188  1  0.99553000  0.78091000  0.01203000  1.0
  O  O189  1  0.50448000  0.21908000  0.51203000  1.0
  O  O190  1  0.49553000  0.71909000  0.98797000  1.0
  O  O191  1  0.00448000  0.28092000  0.48796000  1.0
  O  O192  1  0.74380000  0.76937000  0.97409000  1.0
  O  O193  1  0.75621000  0.23064000  0.47409000  1.0
  O  O194  1  0.24380000  0.73064000  0.02591000  1.0
  O  O195  1  0.25621000  0.26937000  0.52590000  1.0
  O  O196  1  0.11509000  0.64511000  0.84377000  1.0
  O  O197  1  0.38492000  0.35488000  0.34377000  1.0
  O  O198  1  0.61509000  0.85488000  0.15623000  1.0
  O  O199  1  0.88492000  0.14512000  0.65623000  1.0
