# generated using pymatgen
data_Zn4H64C86N20O9
_symmetry_space_group_name_H-M   'P 1'
_cell_length_a   20.26920000
_cell_length_b   20.32790000
_cell_length_c   20.72900000
_cell_angle_alpha   108.30900000
_cell_angle_beta   112.91300000
_cell_angle_gamma   106.21300000
_symmetry_Int_Tables_number   1
_chemical_formula_structural   Zn4H64C86N20O9
_chemical_formula_sum   'Zn4 H64 C86 N20 O9'
_cell_volume   6634.96694608
_cell_formula_units_Z   1
loop_
 _symmetry_equiv_pos_site_id
 _symmetry_equiv_pos_as_xyz
  1  'x, y, z'
loop_
 _atom_site_type_symbol
 _atom_site_label
 _atom_site_symmetry_multiplicity
 _atom_site_fract_x
 _atom_site_fract_y
 _atom_site_fract_z
 _atom_site_occupancy
  Zn  Zn0  1  0.41115000  0.51724000  0.39700000  1.0
  Zn  Zn1  1  0.60846000  0.49602000  0.61527000  1.0
  Zn  Zn2  1  0.51357000  0.41478000  0.41540000  1.0
  Zn  Zn3  1  0.52692000  0.62151000  0.65100000  1.0
  H  H4  1  0.24574000  0.38707000  0.22125000  1.0
  H  H5  1  0.78057000  0.49698000  0.66033000  1.0
  H  H6  1  0.75653000  0.61321000  0.61060000  1.0
  H  H7  1  0.45376000  0.58120000  0.29998000  1.0
  H  H8  1  0.50025000  0.78844000  0.56027000  1.0
  H  H9  1  0.67169000  0.43388000  0.41018000  1.0
  H  H10  1  0.93293000  0.56342000  0.42572000  1.0
  H  H11  1  0.63807000  0.45894000  0.76466000  1.0
  H  H12  1  0.09690000  0.67217000  0.53400000  1.0
  H  H13  1  0.08156000  0.65633000  0.65937000  1.0
  H  H14  1  0.13008000  0.53732000  0.63443000  1.0
  H  H15  1  0.33689000  0.35856000  0.85768000  1.0
  H  H16  1  0.40948000  0.30718000  0.96581000  1.0
  H  H17  1  0.38298000  0.49905000  0.98875000  1.0
  H  H18  1  0.53036000  0.56852000  0.99625000  1.0
  H  H19  1  0.55659000  0.37525000  0.97350000  1.0
  H  H20  1  0.31646000  0.15244000  0.37266000  1.0
  H  H21  1  0.35950000  0.27524000  0.37293000  1.0
  H  H22  1  0.27784000  0.02743000  0.37717000  1.0
  H  H23  1  0.17956000  0.80196000  0.36999000  1.0
  H  H24  1  0.22096000  0.69688000  0.36341000  1.0
  H  H25  1  0.38059000  0.27516000  0.61680000  1.0
  H  H26  1  0.34521000  0.14985000  0.62104000  1.0
  H  H27  1  0.46710000  0.87325000  0.53716000  1.0
  H  H28  1  0.77405000  0.86237000  0.65903000  1.0
  H  H29  1  0.90592000  0.98259000  0.75778000  1.0
  H  H30  1  0.04277000  0.08137000  0.99900000  1.0
  H  H31  1  0.14280000  0.19384000  0.13617000  1.0
  H  H32  1  0.87840000  0.72690000  0.74457000  1.0
  H  H33  1  0.19729000  0.16283000  0.91672000  1.0
  H  H34  1  0.00816000  0.84768000  0.84527000  1.0
  H  H35  1  0.30050000  0.27198000  0.05555000  1.0
  H  H36  1  0.47735000  0.38204000  0.63023000  1.0
  H  H37  1  0.25046000  0.45279000  0.38302000  1.0
  H  H38  1  0.48217000  0.56784000  0.76286000  1.0
  H  H39  1  0.58550000  0.41544000  0.20558000  1.0
  H  H40  1  0.49333000  0.34323000  0.18278000  1.0
  H  H41  1  0.56987000  0.28227000  0.24908000  1.0
  H  H42  1  0.58494000  0.28521000  0.17060000  1.0
  H  H43  1  0.66182000  0.35392000  0.27136000  1.0
  H  H44  1  0.68493000  0.83716000  0.71319000  1.0
  H  H45  1  0.86736000  0.43065000  0.32173000  1.0
  H  H46  1  0.86358000  0.35984000  0.35561000  1.0
  H  H47  1  0.89553000  0.28883000  0.25712000  1.0
  H  H48  1  0.80739000  0.29842000  0.20741000  1.0
  H  H49  1  0.90109000  0.36080000  0.22496000  1.0
  H  H50  1  0.05440000  0.39390000  0.57057000  1.0
  H  H51  1  0.98546000  0.33741000  0.46546000  1.0
  H  H52  1  0.88127000  0.26454000  0.48907000  1.0
  H  H53  1  0.97103000  0.25554000  0.53348000  1.0
  H  H54  1  0.95079000  0.32145000  0.59382000  1.0
  H  H55  1  0.63766000  0.58774000  0.16133000  1.0
  H  H56  1  0.46028000  0.01190000  0.47339000  1.0
  H  H57  1  0.52479000  0.98082000  0.52896000  1.0
  H  H58  1  0.59741000  0.12443000  0.57687000  1.0
  H  H59  1  0.52367000  0.13865000  0.59805000  1.0
  H  H60  1  0.58876000  0.10794000  0.65342000  1.0
  H  H61  1  0.34692000  0.64135000  0.67100000  1.0
  H  H62  1  0.29991000  0.14556000  0.13608000  1.0
  H  H63  1  0.31663000  0.17097000  0.23360000  1.0
  H  H64  1  0.44692000  0.16246000  0.27694000  1.0
  H  H65  1  0.36487000  0.07268000  0.19315000  1.0
  H  H66  1  0.43149000  0.13786000  0.17995000  1.0
  H  H67  1  0.27298000  0.52739000  0.28777000  1.0
  C  C68  1  0.28993000  0.36547000  0.23668000  1.0
  C  C69  1  0.54938000  0.49749000  0.78209000  1.0
  C  C70  1  0.39464000  0.29737000  0.49863000  1.0
  C  C71  1  0.28137000  0.53333000  0.50511000  1.0
  C  C72  1  0.34552000  0.64033000  0.38982000  1.0
  C  C73  1  0.74086000  0.47647000  0.59730000  1.0
  C  C74  1  0.54409000  0.47089000  0.31474000  1.0
  C  C75  1  0.66761000  0.71710000  0.65606000  1.0
  C  C76  1  0.72046000  0.64000000  0.62304000  1.0
  C  C77  1  0.48512000  0.54750000  0.31386000  1.0
  C  C78  1  0.45498000  0.73533000  0.50450000  1.0
  C  C79  1  0.60376000  0.49138000  0.75699000  1.0
  C  C80  1  0.68502000  0.44390000  0.46936000  1.0
  C  C81  1  0.37775000  0.71940000  0.44743000  1.0
  C  C82  1  0.76061000  0.47699000  0.53942000  1.0
  C  C83  1  0.50460000  0.49978000  0.26597000  1.0
  C  C84  1  0.73783000  0.71879000  0.65509000  1.0
  C  C85  1  0.99418000  0.47915000  0.52662000  1.0
  C  C86  1  0.00110000  0.48849000  0.45552000  1.0
  C  C87  1  0.21191000  0.53636000  0.50164000  1.0
  C  C88  1  0.83622000  0.50670000  0.54671000  1.0
  C  C89  1  0.08469000  0.54173000  0.58787000  1.0
  C  C90  1  0.39661000  0.31193000  0.43713000  1.0
  C  C91  1  0.09292000  0.54958000  0.51737000  1.0
  C  C92  1  0.05911000  0.60816000  0.60143000  1.0
  C  C93  1  0.96726000  0.54583000  0.54017000  1.0
  C  C94  1  0.06676000  0.61715000  0.53199000  1.0
  C  C95  1  0.97632000  0.55614000  0.47103000  1.0
  C  C96  1  0.15712000  0.54575000  0.50748000  1.0
  C  C97  1  0.89857000  0.53313000  0.54723000  1.0
  C  C98  1  0.43650000  0.36525000  0.97203000  1.0
  C  C99  1  0.39609000  0.39403000  0.91277000  1.0
  C  C100  1  0.52340000  0.46418000  0.82332000  1.0
  C  C101  1  0.36000000  0.57621000  0.57452000  1.0
  C  C102  1  0.48362000  0.48005000  0.18704000  1.0
  C  C103  1  0.51795000  0.40281000  0.97675000  1.0
  C  C104  1  0.47876000  0.43303000  0.91743000  1.0
  C  C105  1  0.54590000  0.48146000  0.04775000  1.0
  C  C106  1  0.46177000  0.44354000  0.04497000  1.0
  C  C107  1  0.50342000  0.51077000  0.99061000  1.0
  C  C108  1  0.42183000  0.47196000  0.98466000  1.0
  C  C109  1  0.49635000  0.44007000  0.85929000  1.0
  C  C110  1  0.46359000  0.45730000  0.11706000  1.0
  C  C111  1  0.34725000  0.77671000  0.45049000  1.0
  C  C112  1  0.45620000  0.36713000  0.56833000  1.0
  C  C113  1  0.40316000  0.85614000  0.50161000  1.0
  C  C114  1  0.38048000  0.91526000  0.50799000  1.0
  C  C115  1  0.29813000  0.89604000  0.45941000  1.0
  C  C116  1  0.24229000  0.81644000  0.40805000  1.0
  C  C117  1  0.26531000  0.75784000  0.40424000  1.0
  C  C118  1  0.29849000  0.08204000  0.42839000  1.0
  C  C119  1  0.32007000  0.15207000  0.42648000  1.0
  C  C120  1  0.30976000  0.08115000  0.49959000  1.0
  C  C121  1  0.35337000  0.22357000  0.49499000  1.0
  C  C122  1  0.35726000  0.22106000  0.56361000  1.0
  C  C123  1  0.29388000  0.49274000  0.44602000  1.0
  C  C124  1  0.33696000  0.15126000  0.56632000  1.0
  C  C125  1  0.22893000  0.23919000  0.10524000  1.0
  C  C126  1  0.24361000  0.23037000  0.04275000  1.0
  C  C127  1  0.18641000  0.16981000  0.96545000  1.0
  C  C128  1  0.11539000  0.11468000  0.95077000  1.0
  C  C129  1  0.09927000  0.12385000  0.01223000  1.0
  C  C130  1  0.15494000  0.18639000  0.08816000  1.0
  C  C131  1  0.89907000  0.92594000  0.75339000  1.0
  C  C132  1  0.82566000  0.85889000  0.69911000  1.0
  C  C133  1  0.96424000  0.92208000  0.80787000  1.0
  C  C134  1  0.52336000  0.54640000  0.75514000  1.0
  C  C135  1  0.81640000  0.78670000  0.69670000  1.0
  C  C136  1  0.88474000  0.78256000  0.74624000  1.0
  C  C137  1  0.95704000  0.84946000  0.80237000  1.0
  C  C138  1  0.36277000  0.30252000  0.23917000  1.0
  C  C139  1  0.29025000  0.29974000  0.18804000  1.0
  C  C140  1  0.55904000  0.37558000  0.22416000  1.0
  C  C141  1  0.59624000  0.32110000  0.22955000  1.0
  C  C142  1  0.64597000  0.77487000  0.69025000  1.0
  C  C143  1  0.89085000  0.38891000  0.32899000  1.0
  C  C144  1  0.87282000  0.33077000  0.25001000  1.0
  C  C145  1  0.98977000  0.36079000  0.52354000  1.0
  C  C146  1  0.94556000  0.29675000  0.53568000  1.0
  C  C147  1  0.62234000  0.52584000  0.12494000  1.0
  C  C148  1  0.49449000  0.01807000  0.53328000  1.0
  C  C149  1  0.55463000  0.10233000  0.59417000  1.0
  C  C150  1  0.38974000  0.62824000  0.65546000  1.0
  C  C151  1  0.34683000  0.17324000  0.19951000  1.0
  C  C152  1  0.40095000  0.13450000  0.21334000  1.0
  C  C153  1  0.27033000  0.58297000  0.31617000  1.0
  N  N154  1  0.35706000  0.40447000  0.31028000  1.0
  N  N155  1  0.66015000  0.44674000  0.56441000  1.0
  N  N156  1  0.54587000  0.49800000  0.38397000  1.0
  N  N157  1  0.61505000  0.64236000  0.62756000  1.0
  N  N158  1  0.64663000  0.59563000  0.60772000  1.0
  N  N159  1  0.50835000  0.54514000  0.38311000  1.0
  N  N160  1  0.46963000  0.67362000  0.48445000  1.0
  N  N161  1  0.62565000  0.42649000  0.48457000  1.0
  N  N162  1  0.27497000  0.95231000  0.44964000  1.0
  N  N163  1  0.30963000  0.01724000  0.51251000  1.0
  N  N164  1  0.05873000  0.05023000  0.87347000  1.0
  N  N165  1  0.60853000  0.53252000  0.71751000  1.0
  N  N166  1  0.03243000  0.98790000  0.87682000  1.0
  N  N167  1  0.45607000  0.38394000  0.46871000  1.0
  N  N168  1  0.41347000  0.56216000  0.55541000  1.0
  N  N169  1  0.49278000  0.41777000  0.54945000  1.0
  N  N170  1  0.37364000  0.51193000  0.47752000  1.0
  N  N171  1  0.55819000  0.56626000  0.71632000  1.0
  N  N172  1  0.40156000  0.36441000  0.31165000  1.0
  N  N173  1  0.40381000  0.61651000  0.41439000  1.0
  O  O174  1  0.57549000  0.42094000  0.30351000  1.0
  O  O175  1  0.58506000  0.75551000  0.69562000  1.0
  O  O176  1  0.97745000  0.43130000  0.38244000  1.0
  O  O177  1  0.95372000  0.41281000  0.52712000  1.0
  O  O178  1  0.66594000  0.49772000  0.15117000  1.0
  O  O179  1  0.43833000  0.99204000  0.55720000  1.0
  O  O180  1  0.46272000  0.65876000  0.70846000  1.0
  O  O181  1  0.39701000  0.25464000  0.22673000  1.0
  O  O182  1  0.20779000  0.58789000  0.28382000  1.0
