# generated using pymatgen
data_Zn4H39C54N9(O8F)2
_symmetry_space_group_name_H-M   'P 1'
_cell_length_a   9.73911000
_cell_length_b   11.09560000
_cell_length_c   22.27630000
_cell_angle_alpha   89.95300000
_cell_angle_beta   89.16030000
_cell_angle_gamma   89.89750000
_symmetry_Int_Tables_number   1
_chemical_formula_structural   Zn4H39C54N9(O8F)2
_chemical_formula_sum   'Zn4 H39 C54 N9 O16 F2'
_cell_volume   2406.94212351
_cell_formula_units_Z   1
loop_
 _symmetry_equiv_pos_site_id
 _symmetry_equiv_pos_as_xyz
  1  'x, y, z'
loop_
 _atom_site_type_symbol
 _atom_site_label
 _atom_site_symmetry_multiplicity
 _atom_site_fract_x
 _atom_site_fract_y
 _atom_site_fract_z
 _atom_site_occupancy
  Zn  Zn0  1  0.64424000  0.50518000  0.49659000  1.0
  Zn  Zn1  1  0.35920000  0.50122000  0.50113000  1.0
  Zn  Zn2  1  0.35274000  0.51012000  0.99425000  1.0
  Zn  Zn3  1  0.63849000  0.50507000  0.99642000  1.0
  H  H4  1  0.14216000  0.37015000  0.43158000  1.0
  H  H5  1  0.11163000  0.60936000  0.63207000  1.0
  H  H6  1  0.12874000  0.73248000  0.58051000  1.0
  H  H7  1  0.86961000  0.74118000  0.57150000  1.0
  H  H8  1  0.85282000  0.61887000  0.62319000  1.0
  H  H9  1  0.71649000  0.88088000  0.49918000  1.0
  H  H10  1  0.17642000  0.90148000  0.45566000  1.0
  H  H11  1  0.17182000  0.90510000  0.53577000  1.0
  H  H12  1  0.18619000  0.13102000  0.53368000  1.0
  H  H13  1  0.19436000  0.12790000  0.45360000  1.0
  H  H14  1  0.67877000  0.33089000  0.85904000  1.0
  H  H15  1  0.68852000  0.33410000  0.63473000  1.0
  H  H16  1  0.34582000  0.62716000  0.69043000  1.0
  H  H17  1  0.34155000  0.62703000  0.80267000  1.0
  H  H18  1  0.27584000  0.49664000  0.19089000  1.0
  H  H19  1  0.82214000  0.42183000  0.18964000  1.0
  H  H20  1  0.81303000  0.58247000  0.19114000  1.0
  H  H21  1  0.80823000  0.57645000  0.30452000  1.0
  H  H22  1  0.81653000  0.41610000  0.30171000  1.0
  H  H23  1  0.85736000  0.38410000  0.06788000  1.0
  H  H24  1  0.87769000  0.60614000  0.86194000  1.0
  H  H25  1  0.86560000  0.73262000  0.91144000  1.0
  H  H26  1  0.12546000  0.73945000  0.91691000  1.0
  H  H27  1  0.13717000  0.61218000  0.86792000  1.0
  H  H28  1  0.28324000  0.88647000  0.99496000  1.0
  H  H29  1  0.82441000  0.90360000  0.03649000  1.0
  H  H30  1  0.82741000  0.90607000  0.95636000  1.0
  H  H31  1  0.81343000  0.13176000  0.95725000  1.0
  H  H32  1  0.80902000  0.13063000  0.03734000  1.0
  H  H33  1  0.76990000  0.37811000  0.40608000  1.0
  H  H34  1  0.92652000  0.30587000  0.38923000  1.0
  H  H35  1  0.76084000  0.20279000  0.51128000  1.0
  H  H36  1  0.83876000  0.06164000  0.51631000  1.0
  H  H37  1  0.24274000  0.51721000  0.35120000  1.0
  H  H38  1  0.15973000  0.52171000  0.28278000  1.0
  H  H39  1  0.23086000  0.39323000  0.09026000  1.0
  H  H40  1  0.07476000  0.32212000  0.10996000  1.0
  H  H41  1  0.24000000  0.20942000  0.98658000  1.0
  H  H42  1  0.16034000  0.06876000  0.98211000  1.0
  C  C43  1  0.49464000  0.73745000  0.49655000  1.0
  C  C44  1  0.50661000  0.50286000  0.61634000  1.0
  C  C45  1  0.50809000  0.26619000  0.49970000  1.0
  C  C46  1  0.49495000  0.49277000  0.37880000  1.0
  C  C47  1  0.50359000  0.74173000  0.99659000  1.0
  C  C48  1  0.49473000  0.50414000  0.87750000  1.0
  C  C49  1  0.49351000  0.27005000  0.99478000  1.0
  C  C50  1  0.49732000  0.49761000  0.11499000  1.0
  C  C51  1  0.07006000  0.56027000  0.53815000  1.0
  C  C52  1  0.93483000  0.42962000  0.45692000  1.0
  C  C53  1  0.92868000  0.56433000  0.53355000  1.0
  C  C54  1  0.08082000  0.42664000  0.46176000  1.0
  C  C55  1  0.07443000  0.64788000  0.58991000  1.0
  C  C56  1  0.91172000  0.65326000  0.58451000  1.0
  C  C57  1  0.49699000  0.87208000  0.49758000  1.0
  C  C58  1  0.50930000  0.13298000  0.49872000  1.0
  C  C59  1  0.37822000  0.94319000  0.49678000  1.0
  C  C60  1  0.63184000  0.06111000  0.50072000  1.0
  C  C61  1  0.38642000  0.06825000  0.49655000  1.0
  C  C62  1  0.62197000  0.93390000  0.49927000  1.0
  C  C63  1  0.22251000  0.94250000  0.49547000  1.0
  C  C64  1  0.23204000  0.08471000  0.49464000  1.0
  C  C65  1  0.50081000  0.49587000  0.81035000  1.0
  C  C66  1  0.59379000  0.41672000  0.77942000  1.0
  C  C67  1  0.41266000  0.56859000  0.77812000  1.0
  C  C68  1  0.67891000  0.33351000  0.81022000  1.0
  C  C69  1  0.76173000  0.25577000  0.77849000  1.0
  C  C70  1  0.50684000  0.49654000  0.68352000  1.0
  C  C71  1  0.41533000  0.56890000  0.71515000  1.0
  C  C72  1  0.59692000  0.41745000  0.71473000  1.0
  C  C73  1  0.68493000  0.33552000  0.68359000  1.0
  C  C74  1  0.76487000  0.25672000  0.71509000  1.0
  C  C75  1  0.49560000  0.49438000  0.18204000  1.0
  C  C76  1  0.49166000  0.49068000  0.31230000  1.0
  C  C77  1  0.61614000  0.49360000  0.21527000  1.0
  C  C78  1  0.36692000  0.49314000  0.27870000  1.0
  C  C79  1  0.61271000  0.49099000  0.27768000  1.0
  C  C80  1  0.37242000  0.49388000  0.21518000  1.0
  C  C81  1  0.77121000  0.49950000  0.21114000  1.0
  C  C82  1  0.76797000  0.49600000  0.28206000  1.0
  C  C83  1  0.92519000  0.56318000  0.95626000  1.0
  C  C84  1  0.06385000  0.43962000  0.03942000  1.0
  C  C85  1  0.06668000  0.56662000  0.95947000  1.0
  C  C86  1  0.91775000  0.43666000  0.03571000  1.0
  C  C87  1  0.91840000  0.64680000  0.90287000  1.0
  C  C88  1  0.08144000  0.65103000  0.90643000  1.0
  C  C89  1  0.50263000  0.87626000  0.99571000  1.0
  C  C90  1  0.49173000  0.13695000  0.99539000  1.0
  C  C91  1  0.62197000  0.94629000  0.99623000  1.0
  C  C92  1  0.36861000  0.06622000  0.99442000  1.0
  C  C93  1  0.61447000  0.07143000  0.99636000  1.0
  C  C94  1  0.37792000  0.93895000  0.99480000  1.0
  C  C95  1  0.77774000  0.94440000  0.99669000  1.0
  C  C96  1  0.76905000  0.08672000  0.99698000  1.0
  N  N97  1  0.14891000  0.49251000  0.50192000  1.0
  N  N98  1  0.85636000  0.50180000  0.49388000  1.0
  N  N99  1  0.84811000  0.49857000  0.99453000  1.0
  N  N100  1  0.14084000  0.50703000  0.99974000  1.0
  N  N101  1  0.87083000  0.36154000  0.41595000  1.0
  N  N102  1  0.75994000  0.11301000  0.50175000  1.0
  N  N103  1  0.24000000  0.49189000  0.30719000  1.0
  N  N104  1  0.12906000  0.37640000  0.08208000  1.0
  N  N105  1  0.24095000  0.11924000  0.99525000  1.0
  O  O106  1  0.60919000  0.68345000  0.48754000  1.0
  O  O107  1  0.37885000  0.68637000  0.50472000  1.0
  O  O108  1  0.39003000  0.49337000  0.59177000  1.0
  O  O109  1  0.62141000  0.51862000  0.58941000  1.0
  O  O110  1  0.39325000  0.31902000  0.49217000  1.0
  O  O111  1  0.62205000  0.32193000  0.50823000  1.0
  O  O112  1  0.61066000  0.47432000  0.40409000  1.0
  O  O113  1  0.38325000  0.51430000  0.40791000  1.0
  O  O114  1  0.38718000  0.68890000  0.99967000  1.0
  O  O115  1  0.62012000  0.68955000  0.99443000  1.0
  O  O116  1  0.60834000  0.49980000  0.90505000  1.0
  O  O117  1  0.37640000  0.51697000  0.90171000  1.0
  O  O118  1  0.60983000  0.32159000  0.99948000  1.0
  O  O119  1  0.37896000  0.32668000  0.98930000  1.0
  O  O120  1  0.38247000  0.48985000  0.08799000  1.0
  O  O121  1  0.61385000  0.50830000  0.08922000  1.0
  F  F122  1  0.84269000  0.17517000  0.80751000  1.0
  F  F123  1  0.84846000  0.17699000  0.68592000  1.0
