# generated using pymatgen
data_CoH2C4O3
_symmetry_space_group_name_H-M   'P 1'
_cell_length_a   6.66784000
_cell_length_b   15.11510000
_cell_length_c   15.11520000
_cell_angle_alpha   117.89400000
_cell_angle_beta   98.43420000
_cell_angle_gamma   98.43530000
_symmetry_Int_Tables_number   1
_chemical_formula_structural   CoH2C4O3
_chemical_formula_sum   'Co6 H12 C24 O18'
_cell_volume   1290.80789054
_cell_formula_units_Z   6
loop_
 _symmetry_equiv_pos_site_id
 _symmetry_equiv_pos_as_xyz
  1  'x, y, z'
loop_
 _atom_site_type_symbol
 _atom_site_label
 _atom_site_symmetry_multiplicity
 _atom_site_fract_x
 _atom_site_fract_y
 _atom_site_fract_z
 _atom_site_occupancy
  Co  Co0  1  0.81208000  0.41881000  0.69760000  1.0
  Co  Co1  1  0.39341000  0.27891000  0.58128000  1.0
  Co  Co2  1  0.11489000  0.30231000  0.72124000  1.0
  Co  Co3  1  0.11490000  0.72124000  0.30231000  1.0
  Co  Co4  1  0.39340000  0.58128000  0.27891000  1.0
  Co  Co5  1  0.81207000  0.69761000  0.41881000  1.0
  H  H6  1  0.77386000  0.51727000  0.76775000  1.0
  H  H7  1  0.25684000  0.25061000  0.48287000  1.0
  H  H8  1  0.00705000  0.23228000  0.74974000  1.0
  H  H9  1  0.00704000  0.74974000  0.23227000  1.0
  H  H10  1  0.25684000  0.48287000  0.25060000  1.0
  H  H11  1  0.77385000  0.76775000  0.51727000  1.0
  H  H12  1  0.73396000  0.47972000  0.47971000  1.0
  H  H13  1  0.25430000  0.99983000  0.52014000  1.0
  H  H14  1  0.25431000  0.52013000  0.99983000  1.0
  H  H15  1  0.08840000  0.57662000  0.57662000  1.0
  H  H16  1  0.51216000  0.00007000  0.42352000  1.0
  H  H17  1  0.51216000  0.42352000  0.00007000  1.0
  C  C18  1  0.50093000  0.46478000  0.55970000  1.0
  C  C19  1  0.03629000  0.09485000  0.53526000  1.0
  C  C20  1  0.94142000  0.44021000  0.90497000  1.0
  C  C21  1  0.94141000  0.90497000  0.44021000  1.0
  C  C22  1  0.03630000  0.53526000  0.09485000  1.0
  C  C23  1  0.50092000  0.55971000  0.46477000  1.0
  C  C24  1  0.59340000  0.50213000  0.50212000  1.0
  C  C25  1  0.09140000  0.99988000  0.49781000  1.0
  C  C26  1  0.09140000  0.49780000  0.99987000  1.0
  C  C27  1  0.31424000  0.49326000  0.58785000  1.0
  C  C28  1  0.82125000  0.09458000  0.50685000  1.0
  C  C29  1  0.72669000  0.41211000  0.90538000  1.0
  C  C30  1  0.72668000  0.90537000  0.41211000  1.0
  C  C31  1  0.82124000  0.50685000  0.09458000  1.0
  C  C32  1  0.31424000  0.58784000  0.49325000  1.0
  C  C33  1  0.19897000  0.45773000  0.64520000  1.0
  C  C34  1  0.74147000  0.18752000  0.54238000  1.0
  C  C35  1  0.55411000  0.35477000  0.81252000  1.0
  C  C36  1  0.55410000  0.81252000  0.35476000  1.0
  C  C37  1  0.74147000  0.54238000  0.18752000  1.0
  C  C38  1  0.19895000  0.64520000  0.45772000  1.0
  C  C39  1  0.22989000  0.55504000  0.55505000  1.0
  C  C40  1  0.67517000  0.00002000  0.44503000  1.0
  C  C41  1  0.67516000  0.44503000  0.00001000  1.0
  O  O42  1  0.58488000  0.39948000  0.58096000  1.0
  O  O43  1  0.18545000  0.18139000  0.60053000  1.0
  O  O44  1  0.00389000  0.41882000  0.81831000  1.0
  O  O45  1  0.00389000  0.81830000  0.41882000  1.0
  O  O46  1  0.18545000  0.60053000  0.18139000  1.0
  O  O47  1  0.58487000  0.58096000  0.39948000  1.0
  O  O48  1  0.25840000  0.39017000  0.66591000  1.0
  O  O49  1  0.86832000  0.27575000  0.60994000  1.0
  O  O50  1  0.59273000  0.33409000  0.72426000  1.0
  O  O51  1  0.59271000  0.72426000  0.33409000  1.0
  O  O52  1  0.86833000  0.60994000  0.27575000  1.0
  O  O53  1  0.25840000  0.66591000  0.39017000  1.0
  O  O54  1  0.04393000  0.49399000  0.67370000  1.0
  O  O55  1  0.55037000  0.17979000  0.50602000  1.0
  O  O56  1  0.37073000  0.32622000  0.82033000  1.0
  O  O57  1  0.37072000  0.82033000  0.32622000  1.0
  O  O58  1  0.55037000  0.50602000  0.17979000  1.0
  O  O59  1  0.04391000  0.67369000  0.49399000  1.0
