# generated using pymatgen
data_ZnH11C10(NO2)3
_symmetry_space_group_name_H-M   'P 1'
_cell_length_a   9.97543000
_cell_length_b   10.06960000
_cell_length_c   13.31600000
_cell_angle_alpha   81.95530000
_cell_angle_beta   81.87880000
_cell_angle_gamma   66.49670000
_symmetry_Int_Tables_number   1
_chemical_formula_structural   ZnH11C10(NO2)3
_chemical_formula_sum   'Zn4 H44 C40 N12 O24'
_cell_volume   1209.14285228
_cell_formula_units_Z   4
loop_
 _symmetry_equiv_pos_site_id
 _symmetry_equiv_pos_as_xyz
  1  'x, y, z'
loop_
 _atom_site_type_symbol
 _atom_site_label
 _atom_site_symmetry_multiplicity
 _atom_site_fract_x
 _atom_site_fract_y
 _atom_site_fract_z
 _atom_site_occupancy
  Zn  Zn0  1  0.37011000  0.18024000  0.27139000  1.0
  Zn  Zn1  1  0.82002000  0.62892000  0.23022000  1.0
  Zn  Zn2  1  0.62988000  0.81976000  0.72861000  1.0
  Zn  Zn3  1  0.17998000  0.37108000  0.76977000  1.0
  H  H4  1  0.01821000  0.02523000  0.32471000  1.0
  H  H5  1  0.97366000  0.98020000  0.17691000  1.0
  H  H6  1  0.98179000  0.97477000  0.67529000  1.0
  H  H7  1  0.02633000  0.01980000  0.82308000  1.0
  H  H8  1  0.92654000  0.68672000  0.52136000  1.0
  H  H9  1  0.31330000  0.07262000  0.97851000  1.0
  H  H10  1  0.07346000  0.31328000  0.47864000  1.0
  H  H11  1  0.68670000  0.92738000  0.02149000  1.0
  H  H12  1  0.33928000  0.72864000  0.52018000  1.0
  H  H13  1  0.27212000  0.66312000  0.97973000  1.0
  H  H14  1  0.66073000  0.27136000  0.47982000  1.0
  H  H15  1  0.72788000  0.33688000  0.02027000  1.0
  H  H16  1  0.41562000  0.44491000  0.43247000  1.0
  H  H17  1  0.55382000  0.58535000  0.06765000  1.0
  H  H18  1  0.58438000  0.55509000  0.56753000  1.0
  H  H19  1  0.44618000  0.41464000  0.93235000  1.0
  H  H20  1  0.27849000  0.37148000  0.46376000  1.0
  H  H21  1  0.62948000  0.71996000  0.03684000  1.0
  H  H22  1  0.72151000  0.62852000  0.53625000  1.0
  H  H23  1  0.37051000  0.28004000  0.96316000  1.0
  H  H24  1  0.20011000  0.57972000  0.33050000  1.0
  H  H25  1  0.41790000  0.79938000  0.16935000  1.0
  H  H26  1  0.79989000  0.42028000  0.66950000  1.0
  H  H27  1  0.58209000  0.20061000  0.83065000  1.0
  H  H28  1  0.36484000  0.49465000  0.25144000  1.0
  H  H29  1  0.50250000  0.63661000  0.24887000  1.0
  H  H30  1  0.63516000  0.50535000  0.74856000  1.0
  H  H31  1  0.49750000  0.36339000  0.75113000  1.0
  H  H32  1  0.49130000  0.16941000  0.44174000  1.0
  H  H33  1  0.83199000  0.50858000  0.05943000  1.0
  H  H34  1  0.50869000  0.83059000  0.55826000  1.0
  H  H35  1  0.16800000  0.49142000  0.94057000  1.0
  H  H36  1  0.55841000  0.24424000  0.33961000  1.0
  H  H37  1  0.75522000  0.44262000  0.16105000  1.0
  H  H38  1  0.44158000  0.75576000  0.66039000  1.0
  H  H39  1  0.24478000  0.55738000  0.83895000  1.0
  H  H40  1  0.19486000  0.43305000  0.19014000  1.0
  H  H41  1  0.56535000  0.80499000  0.31009000  1.0
  H  H42  1  0.80513000  0.56695000  0.80986000  1.0
  H  H43  1  0.43465000  0.19501000  0.68991000  1.0
  H  H44  1  0.11823000  0.40057000  0.30217000  1.0
  H  H45  1  0.59960000  0.87955000  0.19806000  1.0
  H  H46  1  0.88177000  0.59943000  0.69783000  1.0
  H  H47  1  0.40040000  0.12045000  0.80194000  1.0
  C  C48  1  0.29542000  0.95705000  0.37915000  1.0
  C  C49  1  0.04417000  0.70435000  0.12248000  1.0
  C  C50  1  0.70459000  0.04294000  0.62084000  1.0
  C  C51  1  0.95583000  0.29565000  0.87752000  1.0
  C  C52  1  0.19177000  0.88218000  0.41654000  1.0
  C  C53  1  0.11797000  0.80843000  0.08448000  1.0
  C  C54  1  0.80824000  0.11781000  0.58346000  1.0
  C  C55  1  0.88203000  0.19158000  0.91552000  1.0
  C  C56  1  0.05375000  0.93101000  0.38034000  1.0
  C  C57  1  0.06840000  0.94525000  0.12084000  1.0
  C  C58  1  0.94625000  0.06898000  0.61966000  1.0
  C  C59  1  0.93159000  0.05476000  0.87916000  1.0
  C  C60  1  0.96211000  0.85793000  0.41884000  1.0
  C  C61  1  0.14131000  0.03674000  0.08184000  1.0
  C  C62  1  0.03790000  0.14207000  0.58115000  1.0
  C  C63  1  0.85869000  0.96326000  0.91815000  1.0
  C  C64  1  0.00116000  0.74096000  0.49371000  1.0
  C  C65  1  0.25900000  0.99839000  0.00649000  1.0
  C  C66  1  0.99884000  0.25904000  0.50629000  1.0
  C  C67  1  0.74100000  0.00161000  0.99351000  1.0
  C  C68  1  0.13762000  0.69578000  0.53163000  1.0
  C  C69  1  0.30454000  0.86330000  0.96834000  1.0
  C  C70  1  0.86239000  0.30422000  0.46837000  1.0
  C  C71  1  0.69547000  0.13671000  0.03166000  1.0
  C  C72  1  0.23244000  0.76537000  0.49139000  1.0
  C  C73  1  0.23505000  0.76883000  0.00884000  1.0
  C  C74  1  0.76756000  0.23463000  0.50861000  1.0
  C  C75  1  0.76495000  0.23117000  0.99116000  1.0
  C  C76  1  0.18722000  0.57564000  0.61571000  1.0
  C  C77  1  0.42495000  0.81466000  0.88360000  1.0
  C  C78  1  0.81279000  0.42435000  0.38429000  1.0
  C  C79  1  0.57505000  0.18533000  0.11640000  1.0
  C  C80  1  0.35945000  0.38620000  0.40290000  1.0
  C  C81  1  0.61337000  0.64036000  0.09762000  1.0
  C  C82  1  0.64055000  0.61380000  0.59710000  1.0
  C  C83  1  0.38663000  0.35964000  0.90238000  1.0
  C  C84  1  0.28344000  0.47446000  0.30918000  1.0
  C  C85  1  0.52374000  0.71665000  0.19106000  1.0
  C  C86  1  0.71656000  0.52554000  0.69083000  1.0
  C  C87  1  0.47626000  0.28335000  0.80894000  1.0
  N  N88  1  0.81753000  0.90821000  0.38051000  1.0
  N  N89  1  0.08991000  0.18045000  0.11988000  1.0
  N  N90  1  0.18247000  0.09179000  0.61949000  1.0
  N  N91  1  0.91008000  0.81955000  0.88012000  1.0
  N  N92  1  0.46329000  0.23933000  0.37707000  1.0
  N  N93  1  0.76101000  0.53665000  0.12395000  1.0
  N  N94  1  0.53670000  0.76067000  0.62293000  1.0
  N  N95  1  0.23898000  0.46335000  0.87605000  1.0
  N  N96  1  0.21824000  0.39090000  0.26345000  1.0
  N  N97  1  0.60815000  0.78096000  0.23690000  1.0
  N  N98  1  0.78176000  0.60910000  0.73655000  1.0
  N  N99  1  0.39184000  0.21904000  0.76310000  1.0
  O  O100  1  0.25217000  0.06005000  0.30679000  1.0
  O  O101  1  0.94144000  0.74572000  0.19595000  1.0
  O  O102  1  0.74783000  0.93995000  0.69321000  1.0
  O  O103  1  0.05855000  0.25428000  0.80404000  1.0
  O  O104  1  0.41392000  0.91769000  0.41851000  1.0
  O  O105  1  0.08409000  0.58725000  0.08254000  1.0
  O  O106  1  0.58609000  0.08231000  0.58149000  1.0
  O  O107  1  0.91592000  0.41275000  0.91746000  1.0
  O  O108  1  0.31053000  0.54157000  0.64613000  1.0
  O  O109  1  0.45919000  0.69242000  0.85316000  1.0
  O  O110  1  0.68947000  0.45843000  0.35387000  1.0
  O  O111  1  0.54082000  0.30758000  0.14685000  1.0
  O  O112  1  0.09590000  0.51370000  0.65232000  1.0
  O  O113  1  0.48686000  0.90534000  0.84636000  1.0
  O  O114  1  0.90410000  0.48630000  0.34768000  1.0
  O  O115  1  0.51314000  0.09466000  0.15364000  1.0
  O  O116  1  0.74202000  0.83507000  0.40919000  1.0
  O  O117  1  0.16306000  0.25584000  0.09068000  1.0
  O  O118  1  0.25799000  0.16492000  0.59081000  1.0
  O  O119  1  0.83694000  0.74416000  0.90932000  1.0
  O  O120  1  0.77846000  0.02118000  0.32164000  1.0
  O  O121  1  0.97581000  0.21910000  0.17886000  1.0
  O  O122  1  0.22153000  0.97882000  0.67836000  1.0
  O  O123  1  0.02419000  0.78090000  0.82114000  1.0
