# generated using pymatgen
data_AlHC9N3O7
_symmetry_space_group_name_H-M   'P 1'
_cell_length_a   6.68397000
_cell_length_b   16.02138196
_cell_length_c   19.15140000
_cell_angle_alpha   74.83330167
_cell_angle_beta   80.01530000
_cell_angle_gamma   78.01796632
_symmetry_Int_Tables_number   1
_chemical_formula_structural   AlHC9N3O7
_chemical_formula_sum   'Al4 H4 C36 N12 O28'
_cell_volume   1920.83512229
_cell_formula_units_Z   4
loop_
 _symmetry_equiv_pos_site_id
 _symmetry_equiv_pos_as_xyz
  1  'x, y, z'
loop_
 _atom_site_type_symbol
 _atom_site_label
 _atom_site_symmetry_multiplicity
 _atom_site_fract_x
 _atom_site_fract_y
 _atom_site_fract_z
 _atom_site_occupancy
  Al  Al0  1  0.39986000  0.75137000  0.24793000  1.0
  Al  Al1  1  0.60638000  0.24927000  0.75167000  1.0
  Al  Al2  1  0.89938000  0.74835000  0.25188000  1.0
  Al  Al3  1  0.10717000  0.25122000  0.74818000  1.0
  H  H4  1  0.19871000  0.63363000  0.27217000  1.0
  H  H5  1  0.79751000  0.35666000  0.76276000  1.0
  H  H6  1  0.60495000  0.86611000  0.22801000  1.0
  H  H7  1  0.41633000  0.14369000  0.73728000  1.0
  C  C8  1  0.06188000  0.84376000  0.33392000  1.0
  C  C9  1  0.94368000  0.16206000  0.66148000  1.0
  C  C10  1  0.73763000  0.65590000  0.16596000  1.0
  C  C11  1  0.26775000  0.33828000  0.83844000  1.0
  C  C12  1  0.14815000  0.86073000  0.13752000  1.0
  C  C13  1  0.86580000  0.13054000  0.85695000  1.0
  C  C14  1  0.64750000  0.63909000  0.36241000  1.0
  C  C15  1  0.35266000  0.36998000  0.64299000  1.0
  C  C16  1  0.63276000  0.56868000  0.43145000  1.0
  C  C17  1  0.36058000  0.44277000  0.57480000  1.0
  C  C18  1  0.13297000  0.93134000  0.06853000  1.0
  C  C19  1  0.87828000  0.05775000  0.92515000  1.0
  C  C20  1  0.50232000  0.51014000  0.44632000  1.0
  C  C21  1  0.49571000  0.43754000  0.51416000  1.0
  C  C22  1  0.95950000  0.99016000  0.05359000  1.0
  C  C23  1  0.94840000  0.06282000  0.98577000  1.0
  C  C24  1  0.79337000  0.60902000  0.10871000  1.0
  C  C25  1  0.21189000  0.38762000  0.89368000  1.0
  C  C26  1  0.01300000  0.89032000  0.39137000  1.0
  C  C27  1  0.99227000  0.11249000  0.60638000  1.0
  C  C28  1  0.90357000  0.52416000  0.00453000  1.0
  C  C29  1  0.09992000  0.47465000  0.99634000  1.0
  C  C30  1  0.93388000  0.97513000  0.49561000  1.0
  C  C31  1  0.07166000  0.02508000  0.50391000  1.0
  C  C32  1  0.16244000  0.42831000  0.94122000  1.0
  C  C33  1  0.84126000  0.57001000  0.06001000  1.0
  C  C34  1  0.03164000  0.07159000  0.55895000  1.0
  C  C35  1  0.97331000  0.92923000  0.44016000  1.0
  C  C36  1  0.63850000  0.35892000  0.51018000  1.0
  C  C37  1  0.36896000  0.51046000  0.39565000  1.0
  C  C38  1  0.00982000  0.14125000  0.98971000  1.0
  C  C39  1  0.77623000  0.98985000  0.10432000  1.0
  C  C40  1  0.24368000  0.46941000  0.04506000  1.0
  C  C41  1  0.76062000  0.52897000  0.95558000  1.0
  C  C42  1  0.25886000  0.03056000  0.45537000  1.0
  C  C43  1  0.74706000  0.96998000  0.54443000  1.0
  N  N44  1  0.75576000  0.29562000  0.50329000  1.0
  N  N45  1  0.25790000  0.50559000  0.35655000  1.0
  N  N46  1  0.05774000  0.20443000  0.99660000  1.0
  N  N47  1  0.62175000  0.99469000  0.14356000  1.0
  N  N48  1  0.22289000  0.52592000  0.58015000  1.0
  N  N49  1  0.75176000  0.57062000  0.48837000  1.0
  N  N50  1  0.82817000  0.97471000  0.91984000  1.0
  N  N51  1  0.31073000  0.92914000  0.01179000  1.0
  N  N52  1  0.36441000  0.46396000  0.08414000  1.0
  N  N53  1  0.64234000  0.53348000  0.91587000  1.0
  N  N54  1  0.41317000  0.03616000  0.41642000  1.0
  N  N55  1  0.59376000  0.96522000  0.58409000  1.0
  O  O56  1  0.98074000  0.83393000  0.16553000  1.0
  O  O57  1  0.03457000  0.15670000  0.82997000  1.0
  O  O58  1  0.48275000  0.66476000  0.33333333  1.0
  O  O59  1  0.52079000  0.34378000  0.66993000  1.0
  O  O60  1  0.25171000  0.82738000  0.30939000  1.0
  O  O61  1  0.75409000  0.17960000  0.68608000  1.0
  O  O62  1  0.88606000  0.67119000  0.19165000  1.0
  O  O63  1  0.12008000  0.32078000  0.81379000  1.0
  O  O64  1  0.32072000  0.83839000  0.16134000  1.0
  O  O65  1  0.69065000  0.15671000  0.83531000  1.0
  O  O66  1  0.82071000  0.66245000  0.33945000  1.0
  O  O67  1  0.18214000  0.34380000  0.66460000  1.0
  O  O68  1  0.54581000  0.67671000  0.18543000  1.0
  O  O69  1  0.45958000  0.31712000  0.81865000  1.0
  O  O70  1  0.91041000  0.82433000  0.31313000  1.0
  O  O71  1  0.09467000  0.18340000  0.68118000  1.0
  O  O72  1  0.17256000  0.69756000  0.25816000  1.0
  O  O73  1  0.83209000  0.30220000  0.74661000  1.0
  O  O74  1  0.62877000  0.80218000  0.24178000  1.0
  O  O75  1  0.38059000  0.19827000  0.75325000  1.0
  O  O76  1  0.15066000  0.53362000  0.64245000  1.0
  O  O77  1  0.19476000  0.58241000  0.52291000  1.0
  O  O78  1  0.83495000  0.49964000  0.52453000  1.0
  O  O79  1  0.75185000  0.64418000  0.49703000  1.0
  O  O80  1  0.82592000  0.96689000  0.85754000  1.0
  O  O81  1  0.79880000  0.91830000  0.97707000  1.0
  O  O82  1  0.35831000  0.00009000  0.97514000  1.0
  O  O83  1  0.39367000  0.85543000  0.00374000  1.0
