# generated using pymatgen
data_CoH28C26(NO)6
_symmetry_space_group_name_H-M   'P 1'
_cell_length_a   8.88099000
_cell_length_b   9.82165000
_cell_length_c   11.23276102
_cell_angle_alpha   64.51075260
_cell_angle_beta   76.23003307
_cell_angle_gamma   71.75140000
_symmetry_Int_Tables_number   1
_chemical_formula_structural   CoH28C26(NO)6
_chemical_formula_sum   'Co1 H28 C26 N6 O6'
_cell_volume   833.82508550
_cell_formula_units_Z   1
loop_
 _symmetry_equiv_pos_site_id
 _symmetry_equiv_pos_as_xyz
  1  'x, y, z'
loop_
 _atom_site_type_symbol
 _atom_site_label
 _atom_site_symmetry_multiplicity
 _atom_site_fract_x
 _atom_site_fract_y
 _atom_site_fract_z
 _atom_site_occupancy
  Co  Co0  1  0.50000000  0.00000000  0.50000000  1.0
  H  H1  1  0.74296000  0.23549000  0.82832000  1.0
  H  H2  1  0.25705000  0.76450000  0.17168000  1.0
  H  H3  1  0.93168000  0.11860000  0.87592000  1.0
  H  H4  1  0.06834000  0.88140000  0.12408000  1.0
  H  H5  1  0.96671000  0.31944000  0.94363000  1.0
  H  H6  1  0.03328000  0.68055000  0.05638000  1.0
  H  H7  1  0.77913000  0.43831000  0.89271000  1.0
  H  H8  1  0.22087000  0.56169000  0.10729000  1.0
  H  H9  1  0.40538000  0.16105000  0.23249000  1.0
  H  H10  1  0.59461000  0.83894000  0.76751000  1.0
  H  H11  1  0.53069000  0.30084000  0.00689000  1.0
  H  H12  1  0.46931000  0.69915000  0.99311000  1.0
  H  H13  1  0.97601000  0.13970000  0.17393000  1.0
  H  H14  1  0.02398000  0.86030000  0.82607000  1.0
  H  H15  1  0.83461000  0.01300000  0.38904000  1.0
  H  H16  1  0.16538000  0.98699000  0.61096000  1.0
  H  H17  1  0.06440000  0.32469000  0.70367000  1.0
  H  H18  1  0.93560000  0.67531000  0.29633000  1.0
  H  H19  1  0.95044000  0.26214000  0.63529000  1.0
  H  H20  1  0.04957000  0.73786000  0.36471000  1.0
  H  H21  1  0.83427000  0.86193000  0.58100000  1.0
  H  H22  1  0.16573000  0.13807000  0.41900000  1.0
  H  H23  1  0.01167000  0.60310000  0.65485000  1.0
  H  H24  1  0.98833000  0.39690000  0.34516000  1.0
  H  H25  1  0.65580000  0.43121000  0.59393000  1.0
  H  H26  1  0.34421000  0.56879000  0.40607000  1.0
  H  H27  1  0.49104000  0.70136000  0.51706000  1.0
  H  H28  1  0.50897000  0.29863000  0.48294000  1.0
  C  C29  1  0.86230000  0.23988000  0.83673000  1.0
  C  C30  1  0.13771000  0.76012000  0.16327000  1.0
  C  C31  1  0.84725000  0.31652000  0.93423000  1.0
  C  C32  1  0.15275000  0.68348000  0.06577000  1.0
  C  C33  1  0.53073000  0.16255000  0.21489000  1.0
  C  C34  1  0.46927000  0.83744000  0.78511000  1.0
  C  C35  1  0.60294000  0.23834000  0.08923000  1.0
  C  C36  1  0.39706000  0.76165000  0.91077000  1.0
  C  C37  1  0.76604000  0.23513000  0.06893000  1.0
  C  C38  1  0.23395000  0.76487000  0.93107000  1.0
  C  C39  1  0.84874000  0.15025000  0.18010000  1.0
  C  C40  1  0.15124000  0.84974000  0.81990000  1.0
  C  C41  1  0.76884000  0.07805000  0.30361000  1.0
  C  C42  1  0.23115000  0.92194000  0.69639000  1.0
  C  C43  1  0.94216000  0.32569000  0.69757000  1.0
  C  C44  1  0.05785000  0.67432000  0.30243000  1.0
  C  C45  1  0.79794000  0.76571000  0.58167000  1.0
  C  C46  1  0.20206000  0.23430000  0.41833000  1.0
  C  C47  1  0.89634000  0.61692000  0.62749000  1.0
  C  C48  1  0.10367000  0.38309000  0.37251000  1.0
  C  C49  1  0.84780000  0.49002000  0.63662000  1.0
  C  C50  1  0.15220000  0.50997000  0.36339000  1.0
  C  C51  1  0.70008000  0.52336000  0.59315000  1.0
  C  C52  1  0.29993000  0.47665000  0.40685000  1.0
  C  C53  1  0.60783000  0.67458000  0.54752000  1.0
  C  C54  1  0.39217000  0.32541000  0.45248000  1.0
  N  N55  1  0.61146000  0.08449000  0.32271000  1.0
  N  N56  1  0.38853000  0.91551000  0.67728000  1.0
  N  N57  1  0.65397000  0.79619000  0.54265000  1.0
  N  N58  1  0.34603000  0.20381000  0.45735000  1.0
  N  N59  1  0.23340000  0.87417000  0.42880000  1.0
  N  N60  1  0.76660000  0.12583000  0.57120000  1.0
  O  O61  1  0.35776000  0.93065000  0.39185000  1.0
  O  O62  1  0.64224000  0.06934000  0.60815000  1.0
  O  O63  1  0.23700000  0.74168000  0.52049000  1.0
  O  O64  1  0.76300000  0.25833000  0.47950000  1.0
  O  O65  1  0.11033000  0.95422000  0.37140000  1.0
  O  O66  1  0.88966000  0.04579000  0.62862000  1.0
