# generated using pymatgen
data_MnH14C18(NO6)2
_symmetry_space_group_name_H-M   'P 1'
_cell_length_a   7.41933000
_cell_length_b   8.21344000
_cell_length_c   15.82510000
_cell_angle_alpha   105.00800000
_cell_angle_beta   101.01700000
_cell_angle_gamma   90.02630000
_symmetry_Int_Tables_number   1
_chemical_formula_structural   MnH14C18(NO6)2
_chemical_formula_sum   'Mn2 H28 C36 N4 O24'
_cell_volume   913.02320886
_cell_formula_units_Z   2
loop_
 _symmetry_equiv_pos_site_id
 _symmetry_equiv_pos_as_xyz
  1  'x, y, z'
loop_
 _atom_site_type_symbol
 _atom_site_label
 _atom_site_symmetry_multiplicity
 _atom_site_fract_x
 _atom_site_fract_y
 _atom_site_fract_z
 _atom_site_occupancy
  Mn  Mn0  1  0.25006000  0.62076000  0.00001000  1.0
  Mn  Mn1  1  0.74993000  0.37915000  0.99999000  1.0
  H  H2  1  0.12445000  0.92384000  0.08099000  1.0
  H  H3  1  0.37535000  0.84321000  0.91924000  1.0
  H  H4  1  0.87557000  0.07614000  0.91897000  1.0
  H  H5  1  0.62464000  0.15687000  0.08083000  1.0
  H  H6  1  0.94786000  0.79367000  0.03910000  1.0
  H  H7  1  0.55203000  0.75479000  0.96104000  1.0
  H  H8  1  0.05222000  0.20627000  0.96088000  1.0
  H  H9  1  0.44789000  0.24522000  0.03901000  1.0
  H  H10  1  0.90461000  0.27108000  0.19311000  1.0
  H  H11  1  0.59511000  0.07719000  0.80671000  1.0
  H  H12  1  0.09539000  0.72894000  0.80689000  1.0
  H  H13  1  0.40490000  0.92281000  0.19329000  1.0
  H  H14  1  0.83103000  0.46184000  0.37812000  1.0
  H  H15  1  0.66920000  0.08337000  0.62183000  1.0
  H  H16  1  0.16896000  0.53814000  0.62186000  1.0
  H  H17  1  0.33081000  0.91663000  0.37817000  1.0
  H  H18  1  0.70083000  0.52728000  0.24654000  1.0
  H  H19  1  0.79921000  0.28036000  0.75352000  1.0
  H  H20  1  0.29916000  0.47273000  0.75345000  1.0
  H  H21  1  0.20081000  0.71964000  0.24647000  1.0
  H  H22  1  0.02247000  0.09411000  0.36443000  1.0
  H  H23  1  0.47753000  0.72902000  0.63538000  1.0
  H  H24  1  0.97753000  0.90589000  0.63557000  1.0
  H  H25  1  0.52248000  0.27098000  0.36461000  1.0
  H  H26  1  0.06695000  0.88810000  0.45589000  1.0
  H  H27  1  0.43308000  0.43163000  0.54404000  1.0
  H  H28  1  0.93306000  0.11190000  0.54411000  1.0
  H  H29  1  0.56692000  0.56837000  0.45594000  1.0
  C  C30  1  0.88879000  0.69414000  0.35671000  1.0
  C  C31  1  0.61134000  0.33698000  0.64329000  1.0
  C  C32  1  0.11121000  0.30586000  0.64329000  1.0
  C  C33  1  0.38866000  0.66303000  0.35671000  1.0
  C  C34  1  0.77078000  0.65204000  0.27267000  1.0
  C  C35  1  0.72929000  0.37895000  0.72733000  1.0
  C  C36  1  0.22921000  0.34796000  0.72733000  1.0
  C  C37  1  0.27071000  0.62105000  0.27267000  1.0
  C  C38  1  0.74276000  0.76855000  0.22204000  1.0
  C  C39  1  0.75726000  0.54607000  0.77791000  1.0
  C  C40  1  0.25726000  0.23145000  0.77796000  1.0
  C  C41  1  0.24271000  0.45394000  0.22209000  1.0
  C  C42  1  0.83584000  0.92902000  0.25439000  1.0
  C  C43  1  0.66423000  0.67406000  0.74545000  1.0
  C  C44  1  0.16418000  0.07099000  0.74561000  1.0
  C  C45  1  0.33575000  0.32595000  0.25455000  1.0
  C  C46  1  0.95129000  0.97023000  0.33907000  1.0
  C  C47  1  0.54878000  0.63055000  0.66078000  1.0
  C  C48  1  0.04873000  0.02977000  0.66094000  1.0
  C  C49  1  0.45121000  0.36944000  0.33922000  1.0
  C  C50  1  0.97710000  0.85571000  0.39062000  1.0
  C  C51  1  0.52301000  0.46454000  0.60929000  1.0
  C  C52  1  0.02291000  0.14428000  0.60937000  1.0
  C  C53  1  0.47698000  0.53546000  0.39071000  1.0
  C  C54  1  0.61121000  0.71312000  0.13366000  1.0
  C  C55  1  0.88857000  0.57899000  0.86635000  1.0
  C  C56  1  0.38879000  0.28691000  0.86635000  1.0
  C  C57  1  0.11142000  0.42102000  0.13364000  1.0
  C  C58  1  0.81557000  0.04893000  0.19837000  1.0
  C  C59  1  0.68462000  0.84998000  0.80141000  1.0
  C  C60  1  0.18445000  0.95108000  0.80163000  1.0
  C  C61  1  0.31538000  0.15002000  0.19859000  1.0
  C  C62  1  0.01993000  0.57815000  0.48418000  1.0
  C  C63  1  0.48008000  0.09386000  0.51588000  1.0
  C  C64  1  0.98007000  0.42184000  0.51581000  1.0
  C  C65  1  0.51993000  0.90615000  0.48412000  1.0
  N  N66  1  0.91110000  0.57160000  0.40399000  1.0
  N  N67  1  0.58903000  0.16727000  0.59604000  1.0
  N  N68  1  0.08889000  0.42840000  0.59600000  1.0
  N  N69  1  0.41099000  0.83274000  0.40396000  1.0
  O  O70  1  0.44478000  0.75806000  0.12938000  1.0
  O  O71  1  0.05519000  0.62790000  0.87072000  1.0
  O  O72  1  0.55524000  0.24192000  0.87063000  1.0
  O  O73  1  0.94478000  0.37209000  0.12928000  1.0
  O  O74  1  0.66574000  0.61640000  0.06894000  1.0
  O  O75  1  0.83353000  0.54738000  0.93108000  1.0
  O  O76  1  0.33427000  0.38358000  0.93105000  1.0
  O  O77  1  0.16646000  0.45258000  0.06892000  1.0
  O  O78  1  0.07797000  0.80346000  0.06674000  1.0
  O  O79  1  0.42193000  0.73699000  0.93336000  1.0
  O  O80  1  0.92208000  0.19653000  0.93326000  1.0
  O  O81  1  0.57800000  0.26305000  0.06668000  1.0
  O  O82  1  0.73174000  0.00691000  0.11908000  1.0
  O  O83  1  0.76897000  0.88737000  0.88061000  1.0
  O  O84  1  0.26827000  0.99311000  0.88092000  1.0
  O  O85  1  0.23102000  0.11264000  0.11939000  1.0
  O  O86  1  0.89411000  0.20180000  0.23854000  1.0
  O  O87  1  0.60560000  0.96257000  0.76127000  1.0
  O  O88  1  0.10589000  0.79822000  0.76147000  1.0
  O  O89  1  0.39440000  0.03744000  0.23873000  1.0
  O  O90  1  0.13760000  0.68967000  0.52927000  1.0
  O  O91  1  0.36220000  0.16033000  0.47092000  1.0
  O  O92  1  0.86239000  0.31032000  0.47072000  1.0
  O  O93  1  0.63781000  0.83967000  0.52908000  1.0
