# generated using pymatgen
data_CdH19C20SN3O8
_symmetry_space_group_name_H-M   'P 1'
_cell_length_a   8.32001000
_cell_length_b   10.22370000
_cell_length_c   13.83040000
_cell_angle_alpha   99.81620000
_cell_angle_beta   100.94100000
_cell_angle_gamma   104.57400000
_symmetry_Int_Tables_number   1
_chemical_formula_structural   CdH19C20SN3O8
_chemical_formula_sum   'Cd2 H38 C40 S2 N6 O16'
_cell_volume   1087.99769231
_cell_formula_units_Z   2
loop_
 _symmetry_equiv_pos_site_id
 _symmetry_equiv_pos_as_xyz
  1  'x, y, z'
loop_
 _atom_site_type_symbol
 _atom_site_label
 _atom_site_symmetry_multiplicity
 _atom_site_fract_x
 _atom_site_fract_y
 _atom_site_fract_z
 _atom_site_occupancy
  Cd  Cd0  1  0.77788000  0.38993000  0.49473000  1.0
  Cd  Cd1  1  0.22211000  0.61007000  0.50527000  1.0
  H  H2  1  0.54463000  0.21562000  0.55320000  1.0
  H  H3  1  0.45537000  0.78438000  0.44680000  1.0
  H  H4  1  0.44278000  0.32685000  0.53672000  1.0
  H  H5  1  0.55722000  0.67315000  0.46328000  1.0
  H  H6  1  0.22164000  0.98792000  0.01696000  1.0
  H  H7  1  0.77836000  0.01208000  0.98304000  1.0
  H  H8  1  0.38936000  0.97142000  0.10030000  1.0
  H  H9  1  0.61064000  0.02858000  0.89971000  1.0
  H  H10  1  0.48419000  0.14785000  0.33981000  1.0
  H  H11  1  0.51580000  0.85215000  0.66019000  1.0
  H  H12  1  0.72121000  0.54872000  0.32336000  1.0
  H  H13  1  0.27878000  0.45127000  0.67664000  1.0
  H  H14  1  0.52418000  0.52193000  0.15640000  1.0
  H  H15  1  0.47582000  0.47807000  0.84360000  1.0
  H  H16  1  0.29493000  0.29192000  0.07798000  1.0
  H  H17  1  0.70507000  0.70808000  0.92202000  1.0
  H  H18  1  0.10772000  0.08746000  0.13515000  1.0
  H  H19  1  0.89227000  0.91254000  0.86485000  1.0
  H  H20  1  0.21358000  0.02002000  0.23086000  1.0
  H  H21  1  0.78642000  0.97998000  0.76914000  1.0
  H  H22  1  0.03210000  0.82463000  0.09745000  1.0
  H  H23  1  0.96790000  0.17536000  0.90254000  1.0
  H  H24  1  0.22677000  0.79366000  0.15595000  1.0
  H  H25  1  0.77323000  0.20634000  0.84405000  1.0
  H  H26  1  0.89135000  0.61438000  0.76470000  1.0
  H  H27  1  0.10865000  0.38562000  0.23530000  1.0
  H  H28  1  0.00824000  0.41416000  0.75895000  1.0
  H  H29  1  0.99178000  0.58584000  0.24105000  1.0
  H  H30  1  0.22302000  0.40841000  0.91435000  1.0
  H  H31  1  0.77699000  0.59159000  0.08565000  1.0
  H  H32  1  0.30495000  0.60753000  0.06677000  1.0
  H  H33  1  0.69506000  0.39248000  0.93323000  1.0
  H  H34  1  0.75474000  0.88146000  0.50786000  1.0
  H  H35  1  0.24526000  0.11853000  0.49214000  1.0
  H  H36  1  0.11860000  0.22792000  0.72758000  1.0
  H  H37  1  0.88140000  0.77208000  0.27242000  1.0
  H  H38  1  0.14567000  0.81333000  0.73128000  1.0
  H  H39  1  0.85433000  0.18668000  0.26872000  1.0
  C  C40  1  0.37104000  0.20265000  0.20314000  1.0
  C  C41  1  0.62896000  0.79735000  0.79686000  1.0
  C  C42  1  0.48809000  0.22729000  0.29581000  1.0
  C  C43  1  0.51191000  0.77271000  0.70419000  1.0
  C  C44  1  0.62144000  0.45152000  0.28648000  1.0
  C  C45  1  0.37856000  0.54847000  0.71353000  1.0
  C  C46  1  0.51094000  0.43513000  0.19326000  1.0
  C  C47  1  0.48906000  0.56487000  0.80674000  1.0
  C  C48  1  0.38467000  0.30897000  0.15056000  1.0
  C  C49  1  0.61533000  0.69103000  0.84944000  1.0
  C  C50  1  0.22881000  0.06856000  0.16701000  1.0
  C  C51  1  0.77119000  0.93144000  0.83299000  1.0
  C  C52  1  0.15897000  0.81918000  0.08890000  1.0
  C  C53  1  0.84102000  0.18082000  0.91110000  1.0
  C  C54  1  0.13476000  0.70980000  0.99517000  1.0
  C  C55  1  0.86524000  0.29020000  0.00483000  1.0
  C  C56  1  0.98278000  0.60926000  0.83086000  1.0
  C  C57  1  0.01722000  0.39074000  0.16913000  1.0
  C  C58  1  0.04867000  0.49623000  0.82794000  1.0
  C  C59  1  0.95134000  0.50378000  0.17206000  1.0
  C  C60  1  0.16661000  0.49395000  0.91357000  1.0
  C  C61  1  0.83340000  0.50605000  0.08642000  1.0
  C  C62  1  0.21198000  0.60346000  0.99847000  1.0
  C  C63  1  0.78802000  0.39655000  0.00154000  1.0
  C  C64  1  0.94203000  0.83028000  0.61520000  1.0
  C  C65  1  0.05797000  0.16972000  0.38480000  1.0
  C  C66  1  0.86299000  0.92049000  0.57370000  1.0
  C  C67  1  0.13701000  0.07951000  0.42630000  1.0
  C  C68  1  0.92720000  0.06361000  0.61306000  1.0
  C  C69  1  0.07280000  0.93638000  0.38694000  1.0
  C  C70  1  0.06787000  0.11643000  0.69680000  1.0
  C  C71  1  0.93213000  0.88357000  0.30320000  1.0
  C  C72  1  0.14241000  0.02575000  0.74028000  1.0
  C  C73  1  0.85759000  0.97426000  0.25972000  1.0
  C  C74  1  0.08364000  0.88317000  0.69878000  1.0
  C  C75  1  0.91636000  0.11683000  0.30122000  1.0
  C  C76  1  0.87673000  0.67812000  0.57022000  1.0
  C  C77  1  0.12327000  0.32188000  0.42978000  1.0
  C  C78  1  0.84731000  0.15999000  0.56460000  1.0
  C  C79  1  0.15269000  0.84001000  0.43540000  1.0
  S  S80  1  0.30147000  0.09469000  0.85679000  1.0
  S  S81  1  0.69853000  0.90531000  0.14321000  1.0
  N  N82  1  0.61044000  0.34884000  0.33654000  1.0
  N  N83  1  0.38955000  0.65116000  0.66346000  1.0
  N  N84  1  0.25738000  0.96289000  0.08696000  1.0
  N  N85  1  0.74262000  0.03711000  0.91304000  1.0
  N  N86  1  0.02307000  0.71417000  0.91235000  1.0
  N  N87  1  0.97693000  0.28583000  0.08765000  1.0
  O  O88  1  0.97642000  0.60301000  0.58909000  1.0
  O  O89  1  0.02359000  0.39699000  0.41091000  1.0
  O  O90  1  0.72469000  0.62429000  0.51599000  1.0
  O  O91  1  0.27531000  0.37570000  0.48401000  1.0
  O  O92  1  0.70653000  0.11197000  0.49885000  1.0
  O  O93  1  0.29347000  0.88803000  0.50114000  1.0
  O  O94  1  0.93217000  0.28976000  0.59405000  1.0
  O  O95  1  0.06783000  0.71024000  0.40595000  1.0
  O  O96  1  0.39953000  0.23348000  0.85412000  1.0
  O  O97  1  0.60047000  0.76652000  0.14588000  1.0
  O  O98  1  0.19884000  0.09561000  0.93363000  1.0
  O  O99  1  0.80116000  0.90440000  0.06637000  1.0
  O  O100  1  0.40091000  0.99437000  0.86411000  1.0
  O  O101  1  0.59909000  0.00563000  0.13589000  1.0
  O  O102  1  0.55231000  0.31430000  0.57238000  1.0
  O  O103  1  0.44768000  0.68570000  0.42762000  1.0
