# generated using pymatgen
data_Cu2SiH12C12(NF)6
_symmetry_space_group_name_H-M   'P 1'
_cell_length_a   10.59474692
_cell_length_b   10.59490000
_cell_length_c   10.59480000
_cell_angle_alpha   104.72430000
_cell_angle_beta   111.89487503
_cell_angle_gamma   111.89580601
_symmetry_Int_Tables_number   1
_chemical_formula_structural   Cu2SiH12C12(NF)6
_chemical_formula_sum   'Cu4 Si2 H24 C24 N12 F12'
_cell_volume   910.84386001
_cell_formula_units_Z   2
loop_
 _symmetry_equiv_pos_site_id
 _symmetry_equiv_pos_as_xyz
  1  'x, y, z'
loop_
 _atom_site_type_symbol
 _atom_site_label
 _atom_site_symmetry_multiplicity
 _atom_site_fract_x
 _atom_site_fract_y
 _atom_site_fract_z
 _atom_site_occupancy
  Cu  Cu0  1  0.90556000  0.70278000  0.20278000  1.0
  Cu  Cu1  1  0.50000000  0.20278000  0.29722000  1.0
  Cu  Cu2  1  0.09444000  0.29722000  0.79722000  1.0
  Cu  Cu3  1  0.50000000  0.79721000  0.70279000  1.0
  Si  Si4  1  0.00000000  0.00000000  0.00000000  1.0
  Si  Si5  1  0.00000000  0.50000000  0.50000000  1.0
  H  H6  1  0.97994000  0.01973000  0.27043000  1.0
  H  H7  1  0.25070000  0.27043000  0.29049000  1.0
  H  H8  1  0.74930000  0.20951000  0.22957000  1.0
  H  H9  1  0.02005000  0.29049000  0.03979000  1.0
  H  H10  1  0.02005000  0.22956000  0.48026000  1.0
  H  H11  1  0.74930000  0.03979000  0.01974000  1.0
  H  H12  1  0.25070000  0.48026000  0.46021000  1.0
  H  H13  1  0.97995000  0.46022000  0.20952000  1.0
  H  H14  1  0.02005000  0.98026000  0.72956000  1.0
  H  H15  1  0.74930000  0.72957000  0.70951000  1.0
  H  H16  1  0.25070000  0.79049000  0.77044000  1.0
  H  H17  1  0.97995000  0.70952000  0.96021000  1.0
  H  H18  1  0.97995000  0.77044000  0.51974000  1.0
  H  H19  1  0.25070000  0.96021000  0.98027000  1.0
  H  H20  1  0.74930000  0.51973000  0.53979000  1.0
  H  H21  1  0.02005000  0.53979000  0.79049000  1.0
  H  H22  1  0.65120000  0.69952000  0.95168000  1.0
  H  H23  1  0.25216000  0.95168000  0.30048000  1.0
  H  H24  1  0.74784000  0.19952000  0.54833000  1.0
  H  H25  1  0.34881000  0.30049000  0.04832000  1.0
  H  H26  1  0.34881000  0.54832000  0.80049000  1.0
  H  H27  1  0.74783000  0.04831000  0.69951000  1.0
  H  H28  1  0.25216000  0.80048000  0.45168000  1.0
  H  H29  1  0.65120000  0.45168000  0.19952000  1.0
  C  C30  1  0.98894000  0.00998000  0.37283000  1.0
  C  C31  1  0.36285000  0.37283000  0.38389000  1.0
  C  C32  1  0.63715000  0.11611000  0.12717000  1.0
  C  C33  1  0.01106000  0.38388000  0.02103000  1.0
  C  C34  1  0.01106000  0.12718000  0.49002000  1.0
  C  C35  1  0.63715000  0.02104000  0.00997000  1.0
  C  C36  1  0.36285000  0.49003000  0.47897000  1.0
  C  C37  1  0.98894000  0.47896000  0.11611000  1.0
  C  C38  1  0.01106000  0.99002000  0.62718000  1.0
  C  C39  1  0.63715000  0.62718000  0.61611000  1.0
  C  C40  1  0.36285000  0.88389000  0.87282000  1.0
  C  C41  1  0.98894000  0.61611000  0.97896000  1.0
  C  C42  1  0.98894000  0.87283000  0.50998000  1.0
  C  C43  1  0.36285000  0.97896000  0.99002000  1.0
  C  C44  1  0.63715000  0.50998000  0.52104000  1.0
  C  C45  1  0.01106000  0.52103000  0.88388000  1.0
  C  C46  1  0.58276000  0.61004000  0.97272000  1.0
  C  C47  1  0.36267000  0.97271000  0.38996000  1.0
  C  C48  1  0.63733000  0.11004000  0.52729000  1.0
  C  C49  1  0.41724000  0.38995000  0.02729000  1.0
  C  C50  1  0.41724000  0.52729000  0.88995000  1.0
  C  C51  1  0.63733000  0.02728000  0.61005000  1.0
  C  C52  1  0.36267000  0.88995000  0.47272000  1.0
  C  C53  1  0.58276000  0.47272000  0.11004000  1.0
  N  N54  1  0.66676000  0.58338000  0.08338000  1.0
  N  N55  1  0.50000000  0.08338000  0.41662000  1.0
  N  N56  1  0.33325000  0.41663000  0.91662000  1.0
  N  N57  1  0.50000000  0.91662000  0.58338000  1.0
  N  N58  1  0.97696000  0.88040000  0.38040000  1.0
  N  N59  1  0.50000000  0.38039000  0.40344000  1.0
  N  N60  1  0.50000000  0.09656000  0.11961000  1.0
  N  N61  1  0.02304000  0.40345000  0.90345000  1.0
  N  N62  1  0.02304000  0.11959000  0.61959000  1.0
  N  N63  1  0.50000000  0.90345000  0.88041000  1.0
  N  N64  1  0.50000000  0.61959000  0.59655000  1.0
  N  N65  1  0.97696000  0.59657000  0.09656000  1.0
  F  F66  1  0.88714000  0.85747000  0.02966000  1.0
  F  F67  1  0.17219000  0.02966000  0.14252000  1.0
  F  F68  1  0.82780000  0.35747000  0.47033000  1.0
  F  F69  1  0.11286000  0.14253000  0.97033000  1.0
  F  F70  1  0.11286000  0.47034000  0.64253000  1.0
  F  F71  1  0.82781000  0.97034000  0.85748000  1.0
  F  F72  1  0.17219000  0.64252000  0.52967000  1.0
  F  F73  1  0.88714000  0.52967000  0.35747000  1.0
  F  F74  1  0.00000000  0.13185000  0.13184000  1.0
  F  F75  1  0.00000000  0.36816000  0.36815000  1.0
  F  F76  1  0.00000000  0.86816000  0.86815000  1.0
  F  F77  1  0.00000000  0.63185000  0.63185000  1.0
