# generated using pymatgen
data_ZnH16C20(N3O2)2
_symmetry_space_group_name_H-M   'P 1'
_cell_length_a   12.85270000
_cell_length_b   14.56810000
_cell_length_c   14.56810000
_cell_angle_alpha   90.00000000
_cell_angle_beta   90.00000000
_cell_angle_gamma   89.99990000
_symmetry_Int_Tables_number   1
_chemical_formula_structural   ZnH16C20(N3O2)2
_chemical_formula_sum   'Zn4 H64 C80 N24 O16'
_cell_volume   2727.72257804
_cell_formula_units_Z   4
loop_
 _symmetry_equiv_pos_site_id
 _symmetry_equiv_pos_as_xyz
  1  'x, y, z'
loop_
 _atom_site_type_symbol
 _atom_site_label
 _atom_site_symmetry_multiplicity
 _atom_site_fract_x
 _atom_site_fract_y
 _atom_site_fract_z
 _atom_site_occupancy
  Zn  Zn0  1  0.00072000  0.50000000  0.00000000  1.0
  Zn  Zn1  1  0.50072000  0.00000000  0.50000000  1.0
  Zn  Zn2  1  0.50072000  0.50000000  0.00000000  1.0
  Zn  Zn3  1  0.00072000  0.00000000  0.50000000  1.0
  H  H4  1  0.99172000  0.81067000  0.18813000  1.0
  H  H5  1  0.49172000  0.68932000  0.68813000  1.0
  H  H6  1  0.99172000  0.18933000  0.81187000  1.0
  H  H7  1  0.49172000  0.31067000  0.31187000  1.0
  H  H8  1  0.49172000  0.68813000  0.31068000  1.0
  H  H9  1  0.99172000  0.81187000  0.81067000  1.0
  H  H10  1  0.99172000  0.18813000  0.18933000  1.0
  H  H11  1  0.49172000  0.31187000  0.68932000  1.0
  H  H12  1  0.86669000  0.91042000  0.27682000  1.0
  H  H13  1  0.36669000  0.58958000  0.77682000  1.0
  H  H14  1  0.86669000  0.08958000  0.72318000  1.0
  H  H15  1  0.36669000  0.41042000  0.22318000  1.0
  H  H16  1  0.36669000  0.77682000  0.41042000  1.0
  H  H17  1  0.86669000  0.72318000  0.91042000  1.0
  H  H18  1  0.86669000  0.27682000  0.08958000  1.0
  H  H19  1  0.36669000  0.22318000  0.58958000  1.0
  H  H20  1  0.61090000  0.74874000  0.17163000  1.0
  H  H21  1  0.11090000  0.75126000  0.67163000  1.0
  H  H22  1  0.61090000  0.25126000  0.82837000  1.0
  H  H23  1  0.11091000  0.24874000  0.32837000  1.0
  H  H24  1  0.11090000  0.67163000  0.24874000  1.0
  H  H25  1  0.61091000  0.82837000  0.74874000  1.0
  H  H26  1  0.61090000  0.17163000  0.25126000  1.0
  H  H27  1  0.11091000  0.32837000  0.75126000  1.0
  H  H28  1  0.73584000  0.65184000  0.08542000  1.0
  H  H29  1  0.23584000  0.84817000  0.58542000  1.0
  H  H30  1  0.73584000  0.34816000  0.91458000  1.0
  H  H31  1  0.23584000  0.15184000  0.41458000  1.0
  H  H32  1  0.23584000  0.58542000  0.15184000  1.0
  H  H33  1  0.73584000  0.91458000  0.65184000  1.0
  H  H34  1  0.73584000  0.08542000  0.34816000  1.0
  H  H35  1  0.23584000  0.41458000  0.84816000  1.0
  H  H36  1  0.56167000  0.94000000  0.16607000  1.0
  H  H37  1  0.06166000  0.56000000  0.66607000  1.0
  H  H38  1  0.56167000  0.06000000  0.83393000  1.0
  H  H39  1  0.06167000  0.44000000  0.33393000  1.0
  H  H40  1  0.06167000  0.66607000  0.44000000  1.0
  H  H41  1  0.56167000  0.83393000  0.94000000  1.0
  H  H42  1  0.56166000  0.16607000  0.06000000  1.0
  H  H43  1  0.06167000  0.33393000  0.56000000  1.0
  H  H44  1  0.79038000  0.91159000  0.45212000  1.0
  H  H45  1  0.29038000  0.58841000  0.95212000  1.0
  H  H46  1  0.79038000  0.08841000  0.54788000  1.0
  H  H47  1  0.29038000  0.41159000  0.04788000  1.0
  H  H48  1  0.29038000  0.95212000  0.41159000  1.0
  H  H49  1  0.79038000  0.54788000  0.91159000  1.0
  H  H50  1  0.79038000  0.45212000  0.08841000  1.0
  H  H51  1  0.29038000  0.04788000  0.58841000  1.0
  H  H52  1  0.75521000  0.79939000  0.41615000  1.0
  H  H53  1  0.25521000  0.70061000  0.91615000  1.0
  H  H54  1  0.75521000  0.20061000  0.58385000  1.0
  H  H55  1  0.25521000  0.29939000  0.08385000  1.0
  H  H56  1  0.25521000  0.91615000  0.29939000  1.0
  H  H57  1  0.75521000  0.58385000  0.79939000  1.0
  H  H58  1  0.75521000  0.41615000  0.20061000  1.0
  H  H59  1  0.25521000  0.08385000  0.70061000  1.0
  H  H60  1  0.68032000  0.85540000  0.50326000  1.0
  H  H61  1  0.18032000  0.64460000  0.00326000  1.0
  H  H62  1  0.68032000  0.14460000  0.49674000  1.0
  H  H63  1  0.18032000  0.35540000  0.99674000  1.0
  H  H64  1  0.18032000  0.00326000  0.35540000  1.0
  H  H65  1  0.68032000  0.49674000  0.85540000  1.0
  H  H66  1  0.68032000  0.50326000  0.14460000  1.0
  H  H67  1  0.18032000  0.99674000  0.64460000  1.0
  C  C68  1  0.94574000  0.66384000  0.08193000  1.0
  C  C69  1  0.44574000  0.83616000  0.58193000  1.0
  C  C70  1  0.94574000  0.33616000  0.91807000  1.0
  C  C71  1  0.44575000  0.16384000  0.41807000  1.0
  C  C72  1  0.44575000  0.58193000  0.16384000  1.0
  C  C73  1  0.94575000  0.91807000  0.66384000  1.0
  C  C74  1  0.94575000  0.08193000  0.33616000  1.0
  C  C75  1  0.44574000  0.41807000  0.83616000  1.0
  C  C76  1  0.87084000  0.72612000  0.13106000  1.0
  C  C77  1  0.37084000  0.77389000  0.63107000  1.0
  C  C78  1  0.87084000  0.27388000  0.86893000  1.0
  C  C79  1  0.37084000  0.22611000  0.36894000  1.0
  C  C80  1  0.37084000  0.63107000  0.22612000  1.0
  C  C81  1  0.87084000  0.86893000  0.72611000  1.0
  C  C82  1  0.87084000  0.13106000  0.27388000  1.0
  C  C83  1  0.37084000  0.36893000  0.77389000  1.0
  C  C84  1  0.90807000  0.79861000  0.18525000  1.0
  C  C85  1  0.40807000  0.70139000  0.68525000  1.0
  C  C86  1  0.90807000  0.20139000  0.81475000  1.0
  C  C87  1  0.40807000  0.29861000  0.31475000  1.0
  C  C88  1  0.40807000  0.68525000  0.29861000  1.0
  C  C89  1  0.90807000  0.81475000  0.79861000  1.0
  C  C90  1  0.90807000  0.18525000  0.20139000  1.0
  C  C91  1  0.40807000  0.31475000  0.70139000  1.0
  C  C92  1  0.83914000  0.85399000  0.23405000  1.0
  C  C93  1  0.33914000  0.64601000  0.73405000  1.0
  C  C94  1  0.83914000  0.14601000  0.76595000  1.0
  C  C95  1  0.33914000  0.35399000  0.26595000  1.0
  C  C96  1  0.33914000  0.73405000  0.35399000  1.0
  C  C97  1  0.83914000  0.76595000  0.85399000  1.0
  C  C98  1  0.83914000  0.23405000  0.14601000  1.0
  C  C99  1  0.33914000  0.26595000  0.64601000  1.0
  C  C100  1  0.73253000  0.83594000  0.22744000  1.0
  C  C101  1  0.23253000  0.66407000  0.72744000  1.0
  C  C102  1  0.73253000  0.16407000  0.77256000  1.0
  C  C103  1  0.23253000  0.33594000  0.27256000  1.0
  C  C104  1  0.23253000  0.72744000  0.33593000  1.0
  C  C105  1  0.73253000  0.77256000  0.83594000  1.0
  C  C106  1  0.73253000  0.22743000  0.16406000  1.0
  C  C107  1  0.23253000  0.27256000  0.66406000  1.0
  C  C108  1  0.69380000  0.76437000  0.17365000  1.0
  C  C109  1  0.19380000  0.73563000  0.67365000  1.0
  C  C110  1  0.69380000  0.23563000  0.82635000  1.0
  C  C111  1  0.19380000  0.26437000  0.32635000  1.0
  C  C112  1  0.19380000  0.67365000  0.26437000  1.0
  C  C113  1  0.69380000  0.82635000  0.76437000  1.0
  C  C114  1  0.69380000  0.17365000  0.23563000  1.0
  C  C115  1  0.19380000  0.32635000  0.73563000  1.0
  C  C116  1  0.76375000  0.70966000  0.12565000  1.0
  C  C117  1  0.26375000  0.79034000  0.62566000  1.0
  C  C118  1  0.76375000  0.29034000  0.87435000  1.0
  C  C119  1  0.26375000  0.20966000  0.37434000  1.0
  C  C120  1  0.26375000  0.62566000  0.20966000  1.0
  C  C121  1  0.76375000  0.87434000  0.70966000  1.0
  C  C122  1  0.76375000  0.12565000  0.29034000  1.0
  C  C123  1  0.26375000  0.37434000  0.79034000  1.0
  C  C124  1  0.57733000  0.93849000  0.23916000  1.0
  C  C125  1  0.07733000  0.56151000  0.73916000  1.0
  C  C126  1  0.57733000  0.06151000  0.76084000  1.0
  C  C127  1  0.07733000  0.43849000  0.26084000  1.0
  C  C128  1  0.07733000  0.73916000  0.43849000  1.0
  C  C129  1  0.57733000  0.76084000  0.93849000  1.0
  C  C130  1  0.57733000  0.23916000  0.06152000  1.0
  C  C131  1  0.07733000  0.26084000  0.56151000  1.0
  C  C132  1  0.65370000  0.90500000  0.36956000  1.0
  C  C133  1  0.15370000  0.59500000  0.86956000  1.0
  C  C134  1  0.65370000  0.09500000  0.63044000  1.0
  C  C135  1  0.15370000  0.40500000  0.13044000  1.0
  C  C136  1  0.15370000  0.86956000  0.40500000  1.0
  C  C137  1  0.65370000  0.63044000  0.90500000  1.0
  C  C138  1  0.65370000  0.36956000  0.09500000  1.0
  C  C139  1  0.15370000  0.13044000  0.59500000  1.0
  C  C140  1  0.72417000  0.86560000  0.43936000  1.0
  C  C141  1  0.22417000  0.63440000  0.93936000  1.0
  C  C142  1  0.72417000  0.13440000  0.56064000  1.0
  C  C143  1  0.22417000  0.36560000  0.06064000  1.0
  C  C144  1  0.22417000  0.93936000  0.36560000  1.0
  C  C145  1  0.72417000  0.56064000  0.86560000  1.0
  C  C146  1  0.72417000  0.43936000  0.13440000  1.0
  C  C147  1  0.22417000  0.06064000  0.63440000  1.0
  N  N148  1  0.52308000  0.97996000  0.30303000  1.0
  N  N149  1  0.02308000  0.52004000  0.80303000  1.0
  N  N150  1  0.52308000  0.02004000  0.69697000  1.0
  N  N151  1  0.02308000  0.47996000  0.19697000  1.0
  N  N152  1  0.02308000  0.80303000  0.47996000  1.0
  N  N153  1  0.52308000  0.69697000  0.97996000  1.0
  N  N154  1  0.52308000  0.30303000  0.02004000  1.0
  N  N155  1  0.02308000  0.19697000  0.52004000  1.0
  N  N156  1  0.57152000  0.95856000  0.38481000  1.0
  N  N157  1  0.07152000  0.54144000  0.88481000  1.0
  N  N158  1  0.57152000  0.04144000  0.61519000  1.0
  N  N159  1  0.07152000  0.45856000  0.11519000  1.0
  N  N160  1  0.07152000  0.88481000  0.45856000  1.0
  N  N161  1  0.57152000  0.61519000  0.95856000  1.0
  N  N162  1  0.57152000  0.38481000  0.04144000  1.0
  N  N163  1  0.07152000  0.11519000  0.54144000  1.0
  N  N164  1  0.65973000  0.89141000  0.27662000  1.0
  N  N165  1  0.15973000  0.60859000  0.77662000  1.0
  N  N166  1  0.65973000  0.10859000  0.72338000  1.0
  N  N167  1  0.15973000  0.39141000  0.22338000  1.0
  N  N168  1  0.15973000  0.77662000  0.39141000  1.0
  N  N169  1  0.65973000  0.72338000  0.89141000  1.0
  N  N170  1  0.65973000  0.27662000  0.10859000  1.0
  N  N171  1  0.15973000  0.22338000  0.60859000  1.0
  O  O172  1  0.90209000  0.59805000  0.03526000  1.0
  O  O173  1  0.40209000  0.90195000  0.53526000  1.0
  O  O174  1  0.90209000  0.40195000  0.96474000  1.0
  O  O175  1  0.40209000  0.09805000  0.46474000  1.0
  O  O176  1  0.40209000  0.53526000  0.09805000  1.0
  O  O177  1  0.90209000  0.96474000  0.59805000  1.0
  O  O178  1  0.90209000  0.03526000  0.40195000  1.0
  O  O179  1  0.40209000  0.46475000  0.90195000  1.0
  O  O180  1  0.04151000  0.67668000  0.08848000  1.0
  O  O181  1  0.54151000  0.82332000  0.58848000  1.0
  O  O182  1  0.04151000  0.32332000  0.91152000  1.0
  O  O183  1  0.54151000  0.17668000  0.41152000  1.0
  O  O184  1  0.54151000  0.58848000  0.17668000  1.0
  O  O185  1  0.04151000  0.91152000  0.67668000  1.0
  O  O186  1  0.04151000  0.08848000  0.32332000  1.0
  O  O187  1  0.54151000  0.41152000  0.82332000  1.0
