# generated using pymatgen
data_CdH28C21(NO)6
_symmetry_space_group_name_H-M   'P 1'
_cell_length_a   4.85665000
_cell_length_b   15.37950000
_cell_length_c   17.61570000
_cell_angle_alpha   67.05460000
_cell_angle_beta   82.07360000
_cell_angle_gamma   80.91430000
_symmetry_Int_Tables_number   1
_chemical_formula_structural   CdH28C21(NO)6
_chemical_formula_sum   'Cd2 H56 C42 N12 O12'
_cell_volume   1192.23310260
_cell_formula_units_Z   2
loop_
 _symmetry_equiv_pos_site_id
 _symmetry_equiv_pos_as_xyz
  1  'x, y, z'
loop_
 _atom_site_type_symbol
 _atom_site_label
 _atom_site_symmetry_multiplicity
 _atom_site_fract_x
 _atom_site_fract_y
 _atom_site_fract_z
 _atom_site_occupancy
  Cd  Cd0  1  0.99374000  0.56709000  0.91282000  1.0
  Cd  Cd1  1  0.47360000  0.43290000  0.08720000  1.0
  H  H2  1  0.96766000  0.38112000  0.86445000  1.0
  H  H3  1  0.74933000  0.24202000  0.96625000  1.0
  H  H4  1  0.46892000  0.26618000  0.90383000  1.0
  H  H5  1  0.08584000  0.20899000  0.85735000  1.0
  H  H6  1  0.80506000  0.13842000  0.88109000  1.0
  H  H7  1  0.82086000  0.37370000  0.66069000  1.0
  H  H8  1  0.09064000  0.35094000  0.72710000  1.0
  H  H9  1  0.74391000  0.48709000  0.73734000  1.0
  H  H10  1  0.46908000  0.41451000  0.76260000  1.0
  H  H11  1  0.09476000  0.38644000  0.36514000  1.0
  H  H12  1  0.48917000  0.20258000  0.43268000  1.0
  H  H13  1  0.15153000  0.21585000  0.39807000  1.0
  H  H14  1  0.92888000  0.26330000  0.51391000  1.0
  H  H15  1  0.14640000  0.15487000  0.55491000  1.0
  H  H16  1  0.44911000  0.39674000  0.54401000  1.0
  H  H17  1  0.11198000  0.41200000  0.50844000  1.0
  H  H18  1  0.44552000  0.47154000  0.38682000  1.0
  H  H19  1  0.67729000  0.36538000  0.42262000  1.0
  H  H20  1  0.09234000  0.79247000  0.90371000  1.0
  H  H21  1  0.64707000  0.87091000  0.89053000  1.0
  H  H22  1  0.41382000  0.83095000  0.97944000  1.0
  H  H23  1  0.06268000  0.96767000  0.92065000  1.0
  H  H24  1  0.39023000  0.01181000  0.90927000  1.0
  H  H25  1  0.09687000  0.00943000  0.70014000  1.0
  H  H26  1  0.89407000  0.96191000  0.79577000  1.0
  H  H27  1  0.46828000  0.87468000  0.74463000  1.0
  H  H28  1  0.14452000  0.82863000  0.75731000  1.0
  H  H29  1  0.80190000  0.33289000  0.23329000  1.0
  H  H30  1  0.21326000  0.61886000  0.13554000  1.0
  H  H31  1  0.95796000  0.75803000  0.03377000  1.0
  H  H32  1  0.63904000  0.73387000  0.09613000  1.0
  H  H33  1  0.15217000  0.79100000  0.14275000  1.0
  H  H34  1  0.82466000  0.86164000  0.11892000  1.0
  H  H35  1  0.85487000  0.62629000  0.33931000  1.0
  H  H36  1  0.16858000  0.64909000  0.27297000  1.0
  H  H37  1  0.96836000  0.51289000  0.26267000  1.0
  H  H38  1  0.64604000  0.58551000  0.23735000  1.0
  H  H39  1  0.84602000  0.61360000  0.63488000  1.0
  H  H40  1  0.12461000  0.79736000  0.56731000  1.0
  H  H41  1  0.76557000  0.78422000  0.60196000  1.0
  H  H42  1  0.70579000  0.73676000  0.48615000  1.0
  H  H43  1  0.85605000  0.84515000  0.44512000  1.0
  H  H44  1  0.38942000  0.60324000  0.45598000  1.0
  H  H45  1  0.03201000  0.58801000  0.49155000  1.0
  H  H46  1  0.30348000  0.52842000  0.61317000  1.0
  H  H47  1  0.46512000  0.63457000  0.57735000  1.0
  H  H48  1  0.78811000  0.20753000  0.09632000  1.0
  H  H49  1  0.40828000  0.12907000  0.10938000  1.0
  H  H50  1  0.22362000  0.16900000  0.02053000  1.0
  H  H51  1  0.95065000  0.03227000  0.07940000  1.0
  H  H52  1  0.31087000  0.98815000  0.09073000  1.0
  H  H53  1  0.80626000  0.99059000  0.29990000  1.0
  H  H54  1  0.65145000  0.03813000  0.20429000  1.0
  H  H55  1  0.08763000  0.12533000  0.25532000  1.0
  H  H56  1  0.73054000  0.17138000  0.24270000  1.0
  H  H57  1  0.36798000  0.66711000  0.76669000  1.0
  C  C58  1  0.56426000  0.43185000  0.90529000  1.0
  C  C59  1  0.74816000  0.37584000  0.85925000  1.0
  C  C60  1  0.69391000  0.27071000  0.90191000  1.0
  C  C61  1  0.85906000  0.21142000  0.85487000  1.0
  C  C62  1  0.86493000  0.35038000  0.72539000  1.0
  C  C63  1  0.69300000  0.41359000  0.76763000  1.0
  C  C64  1  0.61845000  0.21673000  0.73859000  1.0
  C  C65  1  0.38966000  0.22438000  0.63205000  1.0
  C  C66  1  0.36851000  0.09770000  0.75311000  1.0
  C  C67  1  0.45004000  0.35991000  0.29180000  1.0
  C  C68  1  0.30684000  0.34922000  0.37618000  1.0
  C  C69  1  0.28030000  0.24333000  0.42853000  1.0
  C  C70  1  0.14825000  0.23016000  0.51561000  1.0
  C  C71  1  0.32537000  0.37338000  0.50947000  1.0
  C  C72  1  0.45547000  0.39416000  0.42099000  1.0
  C  C73  1  0.47753000  0.71634000  0.88207000  1.0
  C  C74  1  0.30117000  0.81042000  0.87300000  1.0
  C  C75  1  0.42417000  0.86767000  0.91179000  1.0
  C  C76  1  0.27719000  0.96897000  0.88959000  1.0
  C  C77  1  0.10945000  0.96653000  0.76606000  1.0
  C  C78  1  0.26222000  0.86742000  0.78035000  1.0
  C  C79  1  0.90151000  0.56815000  0.09471000  1.0
  C  C80  1  0.98333000  0.62415000  0.14076000  1.0
  C  C81  1  0.86667000  0.72931000  0.09809000  1.0
  C  C82  1  0.92537000  0.78860000  0.14514000  1.0
  C  C83  1  0.94055000  0.64962000  0.27463000  1.0
  C  C84  1  0.87416000  0.58639000  0.23239000  1.0
  C  C85  1  0.57367000  0.78328000  0.26141000  1.0
  C  C86  1  0.24581000  0.77562000  0.36794000  1.0
  C  C87  1  0.21926000  0.90232000  0.24688000  1.0
  C  C88  1  0.10174000  0.64006000  0.70817000  1.0
  C  C89  1  0.03207000  0.65078000  0.62380000  1.0
  C  C90  1  0.95215000  0.75669000  0.57147000  1.0
  C  C91  1  0.89383000  0.76986000  0.48441000  1.0
  C  C92  1  0.20786000  0.62659000  0.49055000  1.0
  C  C93  1  0.27037000  0.60580000  0.57900000  1.0
  C  C94  1  0.07592000  0.28365000  0.11792000  1.0
  C  C95  1  0.98437000  0.18960000  0.12698000  1.0
  C  C96  1  0.20327000  0.13234000  0.08818000  1.0
  C  C97  1  0.13540000  0.03104000  0.11040000  1.0
  C  C98  1  0.84188000  0.03348000  0.23396000  1.0
  C  C99  1  0.90994000  0.13258000  0.21964000  1.0
  N  N100  1  0.79979000  0.25273000  0.76827000  1.0
  N  N101  1  0.54481000  0.26821000  0.66092000  1.0
  N  N102  1  0.30778000  0.13743000  0.67341000  1.0
  N  N103  1  0.52649000  0.13308000  0.78906000  1.0
  N  N104  1  0.30705000  0.27246000  0.55367000  1.0
  N  N105  1  0.25648000  0.01561000  0.80094000  1.0
  N  N106  1  0.82064000  0.74727000  0.23173000  1.0
  N  N107  1  0.47361000  0.73178000  0.33906000  1.0
  N  N108  1  0.11835000  0.86256000  0.32656000  1.0
  N  N109  1  0.44847000  0.86691000  0.21091000  1.0
  N  N110  1  0.13288000  0.72752000  0.44634000  1.0
  N  N111  1  0.07276000  0.98438000  0.19905000  1.0
  O  O112  1  0.30807000  0.45060000  0.89359000  1.0
  O  O113  1  0.67836000  0.45383000  0.95667000  1.0
  O  O114  1  0.71927000  0.32727000  0.29168000  1.0
  O  O115  1  0.31897000  0.39480000  0.22895000  1.0
  O  O116  1  0.38419000  0.65897000  0.85736000  1.0
  O  O117  1  0.71324000  0.69964000  0.91112000  1.0
  O  O118  1  0.65238000  0.54945000  0.10639000  1.0
  O  O119  1  0.08900000  0.54615000  0.04332000  1.0
  O  O120  1  0.33819000  0.67272000  0.70829000  1.0
  O  O121  1  0.94275000  0.60518000  0.77103000  1.0
  O  O122  1  0.90036000  0.34104000  0.14259000  1.0
  O  O123  1  0.32397000  0.30036000  0.08890000  1.0
