# generated using pymatgen
data_AgH17C25N2O7
_symmetry_space_group_name_H-M   'P 1'
_cell_length_a   7.96569000
_cell_length_b   10.97730000
_cell_length_c   13.57660000
_cell_angle_alpha   73.09440000
_cell_angle_beta   73.20400000
_cell_angle_gamma   71.81920000
_symmetry_Int_Tables_number   1
_chemical_formula_structural   AgH17C25N2O7
_chemical_formula_sum   'Ag2 H34 C50 N4 O14'
_cell_volume   1053.18066573
_cell_formula_units_Z   2
loop_
 _symmetry_equiv_pos_site_id
 _symmetry_equiv_pos_as_xyz
  1  'x, y, z'
loop_
 _atom_site_type_symbol
 _atom_site_label
 _atom_site_symmetry_multiplicity
 _atom_site_fract_x
 _atom_site_fract_y
 _atom_site_fract_z
 _atom_site_occupancy
  Ag  Ag0  1  0.84651000  0.40789000  0.02622000  1.0
  Ag  Ag1  1  0.15349000  0.59211000  0.97378000  1.0
  H  H2  1  0.40013000  0.70279000  0.69979000  1.0
  H  H3  1  0.59986000  0.29722000  0.30021000  1.0
  H  H4  1  0.05793000  0.53353000  0.21955000  1.0
  H  H5  1  0.94207000  0.46647000  0.78045000  1.0
  H  H6  1  0.54952000  0.54393000  0.18206000  1.0
  H  H7  1  0.45048000  0.45607000  0.81794000  1.0
  H  H8  1  0.32173000  0.75517000  0.19078000  1.0
  H  H9  1  0.67827000  0.24484000  0.80922000  1.0
  H  H10  1  0.48095000  0.86418000  0.85011000  1.0
  H  H11  1  0.51905000  0.13582000  0.14989000  1.0
  H  H12  1  0.70501000  0.65059000  0.85638000  1.0
  H  H13  1  0.29499000  0.34941000  0.14362000  1.0
  H  H14  1  0.08298000  0.91105000  0.17654000  1.0
  H  H15  1  0.91702000  0.08895000  0.82346000  1.0
  H  H16  1  0.89713000  0.13738000  0.17447000  1.0
  H  H17  1  0.10287000  0.86262000  0.82553000  1.0
  H  H18  1  0.17806000  0.27674000  0.87354000  1.0
  H  H19  1  0.82193000  0.72326000  0.12646000  1.0
  H  H20  1  0.38788000  0.05898000  0.86592000  1.0
  H  H21  1  0.61212000  0.94102000  0.13407000  1.0
  H  H22  1  0.38293000  0.13411000  0.64204000  1.0
  H  H23  1  0.61708000  0.86590000  0.35796000  1.0
  H  H24  1  0.80740000  0.77529000  0.64152000  1.0
  H  H25  1  0.19259000  0.22471000  0.35848000  1.0
  H  H26  1  0.03419000  0.89978000  0.62514000  1.0
  H  H27  1  0.96582000  0.10022000  0.37486000  1.0
  H  H28  1  0.93526000  0.13760000  0.61913000  1.0
  H  H29  1  0.06474000  0.86239000  0.38087000  1.0
  H  H30  1  0.64484000  0.49692000  0.65511000  1.0
  H  H31  1  0.35516000  0.50308000  0.34489000  1.0
  H  H32  1  0.78887000  0.65625000  0.51143000  1.0
  H  H33  1  0.21113000  0.34375000  0.48857000  1.0
  H  H34  1  0.71959000  0.26485000  0.43260000  1.0
  H  H35  1  0.28041000  0.73515000  0.56740000  1.0
  C  C36  1  0.52880000  0.61808000  0.11038000  1.0
  C  C37  1  0.47120000  0.38193000  0.88962000  1.0
  C  C38  1  0.40125000  0.73718000  0.11427000  1.0
  C  C39  1  0.59875000  0.26282000  0.88573000  1.0
  C  C40  1  0.38163000  0.83198000  0.02062000  1.0
  C  C41  1  0.61837000  0.16802000  0.97938000  1.0
  C  C42  1  0.49042000  0.79748000  0.92633000  1.0
  C  C43  1  0.50958000  0.20251000  0.07367000  1.0
  C  C44  1  0.61572000  0.67662000  0.92857000  1.0
  C  C45  1  0.38428000  0.32338000  0.07143000  1.0
  C  C46  1  0.25671000  0.96351000  0.02142000  1.0
  C  C47  1  0.74330000  0.03648000  0.97859000  1.0
  C  C48  1  0.11387000  0.98866000  0.10799000  1.0
  C  C49  1  0.88613000  0.01134000  0.89201000  1.0
  C  C50  1  0.00511000  0.11560000  0.10658000  1.0
  C  C51  1  0.99490000  0.88440000  0.89342000  1.0
  C  C52  1  0.16324000  0.19330000  0.93934000  1.0
  C  C53  1  0.83676000  0.80669000  0.06066000  1.0
  C  C54  1  0.27944000  0.07007000  0.93565000  1.0
  C  C55  1  0.72055000  0.92993000  0.06435000  1.0
  C  C56  1  0.65440000  0.14898000  0.62987000  1.0
  C  C57  1  0.34561000  0.85102000  0.37013000  1.0
  C  C58  1  0.52558000  0.08307000  0.63856000  1.0
  C  C59  1  0.47442000  0.91693000  0.36145000  1.0
  C  C60  1  0.58289000  0.94711000  0.64324000  1.0
  C  C61  1  0.41711000  0.05289000  0.35676000  1.0
  C  C62  1  0.76574000  0.88058000  0.63762000  1.0
  C  C63  1  0.23426000  0.11942000  0.36238000  1.0
  C  C64  1  0.89192000  0.94941000  0.62805000  1.0
  C  C65  1  0.10808000  0.05059000  0.37195000  1.0
  C  C66  1  0.83719000  0.08405000  0.62437000  1.0
  C  C67  1  0.16281000  0.91595000  0.37563000  1.0
  C  C68  1  0.44344000  0.87546000  0.65882000  1.0
  C  C69  1  0.55656000  0.12454000  0.34118000  1.0
  C  C70  1  0.67963000  0.36816000  0.55304000  1.0
  C  C71  1  0.32037000  0.63184000  0.44696000  1.0
  C  C72  1  0.69350000  0.48058000  0.57533000  1.0
  C  C73  1  0.30650000  0.51943000  0.42467000  1.0
  C  C74  1  0.77535000  0.56885000  0.49498000  1.0
  C  C75  1  0.22465000  0.43115000  0.50502000  1.0
  C  C76  1  0.84661000  0.54899000  0.39169000  1.0
  C  C77  1  0.15339000  0.45101000  0.60831000  1.0
  C  C78  1  0.82147000  0.43833000  0.36874000  1.0
  C  C79  1  0.17853000  0.56167000  0.63126000  1.0
  C  C80  1  0.73890000  0.34950000  0.45017000  1.0
  C  C81  1  0.26109000  0.65050000  0.54983000  1.0
  C  C82  1  0.94432000  0.64999000  0.31901000  1.0
  C  C83  1  0.05568000  0.35001000  0.68099000  1.0
  C  C84  1  0.86578000  0.41039000  0.26041000  1.0
  C  C85  1  0.13422000  0.58961000  0.73959000  1.0
  N  N86  1  0.63759000  0.58787000  0.01950000  1.0
  N  N87  1  0.36242000  0.41213000  0.98050000  1.0
  N  N88  1  0.02793000  0.21703000  0.02339000  1.0
  N  N89  1  0.97207000  0.78297000  0.97661000  1.0
  O  O90  1  0.50795000  0.74414000  0.67719000  1.0
  O  O91  1  0.49205000  0.25587000  0.32281000  1.0
  O  O92  1  0.28287000  0.93049000  0.65889000  1.0
  O  O93  1  0.71713000  0.06952000  0.34112000  1.0
  O  O94  1  0.59662000  0.28222000  0.63370000  1.0
  O  O95  1  0.40338000  0.71777000  0.36630000  1.0
  O  O96  1  0.76239000  0.35828000  0.23950000  1.0
  O  O97  1  0.23761000  0.64172000  0.76050000  1.0
  O  O98  1  0.00413000  0.43953000  0.19207000  1.0
  O  O99  1  0.99587000  0.56047000  0.80793000  1.0
  O  O100  1  0.06998000  0.61880000  0.23505000  1.0
  O  O101  1  0.93002000  0.38120000  0.76495000  1.0
  O  O102  1  0.91552000  0.75841000  0.33908000  1.0
  O  O103  1  0.08448000  0.24159000  0.66092000  1.0
