# generated using pymatgen
data_NdH13C10S2(NO2)4
_symmetry_space_group_name_H-M   'P 1'
_cell_length_a   8.53738000
_cell_length_b   9.89028000
_cell_length_c   22.87940000
_cell_angle_alpha   89.99990000
_cell_angle_beta   89.99990000
_cell_angle_gamma   112.54500000
_symmetry_Int_Tables_number   1
_chemical_formula_structural   NdH13C10S2(NO2)4
_chemical_formula_sum   'Nd4 H52 C40 S8 N16 O32'
_cell_volume   1784.23368213
_cell_formula_units_Z   4
loop_
 _symmetry_equiv_pos_site_id
 _symmetry_equiv_pos_as_xyz
  1  'x, y, z'
loop_
 _atom_site_type_symbol
 _atom_site_label
 _atom_site_symmetry_multiplicity
 _atom_site_fract_x
 _atom_site_fract_y
 _atom_site_fract_z
 _atom_site_occupancy
  Nd  Nd0  1  0.41797000  0.50518000  0.91344000  1.0
  Nd  Nd1  1  0.08203000  0.99481000  0.41344000  1.0
  Nd  Nd2  1  0.58203000  0.49482000  0.08656000  1.0
  Nd  Nd3  1  0.91797000  0.00518000  0.58657000  1.0
  H  H4  1  0.57771000  0.34974000  0.81419000  1.0
  H  H5  1  0.92229000  0.15027000  0.31418000  1.0
  H  H6  1  0.42229000  0.65027000  0.18581000  1.0
  H  H7  1  0.07771000  0.84973000  0.68582000  1.0
  H  H8  1  0.05604000  0.46436000  0.74436000  1.0
  H  H9  1  0.44396000  0.03564000  0.24435000  1.0
  H  H10  1  0.94396000  0.53564000  0.25564000  1.0
  H  H11  1  0.55603000  0.96436000  0.75565000  1.0
  H  H12  1  0.99792000  0.49354000  0.92673000  1.0
  H  H13  1  0.50209000  0.00647000  0.42672000  1.0
  H  H14  1  0.00208000  0.50647000  0.07327000  1.0
  H  H15  1  0.49792000  0.99353000  0.57328000  1.0
  H  H16  1  0.07593000  0.18770000  0.88056000  1.0
  H  H17  1  0.42408000  0.31230000  0.38056000  1.0
  H  H18  1  0.92406000  0.81230000  0.11944000  1.0
  H  H19  1  0.57593000  0.68770000  0.61944000  1.0
  H  H20  1  0.84734000  0.05494000  0.72139000  1.0
  H  H21  1  0.65266000  0.44506000  0.22139000  1.0
  H  H22  1  0.15266000  0.94506000  0.27860000  1.0
  H  H23  1  0.34734000  0.55493000  0.77861000  1.0
  H  H24  1  0.37893000  0.26999000  0.72899000  1.0
  H  H25  1  0.12107000  0.23001000  0.22899000  1.0
  H  H26  1  0.62107000  0.73001000  0.27101000  1.0
  H  H27  1  0.87892000  0.76998000  0.77101000  1.0
  H  H28  1  0.16636000  0.11361000  0.06736000  1.0
  H  H29  1  0.33364000  0.38639000  0.56736000  1.0
  H  H30  1  0.83365000  0.88639000  0.93264000  1.0
  H  H31  1  0.66635000  0.61361000  0.43264000  1.0
  H  H32  1  0.98256000  0.11370000  0.02874000  1.0
  H  H33  1  0.51744000  0.38630000  0.52874000  1.0
  H  H34  1  0.01745000  0.88629000  0.97126000  1.0
  H  H35  1  0.48255000  0.61370000  0.47126000  1.0
  H  H36  1  0.09025000  0.25285000  0.08110000  1.0
  H  H37  1  0.40975000  0.24714000  0.58110000  1.0
  H  H38  1  0.90976000  0.74715000  0.91890000  1.0
  H  H39  1  0.59024000  0.75285000  0.41890000  1.0
  H  H40  1  0.27909000  0.59655000  0.02217000  1.0
  H  H41  1  0.22091000  0.90345000  0.52217000  1.0
  H  H42  1  0.72091000  0.40345000  0.97783000  1.0
  H  H43  1  0.77909000  0.09655000  0.47782000  1.0
  H  H44  1  0.30243000  0.70565000  0.96798000  1.0
  H  H45  1  0.19757000  0.79435000  0.46798000  1.0
  H  H46  1  0.69757000  0.29435000  0.03202000  1.0
  H  H47  1  0.80243000  0.20565000  0.53202000  1.0
  H  H48  1  0.37563000  0.80017000  0.86430000  1.0
  H  H49  1  0.12437000  0.69983000  0.36429000  1.0
  H  H50  1  0.62437000  0.19983000  0.13570000  1.0
  H  H51  1  0.87562000  0.30017000  0.63570000  1.0
  H  H52  1  0.55639000  0.84912000  0.89082000  1.0
  H  H53  1  0.94361000  0.65087000  0.39081000  1.0
  H  H54  1  0.44361000  0.15088000  0.10918000  1.0
  H  H55  1  0.05639000  0.34913000  0.60918000  1.0
  C  C56  1  0.80605000  0.39774000  0.76970000  1.0
  C  C57  1  0.69396000  0.10226000  0.26970000  1.0
  C  C58  1  0.19395000  0.60226000  0.23030000  1.0
  C  C59  1  0.30604000  0.89774000  0.73030000  1.0
  C  C60  1  0.04979000  0.47659000  0.83558000  1.0
  C  C61  1  0.45021000  0.02341000  0.33558000  1.0
  C  C62  1  0.95021000  0.52341000  0.16442000  1.0
  C  C63  1  0.54979000  0.97659000  0.66442000  1.0
  C  C64  1  0.94394000  0.46830000  0.88313000  1.0
  C  C65  1  0.55606000  0.03170000  0.38313000  1.0
  C  C66  1  0.05606000  0.53170000  0.11687000  1.0
  C  C67  1  0.44394000  0.96830000  0.61687000  1.0
  C  C68  1  0.76999000  0.42658000  0.87396000  1.0
  C  C69  1  0.73002000  0.07343000  0.37396000  1.0
  C  C70  1  0.23001000  0.57343000  0.12604000  1.0
  C  C71  1  0.26999000  0.92658000  0.62604000  1.0
  C  C72  1  0.93623000  0.10729000  0.80562000  1.0
  C  C73  1  0.56377000  0.39271000  0.30562000  1.0
  C  C74  1  0.06376000  0.89271000  0.19438000  1.0
  C  C75  1  0.43623000  0.60729000  0.69438000  1.0
  C  C76  1  0.10988000  0.15195000  0.71733000  1.0
  C  C77  1  0.39012000  0.34804000  0.21733000  1.0
  C  C78  1  0.89012000  0.84805000  0.28267000  1.0
  C  C79  1  0.60987000  0.65195000  0.78267000  1.0
  C  C80  1  0.25582000  0.22396000  0.75030000  1.0
  C  C81  1  0.24418000  0.27604000  0.25030000  1.0
  C  C82  1  0.74419000  0.77604000  0.24970000  1.0
  C  C83  1  0.75581000  0.72395000  0.74970000  1.0
  C  C84  1  0.24329000  0.23551000  0.81069000  1.0
  C  C85  1  0.25671000  0.26449000  0.31069000  1.0
  C  C86  1  0.75672000  0.76449000  0.18931000  1.0
  C  C87  1  0.74329000  0.73551000  0.68931000  1.0
  C  C88  1  0.21822000  0.27753000  0.99979000  1.0
  C  C89  1  0.28177000  0.22246000  0.49979000  1.0
  C  C90  1  0.78178000  0.72246000  0.00021000  1.0
  C  C91  1  0.71823000  0.77754000  0.50021000  1.0
  C  C92  1  0.10673000  0.18202000  0.04654000  1.0
  C  C93  1  0.39326000  0.31798000  0.54654000  1.0
  C  C94  1  0.89327000  0.81798000  0.95346000  1.0
  C  C95  1  0.60673000  0.68202000  0.45346000  1.0
  S  S96  1  0.72016000  0.35482000  0.70284000  1.0
  S  S97  1  0.77984000  0.14518000  0.20283000  1.0
  S  S98  1  0.27984000  0.64518000  0.29716000  1.0
  S  S99  1  0.22016000  0.85482000  0.79717000  1.0
  S  S100  1  0.74295000  0.05099000  0.83671000  1.0
  S  S101  1  0.75706000  0.44902000  0.33671000  1.0
  S  S102  1  0.25705000  0.94901000  0.16329000  1.0
  S  S103  1  0.24294000  0.55099000  0.66329000  1.0
  N  N104  1  0.70877000  0.38828000  0.81772000  1.0
  N  N105  1  0.79123000  0.11172000  0.31772000  1.0
  N  N106  1  0.29123000  0.61172000  0.18228000  1.0
  N  N107  1  0.20877000  0.88828000  0.68228000  1.0
  N  N108  1  0.97608000  0.44488000  0.78023000  1.0
  N  N109  1  0.52392000  0.05512000  0.28023000  1.0
  N  N110  1  0.02392000  0.55512000  0.21977000  1.0
  N  N111  1  0.47608000  0.94488000  0.71977000  1.0
  N  N112  1  0.08285000  0.17148000  0.83628000  1.0
  N  N113  1  0.41715000  0.32852000  0.33628000  1.0
  N  N114  1  0.91715000  0.82852000  0.16372000  1.0
  N  N115  1  0.58285000  0.67148000  0.66372000  1.0
  N  N116  1  0.95557000  0.09760000  0.74717000  1.0
  N  N117  1  0.54443000  0.40240000  0.24716000  1.0
  N  N118  1  0.04443000  0.90240000  0.25283000  1.0
  N  N119  1  0.45557000  0.59759000  0.75284000  1.0
  O  O120  1  0.21060000  0.51131000  0.83879000  1.0
  O  O121  1  0.28940000  0.98869000  0.33879000  1.0
  O  O122  1  0.78940000  0.48869000  0.16121000  1.0
  O  O123  1  0.71060000  0.01131000  0.66121000  1.0
  O  O124  1  0.66136000  0.41997000  0.91393000  1.0
  O  O125  1  0.83864000  0.08004000  0.41393000  1.0
  O  O126  1  0.33865000  0.58004000  0.08607000  1.0
  O  O127  1  0.16136000  0.91996000  0.58607000  1.0
  O  O128  1  0.10631000  0.13287000  0.66231000  1.0
  O  O129  1  0.39368000  0.36714000  0.16231000  1.0
  O  O130  1  0.89369000  0.86713000  0.33769000  1.0
  O  O131  1  0.60631000  0.63286000  0.83769000  1.0
  O  O132  1  0.36872000  0.30239000  0.84451000  1.0
  O  O133  1  0.13128000  0.19761000  0.34451000  1.0
  O  O134  1  0.63128000  0.69762000  0.15549000  1.0
  O  O135  1  0.86872000  0.80238000  0.65549000  1.0
  O  O136  1  0.37611000  0.35450000  0.01104000  1.0
  O  O137  1  0.12389000  0.14550000  0.51104000  1.0
  O  O138  1  0.62389000  0.64550000  0.98896000  1.0
  O  O139  1  0.87612000  0.85450000  0.48896000  1.0
  O  O140  1  0.15930000  0.28774000  0.94982000  1.0
  O  O141  1  0.34070000  0.21226000  0.44982000  1.0
  O  O142  1  0.84070000  0.71226000  0.05018000  1.0
  O  O143  1  0.65930000  0.78774000  0.55019000  1.0
  O  O144  1  0.25169000  0.60234000  0.97936000  1.0
  O  O145  1  0.24831000  0.89766000  0.47936000  1.0
  O  O146  1  0.74832000  0.39766000  0.02064000  1.0
  O  O147  1  0.75169000  0.10234000  0.52064000  1.0
  O  O148  1  0.43854000  0.78341000  0.89847000  1.0
  O  O149  1  0.06146000  0.71658000  0.39847000  1.0
  O  O150  1  0.56146000  0.21659000  0.10153000  1.0
  O  O151  1  0.93854000  0.28342000  0.60153000  1.0
