# generated using pymatgen
data_NaH20C13SNO10
_symmetry_space_group_name_H-M   'P 1'
_cell_length_a   8.30853000
_cell_length_b   8.98454000
_cell_length_c   12.17610000
_cell_angle_alpha   90.00000000
_cell_angle_beta   90.00000000
_cell_angle_gamma   116.67300000
_symmetry_Int_Tables_number   1
_chemical_formula_structural   NaH20C13SNO10
_chemical_formula_sum   'Na2 H40 C26 S2 N2 O20'
_cell_volume   812.20031863
_cell_formula_units_Z   2
loop_
 _symmetry_equiv_pos_site_id
 _symmetry_equiv_pos_as_xyz
  1  'x, y, z'
loop_
 _atom_site_type_symbol
 _atom_site_label
 _atom_site_symmetry_multiplicity
 _atom_site_fract_x
 _atom_site_fract_y
 _atom_site_fract_z
 _atom_site_occupancy
  Na  Na0  1  0.88398000  0.54373000  0.87876000  1.0
  Na  Na1  1  0.11602000  0.45627000  0.37876000  1.0
  H  H2  1  0.61347000  0.77460000  0.67206000  1.0
  H  H3  1  0.38653000  0.22540000  0.17206000  1.0
  H  H4  1  0.98722000  0.06767000  0.88534000  1.0
  H  H5  1  0.01278000  0.93233000  0.38534000  1.0
  H  H6  1  0.63691000  0.74362000  0.88418000  1.0
  H  H7  1  0.36309000  0.25638000  0.38418000  1.0
  H  H8  1  0.65404000  0.12243000  0.61425000  1.0
  H  H9  1  0.34596000  0.87757000  0.11425000  1.0
  H  H10  1  0.45990000  0.93081000  0.59744000  1.0
  H  H11  1  0.54010000  0.06919000  0.09744000  1.0
  H  H12  1  0.09099000  0.97478000  0.72658000  1.0
  H  H13  1  0.90901000  0.02522000  0.22658000  1.0
  H  H14  1  0.68802000  0.08687000  0.80693000  1.0
  H  H15  1  0.31198000  0.91313000  0.30693000  1.0
  H  H16  1  0.80213000  0.50223000  0.43947000  1.0
  H  H17  1  0.19787000  0.49777000  0.93947000  1.0
  H  H18  1  0.64025000  0.30734000  0.49518000  1.0
  H  H19  1  0.35975000  0.69266000  0.99519000  1.0
  H  H20  1  0.62791000  0.48700000  0.63854000  1.0
  H  H21  1  0.37209000  0.51300000  0.13854000  1.0
  H  H22  1  0.87432000  0.75526000  0.55995000  1.0
  H  H23  1  0.12568000  0.24474000  0.05995000  1.0
  H  H24  1  0.23970000  0.55484000  0.61637000  1.0
  H  H25  1  0.76030000  0.44516000  0.11637000  1.0
  H  H26  1  0.18837000  0.81992000  0.65095000  1.0
  H  H27  1  0.81163000  0.18008000  0.15095000  1.0
  H  H28  1  0.97335000  0.28958000  0.67628000  1.0
  H  H29  1  0.02665000  0.71042000  0.17628000  1.0
  H  H30  1  0.40911000  0.93053000  0.87814000  1.0
  H  H31  1  0.59089000  0.06947000  0.37814000  1.0
  H  H32  1  0.62079000  0.86343000  0.46263000  1.0
  H  H33  1  0.37921000  0.13657000  0.96263000  1.0
  H  H34  1  0.69033000  0.87136000  0.05279000  1.0
  H  H35  1  0.30968000  0.12864000  0.55279000  1.0
  H  H36  1  0.20782000  0.84318000  0.48120000  1.0
  H  H37  1  0.79218000  0.15682000  0.98120000  1.0
  H  H38  1  0.26657000  0.68583000  0.78706000  1.0
  H  H39  1  0.73343000  0.31417000  0.28706000  1.0
  H  H40  1  0.08607000  0.90025000  0.96288000  1.0
  H  H41  1  0.91393000  0.09975000  0.46288000  1.0
  C  C42  1  0.76754000  0.41876000  0.51029000  1.0
  C  C43  1  0.23246000  0.58124000  0.01029000  1.0
  C  C44  1  0.67386000  0.91112000  0.68380000  1.0
  C  C45  1  0.32614000  0.08888000  0.18380000  1.0
  C  C46  1  0.91025000  0.93355000  0.86679000  1.0
  C  C47  1  0.08975000  0.06645000  0.36679000  1.0
  C  C48  1  0.70985000  0.88101000  0.88627000  1.0
  C  C49  1  0.29016000  0.11899000  0.38627000  1.0
  C  C50  1  0.60720000  0.99017000  0.59593000  1.0
  C  C51  1  0.39280000  0.00983000  0.09593000  1.0
  C  C52  1  0.76203000  0.50157000  0.61709000  1.0
  C  C53  1  0.23797000  0.49843000  0.11709000  1.0
  C  C54  1  0.90214000  0.68261000  0.62352000  1.0
  C  C55  1  0.09786000  0.31739000  0.12352000  1.0
  C  C56  1  0.12490000  0.56130000  0.65816000  1.0
  C  C57  1  0.87510000  0.43870000  0.15815000  1.0
  C  C58  1  0.09693000  0.70514000  0.60757000  1.0
  C  C59  1  0.90307000  0.29486000  0.10757000  1.0
  C  C60  1  0.95665000  0.39549000  0.64296000  1.0
  C  C61  1  0.04335000  0.60451000  0.14296000  1.0
  C  C62  1  0.94650000  0.90912000  0.74616000  1.0
  C  C63  1  0.05350000  0.09088000  0.24616000  1.0
  C  C64  1  0.39189000  0.29299000  0.76676000  1.0
  C  C65  1  0.60812000  0.70701000  0.26676000  1.0
  C  C66  1  0.62846000  0.94980000  0.79913000  1.0
  C  C67  1  0.37154000  0.05020000  0.29913000  1.0
  S  S68  1  0.46712000  0.37494000  0.88811000  1.0
  S  S69  1  0.53288000  0.62506000  0.38811000  1.0
  N  N70  1  0.33839000  0.23586000  0.67876000  1.0
  N  N71  1  0.66161000  0.76414000  0.17876000  1.0
  O  O72  1  0.87661000  0.73461000  0.73103000  1.0
  O  O73  1  0.12339000  0.26539000  0.23103000  1.0
  O  O74  1  0.14415000  0.72068000  0.49348000  1.0
  O  O75  1  0.85585000  0.27932000  0.99348000  1.0
  O  O76  1  0.67030000  0.98245000  0.48685000  1.0
  O  O77  1  0.32970000  0.01755000  0.98685000  1.0
  O  O78  1  0.86644000  0.98085000  0.67376000  1.0
  O  O79  1  0.13356000  0.01915000  0.17376000  1.0
  O  O80  1  0.80814000  0.40439000  0.69599000  1.0
  O  O81  1  0.19186000  0.59561000  0.19599000  1.0
  O  O82  1  0.96017000  0.83587000  0.93785000  1.0
  O  O83  1  0.03983000  0.16413000  0.43785000  1.0
  O  O84  1  0.68366000  0.94093000  0.99005000  1.0
  O  O85  1  0.31634000  0.05907000  0.49005000  1.0
  O  O86  1  0.43685000  0.88232000  0.81130000  1.0
  O  O87  1  0.56315000  0.11768000  0.31130000  1.0
  O  O88  1  0.15383000  0.58179000  0.77352000  1.0
  O  O89  1  0.84617000  0.41821000  0.27352000  1.0
  O  O90  1  0.90901000  0.36821000  0.52892000  1.0
  O  O91  1  0.09099000  0.63179000  0.02892000  1.0
