# generated using pymatgen
data_CdH14C18SN2O9
_symmetry_space_group_name_H-M   'P 1'
_cell_length_a   7.56375000
_cell_length_b   9.44827000
_cell_length_c   12.76050000
_cell_angle_alpha   90.00000000
_cell_angle_beta   89.99970000
_cell_angle_gamma   100.64400000
_symmetry_Int_Tables_number   1
_chemical_formula_structural   CdH14C18SN2O9
_chemical_formula_sum   'Cd2 H28 C36 S2 N4 O18'
_cell_volume   896.23016887
_cell_formula_units_Z   2
loop_
 _symmetry_equiv_pos_site_id
 _symmetry_equiv_pos_as_xyz
  1  'x, y, z'
loop_
 _atom_site_type_symbol
 _atom_site_label
 _atom_site_symmetry_multiplicity
 _atom_site_fract_x
 _atom_site_fract_y
 _atom_site_fract_z
 _atom_site_occupancy
  Cd  Cd0  1  0.23037000  0.38588000  0.63861000  1.0
  Cd  Cd1  1  0.76963000  0.61412000  0.13861000  1.0
  H  H2  1  0.34107000  0.46966000  0.91832000  1.0
  H  H3  1  0.65893000  0.53034000  0.41832000  1.0
  H  H4  1  0.32518000  0.67329000  0.03699000  1.0
  H  H5  1  0.67482000  0.32670000  0.53699000  1.0
  H  H6  1  0.20462000  0.88869000  0.97059000  1.0
  H  H7  1  0.79538000  0.11131000  0.47059000  1.0
  H  H8  1  0.95468000  0.96458000  0.53076000  1.0
  H  H9  1  0.04531000  0.03542000  0.03075000  1.0
  H  H10  1  0.94296000  0.78475000  0.38470000  1.0
  H  H11  1  0.05705000  0.21526000  0.88470000  1.0
  H  H12  1  0.06076000  0.55708000  0.41466000  1.0
  H  H13  1  0.93925000  0.44292000  0.91466000  1.0
  H  H14  1  0.63650000  0.04255000  0.96472000  1.0
  H  H15  1  0.36350000  0.95746000  0.46472000  1.0
  H  H16  1  0.56063000  0.84211000  0.60259000  1.0
  H  H17  1  0.43936000  0.15789000  0.10259000  1.0
  H  H18  1  0.48608000  0.08337000  0.64151000  1.0
  H  H19  1  0.51392000  0.91663000  0.14152000  1.0
  H  H20  1  0.72274000  0.64091000  0.81308000  1.0
  H  H21  1  0.27725000  0.35908000  0.31309000  1.0
  H  H22  1  0.57401000  0.57284000  0.64400000  1.0
  H  H23  1  0.42599000  0.42716000  0.14400000  1.0
  H  H24  1  0.48270000  0.59016000  0.53306000  1.0
  H  H25  1  0.51730000  0.40984000  0.03306000  1.0
  H  H26  1  0.96895000  0.15605000  0.70464000  1.0
  H  H27  1  0.03105000  0.84395000  0.20464000  1.0
  H  H28  1  0.85562000  0.28343000  0.71247000  1.0
  H  H29  1  0.14438000  0.71657000  0.21247000  1.0
  C  C30  1  0.28853000  0.56227000  0.89032000  1.0
  C  C31  1  0.71147000  0.43773000  0.39032000  1.0
  C  C32  1  0.27884000  0.67829000  0.95659000  1.0
  C  C33  1  0.72116000  0.32171000  0.45659000  1.0
  C  C34  1  0.21199000  0.79783000  0.91936000  1.0
  C  C35  1  0.78801000  0.20217000  0.41936000  1.0
  C  C36  1  0.15811000  0.79406000  0.81528000  1.0
  C  C37  1  0.84189000  0.20594000  0.31528000  1.0
  C  C38  1  0.08303000  0.89594000  0.74515000  1.0
  C  C39  1  0.91697000  0.10405000  0.24515000  1.0
  C  C40  1  0.05944000  0.82461000  0.63968000  1.0
  C  C41  1  0.94055000  0.17539000  0.13968000  1.0
  C  C42  1  0.99623000  0.86159000  0.54324000  1.0
  C  C43  1  0.00377000  0.13841000  0.04324000  1.0
  C  C44  1  0.99245000  0.76152000  0.46160000  1.0
  C  C45  1  0.00756000  0.23848000  0.96160000  1.0
  C  C46  1  0.05253000  0.63201000  0.47837000  1.0
  C  C47  1  0.94747000  0.36799000  0.97837000  1.0
  C  C48  1  0.11074000  0.68984000  0.64891000  1.0
  C  C49  1  0.88926000  0.31015000  0.14891000  1.0
  C  C50  1  0.17192000  0.67155000  0.75585000  1.0
  C  C51  1  0.82808000  0.32844000  0.25585000  1.0
  C  C52  1  0.56264000  0.07858000  0.80500000  1.0
  C  C53  1  0.43736000  0.92142000  0.30500000  1.0
  C  C54  1  0.62080000  0.99927000  0.88553000  1.0
  C  C55  1  0.37920000  0.00073000  0.38553000  1.0
  C  C56  1  0.66029000  0.86290000  0.86544000  1.0
  C  C57  1  0.33971000  0.13711000  0.36544000  1.0
  C  C58  1  0.64188000  0.80795000  0.76180000  1.0
  C  C59  1  0.35812000  0.19205000  0.26180000  1.0
  C  C60  1  0.57833000  0.88742000  0.68140000  1.0
  C  C61  1  0.42167000  0.11258000  0.18140000  1.0
  C  C62  1  0.53853000  0.02206000  0.70300000  1.0
  C  C63  1  0.46148000  0.97794000  0.20300000  1.0
  C  C64  1  0.71779000  0.77361000  0.95064000  1.0
  C  C65  1  0.28220000  0.22639000  0.45064000  1.0
  S  S66  1  0.53181000  0.25771000  0.82712000  1.0
  S  S67  1  0.46820000  0.74229000  0.32712000  1.0
  N  N68  1  0.23312000  0.55693000  0.78932000  1.0
  N  N69  1  0.76688000  0.44307000  0.28932000  1.0
  N  N70  1  0.10833000  0.59355000  0.57309000  1.0
  N  N71  1  0.89167000  0.40645000  0.07309000  1.0
  O  O72  1  0.04410000  0.01163000  0.77128000  1.0
  O  O73  1  0.95589000  0.98837000  0.27127000  1.0
  O  O74  1  0.72062000  0.81641000  0.04524000  1.0
  O  O75  1  0.27939000  0.18360000  0.54524000  1.0
  O  O76  1  0.76016000  0.65225000  0.92480000  1.0
  O  O77  1  0.23983000  0.34775000  0.42480000  1.0
  O  O78  1  0.68536000  0.67896000  0.73983000  1.0
  O  O79  1  0.31463000  0.32103000  0.23984000  1.0
  O  O80  1  0.68416000  0.35070000  0.77424000  1.0
  O  O81  1  0.31584000  0.64931000  0.27424000  1.0
  O  O82  1  0.53237000  0.27622000  0.94170000  1.0
  O  O83  1  0.46763000  0.72378000  0.44171000  1.0
  O  O84  1  0.35708000  0.26937000  0.78008000  1.0
  O  O85  1  0.64292000  0.73063000  0.28008000  1.0
  O  O86  1  0.50287000  0.51865000  0.58655000  1.0
  O  O87  1  0.49713000  0.48134000  0.08655000  1.0
  O  O88  1  0.94966000  0.24658000  0.67147000  1.0
  O  O89  1  0.05035000  0.75341000  0.17147000  1.0
