# generated using pymatgen
data_ZnMo4H14C16N6O13
_symmetry_space_group_name_H-M   'P 1'
_cell_length_a   10.07340000
_cell_length_b   11.53740000
_cell_length_c   11.57140000
_cell_angle_alpha   89.00710000
_cell_angle_beta   74.65590000
_cell_angle_gamma   74.65420000
_symmetry_Int_Tables_number   1
_chemical_formula_structural   ZnMo4H14C16N6O13
_chemical_formula_sum   'Zn2 Mo8 H28 C32 N12 O26'
_cell_volume   1248.65063490
_cell_formula_units_Z   2
loop_
 _symmetry_equiv_pos_site_id
 _symmetry_equiv_pos_as_xyz
  1  'x, y, z'
loop_
 _atom_site_type_symbol
 _atom_site_label
 _atom_site_symmetry_multiplicity
 _atom_site_fract_x
 _atom_site_fract_y
 _atom_site_fract_z
 _atom_site_occupancy
  Zn  Zn0  1  0.86359000  0.78323000  0.74747000  1.0
  Zn  Zn1  1  0.13641000  0.21677000  0.25253000  1.0
  Mo  Mo2  1  0.39562000  0.68767000  0.68752000  1.0
  Mo  Mo3  1  0.60438000  0.31233000  0.31248000  1.0
  Mo  Mo4  1  0.49471000  0.37425000  0.59778000  1.0
  Mo  Mo5  1  0.50530000  0.62575000  0.40222000  1.0
  Mo  Mo6  1  0.19545000  0.54091000  0.56955000  1.0
  Mo  Mo7  1  0.80455000  0.45909000  0.43045000  1.0
  Mo  Mo8  1  0.70121000  0.51423000  0.72746000  1.0
  Mo  Mo9  1  0.29879000  0.48577000  0.27254000  1.0
  H  H10  1  0.64742000  0.93324000  0.38993000  1.0
  H  H11  1  0.35258000  0.06676000  0.61007000  1.0
  H  H12  1  0.72477000  0.12184000  0.47474000  1.0
  H  H13  1  0.27523000  0.87816000  0.52526000  1.0
  H  H14  1  0.86462000  0.20150000  0.59165000  1.0
  H  H15  1  0.13538000  0.79851000  0.40835000  1.0
  H  H16  1  0.99118000  0.26624000  0.72561000  1.0
  H  H17  1  0.00882000  0.73376000  0.27439000  1.0
  H  H18  1  0.07436000  0.12352000  0.87525000  1.0
  H  H19  1  0.92564000  0.87648000  0.12475000  1.0
  H  H20  1  0.02752000  0.91936000  0.88144000  1.0
  H  H21  1  0.97249000  0.08064000  0.11855000  1.0
  H  H22  1  0.54079000  0.94828000  0.77048000  1.0
  H  H23  1  0.45921000  0.05173000  0.22952000  1.0
  H  H24  1  0.29990000  0.96180000  0.90979000  1.0
  H  H25  1  0.70010000  0.03820000  0.09021000  1.0
  H  H26  1  0.28593000  0.84639000  0.09788000  1.0
  H  H27  1  0.71407000  0.15361000  0.90212000  1.0
  H  H28  1  0.51144000  0.73284000  0.14341000  1.0
  H  H29  1  0.48855000  0.26717000  0.85659000  1.0
  H  H30  1  0.76114000  0.64875000  0.18335000  1.0
  H  H31  1  0.23886000  0.35125000  0.81665000  1.0
  H  H32  1  0.05660000  0.58388000  0.10367000  1.0
  H  H33  1  0.94340000  0.41612000  0.89634000  1.0
  H  H34  1  0.74466000  0.75186000  0.50109000  1.0
  H  H35  1  0.25534000  0.24814000  0.49891000  1.0
  H  H36  1  0.11437000  0.66484000  0.89198000  1.0
  H  H37  1  0.88563000  0.33517000  0.10802000  1.0
  C  C38  1  0.70423000  0.93661000  0.45667000  1.0
  C  C39  1  0.29577000  0.06339000  0.54334000  1.0
  C  C40  1  0.74418000  0.02962000  0.50070000  1.0
  C  C41  1  0.25582000  0.97038000  0.49930000  1.0
  C  C42  1  0.81334000  0.97795000  0.58758000  1.0
  C  C43  1  0.18666000  0.02205000  0.41242000  1.0
  C  C44  1  0.88048000  0.02628000  0.66579000  1.0
  C  C45  1  0.11952000  0.97372000  0.33421000  1.0
  C  C46  1  0.90150000  0.14154000  0.65710000  1.0
  C  C47  1  0.09849000  0.85846000  0.34290000  1.0
  C  C48  1  0.97180000  0.17759000  0.73271000  1.0
  C  C49  1  0.02820000  0.82241000  0.26729000  1.0
  C  C50  1  0.01817000  0.09822000  0.81545000  1.0
  C  C51  1  0.98182000  0.90178000  0.18455000  1.0
  C  C52  1  0.99212000  0.98531000  0.81970000  1.0
  C  C53  1  0.00789000  0.01469000  0.18030000  1.0
  C  C54  1  0.52987000  0.90331000  0.85472000  1.0
  C  C55  1  0.47013000  0.09669000  0.14528000  1.0
  C  C56  1  0.39583000  0.91024000  0.93279000  1.0
  C  C57  1  0.60417000  0.08976000  0.06721000  1.0
  C  C58  1  0.38864000  0.84684000  0.03681000  1.0
  C  C59  1  0.61136000  0.15316000  0.96319000  1.0
  C  C60  1  0.51477000  0.78260000  0.06233000  1.0
  C  C61  1  0.48523000  0.21740000  0.93767000  1.0
  C  C62  1  0.64494000  0.78154000  0.98068000  1.0
  C  C63  1  0.35506000  0.21846000  0.01932000  1.0
  C  C64  1  0.78425000  0.72085000  0.99918000  1.0
  C  C65  1  0.21575000  0.27916000  0.00082000  1.0
  C  C66  1  0.82741000  0.66325000  0.09700000  1.0
  C  C67  1  0.17259000  0.33675000  0.90300000  1.0
  C  C68  1  0.97599000  0.62891000  0.05935000  1.0
  C  C69  1  0.02401000  0.37109000  0.94065000  1.0
  N  N70  1  0.74880000  0.83785000  0.51563000  1.0
  N  N71  1  0.25120000  0.16215000  0.48437000  1.0
  N  N72  1  0.81522000  0.86055000  0.59508000  1.0
  N  N73  1  0.18478000  0.13945000  0.40492000  1.0
  N  N74  1  0.92470000  0.94998000  0.74691000  1.0
  N  N75  1  0.07530000  0.05002000  0.25309000  1.0
  N  N76  1  0.65117000  0.83926000  0.87696000  1.0
  N  N77  1  0.34883000  0.16074000  0.12304000  1.0
  N  N78  1  0.90054000  0.72069000  0.90853000  1.0
  N  N79  1  0.09946000  0.27931000  0.09147000  1.0
  N  N80  1  0.01483000  0.66438000  0.94618000  1.0
  N  N81  1  0.98517000  0.33562000  0.05382000  1.0
  O  O82  1  0.77328000  0.63660000  0.70277000  1.0
  O  O83  1  0.22673000  0.36340000  0.29724000  1.0
  O  O84  1  0.13737000  0.41330000  0.59234000  1.0
  O  O85  1  0.86263000  0.58670000  0.40766000  1.0
  O  O86  1  0.05970000  0.65658000  0.65586000  1.0
  O  O87  1  0.94031000  0.34342000  0.34414000  1.0
  O  O88  1  0.42955000  0.25120000  0.62640000  1.0
  O  O89  1  0.57045000  0.74880000  0.37360000  1.0
  O  O90  1  0.32694000  0.50484000  0.67530000  1.0
  O  O91  1  0.67306000  0.49516000  0.32470000  1.0
  O  O92  1  0.58704000  0.37731000  0.70800000  1.0
  O  O93  1  0.41296000  0.62268000  0.29200000  1.0
  O  O94  1  0.66505000  0.31703000  0.46382000  1.0
  O  O95  1  0.33495000  0.68297000  0.53618000  1.0
  O  O96  1  0.41890000  0.44226000  0.45175000  1.0
  O  O97  1  0.58111000  0.55773000  0.54825000  1.0
  O  O98  1  0.45844000  0.81168000  0.65592000  1.0
  O  O99  1  0.54157000  0.18832000  0.34408000  1.0
  O  O100  1  0.50602000  0.60375000  0.78824000  1.0
  O  O101  1  0.49398000  0.39624000  0.21176000  1.0
  O  O102  1  0.75368000  0.44785000  0.84680000  1.0
  O  O103  1  0.24632000  0.55215000  0.15320000  1.0
  O  O104  1  0.82479000  0.41971000  0.58534000  1.0
  O  O105  1  0.17521000  0.58029000  0.41466000  1.0
  O  O106  1  0.23254000  0.73858000  0.79272000  1.0
  O  O107  1  0.76746000  0.26142000  0.20728000  1.0
