# generated using pymatgen
data_ZnH12C21N3O4
_symmetry_space_group_name_H-M   'P 1'
_cell_length_a   11.91370000
_cell_length_b   14.68700000
_cell_length_c   15.66100000
_cell_angle_alpha   80.58110000
_cell_angle_beta   89.74260000
_cell_angle_gamma   73.05700000
_symmetry_Int_Tables_number   1
_chemical_formula_structural   ZnH12C21N3O4
_chemical_formula_sum   'Zn2 H24 C42 N6 O8'
_cell_volume   2583.31302353
_cell_formula_units_Z   2
loop_
 _symmetry_equiv_pos_site_id
 _symmetry_equiv_pos_as_xyz
  1  'x, y, z'
loop_
 _atom_site_type_symbol
 _atom_site_label
 _atom_site_symmetry_multiplicity
 _atom_site_fract_x
 _atom_site_fract_y
 _atom_site_fract_z
 _atom_site_occupancy
  Zn  Zn0  1  0.46730000  0.59501000  0.51700000  1.0
  Zn  Zn1  1  0.53427000  0.40408000  0.48315000  1.0
  H  H2  1  0.53164000  0.75293000  0.94254000  1.0
  H  H3  1  0.61739000  0.36054000  0.15242000  1.0
  H  H4  1  0.68886000  0.97874000  0.31913000  1.0
  H  H5  1  0.30598000  0.02204000  0.67865000  1.0
  H  H6  1  0.53506000  0.76646000  0.46100000  1.0
  H  H7  1  0.45575000  0.23579000  0.53431000  1.0
  H  H8  1  0.32896000  0.68930000  0.65487000  1.0
  H  H9  1  0.67580000  0.30793000  0.34903000  1.0
  H  H10  1  0.44146000  0.87274000  0.12090000  1.0
  H  H11  1  0.45115000  0.84603000  0.02040000  1.0
  H  H12  1  0.63763000  0.12689000  0.87971000  1.0
  H  H13  1  0.65463000  0.23835000  0.06139000  1.0
  H  H14  1  0.62984000  0.15262000  0.98074000  1.0
  H  H15  1  0.78063000  0.19246000  0.26345000  1.0
  H  H16  1  0.77974000  0.07608000  0.27928000  1.0
  H  H17  1  0.22212000  0.80525000  0.73957000  1.0
  H  H18  1  0.21683000  0.92321000  0.72011000  1.0
  H  H19  1  0.60461000  0.86155000  0.39828000  1.0
  H  H20  1  0.38841000  0.13991000  0.59839000  1.0
  H  H21  1  0.52948000  0.54079000  0.77923000  1.0
  H  H22  1  0.54558000  0.45986000  0.22279000  1.0
  H  H23  1  0.60423000  0.24450000  0.75252000  1.0
  H  H24  1  0.46633000  0.75659000  0.24852000  1.0
  H  H25  1  0.55973000  0.63120000  0.85119000  1.0
  C  C26  1  0.49214000  0.57610000  0.33776000  1.0
  C  C27  1  0.62647000  0.31404000  0.03050000  1.0
  C  C28  1  0.66295000  0.16300000  0.35071000  1.0
  C  C29  1  0.33478000  0.83683000  0.64883000  1.0
  C  C30  1  0.63731000  0.25195000  0.37834000  1.0
  C  C31  1  0.36283000  0.74695000  0.62268000  1.0
  C  C32  1  0.51422000  0.21053000  0.48402000  1.0
  C  C33  1  0.47989000  0.79060000  0.51330000  1.0
  C  C34  1  0.53524000  0.11749000  0.46307000  1.0
  C  C35  1  0.45834000  0.88380000  0.53394000  1.0
  C  C36  1  0.61114000  0.09272000  0.39431000  1.0
  C  C37  1  0.53453000  0.42768000  0.66367000  1.0
  C  C38  1  0.38370000  0.90812000  0.60344000  1.0
  C  C39  1  0.48362000  0.04731000  0.50975000  1.0
  C  C40  1  0.50907000  0.95428000  0.48671000  1.0
  C  C41  1  0.72422000  0.49009000  0.49761000  1.0
  C  C42  1  0.28062000  0.50349000  0.50071000  1.0
  C  C43  1  0.58440000  0.93257000  0.41699000  1.0
  C  C44  1  0.40863000  0.06888000  0.57969000  1.0
  C  C45  1  0.63302000  0.99902000  0.37243000  1.0
  C  C46  1  0.36109000  0.00206000  0.62491000  1.0
  C  C47  1  0.84488000  0.49196000  0.49695000  1.0
  C  C48  1  0.52918000  0.65603000  0.06394000  1.0
  C  C49  1  0.15925000  0.50338000  0.50021000  1.0
  C  C50  1  0.94609000  0.49590000  0.49771000  1.0
  C  C51  1  0.05785000  0.49984000  0.49891000  1.0
  C  C52  1  0.50694000  0.60477000  0.24312000  1.0
  C  C53  1  0.56455000  0.39599000  0.75871000  1.0
  C  C54  1  0.49991000  0.72868000  0.11806000  1.0
  C  C55  1  0.61981000  0.26818000  0.88410000  1.0
  C  C56  1  0.49002000  0.70210000  0.20652000  1.0
  C  C57  1  0.59806000  0.29743000  0.79517000  1.0
  C  C58  1  0.53635000  0.53355000  0.19173000  1.0
  C  C59  1  0.61011000  0.33921000  0.93873000  1.0
  C  C60  1  0.55707000  0.46557000  0.81040000  1.0
  C  C61  1  0.54840000  0.55699000  0.10205000  1.0
  C  C62  1  0.58042000  0.43914000  0.90053000  1.0
  C  C63  1  0.57493000  0.48369000  0.04709000  1.0
  C  C64  1  0.56979000  0.51109000  0.95582000  1.0
  C  C65  1  0.55461000  0.61006000  0.92072000  1.0
  C  C66  1  0.60665000  0.38328000  0.08244000  1.0
  C  C67  1  0.53778000  0.67910000  0.97269000  1.0
  N  N68  1  0.56474000  0.27394000  0.44311000  1.0
  N  N69  1  0.43302000  0.72586000  0.55641000  1.0
  N  N70  1  0.48424000  0.82551000  0.08247000  1.0
  N  N71  1  0.65400000  0.17003000  0.91949000  1.0
  N  N72  1  0.73345000  0.14552000  0.28118000  1.0
  N  N73  1  0.26550000  0.85426000  0.71887000  1.0
  O  O74  1  0.47905000  0.63995000  0.38633000  1.0
  O  O75  1  0.56703000  0.36453000  0.61439000  1.0
  O  O76  1  0.49420000  0.48864000  0.36338000  1.0
  O  O77  1  0.47839000  0.51642000  0.63895000  1.0
  O  O78  1  0.65127000  0.56035000  0.52474000  1.0
  O  O79  1  0.35639000  0.42165000  0.50197000  1.0
  O  O80  1  0.70298000  0.41893000  0.47135000  1.0
  O  O81  1  0.29958000  0.58457000  0.49977000  1.0
