# generated using pymatgen
data_CdH20C26(N3Cl)2
_symmetry_space_group_name_H-M   'P 1'
_cell_length_a   9.07726000
_cell_length_b   11.41250000
_cell_length_c   16.36050000
_cell_angle_alpha   73.83240000
_cell_angle_beta   73.88840000
_cell_angle_gamma   66.56520000
_symmetry_Int_Tables_number   1
_chemical_formula_structural   CdH20C26(N3Cl)2
_chemical_formula_sum   'Cd2 H40 C52 N12 Cl4'
_cell_volume   1466.56122195
_cell_formula_units_Z   2
loop_
 _symmetry_equiv_pos_site_id
 _symmetry_equiv_pos_as_xyz
  1  'x, y, z'
loop_
 _atom_site_type_symbol
 _atom_site_label
 _atom_site_symmetry_multiplicity
 _atom_site_fract_x
 _atom_site_fract_y
 _atom_site_fract_z
 _atom_site_occupancy
  Cd  Cd0  1  0.00000000  0.00000000  0.00000000  1.0
  Cd  Cd1  1  0.00000000  0.50000000  0.50000000  1.0
  H  H2  1  0.71424000  0.52132000  0.07209000  1.0
  H  H3  1  0.30768000  0.97893000  0.42778000  1.0
  H  H4  1  0.28576000  0.47868000  0.92791000  1.0
  H  H5  1  0.69232000  0.02107000  0.57222000  1.0
  H  H6  1  0.59672000  0.73726000  0.76625000  1.0
  H  H7  1  0.09989000  0.76263000  0.73390000  1.0
  H  H8  1  0.40328000  0.26274000  0.23375000  1.0
  H  H9  1  0.90011000  0.23736000  0.26611000  1.0
  H  H10  1  0.98030000  0.37784000  0.84581000  1.0
  H  H11  1  0.20417000  0.12186000  0.65410000  1.0
  H  H12  1  0.01970000  0.62216000  0.15419000  1.0
  H  H13  1  0.79583000  0.87814000  0.34590000  1.0
  H  H14  1  0.47288000  0.56752000  0.90392000  1.0
  H  H15  1  0.94409000  0.93230000  0.59605000  1.0
  H  H16  1  0.52712000  0.43248000  0.09608000  1.0
  H  H17  1  0.05591000  0.06771000  0.40396000  1.0
  H  H18  1  0.19260000  0.71271000  0.96242000  1.0
  H  H19  1  0.86757000  0.78711000  0.53749000  1.0
  H  H20  1  0.80740000  0.28729000  0.03758000  1.0
  H  H21  1  0.13243000  0.21289000  0.46251000  1.0
  H  H22  1  0.07106000  0.56680000  0.84048000  1.0
  H  H23  1  0.47850000  0.93269000  0.65947000  1.0
  H  H24  1  0.92894000  0.43320000  0.15952000  1.0
  H  H25  1  0.52150000  0.06731000  0.34053000  1.0
  H  H26  1  0.67072000  0.80253000  0.97774000  1.0
  H  H27  1  0.45081000  0.69731000  0.52231000  1.0
  H  H28  1  0.32928000  0.19747000  0.02226000  1.0
  H  H29  1  0.54918000  0.30269000  0.47769000  1.0
  H  H30  1  0.38200000  0.94763000  0.02083000  1.0
  H  H31  1  0.35038000  0.55213000  0.47922000  1.0
  H  H32  1  0.61800000  0.05236000  0.97917000  1.0
  H  H33  1  0.64961000  0.44787000  0.52078000  1.0
  H  H34  1  0.05084000  0.34458000  0.69348000  1.0
  H  H35  1  0.08945000  0.15521000  0.80641000  1.0
  H  H36  1  0.94917000  0.65542000  0.30652000  1.0
  H  H37  1  0.91055000  0.84479000  0.19359000  1.0
  H  H38  1  0.67756000  0.68092000  0.61945000  1.0
  H  H39  1  0.97820000  0.81900000  0.88070000  1.0
  H  H40  1  0.32245000  0.31907000  0.38054000  1.0
  H  H41  1  0.02180000  0.18100000  0.11930000  1.0
  C  C42  1  0.59379000  0.67621000  0.93327000  1.0
  C  C43  1  0.20310000  0.82368000  0.56665000  1.0
  C  C44  1  0.40621000  0.32379000  0.06673000  1.0
  C  C45  1  0.79690000  0.17632000  0.43336000  1.0
  C  C46  1  0.87727000  0.54915000  0.95005000  1.0
  C  C47  1  0.37648000  0.95069000  0.54989000  1.0
  C  C48  1  0.12273000  0.45085000  0.04995000  1.0
  C  C49  1  0.62352000  0.04931000  0.45011000  1.0
  C  C50  1  0.83979000  0.51154000  0.04021000  1.0
  C  C51  1  0.39151000  0.98862000  0.45974000  1.0
  C  C52  1  0.16021000  0.48846000  0.95979000  1.0
  C  C53  1  0.60849000  0.01138000  0.54026000  1.0
  C  C54  1  0.69676000  0.64779000  0.75371000  1.0
  C  C55  1  0.09823000  0.85207000  0.74636000  1.0
  C  C56  1  0.30324000  0.35221000  0.24629000  1.0
  C  C57  1  0.90178000  0.14793000  0.25364000  1.0
  C  C58  1  0.91108000  0.44947000  0.79758000  1.0
  C  C59  1  0.15846000  0.05023000  0.70240000  1.0
  C  C60  1  0.08892000  0.55053000  0.20242000  1.0
  C  C61  1  0.84154000  0.94977000  0.29760000  1.0
  C  C62  1  0.78534000  0.56412000  0.81861000  1.0
  C  C63  1  0.16810000  0.93565000  0.68137000  1.0
  C  C64  1  0.21466000  0.43588000  0.18139000  1.0
  C  C65  1  0.83190000  0.06435000  0.31863000  1.0
  C  C66  1  0.45686000  0.65067000  0.92999000  1.0
  C  C67  1  0.03733000  0.84921000  0.56992000  1.0
  C  C68  1  0.54314000  0.34933000  0.07001000  1.0
  C  C69  1  0.96267000  0.15080000  0.43008000  1.0
  C  C70  1  0.30196000  0.73177000  0.96109000  1.0
  C  C71  1  0.99467000  0.76808000  0.53881000  1.0
  C  C72  1  0.69804000  0.26823000  0.03891000  1.0
  C  C73  1  0.00533000  0.23192000  0.46119000  1.0
  C  C74  1  0.03910000  0.53779000  0.91045000  1.0
  C  C75  1  0.48749000  0.96184000  0.58951000  1.0
  C  C76  1  0.96090000  0.46221000  0.08955000  1.0
  C  C77  1  0.51251000  0.03816000  0.41049000  1.0
  C  C78  1  0.56829000  0.78155000  0.97005000  1.0
  C  C79  1  0.31975000  0.71829000  0.52991000  1.0
  C  C80  1  0.43171000  0.21845000  0.02995000  1.0
  C  C81  1  0.68025000  0.28171000  0.47009000  1.0
  C  C82  1  0.40783000  0.86011000  0.99662000  1.0
  C  C83  1  0.26446000  0.63971000  0.50336000  1.0
  C  C84  1  0.59217000  0.13988000  0.00338000  1.0
  C  C85  1  0.73553000  0.36030000  0.49664000  1.0
  C  C86  1  0.94876000  0.42901000  0.71336000  1.0
  C  C87  1  0.09164000  0.07075000  0.78661000  1.0
  C  C88  1  0.05124000  0.57099000  0.28664000  1.0
  C  C89  1  0.90836000  0.92925000  0.21339000  1.0
  C  C90  1  0.74150000  0.61711000  0.67187000  1.0
  C  C91  1  0.03078000  0.88275000  0.82822000  1.0
  C  C92  1  0.25850000  0.38288000  0.32812000  1.0
  C  C93  1  0.96923000  0.11725000  0.17178000  1.0
  N  N94  1  0.27624000  0.83717000  0.99208000  1.0
  N  N95  1  0.10539000  0.66269000  0.50785000  1.0
  N  N96  1  0.72376000  0.16284000  0.00792000  1.0
  N  N97  1  0.89460000  0.33732000  0.49214000  1.0
  N  N98  1  0.75258000  0.59606000  0.90015000  1.0
  N  N99  1  0.24870000  0.90379000  0.59977000  1.0
  N  N100  1  0.24742000  0.40394000  0.09985000  1.0
  N  N101  1  0.75130000  0.09621000  0.40023000  1.0
  N  N102  1  0.86812000  0.51129000  0.65031000  1.0
  N  N103  1  0.03022000  0.98853000  0.84973000  1.0
  N  N104  1  0.13188000  0.48870000  0.34969000  1.0
  N  N105  1  0.96978000  0.01147000  0.15027000  1.0
  Cl  Cl106  1  0.12494000  0.18217000  0.95325000  1.0
  Cl  Cl107  1  0.26046000  0.31776000  0.54668000  1.0
  Cl  Cl108  1  0.87506000  0.81784000  0.04675000  1.0
  Cl  Cl109  1  0.73954000  0.68224000  0.45332000  1.0
