# generated using pymatgen
data_CdCuH9C6N4O3
_symmetry_space_group_name_H-M   'P 1'
_cell_length_a   7.60435000
_cell_length_b   8.56577000
_cell_length_c   9.26931000
_cell_angle_alpha   74.33670000
_cell_angle_beta   76.45690000
_cell_angle_gamma   67.81980000
_symmetry_Int_Tables_number   1
_chemical_formula_structural   CdCuH9C6N4O3
_chemical_formula_sum   'Cd2 Cu2 H18 C12 N8 O6'
_cell_volume   532.38014945
_cell_formula_units_Z   2
loop_
 _symmetry_equiv_pos_site_id
 _symmetry_equiv_pos_as_xyz
  1  'x, y, z'
loop_
 _atom_site_type_symbol
 _atom_site_label
 _atom_site_symmetry_multiplicity
 _atom_site_fract_x
 _atom_site_fract_y
 _atom_site_fract_z
 _atom_site_occupancy
  Cd  Cd0  1  0.30900000  0.25316000  0.14990000  1.0
  Cd  Cd1  1  0.69100000  0.74684000  0.85010000  1.0
  Cu  Cu2  1  0.35311000  0.63344000  0.47812000  1.0
  Cu  Cu3  1  0.64688000  0.36656000  0.52188000  1.0
  H  H4  1  0.15390000  0.32855000  0.58674000  1.0
  H  H5  1  0.84610000  0.67146000  0.41326000  1.0
  H  H6  1  0.93674000  0.31060000  0.70340000  1.0
  H  H7  1  0.06326000  0.68941000  0.29659000  1.0
  H  H8  1  0.08081000  0.06534000  0.57665000  1.0
  H  H9  1  0.91919000  0.93466000  0.42336000  1.0
  H  H10  1  0.30996000  0.01376000  0.63101000  1.0
  H  H11  1  0.69003000  0.98625000  0.36899000  1.0
  H  H12  1  0.06267000  0.87335000  0.78537000  1.0
  H  H13  1  0.93732000  0.12665000  0.21463000  1.0
  H  H14  1  0.20216000  0.56647000  0.91555000  1.0
  H  H15  1  0.79784000  0.43353000  0.08445000  1.0
  H  H16  1  0.30656000  0.62216000  0.01316000  1.0
  H  H17  1  0.69344000  0.37785000  0.98684000  1.0
  H  H18  1  0.65062000  0.14150000  0.92529000  1.0
  H  H19  1  0.34938000  0.85850000  0.07470000  1.0
  H  H20  1  0.73839000  0.11900000  0.07461000  1.0
  H  H21  1  0.26161000  0.88100000  0.92539000  1.0
  C  C22  1  0.42124000  0.42850000  0.38908000  1.0
  C  C23  1  0.57877000  0.57149000  0.61092000  1.0
  C  C24  1  0.16352000  0.25255000  0.81886000  1.0
  C  C25  1  0.83648000  0.74745000  0.18115000  1.0
  C  C26  1  0.09424000  0.25073000  0.68704000  1.0
  C  C27  1  0.90576000  0.74927000  0.31296000  1.0
  C  C28  1  0.15368000  0.06544000  0.66578000  1.0
  C  C29  1  0.84632000  0.93456000  0.33422000  1.0
  C  C30  1  0.86087000  0.34017000  0.36410000  1.0
  C  C31  1  0.13913000  0.65983000  0.63591000  1.0
  C  C32  1  0.36160000  0.83854000  0.33507000  1.0
  C  C33  1  0.63839000  0.16145000  0.66493000  1.0
  N  N34  1  0.22183000  0.24273000  0.92711000  1.0
  N  N35  1  0.77816000  0.75727000  0.07288000  1.0
  N  N36  1  0.39649000  0.34648000  0.31691000  1.0
  N  N37  1  0.60352000  0.65351000  0.68309000  1.0
  N  N38  1  0.35887000  0.96811000  0.24835000  1.0
  N  N39  1  0.64112000  0.03189000  0.75165000  1.0
  N  N40  1  0.98636000  0.31194000  0.26178000  1.0
  N  N41  1  0.01366000  0.68805000  0.73822000  1.0
  O  O42  1  0.63294000  0.19314000  0.01268000  1.0
  O  O43  1  0.36706000  0.80687000  0.98732000  1.0
  O  O44  1  0.24527000  0.53815000  0.01375000  1.0
  O  O45  1  0.75473000  0.46185000  0.98625000  1.0
  O  O46  1  0.09685000  0.96399000  0.80723000  1.0
  O  O47  1  0.90315000  0.03602000  0.19277000  1.0
