# generated using pymatgen
data_Zn3H26C40(N3O7)2
_symmetry_space_group_name_H-M   'P 1'
_cell_length_a   13.31710000
_cell_length_b   14.01730000
_cell_length_c   14.11690000
_cell_angle_alpha   110.08800000
_cell_angle_beta   106.61900000
_cell_angle_gamma   109.14500000
_symmetry_Int_Tables_number   1
_chemical_formula_structural   Zn3H26C40(N3O7)2
_chemical_formula_sum   'Zn6 H52 C80 N12 O28'
_cell_volume   2088.70583954
_cell_formula_units_Z   2
loop_
 _symmetry_equiv_pos_site_id
 _symmetry_equiv_pos_as_xyz
  1  'x, y, z'
loop_
 _atom_site_type_symbol
 _atom_site_label
 _atom_site_symmetry_multiplicity
 _atom_site_fract_x
 _atom_site_fract_y
 _atom_site_fract_z
 _atom_site_occupancy
  Zn  Zn0  1  0.27539000  0.56761000  0.41016000  1.0
  Zn  Zn1  1  0.50000000  0.50000000  0.50000000  1.0
  Zn  Zn2  1  0.72461000  0.43238000  0.58984000  1.0
  Zn  Zn3  1  0.63221000  0.83943000  0.40217000  1.0
  Zn  Zn4  1  0.36779000  0.16057000  0.59783000  1.0
  Zn  Zn5  1  0.50000000  0.00000000  0.50000000  1.0
  H  H6  1  0.01225000  0.13864000  0.24685000  1.0
  H  H7  1  0.38565000  0.43967000  0.90010000  1.0
  H  H8  1  0.39636000  0.76827000  0.70183000  1.0
  H  H9  1  0.33232000  0.85392000  0.23224000  1.0
  H  H10  1  0.19675000  0.05787000  0.27707000  1.0
  H  H11  1  0.58716000  0.61236000  0.76550000  1.0
  H  H12  1  0.66768000  0.14609000  0.76776000  1.0
  H  H13  1  0.99580000  0.54662000  0.11749000  1.0
  H  H14  1  0.16663000  0.41304000  0.96647000  1.0
  H  H15  1  0.77548000  0.36980000  0.29452000  1.0
  H  H16  1  0.61435000  0.56032000  0.09990000  1.0
  H  H17  1  0.25340000  0.20689000  0.06218000  1.0
  H  H18  1  0.55012000  0.15870000  0.10095000  1.0
  H  H19  1  0.69369000  0.43481000  0.01203000  1.0
  H  H20  1  0.36738000  0.24264000  0.43968000  1.0
  H  H21  1  0.50610000  0.22269000  0.99905000  1.0
  H  H22  1  0.80324000  0.94212000  0.72291000  1.0
  H  H23  1  0.22453000  0.63021000  0.70548000  1.0
  H  H24  1  0.00420000  0.45337000  0.88251000  1.0
  H  H25  1  0.74660000  0.79312000  0.93782000  1.0
  H  H26  1  0.12686000  0.45782000  0.16074000  1.0
  H  H27  1  0.58044000  0.19598000  0.45365000  1.0
  H  H28  1  0.66510000  0.12358000  0.93324000  1.0
  H  H29  1  0.00585000  0.25573000  0.00018000  1.0
  H  H30  1  0.33020000  0.92258000  0.94044000  1.0
  H  H31  1  0.78431000  0.04844000  0.39709000  1.0
  H  H32  1  0.63261000  0.75734000  0.56031000  1.0
  H  H33  1  0.66980000  0.07743000  0.05956000  1.0
  H  H34  1  0.03399000  0.93744000  0.30468000  1.0
  H  H35  1  0.49389000  0.77733000  0.00096000  1.0
  H  H36  1  0.76257000  0.12367000  0.26024000  1.0
  H  H37  1  0.12588000  0.34538000  0.39646000  1.0
  H  H38  1  0.87411000  0.65461000  0.60353000  1.0
  H  H39  1  0.33490000  0.87643000  0.06676000  1.0
  H  H40  1  0.52496000  0.71739000  0.14849000  1.0
  H  H41  1  0.55889000  0.42101000  0.64086000  1.0
  H  H42  1  0.23744000  0.87634000  0.73977000  1.0
  H  H43  1  0.60365000  0.23174000  0.29818000  1.0
  H  H44  1  0.87314000  0.54217000  0.83925000  1.0
  H  H45  1  0.21570000  0.95157000  0.60292000  1.0
  H  H46  1  0.96601000  0.06255000  0.69532000  1.0
  H  H47  1  0.98773000  0.86135000  0.75314000  1.0
  H  H48  1  0.41284000  0.38765000  0.23450000  1.0
  H  H49  1  0.30631000  0.56519000  0.98797000  1.0
  H  H50  1  0.99415000  0.74427000  0.99982000  1.0
  H  H51  1  0.47503000  0.28263000  0.85152000  1.0
  H  H52  1  0.41923000  0.77922000  0.35536000  1.0
  H  H53  1  0.58077000  0.22078000  0.64464000  1.0
  H  H54  1  0.41956000  0.80402000  0.54636000  1.0
  H  H55  1  0.44988000  0.84131000  0.89906000  1.0
  H  H56  1  0.44110000  0.57898000  0.35913000  1.0
  H  H57  1  0.83337000  0.58696000  0.03353000  1.0
  C  C58  1  0.47084000  0.87228000  0.63391000  1.0
  C  C59  1  0.77124000  0.07136000  0.58647000  1.0
  C  C60  1  0.65012000  0.53576000  0.24688000  1.0
  C  C61  1  0.36525000  0.31157000  0.24046000  1.0
  C  C62  1  0.39668000  0.38445000  0.70506000  1.0
  C  C63  1  0.27450000  0.21047000  0.14403000  1.0
  C  C64  1  0.70889000  0.03247000  0.23160000  1.0
  C  C65  1  0.08783000  0.03290000  0.06101000  1.0
  C  C66  1  0.39289000  0.95036000  0.15065000  1.0
  C  C67  1  0.80017000  0.31344000  0.69533000  1.0
  C  C68  1  0.30551000  0.55021000  0.90677000  1.0
  C  C69  1  0.00381000  0.18061000  0.11110000  1.0
  C  C70  1  0.08768000  0.34689000  0.88803000  1.0
  C  C71  1  0.01636000  0.93101000  0.96624000  1.0
  C  C72  1  0.02956000  0.27206000  0.08664000  1.0
  C  C73  1  0.74115000  0.39845000  0.15015000  1.0
  C  C74  1  0.42302000  0.19345000  0.83079000  1.0
  C  C75  1  0.57698000  0.80656000  0.16922000  1.0
  C  C76  1  0.25886000  0.60156000  0.84985000  1.0
  C  C77  1  0.99618000  0.81939000  0.88889000  1.0
  C  C78  1  0.37869000  0.04200000  0.88063000  1.0
  C  C79  1  0.72145000  0.99147000  0.30821000  1.0
  C  C80  1  0.30725000  0.52121000  0.69986000  1.0
  C  C81  1  0.61074000  0.06259000  0.75673000  1.0
  C  C82  1  0.07592000  0.23676000  0.83389000  1.0
  C  C83  1  0.75630000  0.87320000  0.73779000  1.0
  C  C84  1  0.58850000  0.01079000  0.04800000  1.0
  C  C85  1  0.09654000  0.32153000  0.30750000  1.0
  C  C86  1  0.55940000  0.84138000  0.08754000  1.0
  C  C87  1  0.60712000  0.04966000  0.84935000  1.0
  C  C88  1  0.66187000  0.76927000  0.64588000  1.0
  C  C89  1  0.11784000  0.83058000  0.31056000  1.0
  C  C90  1  0.19983000  0.68655000  0.30467000  1.0
  C  C91  1  0.60332000  0.61554000  0.29494000  1.0
  C  C92  1  0.31453000  0.51399000  0.59343000  1.0
  C  C93  1  0.45969000  0.85344000  0.72178000  1.0
  C  C94  1  0.90345000  0.67845000  0.69249000  1.0
  C  C95  1  0.03301000  0.20712000  0.22421000  1.0
  C  C96  1  0.35065000  0.48171000  0.85760000  1.0
  C  C97  1  0.38926000  0.93742000  0.24327000  1.0
  C  C98  1  0.91217000  0.96709000  0.93898000  1.0
  C  C99  1  0.54032000  0.14657000  0.27822000  1.0
  C  C100  1  0.69450000  0.44979000  0.09323000  1.0
  C  C101  1  0.09565000  0.38429000  0.17538000  1.0
  C  C102  1  0.47469000  0.05517000  0.16733000  1.0
  C  C103  1  0.41151000  0.98922000  0.95201000  1.0
  C  C104  1  0.72550000  0.78953000  0.85596000  1.0
  C  C105  1  0.98365000  0.06899000  0.03375000  1.0
  C  C106  1  0.20673000  0.11666000  0.15402000  1.0
  C  C107  1  0.92408000  0.76324000  0.16610000  1.0
  C  C108  1  0.88216000  0.16942000  0.68944000  1.0
  C  C109  1  0.24369000  0.12679000  0.26220000  1.0
  C  C110  1  0.73952000  0.41097000  0.25173000  1.0
  C  C111  1  0.63474000  0.68843000  0.75954000  1.0
  C  C112  1  0.68547000  0.48601000  0.40657000  1.0
  C  C113  1  0.64935000  0.51828000  0.14240000  1.0
  C  C114  1  0.00396000  0.63213000  0.15916000  1.0
  C  C115  1  0.10654000  0.71925000  0.25959000  1.0
  C  C116  1  0.33812000  0.23072000  0.35411000  1.0
  C  C117  1  0.96697000  0.79287000  0.77578000  1.0
  C  C118  1  0.62131000  0.95801000  0.11938000  1.0
  C  C119  1  0.90435000  0.61570000  0.82462000  1.0
  C  C120  1  0.50591000  0.06696000  0.07657000  1.0
  C  C121  1  0.26049000  0.58903000  0.74827000  1.0
  C  C122  1  0.02574000  0.85199000  0.26368000  1.0
  C  C123  1  0.29112000  0.96754000  0.76841000  1.0
  C  C124  1  0.79327000  0.88333000  0.84597000  1.0
  C  C125  1  0.69275000  0.47879000  0.30014000  1.0
  C  C126  1  0.89346000  0.28074000  0.74041000  1.0
  C  C127  1  0.97044000  0.72793000  0.91335000  1.0
  C  C128  1  0.44060000  0.15863000  0.91247000  1.0
  C  C129  1  0.52917000  0.12773000  0.36610000  1.0
  C  C130  1  0.52532000  0.94484000  0.83268000  1.0
  C  C131  1  0.22876000  0.92864000  0.41353000  1.0
  C  C132  1  0.34988000  0.46424000  0.75312000  1.0
  C  C133  1  0.91232000  0.65311000  0.11196000  1.0
  C  C134  1  0.99604000  0.36787000  0.84084000  1.0
  C  C135  1  0.97427000  0.14801000  0.73632000  1.0
  C  C136  1  0.27856000  0.00854000  0.69179000  1.0
  C  C137  1  0.49409000  0.93305000  0.92344000  1.0
  N  N138  1  0.34670000  0.11904000  0.72128000  1.0
  N  N139  1  0.20813000  0.67102000  0.89848000  1.0
  N  N140  1  0.65331000  0.88097000  0.27873000  1.0
  N  N141  1  0.82828000  0.78637000  0.11829000  1.0
  N  N142  1  0.54125000  0.97615000  0.65000000  1.0
  N  N143  1  0.39447000  0.32354000  0.34488000  1.0
  N  N144  1  0.60552000  0.67645000  0.65512000  1.0
  N  N145  1  0.17172000  0.21363000  0.88170000  1.0
  N  N146  1  0.13240000  0.40870000  0.28417000  1.0
  N  N147  1  0.86759000  0.59129000  0.71582000  1.0
  N  N148  1  0.79188000  0.32898000  0.10153000  1.0
  N  N149  1  0.45875000  0.02386000  0.35000000  1.0
  O  O150  1  0.31647000  0.28103000  0.62953000  1.0
  O  O151  1  0.57786000  0.42833000  0.58057000  1.0
  O  O152  1  0.84941000  0.88863000  0.15228000  1.0
  O  O153  1  0.81257000  0.33478000  0.02250000  1.0
  O  O154  1  0.63720000  0.54281000  0.44540000  1.0
  O  O155  1  0.49614000  0.84494000  0.41535000  1.0
  O  O156  1  0.68751000  0.09178000  0.54863000  1.0
  O  O157  1  0.81071000  0.26571000  0.14067000  1.0
  O  O158  1  0.72885000  0.43190000  0.44816000  1.0
  O  O159  1  0.18744000  0.66523000  0.97751000  1.0
  O  O160  1  0.27115000  0.56809000  0.55184000  1.0
  O  O161  1  0.68353000  0.71896000  0.37046000  1.0
  O  O162  1  0.31249000  0.90821000  0.45137000  1.0
  O  O163  1  0.50386000  0.15506000  0.58465000  1.0
  O  O164  1  0.73718000  0.32427000  0.74531000  1.0
  O  O165  1  0.42213000  0.57166000  0.41943000  1.0
  O  O166  1  0.22812000  0.02562000  0.45418000  1.0
  O  O167  1  0.19725000  0.66101000  0.38345000  1.0
  O  O168  1  0.73000000  0.70220000  0.04418000  1.0
  O  O169  1  0.77188000  0.97438000  0.54582000  1.0
  O  O170  1  0.80275000  0.33898000  0.61654000  1.0
  O  O171  1  0.49291000  0.57853000  0.25085000  1.0
  O  O172  1  0.26283000  0.67572000  0.25469000  1.0
  O  O173  1  0.27000000  0.29780000  0.95582000  1.0
  O  O174  1  0.15059000  0.11137000  0.84772000  1.0
  O  O175  1  0.36280000  0.45719000  0.55460000  1.0
  O  O176  1  0.18930000  0.73429000  0.85933000  1.0
  O  O177  1  0.50709000  0.42146000  0.74916000  1.0
