# generated using pymatgen
data_BaH8C4O7
_symmetry_space_group_name_H-M   'P 1'
_cell_length_a   7.64777000
_cell_length_b   10.28580000
_cell_length_c   10.49360000
_cell_angle_alpha   77.80500000
_cell_angle_beta   90.00050000
_cell_angle_gamma   90.00360000
_symmetry_Int_Tables_number   1
_chemical_formula_structural   BaH8C4O7
_chemical_formula_sum   'Ba4 H32 C16 O28'
_cell_volume   806.83548062
_cell_formula_units_Z   4
loop_
 _symmetry_equiv_pos_site_id
 _symmetry_equiv_pos_as_xyz
  1  'x, y, z'
loop_
 _atom_site_type_symbol
 _atom_site_label
 _atom_site_symmetry_multiplicity
 _atom_site_fract_x
 _atom_site_fract_y
 _atom_site_fract_z
 _atom_site_occupancy
  Ba  Ba0  1  0.74642000  0.79062000  0.38286000  1.0
  Ba  Ba1  1  0.24644000  0.70937000  0.11714000  1.0
  Ba  Ba2  1  0.25358000  0.20938000  0.61713000  1.0
  Ba  Ba3  1  0.75357000  0.29064000  0.88286000  1.0
  H  H4  1  0.81265000  0.81955000  0.80223000  1.0
  H  H5  1  0.31264000  0.68045000  0.69777000  1.0
  H  H6  1  0.18736000  0.18045000  0.19777000  1.0
  H  H7  1  0.68737000  0.31955000  0.30223000  1.0
  H  H8  1  0.43915000  0.90430000  0.72320000  1.0
  H  H9  1  0.93915000  0.59568000  0.77679000  1.0
  H  H10  1  0.56086000  0.09570000  0.27681000  1.0
  H  H11  1  0.06085000  0.40432000  0.22320000  1.0
  H  H12  1  0.50012000  0.81890000  0.88366000  1.0
  H  H13  1  0.00011000  0.68109000  0.61636000  1.0
  H  H14  1  0.49988000  0.18110000  0.11634000  1.0
  H  H15  1  0.99990000  0.31892000  0.38364000  1.0
  H  H16  1  0.92239000  0.98202000  0.13721000  1.0
  H  H17  1  0.42241000  0.51797000  0.36280000  1.0
  H  H18  1  0.07761000  0.01797000  0.86280000  1.0
  H  H19  1  0.57760000  0.48203000  0.63721000  1.0
  H  H20  1  0.21483000  0.79490000  0.41444000  1.0
  H  H21  1  0.71487000  0.70511000  0.08557000  1.0
  H  H22  1  0.78517000  0.20510000  0.58556000  1.0
  H  H23  1  0.28513000  0.29489000  0.91443000  1.0
  H  H24  1  0.13782000  0.86401000  0.52477000  1.0
  H  H25  1  0.63785000  0.63599000  0.97524000  1.0
  H  H26  1  0.86218000  0.13599000  0.47522000  1.0
  H  H27  1  0.36216000  0.36401000  0.02476000  1.0
  H  H28  1  0.82397000  0.91351000  0.04635000  1.0
  H  H29  1  0.32401000  0.58650000  0.45365000  1.0
  H  H30  1  0.17602000  0.08649000  0.95366000  1.0
  H  H31  1  0.67600000  0.41350000  0.54635000  1.0
  H  H32  1  0.79794000  0.98087000  0.61328000  1.0
  H  H33  1  0.29793000  0.51913000  0.88671000  1.0
  H  H34  1  0.20206000  0.01913000  0.38673000  1.0
  H  H35  1  0.70207000  0.48087000  0.11329000  1.0
  C  C36  1  0.64781000  0.68035000  0.73175000  1.0
  C  C37  1  0.14779000  0.81964000  0.76826000  1.0
  C  C38  1  0.35218000  0.31965000  0.26824000  1.0
  C  C39  1  0.85219000  0.18037000  0.23173000  1.0
  C  C40  1  0.69849000  0.82328000  0.73758000  1.0
  C  C41  1  0.19849000  0.67670000  0.76243000  1.0
  C  C42  1  0.30151000  0.17672000  0.26243000  1.0
  C  C43  1  0.80151000  0.32330000  0.23757000  1.0
  C  C44  1  0.54485000  0.88757000  0.79498000  1.0
  C  C45  1  0.04485000  0.61240000  0.70502000  1.0
  C  C46  1  0.45516000  0.11243000  0.20503000  1.0
  C  C47  1  0.95515000  0.38759000  0.29497000  1.0
  C  C48  1  0.59498000  0.01689000  0.83212000  1.0
  C  C49  1  0.09496000  0.48311000  0.66787000  1.0
  C  C50  1  0.40501000  0.98311000  0.16789000  1.0
  C  C51  1  0.90503000  0.51689000  0.33213000  1.0
  O  O52  1  0.60734000  0.65646000  0.62208000  1.0
  O  O53  1  0.10735000  0.84352000  0.87793000  1.0
  O  O54  1  0.39266000  0.34352000  0.37792000  1.0
  O  O55  1  0.89265000  0.15648000  0.12207000  1.0
  O  O56  1  0.74065000  0.89484000  0.60904000  1.0
  O  O57  1  0.24065000  0.60516000  0.89095000  1.0
  O  O58  1  0.25936000  0.10516000  0.39096000  1.0
  O  O59  1  0.75934000  0.39484000  0.10905000  1.0
  O  O60  1  0.12094000  0.85345000  0.43085000  1.0
  O  O61  1  0.62097000  0.64656000  0.06916000  1.0
  O  O62  1  0.87906000  0.14654000  0.56915000  1.0
  O  O63  1  0.37903000  0.35345000  0.93084000  1.0
  O  O64  1  0.52888000  0.12525000  0.76780000  1.0
  O  O65  1  0.02887000  0.37475000  0.73218000  1.0
  O  O66  1  0.47111000  0.87475000  0.23219000  1.0
  O  O67  1  0.97114000  0.62526000  0.26782000  1.0
  O  O68  1  0.89429000  0.88982000  0.12761000  1.0
  O  O69  1  0.39432000  0.61018000  0.37239000  1.0
  O  O70  1  0.10571000  0.11018000  0.87240000  1.0
  O  O71  1  0.60569000  0.38982000  0.62761000  1.0
  O  O72  1  0.64814000  0.59372000  0.83868000  1.0
  O  O73  1  0.14815000  0.90628000  0.66133000  1.0
  O  O74  1  0.35188000  0.40628000  0.16131000  1.0
  O  O75  1  0.85187000  0.09372000  0.33867000  1.0
  O  O76  1  0.70392000  0.01493000  0.92358000  1.0
  O  O77  1  0.20392000  0.48511000  0.57640000  1.0
  O  O78  1  0.29606000  0.98507000  0.07643000  1.0
  O  O79  1  0.79608000  0.51492000  0.42357000  1.0
