# generated using pymatgen
data_Cd3H34C34(N14O)2
_symmetry_space_group_name_H-M   'P 1'
_cell_length_a   11.09360000
_cell_length_b   14.36620000
_cell_length_c   22.88490000
_cell_angle_alpha   90.00000000
_cell_angle_beta   90.00010000
_cell_angle_gamma   97.55170000
_symmetry_Int_Tables_number   1
_chemical_formula_structural   Cd3H34C34(N14O)2
_chemical_formula_sum   'Cd6 H68 C68 N56 O4'
_cell_volume   3615.59872188
_cell_formula_units_Z   2
loop_
 _symmetry_equiv_pos_site_id
 _symmetry_equiv_pos_as_xyz
  1  'x, y, z'
loop_
 _atom_site_type_symbol
 _atom_site_label
 _atom_site_symmetry_multiplicity
 _atom_site_fract_x
 _atom_site_fract_y
 _atom_site_fract_z
 _atom_site_occupancy
  Cd  Cd0  1  0.50000000  0.00000000  0.00000000  1.0
  Cd  Cd1  1  0.50000000  0.50000000  0.50000000  1.0
  Cd  Cd2  1  0.36791000  0.77991000  0.07315000  1.0
  Cd  Cd3  1  0.63209000  0.72010000  0.57315000  1.0
  Cd  Cd4  1  0.63209000  0.22009000  0.92685000  1.0
  Cd  Cd5  1  0.36791000  0.27991000  0.42685000  1.0
  H  H6  1  0.09504000  0.66073000  0.11822000  1.0
  H  H7  1  0.90496000  0.83928000  0.61822000  1.0
  H  H8  1  0.90496000  0.33927000  0.88178000  1.0
  H  H9  1  0.09504000  0.16073000  0.38178000  1.0
  H  H10  1  0.87449000  0.67937000  0.11549000  1.0
  H  H11  1  0.12551000  0.82064000  0.61548000  1.0
  H  H12  1  0.12551000  0.32063000  0.88451000  1.0
  H  H13  1  0.87449000  0.17936000  0.38452000  1.0
  H  H14  1  0.97524000  0.94854000  0.03359000  1.0
  H  H15  1  0.02476000  0.55146000  0.53359000  1.0
  H  H16  1  0.02476000  0.05146000  0.96641000  1.0
  H  H17  1  0.97524000  0.44854000  0.46641000  1.0
  H  H18  1  0.19199000  0.91927000  0.03877000  1.0
  H  H19  1  0.80801000  0.58073000  0.53877000  1.0
  H  H20  1  0.80801000  0.08073000  0.96123000  1.0
  H  H21  1  0.19199000  0.41927000  0.46123000  1.0
  H  H22  1  0.46094000  0.31093000  0.29569000  1.0
  H  H23  1  0.53906000  0.18907000  0.79569000  1.0
  H  H24  1  0.53906000  0.68907000  0.70431000  1.0
  H  H25  1  0.46094000  0.81093000  0.20431000  1.0
  H  H26  1  0.47410000  0.22426000  0.20123000  1.0
  H  H27  1  0.52591000  0.27574000  0.70123000  1.0
  H  H28  1  0.52591000  0.77574000  0.79877000  1.0
  H  H29  1  0.47410000  0.72426000  0.29877000  1.0
  H  H30  1  0.29288000  0.97705000  0.28668000  1.0
  H  H31  1  0.70712000  0.52295000  0.78668000  1.0
  H  H32  1  0.70712000  0.02295000  0.71332000  1.0
  H  H33  1  0.29288000  0.47705000  0.21332000  1.0
  H  H34  1  0.29262000  0.07275000  0.37885000  1.0
  H  H35  1  0.70738000  0.42724000  0.87885000  1.0
  H  H36  1  0.70738000  0.92725000  0.62115000  1.0
  H  H37  1  0.29262000  0.57276000  0.12115000  1.0
  H  H38  1  0.48004000  0.73033000  0.93975000  1.0
  H  H39  1  0.51996000  0.76967000  0.43975000  1.0
  H  H40  1  0.51996000  0.26967000  0.06025000  1.0
  H  H41  1  0.48004000  0.23033000  0.56025000  1.0
  H  H42  1  0.57253000  0.65278000  0.97093000  1.0
  H  H43  1  0.42747000  0.84722000  0.47093000  1.0
  H  H44  1  0.42747000  0.34722000  0.02907000  1.0
  H  H45  1  0.57253000  0.15278000  0.52907000  1.0
  H  H46  1  0.43444000  0.63408000  0.85516000  1.0
  H  H47  1  0.56556000  0.86592000  0.35515000  1.0
  H  H48  1  0.56556000  0.36592000  0.14485000  1.0
  H  H49  1  0.43444000  0.13408000  0.64484000  1.0
  H  H50  1  0.57782000  0.59714000  0.86973000  1.0
  H  H51  1  0.42218000  0.90286000  0.36972000  1.0
  H  H52  1  0.42218000  0.40286000  0.13028000  1.0
  H  H53  1  0.57782000  0.09714000  0.63028000  1.0
  H  H54  1  0.36128000  0.47188000  0.86757000  1.0
  H  H55  1  0.63872000  0.02812000  0.36757000  1.0
  H  H56  1  0.63872000  0.52812000  0.13243000  1.0
  H  H57  1  0.36128000  0.97188000  0.63243000  1.0
  H  H58  1  0.48313000  0.45176000  0.91402000  1.0
  H  H59  1  0.51687000  0.04824000  0.41402000  1.0
  H  H60  1  0.51687000  0.54824000  0.08598000  1.0
  H  H61  1  0.48313000  0.95176000  0.58598000  1.0
  H  H62  1  0.27509000  0.38112000  0.96751000  1.0
  H  H63  1  0.72490000  0.11888000  0.46751000  1.0
  H  H64  1  0.72490000  0.61888000  0.03249000  1.0
  H  H65  1  0.27510000  0.88112000  0.53249000  1.0
  H  H66  1  0.16487000  0.46023000  0.95891000  1.0
  H  H67  1  0.83513000  0.03977000  0.45892000  1.0
  H  H68  1  0.83513000  0.53977000  0.04109000  1.0
  H  H69  1  0.16487000  0.96023000  0.54109000  1.0
  H  H70  1  0.24878000  0.46130000  0.02528000  1.0
  H  H71  1  0.75122000  0.03870000  0.52528000  1.0
  H  H72  1  0.75122000  0.53870000  0.97472000  1.0
  H  H73  1  0.24878000  0.96130000  0.47472000  1.0
  C  C74  1  0.06500000  0.72352000  0.09922000  1.0
  C  C75  1  0.93500000  0.77648000  0.59922000  1.0
  C  C76  1  0.93500000  0.27648000  0.90078000  1.0
  C  C77  1  0.06500000  0.22352000  0.40078000  1.0
  C  C78  1  0.94203000  0.73372000  0.09753000  1.0
  C  C79  1  0.05797000  0.76628000  0.59753000  1.0
  C  C80  1  0.05797000  0.26628000  0.90246000  1.0
  C  C81  1  0.94203000  0.23372000  0.40247000  1.0
  C  C82  1  0.90658000  0.81494000  0.07225000  1.0
  C  C83  1  0.09342000  0.68506000  0.57225000  1.0
  C  C84  1  0.09342000  0.18506000  0.92775000  1.0
  C  C85  1  0.90658000  0.31494000  0.42775000  1.0
  C  C86  1  0.99890000  0.88363000  0.05212000  1.0
  C  C87  1  0.00110000  0.61638000  0.55212000  1.0
  C  C88  1  0.00110000  0.11637000  0.94788000  1.0
  C  C89  1  0.99890000  0.38362000  0.44788000  1.0
  C  C90  1  0.11922000  0.86772000  0.05553000  1.0
  C  C91  1  0.88078000  0.63228000  0.55553000  1.0
  C  C92  1  0.88078000  0.13228000  0.94447000  1.0
  C  C93  1  0.11922000  0.36772000  0.44447000  1.0
  C  C94  1  0.77992000  0.82972000  0.06517000  1.0
  C  C95  1  0.22008000  0.67028000  0.56517000  1.0
  C  C96  1  0.22008000  0.17028000  0.93483000  1.0
  C  C97  1  0.77992000  0.32972000  0.43483000  1.0
  C  C98  1  0.42642000  0.23659000  0.29213000  1.0
  C  C99  1  0.57358000  0.26341000  0.79213000  1.0
  C  C100  1  0.57358000  0.76341000  0.70787000  1.0
  C  C101  1  0.42642000  0.73659000  0.20787000  1.0
  C  C102  1  0.43196000  0.18894000  0.23965000  1.0
  C  C103  1  0.56804000  0.31106000  0.73965000  1.0
  C  C104  1  0.56804000  0.81106000  0.76035000  1.0
  C  C105  1  0.43196000  0.68894000  0.26035000  1.0
  C  C106  1  0.38369000  0.09383000  0.23659000  1.0
  C  C107  1  0.61631000  0.40617000  0.73659000  1.0
  C  C108  1  0.61631000  0.90617000  0.76341000  1.0
  C  C109  1  0.38369000  0.59383000  0.26341000  1.0
  C  C110  1  0.33169000  0.05075000  0.28740000  1.0
  C  C111  1  0.66831000  0.44925000  0.78740000  1.0
  C  C112  1  0.66831000  0.94925000  0.71260000  1.0
  C  C113  1  0.33169000  0.55075000  0.21260000  1.0
  C  C114  1  0.33046000  0.10347000  0.33812000  1.0
  C  C115  1  0.66954000  0.39653000  0.83812000  1.0
  C  C116  1  0.66954000  0.89653000  0.66188000  1.0
  C  C117  1  0.33046000  0.60347000  0.16188000  1.0
  C  C118  1  0.38917000  0.04126000  0.18264000  1.0
  C  C119  1  0.61083000  0.45875000  0.68264000  1.0
  C  C120  1  0.61083000  0.95875000  0.81736000  1.0
  C  C121  1  0.38917000  0.54125000  0.31736000  1.0
  C  C122  1  0.38388000  0.60463000  0.97960000  1.0
  C  C123  1  0.61612000  0.89537000  0.47959000  1.0
  C  C124  1  0.61612000  0.39537000  0.02040000  1.0
  C  C125  1  0.38388000  0.10463000  0.52040000  1.0
  C  C126  1  0.48911000  0.65583000  0.94531000  1.0
  C  C127  1  0.51090000  0.84417000  0.44531000  1.0
  C  C128  1  0.51089000  0.34417000  0.05469000  1.0
  C  C129  1  0.48911000  0.15583000  0.55469000  1.0
  C  C130  1  0.48713000  0.60065000  0.88780000  1.0
  C  C131  1  0.51287000  0.89935000  0.38780000  1.0
  C  C132  1  0.51286000  0.39935000  0.11220000  1.0
  C  C133  1  0.48713000  0.10065000  0.61220000  1.0
  C  C134  1  0.42068000  0.50276000  0.90288000  1.0
  C  C135  1  0.57932000  0.99724000  0.40287000  1.0
  C  C136  1  0.57932000  0.49724000  0.09712000  1.0
  C  C137  1  0.42068000  0.00276000  0.59712000  1.0
  C  C138  1  0.25407000  0.45185000  0.97782000  1.0
  C  C139  1  0.74593000  0.04815000  0.47782000  1.0
  C  C140  1  0.74593000  0.54815000  0.02218000  1.0
  C  C141  1  0.25407000  0.95186000  0.52218000  1.0
  N  N142  1  0.15266000  0.78820000  0.07798000  1.0
  N  N143  1  0.84734000  0.71180000  0.57798000  1.0
  N  N144  1  0.84734000  0.21180000  0.92202000  1.0
  N  N145  1  0.15266000  0.28820000  0.42203000  1.0
  N  N146  1  0.74769000  0.90904000  0.04133000  1.0
  N  N147  1  0.25231000  0.59096000  0.54133000  1.0
  N  N148  1  0.25231000  0.09096000  0.95867000  1.0
  N  N149  1  0.74769000  0.40903000  0.45867000  1.0
  N  N150  1  0.62754000  0.89532000  0.04108000  1.0
  N  N151  1  0.37246000  0.60469000  0.54108000  1.0
  N  N152  1  0.37246000  0.10469000  0.95892000  1.0
  N  N153  1  0.62754000  0.39531000  0.45893000  1.0
  N  N154  1  0.58716000  0.81105000  0.06359000  1.0
  N  N155  1  0.41284000  0.68895000  0.56359000  1.0
  N  N156  1  0.41284000  0.18895000  0.93641000  1.0
  N  N157  1  0.58716000  0.31105000  0.43641000  1.0
  N  N158  1  0.68132000  0.76785000  0.07923000  1.0
  N  N159  1  0.31868000  0.73215000  0.57923000  1.0
  N  N160  1  0.31868000  0.23215000  0.92077000  1.0
  N  N161  1  0.68132000  0.26785000  0.42077000  1.0
  N  N162  1  0.37669000  0.19496000  0.34081000  1.0
  N  N163  1  0.62331000  0.30504000  0.84081000  1.0
  N  N164  1  0.62331000  0.80504000  0.65919000  1.0
  N  N165  1  0.37669000  0.69496000  0.15919000  1.0
  N  N166  1  0.42185000  0.08042000  0.13031000  1.0
  N  N167  1  0.57815000  0.41958000  0.63031000  1.0
  N  N168  1  0.57815000  0.91958000  0.86969000  1.0
  N  N169  1  0.42185000  0.58042000  0.36969000  1.0
  N  N170  1  0.41772000  0.00783000  0.09436000  1.0
  N  N171  1  0.58228000  0.49217000  0.59436000  1.0
  N  N172  1  0.58228000  0.99217000  0.90564000  1.0
  N  N173  1  0.41772000  0.50783000  0.40564000  1.0
  N  N174  1  0.38477000  0.92787000  0.12349000  1.0
  N  N175  1  0.61523000  0.57213000  0.62349000  1.0
  N  N176  1  0.61523000  0.07213000  0.87651000  1.0
  N  N177  1  0.38477000  0.42787000  0.37651000  1.0
  N  N178  1  0.36532000  0.94668000  0.17917000  1.0
  N  N179  1  0.63468000  0.55332000  0.67917000  1.0
  N  N180  1  0.63468000  0.05332000  0.82083000  1.0
  N  N181  1  0.36532000  0.44668000  0.32083000  1.0
  N  N182  1  0.36579000  0.86247000  0.98644000  1.0
  N  N183  1  0.63421000  0.63753000  0.48644000  1.0
  N  N184  1  0.63421000  0.13753000  0.01356000  1.0
  N  N185  1  0.36579000  0.36247000  0.51356000  1.0
  N  N186  1  0.31629000  0.83233000  0.94186000  1.0
  N  N187  1  0.68371000  0.66767000  0.44186000  1.0
  N  N188  1  0.68371000  0.16767000  0.05814000  1.0
  N  N189  1  0.31629000  0.33233000  0.55814000  1.0
  N  N190  1  0.26925000  0.80247000  0.89916000  1.0
  N  N191  1  0.73075000  0.69753000  0.39916000  1.0
  N  N192  1  0.73075000  0.19753000  0.10084000  1.0
  N  N193  1  0.26925000  0.30247000  0.60084000  1.0
  N  N194  1  0.34868000  0.52080000  0.95430000  1.0
  N  N195  1  0.65132000  0.97920000  0.45430000  1.0
  N  N196  1  0.65132000  0.47920000  0.04570000  1.0
  N  N197  1  0.34868000  0.02080000  0.54570000  1.0
  O  O198  1  0.33654000  0.63082000  0.02561000  1.0
  O  O199  1  0.66346000  0.86918000  0.52561000  1.0
  O  O200  1  0.66346000  0.36918000  0.97439000  1.0
  O  O201  1  0.33654000  0.13082000  0.47439000  1.0
