# generated using pymatgen
data_LaH9C7(N2O)5
_symmetry_space_group_name_H-M   'P 1'
_cell_length_a   8.97468000
_cell_length_b   10.10410000
_cell_length_c   10.10420000
_cell_angle_alpha   78.08140000
_cell_angle_beta   63.63090000
_cell_angle_gamma   63.63120000
_symmetry_Int_Tables_number   1
_chemical_formula_structural   LaH9C7(N2O)5
_chemical_formula_sum   'La2 H18 C14 N20 O10'
_cell_volume   735.46116416
_cell_formula_units_Z   2
loop_
 _symmetry_equiv_pos_site_id
 _symmetry_equiv_pos_as_xyz
  1  'x, y, z'
loop_
 _atom_site_type_symbol
 _atom_site_label
 _atom_site_symmetry_multiplicity
 _atom_site_fract_x
 _atom_site_fract_y
 _atom_site_fract_z
 _atom_site_occupancy
  La  La0  1  0.25000000  0.54035000  0.95965000  1.0
  La  La1  1  0.75001000  0.95964000  0.54036000  1.0
  H  H2  1  0.42875000  0.34085000  0.60483000  1.0
  H  H3  1  0.07123000  0.89517000  0.15916000  1.0
  H  H4  1  0.37531000  0.15893000  0.89502000  1.0
  H  H5  1  0.12468000  0.60499000  0.34106000  1.0
  H  H6  1  0.37870000  0.37068000  0.37081000  1.0
  H  H7  1  0.12129000  0.12919000  0.12933000  1.0
  H  H8  1  0.35338000  0.23627000  0.17148000  1.0
  H  H9  1  0.14663000  0.32851000  0.26371000  1.0
  H  H10  1  0.76112000  0.26372000  0.32855000  1.0
  H  H11  1  0.73881000  0.17150000  0.23632000  1.0
  H  H12  1  0.48877000  0.57622000  0.10630000  1.0
  H  H13  1  0.01123000  0.39370000  0.92377000  1.0
  H  H14  1  0.17125000  0.92373000  0.39376000  1.0
  H  H15  1  0.32876000  0.10624000  0.57626000  1.0
  H  H16  1  0.61287000  0.44337000  0.98546000  1.0
  H  H17  1  0.88713000  0.51454000  0.05663000  1.0
  H  H18  1  0.04171000  0.05660000  0.51454000  1.0
  H  H19  1  0.45830000  0.98546000  0.44340000  1.0
  C  C20  1  0.97452000  0.77565000  0.77552000  1.0
  C  C21  1  0.52548000  0.72448000  0.72436000  1.0
  C  C22  1  0.08718000  0.66286000  0.66277000  1.0
  C  C23  1  0.41282000  0.83723000  0.83715000  1.0
  C  C24  1  0.32196000  0.43839000  0.58392000  1.0
  C  C25  1  0.17804000  0.91608000  0.06161000  1.0
  C  C26  1  0.34490000  0.06152000  0.91597000  1.0
  C  C27  1  0.15510000  0.58403000  0.43848000  1.0
  C  C28  1  0.29446000  0.45519000  0.45521000  1.0
  C  C29  1  0.20555000  0.04479000  0.04482000  1.0
  C  C30  1  0.81588000  0.24991000  0.74991000  1.0
  C  C31  1  0.68412000  0.75008000  0.25009000  1.0
  C  C32  1  0.65071000  0.24997000  0.74989000  1.0
  C  C33  1  0.84929000  0.75011000  0.25003000  1.0
  N  N34  1  0.00757000  0.77738000  0.89194000  1.0
  N  N35  1  0.49243000  0.60806000  0.72262000  1.0
  N  N36  1  0.67676000  0.72262000  0.60794000  1.0
  N  N37  1  0.82325000  0.89206000  0.77738000  1.0
  N  N38  1  0.87204000  0.89953000  0.96749000  1.0
  N  N39  1  0.62795000  0.53252000  0.60047000  1.0
  N  N40  1  0.73890000  0.60040000  0.53252000  1.0
  N  N41  1  0.76110000  0.96749000  0.89960000  1.0
  N  N42  1  0.21834000  0.54218000  0.68877000  1.0
  N  N43  1  0.28166000  0.81122000  0.95782000  1.0
  N  N44  1  0.44957000  0.95778000  0.81107000  1.0
  N  N45  1  0.05043000  0.68894000  0.54222000  1.0
  N  N46  1  0.81581000  0.32434000  0.84622000  1.0
  N  N47  1  0.68419000  0.65377000  0.17567000  1.0
  N  N48  1  0.98659000  0.17549000  0.65369000  1.0
  N  N49  1  0.51341000  0.84630000  0.32452000  1.0
  N  N50  1  0.99022000  0.29500000  0.80774000  1.0
  N  N51  1  0.50977000  0.69225000  0.20501000  1.0
  N  N52  1  0.09309000  0.20482000  0.69231000  1.0
  N  N53  1  0.40692000  0.80768000  0.29519000  1.0
  O  O54  1  0.49902000  0.31494000  0.85400000  1.0
  O  O55  1  0.00099000  0.64599000  0.18506000  1.0
  O  O56  1  0.66804000  0.18507000  0.64579000  1.0
  O  O57  1  0.83196000  0.85421000  0.31493000  1.0
  O  O58  1  0.25001000  0.32745000  0.17254000  1.0
  O  O59  1  0.75005000  0.17252000  0.32746000  1.0
  O  O60  1  0.48602000  0.50397000  0.05406000  1.0
  O  O61  1  0.01397000  0.44594000  0.99602000  1.0
  O  O62  1  0.04403000  0.99606000  0.44591000  1.0
  O  O63  1  0.45598000  0.05410000  0.50394000  1.0
