# generated using pymatgen
data_FeNiH6C12(N4F)2
_symmetry_space_group_name_H-M   'P 1'
_cell_length_a   6.85231000
_cell_length_b   6.93792000
_cell_length_c   15.04750000
_cell_angle_alpha   89.99830000
_cell_angle_beta   89.92460000
_cell_angle_gamma   89.99990000
_symmetry_Int_Tables_number   1
_chemical_formula_structural   FeNiH6C12(N4F)2
_chemical_formula_sum   'Fe2 Ni2 H12 C24 N16 F4'
_cell_volume   715.36924616
_cell_formula_units_Z   2
loop_
 _symmetry_equiv_pos_site_id
 _symmetry_equiv_pos_as_xyz
  1  'x, y, z'
loop_
 _atom_site_type_symbol
 _atom_site_label
 _atom_site_symmetry_multiplicity
 _atom_site_fract_x
 _atom_site_fract_y
 _atom_site_fract_z
 _atom_site_occupancy
  Fe  Fe0  1  0.98741000  0.99999000  0.48851000  1.0
  Fe  Fe1  1  0.98693000  0.50000000  0.01149000  1.0
  Ni  Ni2  1  0.48936000  0.49998000  0.49806000  1.0
  Ni  Ni3  1  0.48892000  0.00001000  0.00185000  1.0
  H  H4  1  0.40305000  0.00000000  0.60563000  1.0
  H  H5  1  0.59835000  0.49999000  0.10169000  1.0
  H  H6  1  0.59923000  0.99999000  0.39822000  1.0
  H  H7  1  0.40320000  0.50002000  0.89441000  1.0
  H  H8  1  0.82870000  0.99999000  0.69604000  1.0
  H  H9  1  0.17962000  0.50003000  0.18610000  1.0
  H  H10  1  0.18117000  0.00001000  0.31407000  1.0
  H  H11  1  0.82939000  0.49998000  0.80397000  1.0
  H  H12  1  0.94908000  0.00001000  0.85670000  1.0
  H  H13  1  0.06569000  0.50005000  0.34571000  1.0
  H  H14  1  0.06853000  0.00003000  0.15441000  1.0
  H  H15  1  0.95069000  0.49997000  0.64332000  1.0
  C  C16  1  0.30419000  0.68648000  0.47760000  1.0
  C  C17  1  0.67581000  0.81367000  0.98543000  1.0
  C  C18  1  0.67617000  0.68632000  0.51453000  1.0
  C  C19  1  0.30365000  0.81349000  0.02233000  1.0
  C  C20  1  0.67615000  0.31365000  0.51453000  1.0
  C  C21  1  0.30366000  0.18653000  0.02234000  1.0
  C  C22  1  0.30417000  0.31350000  0.47760000  1.0
  C  C23  1  0.67584000  0.18633000  0.98544000  1.0
  C  C24  1  0.30062000  0.99999000  0.66108000  1.0
  C  C25  1  0.70449000  0.50000000  0.15519000  1.0
  C  C26  1  0.70586000  0.99999000  0.34477000  1.0
  C  C27  1  0.30112000  0.50001000  0.83895000  1.0
  C  C28  1  0.98297000  0.99999000  0.71261000  1.0
  C  C29  1  0.02588000  0.50002000  0.20332000  1.0
  C  C30  1  0.02761000  0.00001000  0.29676000  1.0
  C  C31  1  0.98375000  0.49999000  0.78741000  1.0
  C  C32  1  0.35941000  0.99998000  0.74982000  1.0
  C  C33  1  0.65104000  0.50001000  0.24427000  1.0
  C  C34  1  0.65310000  0.00000000  0.25565000  1.0
  C  C35  1  0.36043000  0.50000000  0.75022000  1.0
  C  C36  1  0.04939000  0.00000000  0.80028000  1.0
  C  C37  1  0.96171000  0.50003000  0.29091000  1.0
  C  C38  1  0.96417000  0.00001000  0.20916000  1.0
  C  C39  1  0.05069000  0.49998000  0.69974000  1.0
  N  N40  1  0.18258000  0.80486000  0.47121000  1.0
  N  N41  1  0.79793000  0.69497000  0.98472000  1.0
  N  N42  1  0.79829000  0.80500000  0.51528000  1.0
  N  N43  1  0.18202000  0.69513000  0.02876000  1.0
  N  N44  1  0.79828000  0.19496000  0.51528000  1.0
  N  N45  1  0.18203000  0.30490000  0.02877000  1.0
  N  N46  1  0.18258000  0.19513000  0.47120000  1.0
  N  N47  1  0.79795000  0.30502000  0.98473000  1.0
  N  N48  1  0.10917000  0.99999000  0.64456000  1.0
  N  N49  1  0.89719000  0.50001000  0.13473000  1.0
  N  N50  1  0.89838000  0.99999000  0.36531000  1.0
  N  N51  1  0.10956000  0.50000000  0.85546000  1.0
  N  N52  1  0.24132000  0.00000000  0.81842000  1.0
  N  N53  1  0.77080000  0.50002000  0.31215000  1.0
  N  N54  1  0.77339000  0.00001000  0.18783000  1.0
  N  N55  1  0.24275000  0.49999000  0.68161000  1.0
  F  F56  1  0.55333000  0.99997000  0.76871000  1.0
  F  F57  1  0.45732000  0.50000000  0.26401000  1.0
  F  F58  1  0.45952000  0.00001000  0.23581000  1.0
  F  F59  1  0.55444000  0.50001000  0.73135000  1.0
