# generated using pymatgen
data_CoH18C20(NO)4
_symmetry_space_group_name_H-M   'P 1'
_cell_length_a   12.35140000
_cell_length_b   12.58900000
_cell_length_c   15.17910000
_cell_angle_alpha   71.92020000
_cell_angle_beta   80.70730000
_cell_angle_gamma   85.52790000
_symmetry_Int_Tables_number   1
_chemical_formula_structural   CoH18C20(NO)4
_chemical_formula_sum   'Co4 H72 C80 N16 O16'
_cell_volume   2213.26743837
_cell_formula_units_Z   4
loop_
 _symmetry_equiv_pos_site_id
 _symmetry_equiv_pos_as_xyz
  1  'x, y, z'
loop_
 _atom_site_type_symbol
 _atom_site_label
 _atom_site_symmetry_multiplicity
 _atom_site_fract_x
 _atom_site_fract_y
 _atom_site_fract_z
 _atom_site_occupancy
  Co  Co0  1  0.52283000  0.53729000  0.62218000  1.0
  Co  Co1  1  0.00275000  0.00574000  0.13121000  1.0
  Co  Co2  1  0.47717000  0.46272000  0.37780000  1.0
  Co  Co3  1  0.99721000  0.99427000  0.86877000  1.0
  H  H4  1  0.64663000  0.56431000  0.88065000  1.0
  H  H5  1  0.41920000  0.45846000  0.94882000  1.0
  H  H6  1  0.53364000  0.78839000  0.60649000  1.0
  H  H7  1  0.20024000  0.92079000  0.62997000  1.0
  H  H8  1  0.13748000  0.73206000  0.64395000  1.0
  H  H9  1  0.27896000  0.57857000  0.63948000  1.0
  H  H10  1  0.77762000  0.99548000  0.69689000  1.0
  H  H11  1  0.68482000  0.92162000  0.65913000  1.0
  H  H12  1  0.78097000  0.01361000  0.57638000  1.0
  H  H13  1  0.76026000  0.50104000  0.61499000  1.0
  H  H14  1  0.85275000  0.16202000  0.61966000  1.0
  H  H15  1  0.51595000  0.28116000  0.64080000  1.0
  H  H16  1  0.96800000  0.24464000  0.12304000  1.0
  H  H17  1  0.81389000  0.38809000  0.12418000  1.0
  H  H18  1  0.62287000  0.33343000  0.12957000  1.0
  H  H19  1  0.75307000  0.00447000  0.13158000  1.0
  H  H20  1  0.47211000  0.28098000  0.12341000  1.0
  H  H21  1  0.38830000  0.16226000  0.14790000  1.0
  H  H22  1  0.45632000  0.18241000  0.23626000  1.0
  H  H23  1  0.53097000  0.75262000  0.08298000  1.0
  H  H24  1  0.61321000  0.87160000  0.06185000  1.0
  H  H25  1  0.57238000  0.78612000  0.17717000  1.0
  H  H26  1  0.25152000  0.01597000  0.11553000  1.0
  H  H27  1  0.38697000  0.68500000  0.13183000  1.0
  H  H28  1  0.19612000  0.62328000  0.14660000  1.0
  H  H29  1  0.04006000  0.76298000  0.14705000  1.0
  H  H30  1  0.21964000  0.28927000  0.92690000  1.0
  H  H31  1  0.14995000  0.19834000  0.77788000  1.0
  H  H32  1  0.31364000  0.38662000  0.75261000  1.0
  H  H33  1  0.22998000  0.27484000  0.62228000  1.0
  H  H34  1  0.29115000  0.07830000  0.52916000  1.0
  H  H35  1  0.27040000  0.07887000  0.64722000  1.0
  H  H36  1  0.37768000  0.15802000  0.56697000  1.0
  H  H37  1  0.93054000  0.86203000  0.45229000  1.0
  H  H38  1  0.04191000  0.08808000  0.40423000  1.0
  H  H39  1  0.90763000  0.35177000  0.61125000  1.0
  H  H40  1  0.35337000  0.43569000  0.11933000  1.0
  H  H41  1  0.58080000  0.54154000  0.05116000  1.0
  H  H42  1  0.46638000  0.21161000  0.39351000  1.0
  H  H43  1  0.79977000  0.07921000  0.37007000  1.0
  H  H44  1  0.86253000  0.26795000  0.35605000  1.0
  H  H45  1  0.72106000  0.42145000  0.36049000  1.0
  H  H46  1  0.22240000  0.00453000  0.30314000  1.0
  H  H47  1  0.31518000  0.07837000  0.34095000  1.0
  H  H48  1  0.21901000  0.98635000  0.42367000  1.0
  H  H49  1  0.23976000  0.49899000  0.38496000  1.0
  H  H50  1  0.14727000  0.83799000  0.38036000  1.0
  H  H51  1  0.48407000  0.71885000  0.35922000  1.0
  H  H52  1  0.03198000  0.75543000  0.87693000  1.0
  H  H53  1  0.18605000  0.61193000  0.87584000  1.0
  H  H54  1  0.37709000  0.66657000  0.87045000  1.0
  H  H55  1  0.24695000  0.99556000  0.86839000  1.0
  H  H56  1  0.52790000  0.71898000  0.87672000  1.0
  H  H57  1  0.61168000  0.83771000  0.85217000  1.0
  H  H58  1  0.54371000  0.81746000  0.76383000  1.0
  H  H59  1  0.46901000  0.24731000  0.91711000  1.0
  H  H60  1  0.38680000  0.12835000  0.93818000  1.0
  H  H61  1  0.42760000  0.21390000  0.82289000  1.0
  H  H62  1  0.74848000  0.98406000  0.88448000  1.0
  H  H63  1  0.61298000  0.31501000  0.86814000  1.0
  H  H64  1  0.80382000  0.37678000  0.85337000  1.0
  H  H65  1  0.95991000  0.23709000  0.85292000  1.0
  H  H66  1  0.78041000  0.71067000  0.07309000  1.0
  H  H67  1  0.85004000  0.80161000  0.22212000  1.0
  H  H68  1  0.68637000  0.61333000  0.24738000  1.0
  H  H69  1  0.77002000  0.72512000  0.37770000  1.0
  H  H70  1  0.70886000  0.92171000  0.47086000  1.0
  H  H71  1  0.72962000  0.92116000  0.35279000  1.0
  H  H72  1  0.62234000  0.84199000  0.43303000  1.0
  H  H73  1  0.06944000  0.13793000  0.54768000  1.0
  H  H74  1  0.95808000  0.91187000  0.59576000  1.0
  H  H75  1  0.09240000  0.64827000  0.38868000  1.0
  C  C76  1  0.55151000  0.52525000  0.78537000  1.0
  C  C77  1  0.57068000  0.52695000  0.87826000  1.0
  C  C78  1  0.49449000  0.49403000  0.95548000  1.0
  C  C79  1  0.44519000  0.77917000  0.61565000  1.0
  C  C80  1  0.37256000  0.87056000  0.61812000  1.0
  C  C81  1  0.25994000  0.85319000  0.62740000  1.0
  C  C82  1  0.22458000  0.74800000  0.63543000  1.0
  C  C83  1  0.30215000  0.66242000  0.63356000  1.0
  C  C84  1  0.41101000  0.98129000  0.61130000  1.0
  C  C85  1  0.64295000  0.09518000  0.63457000  1.0
  C  C86  1  0.72585000  0.00055000  0.64325000  1.0
  C  C87  1  0.74086000  0.41653000  0.61904000  1.0
  C  C88  1  0.79051000  0.22752000  0.62228000  1.0
  C  C89  1  0.67895000  0.20607000  0.63052000  1.0
  C  C90  1  0.60330000  0.29487000  0.63341000  1.0
  C  C91  1  0.88305000  0.22564000  0.12462000  1.0
  C  C92  1  0.79731000  0.30396000  0.12502000  1.0
  C  C93  1  0.69062000  0.27305000  0.12799000  1.0
  C  C94  1  0.67188000  0.16414000  0.12884000  1.0
  C  C95  1  0.76364000  0.09047000  0.12900000  1.0
  C  C96  1  0.56076000  0.12571000  0.13253000  1.0
  C  C97  1  0.46326000  0.19188000  0.16103000  1.0
  C  C98  1  0.44659000  0.89710000  0.11461000  1.0
  C  C99  1  0.54563000  0.82206000  0.10807000  1.0
  C  C100  1  0.24256000  0.92834000  0.12217000  1.0
  C  C101  1  0.33570000  0.85642000  0.12171000  1.0
  C  C102  1  0.31823000  0.74472000  0.13035000  1.0
  C  C103  1  0.21171000  0.70991000  0.13902000  1.0
  C  C104  1  0.12477000  0.78673000  0.13923000  1.0
  C  C105  1  0.17989000  0.23777000  0.89609000  1.0
  C  C106  1  0.19312000  0.25373000  0.80253000  1.0
  C  C107  1  0.26437000  0.33183000  0.73230000  1.0
  C  C108  1  0.27771000  0.33117000  0.64183000  1.0
  C  C109  1  0.35998000  0.39649000  0.56789000  1.0
  C  C110  1  0.33375000  0.08025000  0.58674000  1.0
  C  C111  1  0.98231000  0.96394000  0.30744000  1.0
  C  C112  1  0.96958000  0.94012000  0.40993000  1.0
  C  C113  1  0.00436000  0.01067000  0.45040000  1.0
  C  C114  1  0.11369000  0.14521000  0.96113000  1.0
  C  C115  1  0.82151000  0.33365000  0.61670000  1.0
  C  C116  1  0.44849000  0.47476000  0.21460000  1.0
  C  C117  1  0.42933000  0.47306000  0.12171000  1.0
  C  C118  1  0.50552000  0.50597000  0.04449000  1.0
  C  C119  1  0.55483000  0.22083000  0.38434000  1.0
  C  C120  1  0.62746000  0.12945000  0.38189000  1.0
  C  C121  1  0.74008000  0.14682000  0.37262000  1.0
  C  C122  1  0.77543000  0.25202000  0.36456000  1.0
  C  C123  1  0.69786000  0.33760000  0.36643000  1.0
  C  C124  1  0.58901000  0.01872000  0.38871000  1.0
  C  C125  1  0.35707000  0.90481000  0.36546000  1.0
  C  C126  1  0.27415000  0.99944000  0.35680000  1.0
  C  C127  1  0.25915000  0.58350000  0.38093000  1.0
  C  C128  1  0.20950000  0.77249000  0.37772000  1.0
  C  C129  1  0.32106000  0.79393000  0.36951000  1.0
  C  C130  1  0.39672000  0.70513000  0.36661000  1.0
  C  C131  1  0.11694000  0.77441000  0.87536000  1.0
  C  C132  1  0.20267000  0.69607000  0.87498000  1.0
  C  C133  1  0.30935000  0.72697000  0.87202000  1.0
  C  C134  1  0.32813000  0.83588000  0.87115000  1.0
  C  C135  1  0.23639000  0.90956000  0.87099000  1.0
  C  C136  1  0.43926000  0.87428000  0.86748000  1.0
  C  C137  1  0.53674000  0.80806000  0.83904000  1.0
  C  C138  1  0.55338000  0.10289000  0.88540000  1.0
  C  C139  1  0.45435000  0.17791000  0.89198000  1.0
  C  C140  1  0.75741000  0.07169000  0.87781000  1.0
  C  C141  1  0.66426000  0.14359000  0.87827000  1.0
  C  C142  1  0.68172000  0.25529000  0.86962000  1.0
  C  C143  1  0.78825000  0.29013000  0.86095000  1.0
  C  C144  1  0.87520000  0.21332000  0.86074000  1.0
  C  C145  1  0.82013000  0.76219000  0.10390000  1.0
  C  C146  1  0.80691000  0.74621000  0.19746000  1.0
  C  C147  1  0.73563000  0.66813000  0.26769000  1.0
  C  C148  1  0.72228000  0.66878000  0.35816000  1.0
  C  C149  1  0.64002000  0.60349000  0.43213000  1.0
  C  C150  1  0.66626000  0.91976000  0.41327000  1.0
  C  C151  1  0.01772000  0.03605000  0.69253000  1.0
  C  C152  1  0.03042000  0.05985000  0.59005000  1.0
  C  C153  1  0.99562000  0.98928000  0.54959000  1.0
  C  C154  1  0.88631000  0.85479000  0.03885000  1.0
  C  C155  1  0.17850000  0.66638000  0.38327000  1.0
  N  N156  1  0.41102000  0.67771000  0.62313000  1.0
  N  N157  1  0.63298000  0.39733000  0.62733000  1.0
  N  N158  1  0.14000000  0.89480000  0.13057000  1.0
  N  N159  1  0.86618000  0.12001000  0.12698000  1.0
  N  N160  1  0.54020000  0.08887000  0.62680000  1.0
  N  N161  1  0.51010000  0.98455000  0.62950000  1.0
  N  N162  1  0.45142000  0.99929000  0.11702000  1.0
  N  N163  1  0.55602000  0.03341000  0.11142000  1.0
  N  N164  1  0.58898000  0.32230000  0.37685000  1.0
  N  N165  1  0.36703000  0.60269000  0.37266000  1.0
  N  N166  1  0.85998000  0.10524000  0.86941000  1.0
  N  N167  1  0.13383000  0.88003000  0.87300000  1.0
  N  N168  1  0.45982000  0.91113000  0.37321000  1.0
  N  N169  1  0.48992000  0.01546000  0.37051000  1.0
  N  N170  1  0.54858000  0.00072000  0.88296000  1.0
  N  N171  1  0.44399000  0.96659000  0.88856000  1.0
  O  O172  1  0.61288000  0.58399000  0.71293000  1.0
  O  O173  1  0.47397000  0.46919000  0.77671000  1.0
  O  O174  1  0.40827000  0.47389000  0.58281000  1.0
  O  O175  1  0.37927000  0.37137000  0.49099000  1.0
  O  O176  1  0.03323000  0.04981000  0.25263000  1.0
  O  O177  1  0.94196000  0.89660000  0.27392000  1.0
  O  O178  1  0.09711000  0.13747000  0.04848000  1.0
  O  O179  1  0.07688000  0.07456000  0.92952000  1.0
  O  O180  1  0.38712000  0.41603000  0.28705000  1.0
  O  O181  1  0.52603000  0.53082000  0.22327000  1.0
  O  O182  1  0.59172000  0.52608000  0.41724000  1.0
  O  O183  1  0.62071000  0.62866000  0.50901000  1.0
  O  O184  1  0.96685000  0.95015000  0.74735000  1.0
  O  O185  1  0.05803000  0.10345000  0.72601000  1.0
  O  O186  1  0.90285000  0.86247000  0.95150000  1.0
  O  O187  1  0.92310000  0.92546000  0.07043000  1.0
