# generated using pymatgen
data_MnH12C8(N5O)2
_symmetry_space_group_name_H-M   'P 1'
_cell_length_a   8.58445000
_cell_length_b   9.52236336
_cell_length_c   10.22030000
_cell_angle_alpha   62.24159260
_cell_angle_beta   78.16600000
_cell_angle_gamma   63.87787764
_symmetry_Int_Tables_number   1
_chemical_formula_structural   MnH12C8(N5O)2
_chemical_formula_sum   'Mn2 H24 C16 N20 O4'
_cell_volume   663.79201439
_cell_formula_units_Z   2
loop_
 _symmetry_equiv_pos_site_id
 _symmetry_equiv_pos_as_xyz
  1  'x, y, z'
loop_
 _atom_site_type_symbol
 _atom_site_label
 _atom_site_symmetry_multiplicity
 _atom_site_fract_x
 _atom_site_fract_y
 _atom_site_fract_z
 _atom_site_occupancy
  Mn  Mn0  1  0.58874000  0.49072000  0.73732000  1.0
  Mn  Mn1  1  0.08900000  0.22825000  0.26259000  1.0
  H  H2  1  0.50900000  0.96285000  0.28843000  1.0
  H  H3  1  0.00910000  0.25164000  0.71139000  1.0
  H  H4  1  0.65627000  0.38852000  0.21201000  1.0
  H  H5  1  0.15627000  0.60056000  0.78800000  1.0
  H  H6  1  0.85319000  0.90900000  0.42719000  1.0
  H  H7  1  0.35379000  0.33600000  0.57284000  1.0
  H  H8  1  0.76041000  0.96096000  0.26215000  1.0
  H  H9  1  0.26048000  0.22349000  0.73783000  1.0
  H  H10  1  0.07438000  0.76529000  0.28283000  1.0
  H  H11  1  0.57433000  0.04756000  0.71741000  1.0
  H  H12  1  0.95047000  0.65370000  0.28950000  1.0
  H  H13  1  0.44984000  0.94329000  0.71059000  1.0
  H  H14  1  0.03794000  0.60964000  0.45519000  1.0
  H  H15  1  0.53775000  0.06449000  0.54501000  1.0
  H  H16  1  0.36834000  0.54789000  0.23063000  1.0
  H  H17  1  0.86836000  0.77875000  0.76968000  1.0
  H  H18  1  0.24540000  0.71071000  0.06761000  1.0
  H  H19  1  0.74575000  0.77858000  0.93288000  1.0
  H  H20  1  0.32410000  0.84576000  0.18893000  1.0
  H  H21  1  0.82432000  0.03495000  0.81109000  1.0
  H  H22  1  0.42628000  0.88051000  0.01498000  1.0
  H  H23  1  0.92655000  0.89606000  0.98498000  1.0
  H  H24  1  0.54889000  0.71832000  0.17908000  1.0
  H  H25  1  0.04912000  0.89779000  0.82088000  1.0
  C  C26  1  0.37844000  0.83847000  0.46616000  1.0
  C  C27  1  0.87869000  0.30468000  0.53376000  1.0
  C  C28  1  0.68241000  0.78918000  0.46336000  1.0
  C  C29  1  0.18269000  0.25279000  0.53656000  1.0
  C  C30  1  0.81626000  0.85527000  0.36926000  1.0
  C  C31  1  0.31644000  0.22465000  0.63081000  1.0
  C  C32  1  0.97909000  0.71155000  0.34798000  1.0
  C  C33  1  0.47888000  0.05935000  0.65218000  1.0
  C  C34  1  0.78789000  0.33583000  0.03598000  1.0
  C  C35  1  0.28789000  0.37174000  0.96390000  1.0
  C  C36  1  0.50214000  0.56349000  0.02530000  1.0
  C  C37  1  0.00244000  0.58909000  0.97485000  1.0
  C  C38  1  0.37343000  0.64695000  0.11879000  1.0
  C  C39  1  0.87369000  0.76603000  0.88145000  1.0
  C  C40  1  0.42209000  0.78031000  0.12595000  1.0
  C  C41  1  0.92237000  0.90661000  0.87409000  1.0
  N  N42  1  0.37395000  0.70190000  0.59090000  1.0
  N  N43  1  0.87426000  0.29296000  0.40893000  1.0
  N  N44  1  0.20370000  0.73030000  0.61343000  1.0
  N  N45  1  0.70402000  0.34366000  0.38647000  1.0
  N  N46  1  0.11019000  0.87584000  0.50887000  1.0
  N  N47  1  0.61049000  0.38440000  0.49115000  1.0
  N  N48  1  0.21639000  0.94838000  0.41247000  1.0
  N  N49  1  0.71662000  0.36064000  0.58755000  1.0
  N  N50  1  0.52416000  0.86755000  0.39866000  1.0
  N  N51  1  0.02438000  0.26649000  0.60116000  1.0
  N  N52  1  0.79766000  0.34935000  0.89820000  1.0
  N  N53  1  0.29777000  0.24758000  0.10169000  1.0
  N  N54  1  0.95988000  0.23671000  0.88762000  1.0
  N  N55  1  0.45990000  0.12419000  0.11210000  1.0
  N  N56  1  0.64524000  0.42357000  0.09904000  1.0
  N  N57  1  0.14532000  0.52271000  0.90098000  1.0
  N  N58  1  0.04407000  0.15973000  0.01119000  1.0
  N  N59  1  0.54390000  0.17065000  0.98838000  1.0
  N  N60  1  0.93933000  0.22000000  0.10877000  1.0
  N  N61  1  0.43915000  0.32855000  0.89090000  1.0
  O  O62  1  0.47988000  0.62418000  0.88918000  1.0
  O  O63  1  0.98033000  0.51372000  0.11099000  1.0
  O  O64  1  0.71607000  0.67196000  0.59239000  1.0
  O  O65  1  0.21657000  0.26428000  0.40762000  1.0
