# generated using pymatgen
data_Zn3H18C26S2(NO8)2
_symmetry_space_group_name_H-M   'P 1'
_cell_length_a   8.50062000
_cell_length_b   13.06390576
_cell_length_c   14.99700952
_cell_angle_alpha   85.14207434
_cell_angle_beta   73.56418816
_cell_angle_gamma   71.04326484
_symmetry_Int_Tables_number   1
_chemical_formula_structural   Zn3H18C26S2(NO8)2
_chemical_formula_sum   'Zn6 H36 C52 S4 N4 O32'
_cell_volume   1510.69972375
_cell_formula_units_Z   2
loop_
 _symmetry_equiv_pos_site_id
 _symmetry_equiv_pos_as_xyz
  1  'x, y, z'
loop_
 _atom_site_type_symbol
 _atom_site_label
 _atom_site_symmetry_multiplicity
 _atom_site_fract_x
 _atom_site_fract_y
 _atom_site_fract_z
 _atom_site_occupancy
  Zn  Zn0  1  0.59768000  0.21320000  0.06422000  1.0
  Zn  Zn1  1  0.87530000  0.28680000  0.43568000  1.0
  Zn  Zn2  1  0.40232000  0.78680000  0.93578000  1.0
  Zn  Zn3  1  0.12470000  0.71320000  0.56432000  1.0
  Zn  Zn4  1  0.00000000  0.00000000  0.00000000  1.0
  Zn  Zn5  1  0.00000000  0.50000000  0.50000000  1.0
  H  H6  1  0.52458000  0.90454000  0.27272000  1.0
  H  H7  1  0.65268000  0.75956000  0.37632000  1.0
  H  H8  1  0.08941000  0.87445000  0.32333000  1.0
  H  H9  1  0.51312000  0.40341000  0.96382000  1.0
  H  H10  1  0.25937000  0.54246000  0.93120000  1.0
  H  H11  1  0.94563000  0.35503000  0.09975000  1.0
  H  H12  1  0.21258000  0.22609000  0.12668000  1.0
  H  H13  1  0.75700000  0.25426000  0.16965000  1.0
  H  H14  1  0.58604000  0.35941000  0.17986000  1.0
  H  H15  1  0.70235000  0.59534000  0.22750000  1.0
  H  H16  1  0.78909000  0.74022000  0.12373000  1.0
  H  H17  1  0.28774000  0.62543000  0.17661000  1.0
  H  H18  1  0.88095000  0.09662000  0.53566000  1.0
  H  H19  1  0.73373000  0.95746000  0.56838000  1.0
  H  H20  1  0.39992000  0.14506000  0.40048000  1.0
  H  H21  1  0.56517000  0.27399000  0.37327000  1.0
  H  H22  1  0.18096000  0.24586000  0.33038000  1.0
  H  H23  1  0.12534000  0.14064000  0.32020000  1.0
  H  H24  1  0.47540000  0.09547000  0.72729000  1.0
  H  H25  1  0.34731000  0.24044000  0.62368000  1.0
  H  H26  1  0.91058000  0.12555000  0.67667000  1.0
  H  H27  1  0.48688000  0.59659000  0.03620000  1.0
  H  H28  1  0.74064000  0.45755000  0.06880000  1.0
  H  H29  1  0.05436000  0.64498000  0.90024000  1.0
  H  H30  1  0.78739000  0.77392000  0.87332000  1.0
  H  H31  1  0.24301000  0.74573000  0.83035000  1.0
  H  H32  1  0.41396000  0.64059000  0.82014000  1.0
  H  H33  1  0.29766000  0.40466000  0.77250000  1.0
  H  H34  1  0.21092000  0.25977000  0.87627000  1.0
  H  H35  1  0.71227000  0.37456000  0.82339000  1.0
  H  H36  1  0.11905000  0.90338000  0.46434000  1.0
  H  H37  1  0.26627000  0.04254000  0.43162000  1.0
  H  H38  1  0.60007000  0.85494000  0.59953000  1.0
  H  H39  1  0.43483000  0.72601000  0.62673000  1.0
  H  H40  1  0.81904000  0.75414000  0.66962000  1.0
  H  H41  1  0.87468000  0.85935000  0.67979000  1.0
  C  C42  1  0.65250000  0.05233000  0.17764000  1.0
  C  C43  1  0.73830000  0.96724000  0.23714000  1.0
  C  C44  1  0.65014000  0.89586000  0.28322000  1.0
  C  C45  1  0.72047000  0.81576000  0.34124000  1.0
  C  C46  1  0.87945000  0.80727000  0.35576000  1.0
  C  C47  1  0.95784000  0.72390000  0.41917000  1.0
  C  C48  1  0.96660000  0.87982000  0.31150000  1.0
  C  C49  1  0.89802000  0.95901000  0.25272000  1.0
  C  C50  1  0.38381000  0.39726000  0.99304000  1.0
  C  C51  1  0.24071000  0.47402000  0.97472000  1.0
  C  C52  1  0.07710000  0.46094000  0.01102000  1.0
  C  C53  1  0.06726000  0.37061000  0.06761000  1.0
  C  C54  1  0.21644000  0.29713000  0.08359000  1.0
  C  C55  1  0.88295000  0.44763000  0.32244000  1.0
  C  C56  1  0.94320000  0.53268000  0.26295000  1.0
  C  C57  1  0.82974000  0.60402000  0.21690000  1.0
  C  C58  1  0.87800000  0.68408000  0.15882000  1.0
  C  C59  1  0.04295000  0.69260000  0.14425000  1.0
  C  C60  1  0.10142000  0.77594000  0.08076000  1.0
  C  C61  1  0.15845000  0.62007000  0.18849000  1.0
  C  C62  1  0.11028000  0.54093000  0.24733000  1.0
  C  C63  1  0.77446000  0.10276000  0.50662000  1.0
  C  C64  1  0.68982000  0.02595000  0.52500000  1.0
  C  C65  1  0.54910000  0.03907000  0.48892000  1.0
  C  C66  1  0.50526000  0.12948000  0.43245000  1.0
  C  C67  1  0.59703000  0.20297000  0.41635000  1.0
  C  C68  1  0.34749000  0.94768000  0.82236000  1.0
  C  C69  1  0.26170000  0.03276000  0.76286000  1.0
  C  C70  1  0.34986000  0.10414000  0.71678000  1.0
  C  C71  1  0.27952000  0.18424000  0.65876000  1.0
  C  C72  1  0.12055000  0.19273000  0.64424000  1.0
  C  C73  1  0.04215000  0.27609000  0.58083000  1.0
  C  C74  1  0.03340000  0.12017000  0.68850000  1.0
  C  C75  1  0.10199000  0.04098000  0.74728000  1.0
  C  C76  1  0.61618000  0.60275000  0.00697000  1.0
  C  C77  1  0.75929000  0.52599000  0.02529000  1.0
  C  C78  1  0.92290000  0.53907000  0.98898000  1.0
  C  C79  1  0.93273000  0.62940000  0.93239000  1.0
  C  C80  1  0.78355000  0.70288000  0.91641000  1.0
  C  C81  1  0.11703000  0.55238000  0.67757000  1.0
  C  C82  1  0.05680000  0.46732000  0.73706000  1.0
  C  C83  1  0.17026000  0.39598000  0.78310000  1.0
  C  C84  1  0.12200000  0.31592000  0.84118000  1.0
  C  C85  1  0.95705000  0.30740000  0.85575000  1.0
  C  C86  1  0.89858000  0.22406000  0.91924000  1.0
  C  C87  1  0.84155000  0.37993000  0.81151000  1.0
  C  C88  1  0.88971000  0.45908000  0.75268000  1.0
  C  C89  1  0.22554000  0.89724000  0.49338000  1.0
  C  C90  1  0.31017000  0.97405000  0.47500000  1.0
  C  C91  1  0.45090000  0.96093000  0.51108000  1.0
  C  C92  1  0.49474000  0.87052000  0.56755000  1.0
  C  C93  1  0.40296000  0.79703000  0.58365000  1.0
  S  S94  1  0.01530000  0.05221000  0.20554000  1.0
  S  S95  1  0.27337000  0.44776000  0.29454000  1.0
  S  S96  1  0.98471000  0.94778000  0.79446000  1.0
  S  S97  1  0.72663000  0.55224000  0.70546000  1.0
  N  N98  1  0.37302000  0.30944000  0.04605000  1.0
  N  N99  1  0.72861000  0.19063000  0.45374000  1.0
  N  N100  1  0.62696000  0.69056000  0.95396000  1.0
  N  N101  1  0.27139000  0.80937000  0.54626000  1.0
  O  O102  1  0.74158000  0.06591000  0.09297000  1.0
  O  O103  1  0.50008000  0.11042000  0.20854000  1.0
  O  O104  1  0.88680000  0.65201000  0.45160000  1.0
  O  O105  1  0.09175000  0.73330000  0.43636000  1.0
  O  O106  1  0.14035000  0.03668000  0.25996000  1.0
  O  O107  1  0.10450000  0.02192000  0.10714000  1.0
  O  O108  1  0.88674000  0.16041000  0.21957000  1.0
  O  O109  1  0.67816000  0.30388000  0.13494000  1.0
  O  O110  1  0.90054000  0.43417000  0.40720000  1.0
  O  O111  1  0.81987000  0.38931000  0.29143000  1.0
  O  O112  1  0.99106000  0.84768000  0.04816000  1.0
  O  O113  1  0.26181000  0.76665000  0.06372000  1.0
  O  O114  1  0.43729000  0.46327000  0.24019000  1.0
  O  O115  1  0.23398000  0.47799000  0.39294000  1.0
  O  O116  1  0.26684000  0.33958000  0.28046000  1.0
  O  O117  1  0.11707000  0.19620000  0.36511000  1.0
  O  O118  1  0.25843000  0.93409000  0.90703000  1.0
  O  O119  1  0.49993000  0.88958000  0.79147000  1.0
  O  O120  1  0.11319000  0.34799000  0.54839000  1.0
  O  O121  1  0.90825000  0.26669000  0.56363000  1.0
  O  O122  1  0.85966000  0.96331000  0.74004000  1.0
  O  O123  1  0.89551000  0.97808000  0.89285000  1.0
  O  O124  1  0.11327000  0.83959000  0.78043000  1.0
  O  O125  1  0.32184000  0.69612000  0.86506000  1.0
  O  O126  1  0.09946000  0.56583000  0.59280000  1.0
  O  O127  1  0.18015000  0.61069000  0.70856000  1.0
  O  O128  1  0.00893000  0.15232000  0.95185000  1.0
  O  O129  1  0.73818000  0.23336000  0.93628000  1.0
  O  O130  1  0.56271000  0.53673000  0.75981000  1.0
  O  O131  1  0.76602000  0.52201000  0.60706000  1.0
  O  O132  1  0.73316000  0.66042000  0.71954000  1.0
  O  O133  1  0.88294000  0.80379000  0.63489000  1.0
