# generated using pymatgen
data_AgH12C12N3O5
_symmetry_space_group_name_H-M   'P 1'
_cell_length_a   7.06050000
_cell_length_b   8.81307000
_cell_length_c   11.10840000
_cell_angle_alpha   70.96320000
_cell_angle_beta   89.12850000
_cell_angle_gamma   76.28140000
_symmetry_Int_Tables_number   1
_chemical_formula_structural   AgH12C12N3O5
_chemical_formula_sum   'Ag2 H24 C24 N6 O10'
_cell_volume   633.31801335
_cell_formula_units_Z   2
loop_
 _symmetry_equiv_pos_site_id
 _symmetry_equiv_pos_as_xyz
  1  'x, y, z'
loop_
 _atom_site_type_symbol
 _atom_site_label
 _atom_site_symmetry_multiplicity
 _atom_site_fract_x
 _atom_site_fract_y
 _atom_site_fract_z
 _atom_site_occupancy
  Ag  Ag0  1  0.24090000  0.02486000  0.88647000  1.0
  Ag  Ag1  1  0.75910000  0.97514000  0.11353000  1.0
  H  H2  1  0.97651000  0.23760000  0.96973000  1.0
  H  H3  1  0.02349000  0.76239000  0.03027000  1.0
  H  H4  1  0.16023000  0.69476000  0.84332000  1.0
  H  H5  1  0.83977000  0.30524000  0.15668000  1.0
  H  H6  1  0.00312000  0.01144000  0.72093000  1.0
  H  H7  1  0.99687000  0.98856000  0.27907000  1.0
  H  H8  1  0.30012000  0.87444000  0.41381000  1.0
  H  H9  1  0.69988000  0.12556000  0.58619000  1.0
  H  H10  1  0.12493000  0.30122000  0.57072000  1.0
  H  H11  1  0.87506000  0.69878000  0.42927000  1.0
  H  H12  1  0.37703000  0.22763000  0.62040000  1.0
  H  H13  1  0.62297000  0.77237000  0.37960000  1.0
  H  H14  1  0.42092000  0.49871000  0.58920000  1.0
  H  H15  1  0.57908000  0.50129000  0.41080000  1.0
  H  H16  1  0.19791000  0.57485000  0.48914000  1.0
  H  H17  1  0.80209000  0.42515000  0.51086000  1.0
  H  H18  1  0.59127000  0.67288000  0.90721000  1.0
  H  H19  1  0.40874000  0.32713000  0.09279000  1.0
  H  H20  1  0.68004000  0.85060000  0.83167000  1.0
  H  H21  1  0.31996000  0.14941000  0.16832000  1.0
  H  H22  1  0.79901000  0.73345000  0.66786000  1.0
  H  H23  1  0.20099000  0.26655000  0.33214000  1.0
  H  H24  1  0.68618000  0.56419000  0.73644000  1.0
  H  H25  1  0.31382000  0.43581000  0.26356000  1.0
  C  C26  1  0.07578000  0.46225000  0.89293000  1.0
  C  C27  1  0.92422000  0.53775000  0.10707000  1.0
  C  C28  1  0.98696000  0.35254000  0.98295000  1.0
  C  C29  1  0.01304000  0.64745000  0.01705000  1.0
  C  C30  1  0.08836000  0.61012000  0.91110000  1.0
  C  C31  1  0.91164000  0.38988000  0.08889000  1.0
  C  C32  1  0.17606000  0.93603000  0.57671000  1.0
  C  C33  1  0.82394000  0.06397000  0.42329000  1.0
  C  C34  1  0.00410000  0.00595000  0.62418000  1.0
  C  C35  1  0.99589000  0.99405000  0.37582000  1.0
  C  C36  1  0.16960000  0.93078000  0.45180000  1.0
  C  C37  1  0.83039000  0.06922000  0.54821000  1.0
  C  C38  1  0.14927000  0.42706000  0.77830000  1.0
  C  C39  1  0.85073000  0.57294000  0.22171000  1.0
  C  C40  1  0.24282000  0.31723000  0.62568000  1.0
  C  C41  1  0.75718000  0.68277000  0.37432000  1.0
  C  C42  1  0.26761000  0.49467000  0.58289000  1.0
  C  C43  1  0.73239000  0.50533000  0.41711000  1.0
  C  C44  1  0.35910000  0.86243000  0.65703000  1.0
  C  C45  1  0.64090000  0.13757000  0.34297000  1.0
  C  C46  1  0.59381000  0.76934000  0.81552000  1.0
  C  C47  1  0.40619000  0.23067000  0.18448000  1.0
  C  C48  1  0.66719000  0.69860000  0.70899000  1.0
  C  C49  1  0.33280000  0.30140000  0.29101000  1.0
  N  N50  1  0.19031000  0.28637000  0.75916000  1.0
  N  N51  1  0.80969000  0.71364000  0.24084000  1.0
  N  N52  1  0.30838000  0.78391000  0.15720000  1.0
  N  N53  1  0.69162000  0.21609000  0.84280000  1.0
  N  N54  1  0.39241000  0.86686000  0.76984000  1.0
  N  N55  1  0.60759000  0.13314000  0.23016000  1.0
  O  O56  1  0.17052000  0.56057000  0.67949000  1.0
  O  O57  1  0.82948000  0.43943000  0.32051000  1.0
  O  O58  1  0.20052000  0.93386000  0.10231000  1.0
  O  O59  1  0.79948000  0.06614000  0.89769000  1.0
  O  O60  1  0.42157000  0.71480000  0.09216000  1.0
  O  O61  1  0.57843000  0.28520000  0.90784000  1.0
  O  O62  1  0.29268000  0.71375000  0.27382000  1.0
  O  O63  1  0.70732000  0.28625000  0.72619000  1.0
  O  O64  1  0.50760000  0.77588000  0.60828000  1.0
  O  O65  1  0.49240000  0.22412000  0.39172000  1.0
