# generated using pymatgen
data_ThH8C12(N2O5)2
_symmetry_space_group_name_H-M   'P 1'
_cell_length_a   6.89739000
_cell_length_b   8.40911000
_cell_length_c   14.48760000
_cell_angle_alpha   79.08490000
_cell_angle_beta   76.23130000
_cell_angle_gamma   65.82280000
_symmetry_Int_Tables_number   1
_chemical_formula_structural   ThH8C12(N2O5)2
_chemical_formula_sum   'Th2 H16 C24 N8 O20'
_cell_volume   740.54426105
_cell_formula_units_Z   2
loop_
 _symmetry_equiv_pos_site_id
 _symmetry_equiv_pos_as_xyz
  1  'x, y, z'
loop_
 _atom_site_type_symbol
 _atom_site_label
 _atom_site_symmetry_multiplicity
 _atom_site_fract_x
 _atom_site_fract_y
 _atom_site_fract_z
 _atom_site_occupancy
  Th  Th0  1  0.73904000  0.74988000  0.25006000  1.0
  Th  Th1  1  0.26096000  0.25012000  0.74994000  1.0
  H  H2  1  0.74297000  0.52169000  0.90383000  1.0
  H  H3  1  0.16803000  0.97888000  0.59600000  1.0
  H  H4  1  0.25703000  0.47831000  0.09617000  1.0
  H  H5  1  0.83196000  0.02111000  0.40400000  1.0
  H  H6  1  0.39011000  0.36989000  0.47425000  1.0
  H  H7  1  0.23511000  0.12953000  0.02569000  1.0
  H  H8  1  0.60988000  0.63011000  0.52575000  1.0
  H  H9  1  0.76490000  0.87048000  0.97431000  1.0
  H  H10  1  0.47340000  0.16877000  0.24791000  1.0
  H  H11  1  0.88997000  0.33099000  0.25218000  1.0
  H  H12  1  0.52660000  0.83123000  0.75209000  1.0
  H  H13  1  0.11003000  0.66901000  0.74782000  1.0
  H  H14  1  0.33442000  0.08672000  0.21363000  1.0
  H  H15  1  0.63469000  0.41282000  0.28640000  1.0
  H  H16  1  0.66558000  0.91327000  0.78638000  1.0
  H  H17  1  0.36531000  0.58718000  0.71359000  1.0
  C  C18  1  0.78949000  0.58257000  0.03385000  1.0
  C  C19  1  0.40590000  0.91726000  0.46617000  1.0
  C  C20  1  0.21051000  0.41743000  0.96615000  1.0
  C  C21  1  0.59410000  0.08273000  0.53383000  1.0
  C  C22  1  0.55375000  0.68932000  0.06844000  1.0
  C  C23  1  0.31142000  0.81043000  0.43160000  1.0
  C  C24  1  0.44626000  0.31068000  0.93156000  1.0
  C  C25  1  0.68858000  0.18957000  0.56840000  1.0
  C  C26  1  0.85830000  0.51195000  0.94638000  1.0
  C  C27  1  0.31639000  0.98835000  0.55352000  1.0
  C  C28  1  0.14170000  0.48805000  0.05362000  1.0
  C  C29  1  0.68361000  0.01164000  0.44648000  1.0
  C  C30  1  0.21469000  0.42578000  0.48773000  1.0
  C  C31  1  0.12873000  0.07386000  0.01223000  1.0
  C  C32  1  0.78530000  0.57422000  0.51226000  1.0
  C  C33  1  0.87128000  0.92615000  0.98777000  1.0
  C  C34  1  0.10720000  0.49335000  0.41019000  1.0
  C  C35  1  0.01120000  0.00628000  0.08981000  1.0
  C  C36  1  0.89280000  0.50664000  0.58981000  1.0
  C  C37  1  0.98881000  0.99372000  0.91020000  1.0
  C  C38  1  0.22725000  0.47367000  0.30934000  1.0
  C  C39  1  0.01074000  0.02604000  0.19066000  1.0
  C  C40  1  0.77275000  0.52633000  0.69066000  1.0
  C  C41  1  0.98927000  0.97396000  0.80935000  1.0
  N  N42  1  0.93119000  0.57062000  0.08715000  1.0
  N  N43  1  0.58915000  0.92899000  0.41297000  1.0
  N  N44  1  0.06881000  0.42938000  0.91285000  1.0
  N  N45  1  0.41084000  0.07100000  0.58703000  1.0
  N  N46  1  0.89113000  0.57104000  0.42222000  1.0
  N  N47  1  0.88432000  0.92896000  0.07780000  1.0
  N  N48  1  0.10886000  0.42896000  0.57778000  1.0
  N  N49  1  0.11569000  0.07104000  0.92220000  1.0
  O  O50  1  0.51914000  0.76531000  0.14463000  1.0
  O  O51  1  0.42908000  0.73427000  0.35548000  1.0
  O  O52  1  0.48086000  0.23469000  0.85537000  1.0
  O  O53  1  0.57091000  0.26574000  0.64452000  1.0
  O  O54  1  0.41644000  0.70430000  0.02249000  1.0
  O  O55  1  0.14295000  0.79564000  0.47746000  1.0
  O  O56  1  0.58357000  0.29570000  0.97751000  1.0
  O  O57  1  0.85704000  0.20436000  0.52253000  1.0
  O  O58  1  0.41973000  0.36327000  0.29582000  1.0
  O  O59  1  0.07942000  0.13642000  0.20420000  1.0
  O  O60  1  0.58026000  0.63673000  0.70418000  1.0
  O  O61  1  0.92059000  0.86358000  0.79581000  1.0
  O  O62  1  0.11957000  0.56425000  0.24411000  1.0
  O  O63  1  0.92792000  0.93569000  0.25590000  1.0
  O  O64  1  0.88043000  0.43575000  0.75588000  1.0
  O  O65  1  0.07209000  0.06430000  0.74410000  1.0
  O  O66  1  0.48177000  0.06231000  0.22447000  1.0
  O  O67  1  0.76841000  0.43734000  0.27563000  1.0
  O  O68  1  0.51823000  0.93769000  0.77553000  1.0
  O  O69  1  0.23158000  0.56266000  0.72436000  1.0
