# generated using pymatgen
data_Zn2H36C29N2O11
_symmetry_space_group_name_H-M   'P 1'
_cell_length_a   9.79375000
_cell_length_b   10.91300000
_cell_length_c   10.97380000
_cell_angle_alpha   80.39980000
_cell_angle_beta   86.81280000
_cell_angle_gamma   81.45090000
_symmetry_Int_Tables_number   1
_chemical_formula_structural   Zn2H36C29N2O11
_chemical_formula_sum   'Zn2 H36 C29 N2 O11'
_cell_volume   1143.02497164
_cell_formula_units_Z   1
loop_
 _symmetry_equiv_pos_site_id
 _symmetry_equiv_pos_as_xyz
  1  'x, y, z'
loop_
 _atom_site_type_symbol
 _atom_site_label
 _atom_site_symmetry_multiplicity
 _atom_site_fract_x
 _atom_site_fract_y
 _atom_site_fract_z
 _atom_site_occupancy
  Zn  Zn0  1  0.64475000  0.48421000  0.49943000  1.0
  Zn  Zn1  1  0.35618000  0.52738000  0.50093000  1.0
  H  H2  1  0.82826000  0.64376000  0.54679000  1.0
  H  H3  1  0.86163000  0.94593000  0.23458000  1.0
  H  H4  1  0.64331000  0.80697000  0.07084000  1.0
  H  H5  1  0.73644000  0.71284000  0.19505000  1.0
  H  H6  1  0.81619000  0.73880000  0.04451000  1.0
  H  H7  1  0.74499000  0.52312000  0.09024000  1.0
  H  H8  1  0.66003000  0.61662000  0.96234000  1.0
  H  H9  1  0.80497000  0.24278000  0.63197000  1.0
  H  H10  1  0.97116000  0.15658000  0.60595000  1.0
  H  H11  1  0.95380000  0.27681000  0.69975000  1.0
  H  H12  1  0.90578000  0.31296000  0.42053000  1.0
  H  H13  1  0.11575000  0.53795000  0.40206000  1.0
  H  H14  1  0.05178000  0.35110000  0.48944000  1.0
  H  H15  1  0.89460000  0.71495000  0.73870000  1.0
  H  H16  1  0.87829000  0.55406000  0.78672000  1.0
  H  H17  1  0.98406000  0.62831000  0.86868000  1.0
  H  H18  1  0.13929000  0.49864000  0.73927000  1.0
  H  H19  1  0.15064000  0.65541000  0.68442000  1.0
  H  H20  1  0.64712000  0.04117000  0.80238000  1.0
  H  H21  1  0.46605000  0.05900000  0.83297000  1.0
  H  H22  1  0.57758000  0.94749000  0.93207000  1.0
  H  H23  1  0.46255000  0.83676000  0.79130000  1.0
  H  H24  1  0.71749000  0.05317000  0.56551000  1.0
  H  H25  1  0.64177000  0.82167000  0.75801000  1.0
  H  H26  1  0.32622000  0.99419000  0.22020000  1.0
  H  H27  1  0.50620000  0.96788000  0.17835000  1.0
  H  H28  1  0.39593000  0.09825000  0.09580000  1.0
  H  H29  1  0.75551000  0.27681000  0.85265000  1.0
  H  H30  1  0.58648000  0.23381000  0.88605000  1.0
  H  H31  1  0.70175000  0.22210000  0.00980000  1.0
  H  H32  1  0.31158000  0.09100000  0.64043000  1.0
  H  H33  1  0.27313000  0.95700000  0.44729000  1.0
  H  H34  1  0.32944000  0.59413000  0.87610000  1.0
  H  H35  1  0.32143000  0.56487000  0.11322000  1.0
  H  H36  1  0.83183000  0.04280000  0.35358000  1.0
  H  H37  1  0.71708000  0.06948000  0.22749000  1.0
  C  C38  1  0.51523000  0.56625000  0.26025000  1.0
  C  C39  1  0.04944000  0.56501000  0.56726000  1.0
  C  C40  1  0.49358000  0.26984000  0.48851000  1.0
  C  C41  1  0.50257000  0.45951000  0.74346000  1.0
  C  C42  1  0.49560000  0.74221000  0.52132000  1.0
  C  C43  1  0.61949000  0.03060000  0.53827000  1.0
  C  C44  1  0.59901000  0.95877000  0.42938000  1.0
  C  C45  1  0.49712000  0.87948000  0.51231000  1.0
  C  C46  1  0.52028000  0.95026000  0.62345000  1.0
  C  C47  1  0.39341000  0.05178000  0.58004000  1.0
  C  C48  1  0.78228000  0.99673000  0.28914000  1.0
  C  C49  1  0.37147000  0.98088000  0.47194000  1.0
  C  C50  1  0.66781000  0.60613000  0.06306000  1.0
  C  C51  1  0.71902000  0.72266000  0.09591000  1.0
  C  C52  1  0.94104000  0.34405000  0.50227000  1.0
  C  C53  1  0.91553000  0.24923000  0.61746000  1.0
  C  C54  1  0.07795000  0.58613000  0.69492000  1.0
  C  C55  1  0.95129000  0.62288000  0.77591000  1.0
  C  C56  1  0.54694000  0.89062000  0.75481000  1.0
  C  C57  1  0.56018000  0.98979000  0.83535000  1.0
  C  C58  1  0.41680000  0.04075000  0.18639000  1.0
  C  C59  1  0.66863000  0.27634000  0.92026000  1.0
  C  C60  1  0.47009000  0.06187000  0.38594000  1.0
  C  C61  1  0.49385000  0.13200000  0.49664000  1.0
  C  C62  1  0.41680000  0.54884000  0.93253000  1.0
  C  C63  1  0.50984000  0.46712000  0.87865000  1.0
  C  C64  1  0.41902000  0.56779000  0.05972000  1.0
  C  C65  1  0.52978000  0.58234000  0.12225000  1.0
  C  C66  1  0.90406000  0.56019000  0.53891000  1.0
  N  N67  1  0.85687000  0.46555000  0.51056000  1.0
  N  N68  1  0.14740000  0.55173000  0.48560000  1.0
  O  O69  1  0.62886000  0.54799000  0.31725000  1.0
  O  O70  1  0.44392000  0.12457000  0.26735000  1.0
  O  O71  1  0.61945000  0.40138000  0.94312000  1.0
  O  O72  1  0.39565000  0.56575000  0.31252000  1.0
  O  O73  1  0.61103000  0.30843000  0.47490000  1.0
  O  O74  1  0.37678000  0.33736000  0.49774000  1.0
  O  O75  1  0.61818000  0.43081000  0.68863000  1.0
  O  O76  1  0.38535000  0.48649000  0.69407000  1.0
  O  O77  1  0.61032000  0.66978000  0.53554000  1.0
  O  O78  1  0.37800000  0.70781000  0.51405000  1.0
  O  O79  1  0.70247000  0.90516000  0.35527000  1.0
