# generated using pymatgen
data_CdH12C8(N5O)2
_symmetry_space_group_name_H-M   'P 1'
_cell_length_a   8.74144000
_cell_length_b   9.25359000
_cell_length_c   10.48880000
_cell_angle_alpha   63.83640000
_cell_angle_beta   79.38870000
_cell_angle_gamma   65.33110000
_symmetry_Int_Tables_number   1
_chemical_formula_structural   CdH12C8(N5O)2
_chemical_formula_sum   'Cd2 H24 C16 N20 O4'
_cell_volume   692.00526049
_cell_formula_units_Z   2
loop_
 _symmetry_equiv_pos_site_id
 _symmetry_equiv_pos_as_xyz
  1  'x, y, z'
loop_
 _atom_site_type_symbol
 _atom_site_label
 _atom_site_symmetry_multiplicity
 _atom_site_fract_x
 _atom_site_fract_y
 _atom_site_fract_z
 _atom_site_occupancy
  Cd  Cd0  1  0.09349000  0.10249000  0.26083000  1.0
  Cd  Cd1  1  0.59356000  0.36350000  0.73912000  1.0
  H  H2  1  0.51543000  0.00377000  0.21053000  1.0
  H  H3  1  0.01549000  0.21463000  0.78927000  1.0
  H  H4  1  0.18370000  0.62017000  0.70269000  1.0
  H  H5  1  0.68370000  0.32308000  0.29731000  1.0
  H  H6  1  0.65409000  0.78155000  0.74895000  1.0
  H  H7  1  0.15414000  0.53008000  0.25145000  1.0
  H  H8  1  0.67285000  0.95135000  0.58640000  1.0
  H  H9  1  0.17295000  0.53717000  0.41410000  1.0
  H  H10  1  0.78751000  0.88760000  0.73911000  1.0
  H  H11  1  0.28747000  0.62637000  0.26134000  1.0
  H  H12  1  0.83374000  0.66277000  0.57722000  1.0
  H  H13  1  0.33410000  0.23956000  0.42286000  1.0
  H  H14  1  0.95119000  0.58915000  0.73115000  1.0
  H  H15  1  0.45140000  0.32026000  0.26891000  1.0
  H  H16  1  0.86426000  0.55057000  0.21143000  1.0
  H  H17  1  0.36452000  0.76231000  0.78817000  1.0
  H  H18  1  0.78603000  0.67497000  0.03570000  1.0
  H  H19  1  0.28611000  0.71071000  0.96388000  1.0
  H  H20  1  0.64461000  0.67619000  0.18180000  1.0
  H  H21  1  0.14481000  0.85812000  0.81774000  1.0
  H  H22  1  0.92522000  0.82213000  0.10219000  1.0
  H  H23  1  0.42504000  0.92433000  0.89805000  1.0
  H  H24  1  0.78549000  0.82413000  0.24829000  1.0
  H  H25  1  0.28566000  0.07251000  0.75176000  1.0
  C  C26  1  0.74220000  0.83998000  0.68030000  1.0
  C  C27  1  0.24224000  0.51987000  0.32011000  1.0
  C  C28  1  0.88649000  0.70390000  0.63681000  1.0
  C  C29  1  0.38668000  0.34044000  0.36336000  1.0
  C  C30  1  0.00950000  0.77857000  0.53932000  1.0
  C  C31  1  0.50968000  0.31765000  0.46084000  1.0
  C  C32  1  0.30327000  0.75057000  0.52965000  1.0
  C  C33  1  0.80337000  0.28037000  0.47032000  1.0
  C  C34  1  0.77083000  0.67346000  0.14237000  1.0
  C  C35  1  0.27097000  0.81596000  0.85730000  1.0
  C  C36  1  0.79812000  0.82769000  0.14086000  1.0
  C  C37  1  0.29806000  0.96862000  0.85914000  1.0
  C  C38  1  0.67528000  0.99669000  0.03998000  1.0
  C  C39  1  0.17494000  0.03664000  0.95997000  1.0
  C  C40  1  0.39373000  0.22094000  0.03406000  1.0
  C  C41  1  0.89364000  0.25527000  0.96580000  1.0
  N  N42  1  0.22796000  0.45986000  0.88185000  1.0
  N  N43  1  0.72786000  0.34186000  0.11814000  1.0
  N  N44  1  0.38523000  0.33584000  0.89855000  1.0
  N  N45  1  0.88510000  0.23454000  0.10138000  1.0
  N  N46  1  0.14436000  0.42222000  0.00047000  1.0
  N  N47  1  0.64429000  0.42297000  0.99950000  1.0
  N  N48  1  0.24528000  0.27139000  0.09977000  1.0
  N  N49  1  0.74522000  0.37153000  0.90012000  1.0
  N  N50  1  0.53061000  0.07327000  0.10207000  1.0
  N  N51  1  0.03056000  0.17561000  0.89779000  1.0
  N  N52  1  0.30584000  0.88517000  0.40763000  1.0
  N  N53  1  0.80597000  0.29307000  0.59229000  1.0
  N  N54  1  0.46910000  0.86729000  0.38559000  1.0
  N  N55  1  0.96923000  0.25310000  0.61430000  1.0
  N  N56  1  0.16540000  0.71262000  0.59707000  1.0
  N  N57  1  0.66546000  0.30984000  0.40295000  1.0
  N  N58  1  0.46103000  0.65189000  0.58198000  1.0
  N  N59  1  0.96113000  0.23397000  0.41794000  1.0
  N  N60  1  0.56153000  0.72872000  0.48852000  1.0
  N  N61  1  0.06165000  0.21737000  0.51136000  1.0
  O  O62  1  0.70373000  0.05608000  0.90982000  1.0
  O  O63  1  0.20301000  0.96561000  0.09022000  1.0
  O  O64  1  0.96912000  0.89173000  0.41622000  1.0
  O  O65  1  0.46939000  0.30746000  0.58405000  1.0
