# generated using pymatgen
data_HgH8(C7N)2
_symmetry_space_group_name_H-M   'P 1'
_cell_length_a   4.10518000
_cell_length_b   10.80870000
_cell_length_c   26.52500000
_cell_angle_alpha   90.00010000
_cell_angle_beta   90.00020000
_cell_angle_gamma   86.52700000
_symmetry_Int_Tables_number   1
_chemical_formula_structural   HgH8(C7N)2
_chemical_formula_sum   'Hg4 H32 C56 N8'
_cell_volume   1174.79672114
_cell_formula_units_Z   4
loop_
 _symmetry_equiv_pos_site_id
 _symmetry_equiv_pos_as_xyz
  1  'x, y, z'
loop_
 _atom_site_type_symbol
 _atom_site_label
 _atom_site_symmetry_multiplicity
 _atom_site_fract_x
 _atom_site_fract_y
 _atom_site_fract_z
 _atom_site_occupancy
  Hg  Hg0  1  0.81775000  0.84435000  0.61356000  1.0
  Hg  Hg1  1  0.18229000  0.65565000  0.11355000  1.0
  Hg  Hg2  1  0.18224000  0.15566000  0.38644000  1.0
  Hg  Hg3  1  0.81774000  0.34436000  0.88644000  1.0
  H  H4  1  0.98539000  0.97517000  0.09461000  1.0
  H  H5  1  0.01461000  0.52483000  0.59461000  1.0
  H  H6  1  0.01460000  0.02482000  0.90539000  1.0
  H  H7  1  0.98540000  0.47517000  0.40539000  1.0
  H  H8  1  0.27822000  0.01814000  0.01602000  1.0
  H  H9  1  0.72177000  0.48186000  0.51602000  1.0
  H  H10  1  0.72181000  0.98187000  0.98398000  1.0
  H  H11  1  0.27822000  0.51813000  0.48398000  1.0
  H  H12  1  0.12764000  0.40896000  0.04967000  1.0
  H  H13  1  0.87231000  0.09105000  0.54967000  1.0
  H  H14  1  0.87238000  0.59104000  0.95033000  1.0
  H  H15  1  0.12764000  0.90895000  0.45033000  1.0
  H  H16  1  0.84431000  0.34947000  0.12782000  1.0
  H  H17  1  0.15567000  0.15054000  0.62782000  1.0
  H  H18  1  0.15568000  0.65053000  0.87218000  1.0
  H  H19  1  0.84432000  0.84946000  0.37218000  1.0
  H  H20  1  0.81148000  0.80516000  0.73940000  1.0
  H  H21  1  0.18851000  0.69484000  0.23939000  1.0
  H  H22  1  0.18851000  0.19485000  0.26061000  1.0
  H  H23  1  0.81149000  0.30516000  0.76061000  1.0
  H  H24  1  0.56954000  0.69319000  0.81131000  1.0
  H  H25  1  0.43045000  0.80681000  0.31131000  1.0
  H  H26  1  0.43047000  0.30682000  0.18869000  1.0
  H  H27  1  0.56954000  0.19318000  0.68869000  1.0
  H  H28  1  0.23608000  0.43021000  0.70155000  1.0
  H  H29  1  0.76393000  0.06979000  0.20156000  1.0
  H  H30  1  0.76395000  0.56979000  0.29845000  1.0
  H  H31  1  0.23605000  0.93021000  0.79844000  1.0
  H  H32  1  0.48571000  0.55471000  0.63570000  1.0
  H  H33  1  0.51431000  0.94528000  0.13570000  1.0
  H  H34  1  0.51430000  0.44529000  0.36430000  1.0
  H  H35  1  0.48568000  0.05471000  0.86430000  1.0
  C  C36  1  0.02146000  0.07114000  0.08398000  1.0
  C  C37  1  0.97852000  0.42886000  0.58398000  1.0
  C  C38  1  0.97854000  0.92886000  0.91602000  1.0
  C  C39  1  0.02147000  0.57113000  0.41602000  1.0
  C  C40  1  0.18731000  0.09487000  0.03963000  1.0
  C  C41  1  0.81267000  0.40513000  0.53963000  1.0
  C  C42  1  0.81270000  0.90513000  0.96037000  1.0
  C  C43  1  0.18732000  0.59487000  0.46037000  1.0
  C  C44  1  0.23208000  0.21839000  0.02589000  1.0
  C  C45  1  0.76788000  0.28162000  0.52590000  1.0
  C  C46  1  0.76793000  0.78162000  0.97410000  1.0
  C  C47  1  0.23209000  0.71838000  0.47410000  1.0
  C  C48  1  0.10271000  0.31151000  0.05855000  1.0
  C  C49  1  0.89725000  0.18849000  0.55856000  1.0
  C  C50  1  0.89729000  0.68849000  0.94145000  1.0
  C  C51  1  0.10273000  0.81150000  0.44145000  1.0
  C  C52  1  0.94228000  0.27748000  0.10217000  1.0
  C  C53  1  0.05769000  0.22253000  0.60217000  1.0
  C  C54  1  0.05771000  0.72252000  0.89783000  1.0
  C  C55  1  0.94229000  0.77747000  0.39783000  1.0
  C  C56  1  0.40140000  0.24904000  0.98139000  1.0
  C  C57  1  0.59855000  0.25096000  0.48139000  1.0
  C  C58  1  0.59860000  0.75096000  0.01862000  1.0
  C  C59  1  0.40141000  0.74903000  0.51861000  1.0
  C  C60  1  0.55108000  0.27940000  0.94379000  1.0
  C  C61  1  0.44890000  0.22062000  0.44379000  1.0
  C  C62  1  0.44895000  0.72061000  0.05621000  1.0
  C  C63  1  0.55109000  0.77939000  0.55621000  1.0
  C  C64  1  0.68062000  0.72158000  0.73297000  1.0
  C  C65  1  0.31939000  0.77842000  0.23297000  1.0
  C  C66  1  0.31939000  0.27843000  0.26703000  1.0
  C  C67  1  0.68061000  0.22157000  0.76703000  1.0
  C  C68  1  0.54652000  0.65899000  0.77294000  1.0
  C  C69  1  0.45348000  0.84101000  0.27294000  1.0
  C  C70  1  0.45350000  0.34102000  0.22706000  1.0
  C  C71  1  0.54651000  0.15899000  0.72706000  1.0
  C  C72  1  0.38110000  0.55115000  0.76288000  1.0
  C  C73  1  0.61890000  0.94885000  0.26288000  1.0
  C  C74  1  0.61892000  0.44885000  0.23712000  1.0
  C  C75  1  0.38109000  0.05115000  0.73712000  1.0
  C  C76  1  0.36154000  0.51215000  0.71240000  1.0
  C  C77  1  0.63848000  0.98784000  0.21240000  1.0
  C  C78  1  0.63849000  0.48785000  0.28760000  1.0
  C  C79  1  0.36152000  0.01216000  0.78760000  1.0
  C  C80  1  0.50133000  0.58213000  0.67515000  1.0
  C  C81  1  0.49869000  0.91786000  0.17515000  1.0
  C  C82  1  0.49868000  0.41787000  0.32485000  1.0
  C  C83  1  0.50131000  0.08213000  0.82485000  1.0
  C  C84  1  0.09439000  0.43122000  0.83578000  1.0
  C  C85  1  0.90560000  0.06877000  0.33577000  1.0
  C  C86  1  0.90561000  0.56877000  0.16423000  1.0
  C  C87  1  0.09440000  0.93123000  0.66422000  1.0
  C  C88  1  0.23215000  0.48548000  0.80208000  1.0
  C  C89  1  0.76785000  0.01452000  0.30208000  1.0
  C  C90  1  0.76786000  0.51453000  0.19792000  1.0
  C  C91  1  0.23215000  0.98548000  0.69792000  1.0
  N  N92  1  0.90007000  0.15948000  0.11552000  1.0
  N  N93  1  0.09992000  0.34053000  0.61553000  1.0
  N  N94  1  0.09992000  0.84052000  0.88447000  1.0
  N  N95  1  0.90007000  0.65947000  0.38447000  1.0
  N  N96  1  0.65910000  0.68464000  0.68478000  1.0
  N  N97  1  0.34091000  0.81536000  0.18477000  1.0
  N  N98  1  0.34090000  0.31536000  0.31522000  1.0
  N  N99  1  0.65909000  0.18464000  0.81522000  1.0
