# generated using pymatgen
data_Cu2H14C8IN3
_symmetry_space_group_name_H-M   'P 1'
_cell_length_a   15.16450452
_cell_length_b   15.16480000
_cell_length_c   15.16410000
_cell_angle_alpha   100.53800000
_cell_angle_beta   114.11278690
_cell_angle_gamma   114.11621452
_symmetry_Int_Tables_number   1
_chemical_formula_structural   Cu2H14C8IN3
_chemical_formula_sum   'Cu16 H112 C64 I8 N24'
_cell_volume   2636.61707817
_cell_formula_units_Z   8
loop_
 _symmetry_equiv_pos_site_id
 _symmetry_equiv_pos_as_xyz
  1  'x, y, z'
loop_
 _atom_site_type_symbol
 _atom_site_label
 _atom_site_symmetry_multiplicity
 _atom_site_fract_x
 _atom_site_fract_y
 _atom_site_fract_z
 _atom_site_occupancy
  Cu  Cu0  1  0.67238000  0.92375000  0.59026000  1.0
  Cu  Cu1  1  0.82760000  0.91787000  0.75138000  1.0
  Cu  Cu2  1  0.33347000  0.25130000  0.42372000  1.0
  Cu  Cu3  1  0.16649000  0.09023000  0.41787000  1.0
  Cu  Cu4  1  0.32761000  0.07625000  0.40974000  1.0
  Cu  Cu5  1  0.17240000  0.08213000  0.24862000  1.0
  Cu  Cu6  1  0.66653000  0.74870000  0.57628000  1.0
  Cu  Cu7  1  0.83351000  0.90977000  0.58213000  1.0
  Cu  Cu8  1  0.42792000  0.73329000  0.41588000  1.0
  Cu  Cu9  1  0.07204000  0.98791000  0.80531000  1.0
  Cu  Cu10  1  0.31743000  0.30534000  0.23329000  1.0
  Cu  Cu11  1  0.18256000  0.91584000  0.48792000  1.0
  Cu  Cu12  1  0.57208000  0.26671000  0.58412000  1.0
  Cu  Cu13  1  0.92795000  0.01209000  0.19468000  1.0
  Cu  Cu14  1  0.68257000  0.69465000  0.76671000  1.0
  Cu  Cu15  1  0.81744000  0.08417000  0.51209000  1.0
  H  H16  1  0.68952000  0.26657000  0.44701000  1.0
  H  H17  1  0.81046000  0.75744000  0.07703000  1.0
  H  H18  1  0.81956000  0.57704000  0.76656000  1.0
  H  H19  1  0.68041000  0.94697000  0.25746000  1.0
  H  H20  1  0.31049000  0.73345000  0.55300000  1.0
  H  H21  1  0.18953000  0.24255000  0.92296000  1.0
  H  H22  1  0.18044000  0.42297000  0.23343000  1.0
  H  H23  1  0.31959000  0.05303000  0.74254000  1.0
  H  H24  1  0.81042000  0.25453000  0.49446000  1.0
  H  H25  1  0.68964000  0.68408000  0.94413000  1.0
  H  H26  1  0.76008000  0.44413000  0.75450000  1.0
  H  H27  1  0.73994000  0.99443000  0.18407000  1.0
  H  H28  1  0.18958000  0.74547000  0.50554000  1.0
  H  H29  1  0.31036000  0.31592000  0.05588000  1.0
  H  H30  1  0.23993000  0.55588000  0.24549000  1.0
  H  H31  1  0.26006000  0.00558000  0.81593000  1.0
  H  H32  1  0.87134000  0.44117000  0.57253000  1.0
  H  H33  1  0.62864000  0.70118000  0.06985000  1.0
  H  H34  1  0.86864000  0.56984000  0.94118000  1.0
  H  H35  1  0.63133000  0.07252000  0.20120000  1.0
  H  H36  1  0.12867000  0.55883000  0.42748000  1.0
  H  H37  1  0.37136000  0.29882000  0.93015000  1.0
  H  H38  1  0.13136000  0.43015000  0.05881000  1.0
  H  H39  1  0.36866000  0.92748000  0.79880000  1.0
  H  H40  1  0.77754000  0.40979000  0.61789000  1.0
  H  H41  1  0.72250000  0.84037000  0.13222000  1.0
  H  H42  1  0.79187000  0.63224000  0.90974000  1.0
  H  H43  1  0.70814000  0.11786000  0.34038000  1.0
  H  H44  1  0.22246000  0.59022000  0.38211000  1.0
  H  H45  1  0.27750000  0.15963000  0.86778000  1.0
  H  H46  1  0.20812000  0.36775000  0.09025000  1.0
  H  H47  1  0.29186000  0.88214000  0.65963000  1.0
  H  H48  1  0.89097000  0.35549000  0.74505000  1.0
  H  H49  1  0.60905000  0.85409000  0.96453000  1.0
  H  H50  1  0.61042000  0.46451000  0.85547000  1.0
  H  H51  1  0.88956000  0.24505000  0.35409000  1.0
  H  H52  1  0.10901000  0.64450000  0.25494000  1.0
  H  H53  1  0.39094000  0.14591000  0.03547000  1.0
  H  H54  1  0.38957000  0.53548000  0.14452000  1.0
  H  H55  1  0.11043000  0.75495000  0.64591000  1.0
  H  H56  1  0.98110000  0.48816000  0.76703000  1.0
  H  H57  1  0.51890000  0.78595000  0.00703000  1.0
  H  H58  1  0.72108000  0.50703000  0.98813000  1.0
  H  H59  1  0.77893000  0.26706000  0.28598000  1.0
  H  H60  1  0.01889000  0.51183000  0.23297000  1.0
  H  H61  1  0.48109000  0.21404000  0.99296000  1.0
  H  H62  1  0.27892000  0.49295000  0.01186000  1.0
  H  H63  1  0.22107000  0.73295000  0.71404000  1.0
  H  H64  1  0.98348000  0.38229000  0.69706000  1.0
  H  H65  1  0.51651000  0.71360000  0.89878000  1.0
  H  H66  1  0.68519000  0.39878000  0.88226000  1.0
  H  H67  1  0.81480000  0.19708000  0.21360000  1.0
  H  H68  1  0.01651000  0.61769000  0.30294000  1.0
  H  H69  1  0.48348000  0.28640000  0.10122000  1.0
  H  H70  1  0.31480000  0.60120000  0.11772000  1.0
  H  H71  1  0.18519000  0.80293000  0.78640000  1.0
  H  H72  1  0.55264000  0.99661000  0.67996000  1.0
  H  H73  1  0.94736000  0.12734000  0.94395000  1.0
  H  H74  1  0.31659000  0.44394000  0.49659000  1.0
  H  H75  1  0.18341000  0.18003000  0.62738000  1.0
  H  H76  1  0.44736000  0.00340000  0.32003000  1.0
  H  H77  1  0.05264000  0.87265000  0.05604000  1.0
  H  H78  1  0.68340000  0.55604000  0.50340000  1.0
  H  H79  1  0.81658000  0.81996000  0.37261000  1.0
  H  H80  1  0.47677000  0.05847000  0.63443000  1.0
  H  H81  1  0.02326000  0.15767000  0.08170000  1.0
  H  H82  1  0.42400000  0.58167000  0.55839000  1.0
  H  H83  1  0.07599000  0.13444000  0.65767000  1.0
  H  H84  1  0.52324000  0.94155000  0.36558000  1.0
  H  H85  1  0.97674000  0.84233000  0.91830000  1.0
  H  H86  1  0.57599000  0.41833000  0.44160000  1.0
  H  H87  1  0.92401000  0.86556000  0.34233000  1.0
  H  H88  1  0.64432000  0.23448000  0.78277000  1.0
  H  H89  1  0.85572000  0.13842000  0.09017000  1.0
  H  H90  1  0.45175000  0.59019000  0.73446000  1.0
  H  H91  1  0.04832000  0.28277000  0.63845000  1.0
  H  H92  1  0.35569000  0.76553000  0.21724000  1.0
  H  H93  1  0.14428000  0.86158000  0.90983000  1.0
  H  H94  1  0.54827000  0.40982000  0.26554000  1.0
  H  H95  1  0.95170000  0.71724000  0.36156000  1.0
  H  H96  1  0.72283000  0.17569000  0.82839000  1.0
  H  H97  1  0.77719000  0.10555000  0.95288000  1.0
  H  H98  1  0.34731000  0.45287000  0.67567000  1.0
  H  H99  1  0.15272000  0.32838000  0.60556000  1.0
  H  H100  1  0.27718000  0.82432000  0.17162000  1.0
  H  H101  1  0.22281000  0.89445000  0.04712000  1.0
  H  H102  1  0.65270000  0.54713000  0.32434000  1.0
  H  H103  1  0.84729000  0.67163000  0.39444000  1.0
  H  H104  1  0.50061000  0.12500000  0.82134000  1.0
  H  H105  1  0.99942000  0.32070000  0.12445000  1.0
  H  H106  1  0.30374000  0.62444000  0.62503000  1.0
  H  H107  1  0.19630000  0.32132000  0.82071000  1.0
  H  H108  1  0.49940000  0.87500000  0.17867000  1.0
  H  H109  1  0.00058000  0.67930000  0.87555000  1.0
  H  H110  1  0.69627000  0.37557000  0.37499000  1.0
  H  H111  1  0.80371000  0.67868000  0.17929000  1.0
  H  H112  1  0.64069000  0.19872000  0.93756000  1.0
  H  H113  1  0.85932000  0.29684000  0.05808000  1.0
  H  H114  1  0.26121000  0.55809000  0.69876000  1.0
  H  H115  1  0.23880000  0.43753000  0.79683000  1.0
  H  H116  1  0.35932000  0.80128000  0.06245000  1.0
  H  H117  1  0.14068000  0.70316000  0.94191000  1.0
  H  H118  1  0.73881000  0.44192000  0.30126000  1.0
  H  H119  1  0.76122000  0.56247000  0.20318000  1.0
  H  H120  1  0.57443000  0.06061000  0.86367000  1.0
  H  H121  1  0.92559000  0.28924000  0.98621000  1.0
  H  H122  1  0.19697000  0.48622000  0.56065000  1.0
  H  H123  1  0.30308000  0.36369000  0.78927000  1.0
  H  H124  1  0.42558000  0.93940000  0.13633000  1.0
  H  H125  1  0.07441000  0.71076000  0.01379000  1.0
  H  H126  1  0.80303000  0.51378000  0.43936000  1.0
  H  H127  1  0.69693000  0.63630000  0.21073000  1.0
  C  C128  1  0.70600000  0.19026000  0.55136000  1.0
  C  C129  1  0.79400000  0.84537000  0.98430000  1.0
  C  C130  1  0.63890000  0.48426000  0.69026000  1.0
  C  C131  1  0.86108000  0.05136000  0.34537000  1.0
  C  C132  1  0.29400000  0.80974000  0.44864000  1.0
  C  C133  1  0.20599000  0.15462000  0.01569000  1.0
  C  C134  1  0.36111000  0.51574000  0.30975000  1.0
  C  C135  1  0.13892000  0.94864000  0.65463000  1.0
  C  C136  1  0.75835000  0.27339000  0.51812000  1.0
  C  C137  1  0.74166000  0.75978000  0.01506000  1.0
  C  C138  1  0.75527000  0.51504000  0.77338000  1.0
  C  C139  1  0.74471000  0.01810000  0.25978000  1.0
  C  C140  1  0.24165000  0.72661000  0.48188000  1.0
  C  C141  1  0.25833000  0.24022000  0.98493000  1.0
  C  C142  1  0.24474000  0.48496000  0.22662000  1.0
  C  C143  1  0.25529000  0.98191000  0.74022000  1.0
  C  C144  1  0.83328000  0.38789000  0.60444000  1.0
  C  C145  1  0.66666667  0.77109667  0.05457667  1.0
  C  C146  1  0.78345000  0.55461000  0.88789000  1.0
  C  C147  1  0.71652000  0.10442000  0.27115000  1.0
  C  C148  1  0.16672000  0.61210000  0.39556000  1.0
  C  C149  1  0.33329000  0.22886000  0.94538000  1.0
  C  C150  1  0.21655000  0.44538000  0.11211000  1.0
  C  C151  1  0.28347000  0.89558000  0.72884000  1.0
  C  C152  1  0.92735000  0.40447000  0.70918000  1.0
  C  C153  1  0.57265000  0.78182000  0.97711000  1.0
  C  C154  1  0.69528000  0.47711000  0.90445000  1.0
  C  C155  1  0.80470000  0.20916000  0.28183000  1.0
  C  C156  1  0.07264000  0.59552000  0.29082000  1.0
  C  C157  1  0.42734000  0.21817000  0.02289000  1.0
  C  C158  1  0.30471000  0.52288000  0.09553000  1.0
  C  C159  1  0.19530000  0.79085000  0.71818000  1.0
  C  C160  1  0.61821000  0.09920000  0.61574000  1.0
  C  C161  1  0.88177000  0.99756000  0.98102000  1.0
  C  C162  1  0.48344000  0.48099000  0.59922000  1.0
  C  C163  1  0.01655000  0.11580000  0.49756000  1.0
  C  C164  1  0.38178000  0.90079000  0.38424000  1.0
  C  C165  1  0.11822000  0.00243000  0.01897000  1.0
  C  C166  1  0.51656000  0.51901000  0.40078000  1.0
  C  C167  1  0.98345000  0.88420000  0.50244000  1.0
  C  C168  1  0.56274000  0.07149000  0.67617000  1.0
  C  C169  1  0.93727000  0.11345000  0.00875000  1.0
  C  C170  1  0.39530000  0.50876000  0.57148000  1.0
  C  C171  1  0.10470000  0.17619000  0.61345000  1.0
  C  C172  1  0.43726000  0.92851000  0.32382000  1.0
  C  C173  1  0.06273000  0.88655000  0.99125000  1.0
  C  C174  1  0.60470000  0.49124000  0.42852000  1.0
  C  C175  1  0.89530000  0.82381000  0.38655000  1.0
  C  C176  1  0.63569000  0.16052000  0.78927000  1.0
  C  C177  1  0.86433000  0.15357000  0.02485000  1.0
  C  C178  1  0.37128000  0.52487000  0.66054000  1.0
  C  C179  1  0.12877000  0.28927000  0.65360000  1.0
  C  C180  1  0.36432000  0.83949000  0.21074000  1.0
  C  C181  1  0.13567000  0.84642000  0.97515000  1.0
  C  C182  1  0.62873000  0.47513000  0.33948000  1.0
  C  C183  1  0.87124000  0.71073000  0.34640000  1.0
  C  C184  1  0.58514000  0.13474000  0.85665000  1.0
  C  C185  1  0.91489000  0.27152000  0.04965000  1.0
  C  C186  1  0.27813000  0.54965000  0.63478000  1.0
  C  C187  1  0.22191000  0.35664000  0.77152000  1.0
  C  C188  1  0.41487000  0.86526000  0.14335000  1.0
  C  C189  1  0.08511000  0.72848000  0.95034000  1.0
  C  C190  1  0.72188000  0.45035000  0.36524000  1.0
  C  C191  1  0.77810000  0.64335000  0.22848000  1.0
  I  I192  1  0.56403000  0.80919000  0.65962000  1.0
  I  I193  1  0.93599000  0.09557000  0.74517000  1.0
  I  I194  1  0.14963000  0.24522000  0.30927000  1.0
  I  I195  1  0.35042000  0.15962000  0.59558000  1.0
  I  I196  1  0.43596000  0.19080000  0.34038000  1.0
  I  I197  1  0.06401000  0.90443000  0.25483000  1.0
  I  I198  1  0.85036000  0.75476000  0.69073000  1.0
  I  I199  1  0.64958000  0.84039000  0.40443000  1.0
  N  N200  1  0.72405000  0.11106000  0.54998000  1.0
  N  N201  1  0.77595000  0.82596000  0.88704000  1.0
  N  N202  1  0.56104000  0.38699000  0.61105000  1.0
  N  N203  1  0.93892000  0.04998000  0.32595000  1.0
  N  N204  1  0.27595000  0.88894000  0.45002000  1.0
  N  N205  1  0.22405000  0.17405000  0.11296000  1.0
  N  N206  1  0.43896000  0.61301000  0.38895000  1.0
  N  N207  1  0.06108000  0.95003000  0.67405000  1.0
  N  N208  1  0.66757000  0.05246000  0.59010000  1.0
  N  N209  1  0.83242000  0.92256000  0.88492000  1.0
  N  N210  1  0.46233000  0.38488000  0.55248000  1.0
  N  N211  1  0.03764000  0.09013000  0.42256000  1.0
  N  N212  1  0.33242000  0.94753000  0.40989000  1.0
  N  N213  1  0.16758000  0.07745000  0.11508000  1.0
  N  N214  1  0.53767000  0.61511000  0.44753000  1.0
  N  N215  1  0.96236000  0.90988000  0.57744000  1.0
  N  N216  1  0.63839000  0.18464000  0.59050000  1.0
  N  N217  1  0.86161000  0.95213000  0.04629000  1.0
  N  N218  1  0.59413000  0.54625000  0.68464000  1.0
  N  N219  1  0.90587000  0.09055000  0.45213000  1.0
  N  N220  1  0.36161000  0.81536000  0.40950000  1.0
  N  N221  1  0.13838000  0.04785000  0.95370000  1.0
  N  N222  1  0.40587000  0.45375000  0.31536000  1.0
  N  N223  1  0.09413000  0.90945000  0.54786000  1.0
