# generated using pymatgen
data_ZnH12C18NO4
_symmetry_space_group_name_H-M   'P 1'
_cell_length_a   13.12570000
_cell_length_b   13.12580000
_cell_length_c   13.90700000
_cell_angle_alpha   106.77800000
_cell_angle_beta   106.77700000
_cell_angle_gamma   91.43740000
_symmetry_Int_Tables_number   1
_chemical_formula_structural   ZnH12C18NO4
_chemical_formula_sum   'Zn4 H48 C72 N4 O16'
_cell_volume   2180.92163633
_cell_formula_units_Z   4
loop_
 _symmetry_equiv_pos_site_id
 _symmetry_equiv_pos_as_xyz
  1  'x, y, z'
loop_
 _atom_site_type_symbol
 _atom_site_label
 _atom_site_symmetry_multiplicity
 _atom_site_fract_x
 _atom_site_fract_y
 _atom_site_fract_z
 _atom_site_occupancy
  Zn  Zn0  1  0.13378000  0.81333000  0.13556000  1.0
  Zn  Zn1  1  0.18667000  0.86622000  0.36444000  1.0
  Zn  Zn2  1  0.86621000  0.18667000  0.86444000  1.0
  Zn  Zn3  1  0.81332000  0.13378000  0.63556000  1.0
  H  H4  1  0.09531000  0.46528000  0.04899000  1.0
  H  H5  1  0.09774000  0.27312000  0.03663000  1.0
  H  H6  1  0.19403000  0.55471000  0.38783000  1.0
  H  H7  1  0.13499000  0.13268000  0.12625000  1.0
  H  H8  1  0.07630000  0.95825000  0.01607000  1.0
  H  H9  1  0.08683000  0.99002000  0.85113000  1.0
  H  H10  1  0.20339000  0.68074000  0.77321000  1.0
  H  H11  1  0.11965000  0.59039000  0.95143000  1.0
  H  H12  1  0.22156000  0.57685000  0.88829000  1.0
  H  H13  1  0.25142000  0.65150000  0.02543000  1.0
  H  H14  1  0.21307000  0.21909000  0.46380000  1.0
  H  H15  1  0.21689000  0.41191000  0.47698000  1.0
  H  H16  1  0.53472000  0.90470000  0.45101000  1.0
  H  H17  1  0.72688000  0.90226000  0.46337000  1.0
  H  H18  1  0.44530000  0.80598000  0.11217000  1.0
  H  H19  1  0.86732000  0.86500000  0.37376000  1.0
  H  H20  1  0.04175000  0.92370000  0.48393000  1.0
  H  H21  1  0.00998000  0.91317000  0.64887000  1.0
  H  H22  1  0.31926000  0.79661000  0.72679000  1.0
  H  H23  1  0.40961000  0.88035000  0.54857000  1.0
  H  H24  1  0.42315000  0.77844000  0.61171000  1.0
  H  H25  1  0.34850000  0.74858000  0.47457000  1.0
  H  H26  1  0.78091000  0.78693000  0.03620000  1.0
  H  H27  1  0.58809000  0.78311000  0.02302000  1.0
  H  H28  1  0.90469000  0.53472000  0.95101000  1.0
  H  H29  1  0.90226000  0.72688000  0.96336000  1.0
  H  H30  1  0.80598000  0.44529000  0.61217000  1.0
  H  H31  1  0.86500000  0.86732000  0.87375000  1.0
  H  H32  1  0.92370000  0.04175000  0.98393000  1.0
  H  H33  1  0.91316000  0.00998000  0.14886000  1.0
  H  H34  1  0.79661000  0.31926000  0.22679000  1.0
  H  H35  1  0.88035000  0.40960000  0.04857000  1.0
  H  H36  1  0.77844000  0.42315000  0.11170000  1.0
  H  H37  1  0.74858000  0.34850000  0.97457000  1.0
  H  H38  1  0.78693000  0.78091000  0.53620000  1.0
  H  H39  1  0.78311000  0.58809000  0.52302000  1.0
  H  H40  1  0.46529000  0.09530000  0.54900000  1.0
  H  H41  1  0.27313000  0.09774000  0.53663000  1.0
  H  H42  1  0.55470000  0.19403000  0.88784000  1.0
  H  H43  1  0.13268000  0.13499000  0.62625000  1.0
  H  H44  1  0.95825000  0.07630000  0.51607000  1.0
  H  H45  1  0.99002000  0.08684000  0.35113000  1.0
  H  H46  1  0.68074000  0.20339000  0.27321000  1.0
  H  H47  1  0.59040000  0.11965000  0.45143000  1.0
  H  H48  1  0.57685000  0.22156000  0.38829000  1.0
  H  H49  1  0.65151000  0.25142000  0.52543000  1.0
  H  H50  1  0.21909000  0.21308000  0.96380000  1.0
  H  H51  1  0.41191000  0.21689000  0.97698000  1.0
  C  C52  1  0.14936000  0.63733000  0.22745000  1.0
  C  C53  1  0.14661000  0.52115000  0.22013000  1.0
  C  C54  1  0.11820000  0.44106000  0.12017000  1.0
  C  C55  1  0.11987000  0.33452000  0.11362000  1.0
  C  C56  1  0.17303000  0.49212000  0.31171000  1.0
  C  C57  1  0.14799000  0.30283000  0.20651000  1.0
  C  C58  1  0.15103000  0.19418000  0.20238000  1.0
  C  C59  1  0.10223000  0.89821000  0.95841000  1.0
  C  C60  1  0.10925000  0.91562000  0.86667000  1.0
  C  C61  1  0.14848000  0.83753000  0.79855000  1.0
  C  C62  1  0.17532000  0.74469000  0.82559000  1.0
  C  C63  1  0.16464000  0.73108000  0.91830000  1.0
  C  C64  1  0.19134000  0.63151000  0.94700000  1.0
  C  C65  1  0.17288000  0.16408000  0.29319000  1.0
  C  C66  1  0.16910000  0.04761000  0.28480000  1.0
  C  C67  1  0.19573000  0.24383000  0.39303000  1.0
  C  C68  1  0.19734000  0.35065000  0.40002000  1.0
  C  C69  1  0.17313000  0.38332000  0.30774000  1.0
  C  C70  1  0.36267000  0.85065000  0.27255000  1.0
  C  C71  1  0.47886000  0.85340000  0.27987000  1.0
  C  C72  1  0.55894000  0.88181000  0.37983000  1.0
  C  C73  1  0.66548000  0.88013000  0.38638000  1.0
  C  C74  1  0.50788000  0.82697000  0.18829000  1.0
  C  C75  1  0.69717000  0.85201000  0.29350000  1.0
  C  C76  1  0.80582000  0.84897000  0.29762000  1.0
  C  C77  1  0.10180000  0.89777000  0.54159000  1.0
  C  C78  1  0.08438000  0.89075000  0.63333000  1.0
  C  C79  1  0.16247000  0.85152000  0.70145000  1.0
  C  C80  1  0.25531000  0.82468000  0.67441000  1.0
  C  C81  1  0.26892000  0.83536000  0.58171000  1.0
  C  C82  1  0.36849000  0.80866000  0.55300000  1.0
  C  C83  1  0.83592000  0.82711000  0.20682000  1.0
  C  C84  1  0.95239000  0.83089000  0.21519000  1.0
  C  C85  1  0.75618000  0.80427000  0.10698000  1.0
  C  C86  1  0.64935000  0.80266000  0.09999000  1.0
  C  C87  1  0.61669000  0.82687000  0.19227000  1.0
  C  C88  1  0.85063000  0.36267000  0.77254000  1.0
  C  C89  1  0.85339000  0.47885000  0.77987000  1.0
  C  C90  1  0.88180000  0.55894000  0.87983000  1.0
  C  C91  1  0.88013000  0.66548000  0.88638000  1.0
  C  C92  1  0.82697000  0.50788000  0.68828000  1.0
  C  C93  1  0.85201000  0.69716000  0.79349000  1.0
  C  C94  1  0.84897000  0.80582000  0.79761000  1.0
  C  C95  1  0.89777000  0.10179000  0.04159000  1.0
  C  C96  1  0.89075000  0.08438000  0.13333000  1.0
  C  C97  1  0.85152000  0.16247000  0.20145000  1.0
  C  C98  1  0.82468000  0.25531000  0.17441000  1.0
  C  C99  1  0.83536000  0.26892000  0.08170000  1.0
  C  C100  1  0.80866000  0.36849000  0.05300000  1.0
  C  C101  1  0.82712000  0.83592000  0.70681000  1.0
  C  C102  1  0.83089000  0.95238000  0.71519000  1.0
  C  C103  1  0.80427000  0.75618000  0.60697000  1.0
  C  C104  1  0.80266000  0.64935000  0.59998000  1.0
  C  C105  1  0.82687000  0.61668000  0.69226000  1.0
  C  C106  1  0.63733000  0.14935000  0.72744000  1.0
  C  C107  1  0.52114000  0.14661000  0.72014000  1.0
  C  C108  1  0.44107000  0.11819000  0.62017000  1.0
  C  C109  1  0.33452000  0.11986000  0.61362000  1.0
  C  C110  1  0.49211000  0.17303000  0.81172000  1.0
  C  C111  1  0.30284000  0.14799000  0.70651000  1.0
  C  C112  1  0.19418000  0.15103000  0.70238000  1.0
  C  C113  1  0.89821000  0.10223000  0.45841000  1.0
  C  C114  1  0.91562000  0.10925000  0.36667000  1.0
  C  C115  1  0.83753000  0.14848000  0.29855000  1.0
  C  C116  1  0.74469000  0.17532000  0.32559000  1.0
  C  C117  1  0.73108000  0.16464000  0.41829000  1.0
  C  C118  1  0.63151000  0.19134000  0.44700000  1.0
  C  C119  1  0.16408000  0.17288000  0.79319000  1.0
  C  C120  1  0.04760000  0.16911000  0.78479000  1.0
  C  C121  1  0.24383000  0.19573000  0.89303000  1.0
  C  C122  1  0.35065000  0.19735000  0.90002000  1.0
  C  C123  1  0.38332000  0.17313000  0.80774000  1.0
  N  N124  1  0.12920000  0.80914000  0.98448000  1.0
  N  N125  1  0.19086000  0.87080000  0.51552000  1.0
  N  N126  1  0.87080000  0.19085000  0.01552000  1.0
  N  N127  1  0.80915000  0.12920000  0.48448000  1.0
  O  O128  1  0.10712000  0.66075000  0.14282000  1.0
  O  O129  1  0.19489000  0.70421000  0.31833000  1.0
  O  O130  1  0.16583000  0.02252000  0.36643000  1.0
  O  O131  1  0.16731000  0.98167000  0.19696000  1.0
  O  O132  1  0.33925000  0.89289000  0.35718000  1.0
  O  O133  1  0.29579000  0.80512000  0.18167000  1.0
  O  O134  1  0.97748000  0.83418000  0.13357000  1.0
  O  O135  1  0.01833000  0.83267000  0.30305000  1.0
  O  O136  1  0.89289000  0.33925000  0.85718000  1.0
  O  O137  1  0.80511000  0.29579000  0.68167000  1.0
  O  O138  1  0.83418000  0.97748000  0.63357000  1.0
  O  O139  1  0.83269000  0.01833000  0.80305000  1.0
  O  O140  1  0.66074000  0.10712000  0.64283000  1.0
  O  O141  1  0.70422000  0.19489000  0.81834000  1.0
  O  O142  1  0.02251000  0.16583000  0.86643000  1.0
  O  O143  1  0.98167000  0.16731000  0.69695000  1.0
