# generated using pymatgen
data_NiH16C17SN2O7
_symmetry_space_group_name_H-M   'P 1'
_cell_length_a   8.17081000
_cell_length_b   8.61735000
_cell_length_c   14.24410000
_cell_angle_alpha   89.99580000
_cell_angle_beta   89.99850000
_cell_angle_gamma   65.88300000
_symmetry_Int_Tables_number   1
_chemical_formula_structural   NiH16C17SN2O7
_chemical_formula_sum   'Ni2 H32 C34 S2 N4 O14'
_cell_volume   915.39405009
_cell_formula_units_Z   2
loop_
 _symmetry_equiv_pos_site_id
 _symmetry_equiv_pos_as_xyz
  1  'x, y, z'
loop_
 _atom_site_type_symbol
 _atom_site_label
 _atom_site_symmetry_multiplicity
 _atom_site_fract_x
 _atom_site_fract_y
 _atom_site_fract_z
 _atom_site_occupancy
  Ni  Ni0  1  0.60184000  0.36758000  0.01933000  1.0
  Ni  Ni1  1  0.39818000  0.63240000  0.51932000  1.0
  H  H2  1  0.48839000  0.58677000  0.18807000  1.0
  H  H3  1  0.51161000  0.41327000  0.68804000  1.0
  H  H4  1  0.19418000  0.80880000  0.23941000  1.0
  H  H5  1  0.80574000  0.19125000  0.73938000  1.0
  H  H6  1  0.92535000  0.88397000  0.13294000  1.0
  H  H7  1  0.07464000  0.11600000  0.63294000  1.0
  H  H8  1  0.96027000  0.71641000  0.98561000  1.0
  H  H9  1  0.03972000  0.28359000  0.48557000  1.0
  H  H10  1  0.01603000  0.53378000  0.86813000  1.0
  H  H11  1  0.98400000  0.46627000  0.36815000  1.0
  H  H12  1  0.11933000  0.31521000  0.74175000  1.0
  H  H13  1  0.88070000  0.68487000  0.24176000  1.0
  H  H14  1  0.43882000  0.09819000  0.74233000  1.0
  H  H15  1  0.56125000  0.90185000  0.24230000  1.0
  H  H16  1  0.64569000  0.11734000  0.86869000  1.0
  H  H17  1  0.35430000  0.88270000  0.36866000  1.0
  H  H18  1  0.33000000  0.99786000  0.01113000  1.0
  H  H19  1  0.66984000  0.00219000  0.51119000  1.0
  H  H20  1  0.45296000  0.66722000  0.76996000  1.0
  H  H21  1  0.54706000  0.33277000  0.26996000  1.0
  H  H22  1  0.12683000  0.78140000  0.73050000  1.0
  H  H23  1  0.87314000  0.21858000  0.23055000  1.0
  H  H24  1  0.90607000  0.99703000  0.83413000  1.0
  H  H25  1  0.09383000  0.00308000  0.33415000  1.0
  H  H26  1  0.44232000  0.12767000  0.11477000  1.0
  H  H27  1  0.55817000  0.87219000  0.61485000  1.0
  H  H28  1  0.86901000  0.35948000  0.08709000  1.0
  H  H29  1  0.13097000  0.64063000  0.58714000  1.0
  H  H30  1  0.71436000  0.55762000  0.07839000  1.0
  H  H31  1  0.28551000  0.44248000  0.57840000  1.0
  H  H32  1  0.59207000  0.95641000  0.07985000  1.0
  H  H33  1  0.40816000  0.04326000  0.57994000  1.0
  C  C34  1  0.36768000  0.61790000  0.14637000  1.0
  C  C35  1  0.63234000  0.38212000  0.64636000  1.0
  C  C36  1  0.20331000  0.74334000  0.17317000  1.0
  C  C37  1  0.79673000  0.25665000  0.67314000  1.0
  C  C38  1  0.05444000  0.78228000  0.11500000  1.0
  C  C39  1  0.94558000  0.21771000  0.61496000  1.0
  C  C40  1  0.07319000  0.68887000  0.03287000  1.0
  C  C41  1  0.92682000  0.31114000  0.53284000  1.0
  C  C42  1  0.23946000  0.56041000  0.01118000  1.0
  C  C43  1  0.76055000  0.43961000  0.51115000  1.0
  C  C44  1  0.27824000  0.44461000  0.93206000  1.0
  C  C45  1  0.72176000  0.55541000  0.43204000  1.0
  C  C46  1  0.15538000  0.44234000  0.86486000  1.0
  C  C47  1  0.84465000  0.55769000  0.36483000  1.0
  C  C48  1  0.21352000  0.31919000  0.79475000  1.0
  C  C49  1  0.78648000  0.68088000  0.29474000  1.0
  C  C50  1  0.39134000  0.20008000  0.79438000  1.0
  C  C51  1  0.60867000  0.79994000  0.29435000  1.0
  C  C52  1  0.50758000  0.20930000  0.86349000  1.0
  C  C53  1  0.49240000  0.79075000  0.36347000  1.0
  C  C54  1  0.97364000  0.15549000  0.98589000  1.0
  C  C55  1  0.02631000  0.84454000  0.48595000  1.0
  C  C56  1  0.10489000  0.01837000  0.92594000  1.0
  C  C57  1  0.89503000  0.98165000  0.42601000  1.0
  C  C58  1  0.28730000  0.95170000  0.94877000  1.0
  C  C59  1  0.71262000  0.04834000  0.44885000  1.0
  C  C60  1  0.41008000  0.82443000  0.89289000  1.0
  C  C61  1  0.58987000  0.17555000  0.39291000  1.0
  C  C62  1  0.35417000  0.76532000  0.81299000  1.0
  C  C63  1  0.64578000  0.23468000  0.31302000  1.0
  C  C64  1  0.17219000  0.82997000  0.79110000  1.0
  C  C65  1  0.82775000  0.17000000  0.29115000  1.0
  C  C66  1  0.04839000  0.95376000  0.84808000  1.0
  C  C67  1  0.95155000  0.04626000  0.34814000  1.0
  S  S68  1  0.64303000  0.73192000  0.92123000  1.0
  S  S69  1  0.35687000  0.26803000  0.42120000  1.0
  N  N70  1  0.38643000  0.52904000  0.06643000  1.0
  N  N71  1  0.61357000  0.47097000  0.56641000  1.0
  N  N72  1  0.45308000  0.32956000  0.93035000  1.0
  N  N73  1  0.54691000  0.67046000  0.43034000  1.0
  O  O74  1  0.80657000  0.19501000  0.96660000  1.0
  O  O75  1  0.19338000  0.80504000  0.46663000  1.0
  O  O76  1  0.03111000  0.22278000  0.04966000  1.0
  O  O77  1  0.96893000  0.77723000  0.54976000  1.0
  O  O78  1  0.64964000  0.74860000  0.02598000  1.0
  O  O79  1  0.35012000  0.25140000  0.52595000  1.0
  O  O80  1  0.72738000  0.82992000  0.87293000  1.0
  O  O81  1  0.27271000  0.16994000  0.37287000  1.0
  O  O82  1  0.71023000  0.55401000  0.89187000  1.0
  O  O83  1  0.28961000  0.44594000  0.39178000  1.0
  O  O84  1  0.73652000  0.44133000  0.10357000  1.0
  O  O85  1  0.26343000  0.55873000  0.60356000  1.0
  O  O86  1  0.56971000  0.05605000  0.12057000  1.0
  O  O87  1  0.43079000  0.94364000  0.62069000  1.0
