# generated using pymatgen
data_Zr3H11C24Br3O16
_symmetry_space_group_name_H-M   'P 1'
_cell_length_a   14.79590000
_cell_length_b   14.79771496
_cell_length_c   14.79995046
_cell_angle_alpha   60.00910658
_cell_angle_beta   60.01195703
_cell_angle_gamma   60.01516884
_symmetry_Int_Tables_number   1
_chemical_formula_structural   Zr3H11C24Br3O16
_chemical_formula_sum   'Zr6 H22 C48 Br6 O32'
_cell_volume   2291.92394726
_cell_formula_units_Z   2
loop_
 _symmetry_equiv_pos_site_id
 _symmetry_equiv_pos_as_xyz
  1  'x, y, z'
loop_
 _atom_site_type_symbol
 _atom_site_label
 _atom_site_symmetry_multiplicity
 _atom_site_fract_x
 _atom_site_fract_y
 _atom_site_fract_z
 _atom_site_occupancy
  Zr  Zr0  1  0.62025000  0.87976000  0.62014000  1.0
  Zr  Zr1  1  0.38141000  0.11860000  0.38128000  1.0
  Zr  Zr2  1  0.38191000  0.11806000  0.62069000  1.0
  Zr  Zr3  1  0.62078000  0.87931000  0.38169000  1.0
  Zr  Zr4  1  0.62020000  0.11881000  0.38017000  1.0
  Zr  Zr5  1  0.38129000  0.87973000  0.61919000  1.0
  H  H6  1  0.59465000  0.09332000  0.59477000  1.0
  H  H7  1  0.59461000  0.09332000  0.21873000  1.0
  H  H8  1  0.21898000  0.09298000  0.59463000  1.0
  H  H9  1  0.59495000  0.71708000  0.59465000  1.0
  H  H10  1  0.92099000  0.85313000  0.64438000  1.0
  H  H11  1  0.91101000  0.14340000  0.35459000  1.0
  H  H12  1  0.09030000  0.86079000  0.63725000  1.0
  H  H13  1  0.64343000  0.58241000  0.92224000  1.0
  H  H14  1  0.35313000  0.59254000  0.91239000  1.0
  H  H15  1  0.63533000  0.41344000  0.09228000  1.0
  H  H16  1  0.92109000  0.14332000  0.08193000  1.0
  H  H17  1  0.91098000  0.85352000  0.09149000  1.0
  H  H18  1  0.09037000  0.13624000  0.91200000  1.0
  H  H19  1  0.35278000  0.58256000  0.64267000  1.0
  H  H20  1  0.64283000  0.59268000  0.35272000  1.0
  H  H21  1  0.36002000  0.41334000  0.63463000  1.0
  H  H22  1  0.35361000  0.14223000  0.92246000  1.0
  H  H23  1  0.64378000  0.85244000  0.91236000  1.0
  H  H24  1  0.36138000  0.13496000  0.09182000  1.0
  H  H25  1  0.92268000  0.58116000  0.35356000  1.0
  H  H26  1  0.91256000  0.59101000  0.64372000  1.0
  H  H27  1  0.09219000  0.41167000  0.36107000  1.0
  C  C28  1  0.80685000  0.99553000  0.49884000  1.0
  C  C29  1  0.49501000  0.30597000  0.19941000  1.0
  C  C30  1  0.19980000  0.99919000  0.49477000  1.0
  C  C31  1  0.49922000  0.69840000  0.80663000  1.0
  C  C32  1  0.49672000  0.99717000  0.80758000  1.0
  C  C33  1  0.80769000  0.69802000  0.49679000  1.0
  C  C34  1  0.50144000  0.99370000  0.19962000  1.0
  C  C35  1  0.20024000  0.30511000  0.50108000  1.0
  C  C36  1  0.50100000  0.30561000  0.49471000  1.0
  C  C37  1  0.19978000  0.99367000  0.80673000  1.0
  C  C38  1  0.49669000  0.69849000  0.49866000  1.0
  C  C39  1  0.80714000  0.99773000  0.19931000  1.0
  C  C40  1  0.09757000  0.00416000  0.49183000  1.0
  C  C41  1  0.90730000  0.99722000  0.49840000  1.0
  C  C42  1  0.04520000  0.08509000  0.41217000  1.0
  C  C43  1  0.95662000  0.91736000  0.57946000  1.0
  C  C44  1  0.95133000  0.08102000  0.41583000  1.0
  C  C45  1  0.05027000  0.92167000  0.57528000  1.0
  C  C46  1  0.49136000  0.40685000  0.09789000  1.0
  C  C47  1  0.49808000  0.59745000  0.90775000  1.0
  C  C48  1  0.41161000  0.45810000  0.04558000  1.0
  C  C49  1  0.57871000  0.54727000  0.95754000  1.0
  C  C50  1  0.41511000  0.55259000  0.95199000  1.0
  C  C51  1  0.57430000  0.45368000  0.05128000  1.0
  C  C52  1  0.09756000  0.99076000  0.90691000  1.0
  C  C53  1  0.90728000  0.99746000  0.09747000  1.0
  C  C54  1  0.04520000  0.91100000  0.95813000  1.0
  C  C55  1  0.95669000  0.07847000  0.04689000  1.0
  C  C56  1  0.95122000  0.91487000  0.05228000  1.0
  C  C57  1  0.05027000  0.07430000  0.95311000  1.0
  C  C58  1  0.50502000  0.40675000  0.49086000  1.0
  C  C59  1  0.49754000  0.59764000  0.49743000  1.0
  C  C60  1  0.58582000  0.45805000  0.41116000  1.0
  C  C61  1  0.41729000  0.54745000  0.57795000  1.0
  C  C62  1  0.58120000  0.55270000  0.41462000  1.0
  C  C63  1  0.42171000  0.45372000  0.57362000  1.0
  C  C64  1  0.50560000  0.99030000  0.09803000  1.0
  C  C65  1  0.49806000  0.99664000  0.90822000  1.0
  C  C66  1  0.58643000  0.91051000  0.04578000  1.0
  C  C67  1  0.41807000  0.07747000  0.95783000  1.0
  C  C68  1  0.58184000  0.91410000  0.95223000  1.0
  C  C69  1  0.42261000  0.07343000  0.05128000  1.0
  C  C70  1  0.09849000  0.40582000  0.50532000  1.0
  C  C71  1  0.90841000  0.59659000  0.49804000  1.0
  C  C72  1  0.04615000  0.45704000  0.58610000  1.0
  C  C73  1  0.95806000  0.54618000  0.41801000  1.0
  C  C74  1  0.95252000  0.55142000  0.58175000  1.0
  C  C75  1  0.05166000  0.45238000  0.42240000  1.0
  Br  Br76  1  0.09113000  0.20676000  0.29425000  1.0
  Br  Br77  1  0.29374000  0.40837000  0.09132000  1.0
  Br  Br78  1  0.09152000  0.79216000  0.90963000  1.0
  Br  Br79  1  0.70842000  0.40798000  0.29396000  1.0
  Br  Br80  1  0.70843000  0.79261000  0.09108000  1.0
  Br  Br81  1  0.09188000  0.40749000  0.70794000  1.0
  O  O82  1  0.76749000  0.91902000  0.57675000  1.0
  O  O83  1  0.41915000  0.26438000  0.24309000  1.0
  O  O84  1  0.24290000  0.07350000  0.41938000  1.0
  O  O85  1  0.57680000  0.73677000  0.76755000  1.0
  O  O86  1  0.42001000  0.07464000  0.76831000  1.0
  O  O87  1  0.76830000  0.73621000  0.42032000  1.0
  O  O88  1  0.57592000  0.91825000  0.24251000  1.0
  O  O89  1  0.24352000  0.26348000  0.57523000  1.0
  O  O90  1  0.57479000  0.26416000  0.41873000  1.0
  O  O91  1  0.24226000  0.91870000  0.76433000  1.0
  O  O92  1  0.41951000  0.73731000  0.57582000  1.0
  O  O93  1  0.76768000  0.07568000  0.23724000  1.0
  O  O94  1  0.23702000  0.07153000  0.76965000  1.0
  O  O95  1  0.57427000  0.73717000  0.42337000  1.0
  O  O96  1  0.76780000  0.92067000  0.23994000  1.0
  O  O97  1  0.42478000  0.26689000  0.57432000  1.0
  O  O98  1  0.57343000  0.92085000  0.76752000  1.0
  O  O99  1  0.23615000  0.26701000  0.42434000  1.0
  O  O100  1  0.42445000  0.07240000  0.23589000  1.0
  O  O101  1  0.76779000  0.73787000  0.57337000  1.0
  O  O102  1  0.42342000  0.73751000  0.76614000  1.0
  O  O103  1  0.76729000  0.07164000  0.42205000  1.0
  O  O104  1  0.57442000  0.26748000  0.23493000  1.0
  O  O105  1  0.23654000  0.92166000  0.57305000  1.0
  O  O106  1  0.56827000  0.79727000  0.56791000  1.0
  O  O107  1  0.29919000  0.06622000  0.56794000  1.0
  O  O108  1  0.56819000  0.06654000  0.29889000  1.0
  O  O109  1  0.56806000  0.06634000  0.56813000  1.0
  O  O110  1  0.45142000  0.14734000  0.45152000  1.0
  O  O111  1  0.65007000  0.94955000  0.45108000  1.0
  O  O112  1  0.45148000  0.94947000  0.45098000  1.0
  O  O113  1  0.45133000  0.94934000  0.64946000  1.0
