# generated using pymatgen
data_CdH22C26(NO2)4
_symmetry_space_group_name_H-M   'P 1'
_cell_length_a   7.90634000
_cell_length_b   12.44540000
_cell_length_c   13.64960000
_cell_angle_alpha   89.99960000
_cell_angle_beta   77.42100000
_cell_angle_gamma   89.99960000
_symmetry_Int_Tables_number   1
_chemical_formula_structural   CdH22C26(NO2)4
_chemical_formula_sum   'Cd2 H44 C52 N8 O16'
_cell_volume   1310.84879073
_cell_formula_units_Z   2
loop_
 _symmetry_equiv_pos_site_id
 _symmetry_equiv_pos_as_xyz
  1  'x, y, z'
loop_
 _atom_site_type_symbol
 _atom_site_label
 _atom_site_symmetry_multiplicity
 _atom_site_fract_x
 _atom_site_fract_y
 _atom_site_fract_z
 _atom_site_occupancy
  Cd  Cd0  1  0.50000000  0.00000000  0.00000000  1.0
  Cd  Cd1  1  0.00000000  0.50000000  0.50000000  1.0
  H  H2  1  0.86718000  0.09632000  0.92224000  1.0
  H  H3  1  0.63282000  0.59632000  0.57776000  1.0
  H  H4  1  0.13283000  0.90368000  0.07776000  1.0
  H  H5  1  0.36717000  0.40368000  0.42224000  1.0
  H  H6  1  0.08262000  0.21203000  0.98322000  1.0
  H  H7  1  0.41737000  0.71203000  0.51678000  1.0
  H  H8  1  0.91738000  0.78798000  0.01679000  1.0
  H  H9  1  0.58262000  0.28797000  0.48322000  1.0
  H  H10  1  0.06768000  0.22175000  0.17040000  1.0
  H  H11  1  0.43231000  0.72175000  0.32961000  1.0
  H  H12  1  0.93232000  0.77825000  0.82961000  1.0
  H  H13  1  0.56768000  0.27825000  0.67040000  1.0
  H  H14  1  0.64517000  0.99467000  0.20962000  1.0
  H  H15  1  0.85482000  0.49467000  0.29038000  1.0
  H  H16  1  0.35483000  0.00533000  0.79038000  1.0
  H  H17  1  0.14518000  0.50533000  0.70962000  1.0
  H  H18  1  0.74522000  0.16172000  0.52096000  1.0
  H  H19  1  0.75479000  0.66172000  0.97904000  1.0
  H  H20  1  0.25479000  0.83828000  0.47904000  1.0
  H  H21  1  0.24522000  0.33828000  0.02096000  1.0
  H  H22  1  0.68993000  0.11141000  0.70113000  1.0
  H  H23  1  0.81008000  0.61142000  0.79887000  1.0
  H  H24  1  0.31008000  0.88858000  0.29887000  1.0
  H  H25  1  0.18992000  0.38858000  0.20113000  1.0
  H  H26  1  0.73739000  0.77762000  0.62101000  1.0
  H  H27  1  0.76260000  0.27763000  0.87899000  1.0
  H  H28  1  0.26260000  0.22237000  0.37899000  1.0
  H  H29  1  0.23740000  0.72237000  0.12101000  1.0
  H  H30  1  0.80374000  0.82641000  0.44092000  1.0
  H  H31  1  0.69626000  0.32641000  0.05908000  1.0
  H  H32  1  0.19626000  0.17359000  0.55908000  1.0
  H  H33  1  0.30375000  0.67359000  0.94092000  1.0
  H  H34  1  0.82629000  0.95313000  0.32083000  1.0
  H  H35  1  0.67370000  0.45314000  0.17917000  1.0
  H  H36  1  0.17371000  0.04686000  0.67917000  1.0
  H  H37  1  0.32630000  0.54687000  0.82083000  1.0
  H  H38  1  0.57485000  0.80175000  0.93056000  1.0
  H  H39  1  0.92515000  0.30175000  0.56944000  1.0
  H  H40  1  0.42515000  0.19825000  0.06944000  1.0
  H  H41  1  0.07485000  0.69825000  0.43056000  1.0
  H  H42  1  0.57013000  0.77281000  0.04879000  1.0
  H  H43  1  0.92987000  0.27281000  0.45121000  1.0
  H  H44  1  0.42987000  0.22719000  0.95121000  1.0
  H  H45  1  0.07012000  0.72719000  0.54879000  1.0
  C  C46  1  0.86955000  0.10128000  0.00185000  1.0
  C  C47  1  0.63045000  0.60128000  0.49815000  1.0
  C  C48  1  0.13045000  0.89873000  0.99815000  1.0
  C  C49  1  0.36955000  0.39873000  0.50185000  1.0
  C  C50  1  0.98762000  0.16606000  0.03674000  1.0
  C  C51  1  0.51237000  0.66606000  0.46326000  1.0
  C  C52  1  0.01238000  0.83394000  0.96326000  1.0
  C  C53  1  0.48762000  0.33394000  0.53674000  1.0
  C  C54  1  0.97937000  0.17122000  0.13956000  1.0
  C  C55  1  0.52062000  0.67122000  0.36044000  1.0
  C  C56  1  0.02063000  0.82878000  0.86044000  1.0
  C  C57  1  0.47937000  0.32878000  0.63956000  1.0
  C  C58  1  0.85793000  0.10711000  0.20410000  1.0
  C  C59  1  0.64206000  0.60711000  0.29590000  1.0
  C  C60  1  0.14207000  0.89289000  0.79590000  1.0
  C  C61  1  0.35793000  0.39289000  0.70410000  1.0
  C  C62  1  0.74613000  0.04325000  0.16240000  1.0
  C  C63  1  0.75386000  0.54325000  0.33759000  1.0
  C  C64  1  0.25387000  0.95675000  0.83759000  1.0
  C  C65  1  0.24613000  0.45675000  0.66240000  1.0
  C  C66  1  0.83817000  0.11539000  0.31541000  1.0
  C  C67  1  0.66183000  0.61539000  0.18459000  1.0
  C  C68  1  0.16183000  0.88461000  0.68460000  1.0
  C  C69  1  0.33817000  0.38461000  0.81540000  1.0
  C  C70  1  0.77599000  0.99772000  0.46875000  1.0
  C  C71  1  0.72401000  0.49771000  0.03125000  1.0
  C  C72  1  0.22401000  0.00228000  0.53125000  1.0
  C  C73  1  0.27599000  0.50228000  0.96875000  1.0
  C  C74  1  0.74326000  0.07804000  0.54257000  1.0
  C  C75  1  0.75676000  0.57804000  0.95743000  1.0
  C  C76  1  0.25675000  0.92196000  0.45743000  1.0
  C  C77  1  0.24325000  0.42196000  0.04257000  1.0
  C  C78  1  0.71067000  0.04947000  0.64329000  1.0
  C  C79  1  0.78933000  0.54947000  0.85671000  1.0
  C  C80  1  0.28933000  0.95053000  0.35671000  1.0
  C  C81  1  0.21067000  0.45053000  0.14329000  1.0
  C  C82  1  0.70640000  0.94135000  0.67274000  1.0
  C  C83  1  0.79360000  0.44136000  0.82726000  1.0
  C  C84  1  0.29361000  0.05864000  0.32726000  1.0
  C  C85  1  0.20640000  0.55864000  0.17274000  1.0
  C  C86  1  0.73768000  0.86161000  0.59865000  1.0
  C  C87  1  0.76232000  0.36161000  0.90135000  1.0
  C  C88  1  0.26232000  0.13839000  0.40135000  1.0
  C  C89  1  0.23768000  0.63839000  0.09865000  1.0
  C  C90  1  0.77381000  0.88935000  0.49766000  1.0
  C  C91  1  0.72619000  0.38935000  0.00234000  1.0
  C  C92  1  0.22619000  0.11065000  0.50234000  1.0
  C  C93  1  0.27382000  0.61064000  0.99766000  1.0
  C  C94  1  0.66803000  0.91332000  0.78229000  1.0
  C  C95  1  0.83196000  0.41333000  0.71771000  1.0
  C  C96  1  0.33197000  0.08667000  0.21771000  1.0
  C  C97  1  0.16803000  0.58667000  0.28229000  1.0
  N  N98  1  0.75002000  0.04194000  0.06372000  1.0
  N  N99  1  0.74998000  0.54194000  0.43628000  1.0
  N  N100  1  0.24998000  0.95806000  0.93628000  1.0
  N  N101  1  0.25002000  0.45806000  0.56372000  1.0
  N  N102  1  0.81126000  0.01963000  0.36515000  1.0
  N  N103  1  0.68874000  0.51963000  0.13485000  1.0
  N  N104  1  0.18874000  0.98037000  0.63485000  1.0
  N  N105  1  0.31127000  0.48037000  0.86515000  1.0
  O  O106  1  0.51391000  0.81361000  0.00297000  1.0
  O  O107  1  0.98608000  0.31361000  0.49703000  1.0
  O  O108  1  0.48608000  0.18639000  0.99703000  1.0
  O  O109  1  0.01391000  0.68639000  0.50297000  1.0
  O  O110  1  0.66370000  0.99355000  0.84194000  1.0
  O  O111  1  0.83630000  0.49356000  0.65806000  1.0
  O  O112  1  0.33630000  0.00645000  0.15806000  1.0
  O  O113  1  0.16370000  0.50645000  0.34194000  1.0
  O  O114  1  0.64157000  0.81567000  0.80821000  1.0
  O  O115  1  0.85843000  0.31568000  0.69179000  1.0
  O  O116  1  0.35843000  0.18432000  0.19179000  1.0
  O  O117  1  0.14157000  0.68432000  0.30821000  1.0
  O  O118  1  0.84324000  0.20487000  0.35551000  1.0
  O  O119  1  0.65675000  0.70487000  0.14449000  1.0
  O  O120  1  0.15675000  0.79513000  0.64449000  1.0
  O  O121  1  0.34324000  0.29513000  0.85551000  1.0
