# generated using pymatgen
data_CuH7C7IN2
_symmetry_space_group_name_H-M   'P 1'
_cell_length_a   8.25075000
_cell_length_b   8.25077000
_cell_length_c   13.78450000
_cell_angle_alpha   100.43400000
_cell_angle_beta   100.43500000
_cell_angle_gamma   107.12100000
_symmetry_Int_Tables_number   1
_chemical_formula_structural   CuH7C7IN2
_chemical_formula_sum   'Cu4 H28 C28 I4 N8'
_cell_volume   854.09046940
_cell_formula_units_Z   4
loop_
 _symmetry_equiv_pos_site_id
 _symmetry_equiv_pos_as_xyz
  1  'x, y, z'
loop_
 _atom_site_type_symbol
 _atom_site_label
 _atom_site_symmetry_multiplicity
 _atom_site_fract_x
 _atom_site_fract_y
 _atom_site_fract_z
 _atom_site_occupancy
  Cu  Cu0  1  0.21268000  0.78732000  0.25000000  1.0
  Cu  Cu1  1  0.78732000  0.21268000  0.75000000  1.0
  Cu  Cu2  1  0.01436000  0.98564000  0.25000000  1.0
  Cu  Cu3  1  0.98564000  0.01436000  0.75000000  1.0
  H  H4  1  0.66527000  0.01271000  0.18414000  1.0
  H  H5  1  0.98729000  0.33473000  0.31586000  1.0
  H  H6  1  0.33472000  0.98728000  0.81585000  1.0
  H  H7  1  0.01270000  0.66528000  0.68414000  1.0
  H  H8  1  0.52964000  0.17207000  0.07786000  1.0
  H  H9  1  0.82790000  0.47035000  0.42213000  1.0
  H  H10  1  0.47034000  0.82789000  0.92212000  1.0
  H  H11  1  0.17209000  0.52965000  0.57788000  1.0
  H  H12  1  0.98808000  0.28964000  0.95642000  1.0
  H  H13  1  0.71036000  0.01192000  0.54358000  1.0
  H  H14  1  0.01192000  0.71037000  0.04359000  1.0
  H  H15  1  0.28967000  0.98808000  0.45642000  1.0
  H  H16  1  0.11569000  0.14409000  0.07973000  1.0
  H  H17  1  0.85592000  0.88432000  0.42027000  1.0
  H  H18  1  0.88431000  0.85592000  0.92027000  1.0
  H  H19  1  0.14411000  0.11570000  0.57973000  1.0
  H  H20  1  0.57182000  0.38771000  0.96924000  1.0
  H  H21  1  0.61228000  0.42817000  0.53076000  1.0
  H  H22  1  0.42816000  0.61227000  0.03076000  1.0
  H  H23  1  0.38773000  0.57183000  0.46925000  1.0
  H  H24  1  0.73482000  0.58367000  0.80908000  1.0
  H  H25  1  0.41633000  0.26519000  0.69092000  1.0
  H  H26  1  0.26518000  0.41634000  0.19092000  1.0
  H  H27  1  0.58367000  0.73482000  0.30909000  1.0
  H  H28  1  0.53296000  0.50580000  0.84396000  1.0
  H  H29  1  0.49420000  0.46704000  0.65604000  1.0
  H  H30  1  0.46704000  0.49420000  0.15604000  1.0
  H  H31  1  0.50580000  0.53296000  0.34396000  1.0
  C  C32  1  0.73413000  0.07691000  0.13351000  1.0
  C  C33  1  0.92308000  0.26586000  0.36649000  1.0
  C  C34  1  0.26585000  0.92307000  0.86648000  1.0
  C  C35  1  0.07692000  0.73414000  0.63351000  1.0
  C  C36  1  0.65786000  0.16502000  0.07283000  1.0
  C  C37  1  0.83496000  0.34214000  0.42716000  1.0
  C  C38  1  0.34213000  0.83495000  0.92716000  1.0
  C  C39  1  0.16504000  0.65787000  0.57284000  1.0
  C  C40  1  0.74583000  0.24079000  0.00545000  1.0
  C  C41  1  0.75920000  0.25416000  0.49455000  1.0
  C  C42  1  0.25416000  0.75920000  0.99454000  1.0
  C  C43  1  0.24080000  0.74583000  0.50546000  1.0
  C  C44  1  0.91296000  0.23078000  0.00624000  1.0
  C  C45  1  0.76922000  0.08704000  0.49376000  1.0
  C  C46  1  0.08704000  0.76922000  0.99376000  1.0
  C  C47  1  0.23080000  0.91296000  0.50625000  1.0
  C  C48  1  0.98353000  0.14866000  0.07356000  1.0
  C  C49  1  0.85135000  0.01648000  0.42644000  1.0
  C  C50  1  0.01648000  0.85135000  0.92644000  1.0
  C  C51  1  0.14867000  0.98353000  0.57356000  1.0
  C  C52  1  0.66614000  0.33279000  0.94091000  1.0
  C  C53  1  0.66719000  0.33385000  0.55908000  1.0
  C  C54  1  0.33385000  0.66719000  0.05908000  1.0
  C  C55  1  0.33282000  0.66615000  0.44092000  1.0
  C  C56  1  0.62619000  0.46515000  0.80566000  1.0
  C  C57  1  0.53485000  0.37382000  0.69434000  1.0
  C  C58  1  0.37381000  0.53486000  0.19434000  1.0
  C  C59  1  0.46514000  0.62619000  0.30566000  1.0
  I  I60  1  0.35413000  0.12279000  0.27244000  1.0
  I  I61  1  0.87721000  0.64587000  0.22757000  1.0
  I  I62  1  0.64586000  0.87721000  0.72756000  1.0
  I  I63  1  0.12279000  0.35414000  0.77244000  1.0
  N  N64  1  0.89621000  0.06943000  0.13565000  1.0
  N  N65  1  0.93058000  0.10380000  0.36436000  1.0
  N  N66  1  0.10379000  0.93057000  0.86435000  1.0
  N  N67  1  0.06943000  0.89621000  0.63564000  1.0
  N  N68  1  0.70107000  0.35295000  0.85555000  1.0
  N  N69  1  0.64705000  0.29893000  0.64445000  1.0
  N  N70  1  0.29894000  0.64706000  0.14445000  1.0
  N  N71  1  0.35294000  0.70106000  0.35555000  1.0
