# generated using pymatgen
data_AlH6C13Cl2O5
_symmetry_space_group_name_H-M   'P 1'
_cell_length_a   6.56599000
_cell_length_b   11.02120530
_cell_length_c   15.18230000
_cell_angle_alpha   91.41675553
_cell_angle_beta   101.10200000
_cell_angle_gamma   105.61606937
_symmetry_Int_Tables_number   1
_chemical_formula_structural   AlH6C13Cl2O5
_chemical_formula_sum   'Al2 H12 C26 Cl4 O10'
_cell_volume   1034.89980859
_cell_formula_units_Z   2
loop_
 _symmetry_equiv_pos_site_id
 _symmetry_equiv_pos_as_xyz
  1  'x, y, z'
loop_
 _atom_site_type_symbol
 _atom_site_label
 _atom_site_symmetry_multiplicity
 _atom_site_fract_x
 _atom_site_fract_y
 _atom_site_fract_z
 _atom_site_occupancy
  Al  Al0  1  0.99988000  0.50428000  0.50044000  1.0
  Al  Al1  1  0.50146000  0.50769000  0.50132000  1.0
  H  H2  1  0.34207000  0.65744000  0.56027000  1.0
  H  H3  1  0.64654000  0.35243000  0.44690000  1.0
  H  H4  1  0.54346000  0.40169000  0.77029000  1.0
  H  H5  1  0.63542000  0.38538000  0.93393000  1.0
  H  H6  1  0.46401000  0.55284000  0.22596000  1.0
  H  H7  1  0.37689000  0.54751000  0.06060000  1.0
  H  H8  1  0.78754000  0.42708000  0.23051000  1.0
  H  H9  1  0.69577000  0.42218000  0.06533000  1.0
  H  H10  1  0.20821000  0.58977000  0.77105000  1.0
  H  H11  1  0.30041000  0.58681000  0.93578000  1.0
  H  H12  1  0.54014000  0.77032000  0.38191000  1.0
  H  H13  1  0.81059000  0.23732000  0.37924000  1.0
  C  C14  1  0.86222000  0.73058000  0.49309000  1.0
  C  C15  1  0.81495000  0.50709000  0.66175000  1.0
  C  C16  1  0.14298000  0.28028000  0.50581000  1.0
  C  C17  1  0.18538000  0.49663000  0.33872000  1.0
  C  C18  1  0.86967000  0.49789000  0.76053000  1.0
  C  C19  1  0.13158000  0.49129000  0.23889000  1.0
  C  C20  1  0.70933000  0.44087000  0.80744000  1.0
  C  C21  1  0.76245000  0.43359000  0.89992000  1.0
  C  C22  1  0.29602000  0.52427000  0.18981000  1.0
  C  C23  1  0.24499000  0.52127000  0.09652000  1.0
  C  C24  1  0.91543000  0.45361000  0.19240000  1.0
  C  C25  1  0.86554000  0.45084000  0.09906000  1.0
  C  C26  1  0.08352000  0.54707000  0.80799000  1.0
  C  C27  1  0.13416000  0.54329000  0.90083000  1.0
  C  C28  1  0.97509000  0.48672000  0.94934000  1.0
  C  C29  1  0.02864000  0.48549000  0.04855000  1.0
  C  C30  1  0.93360000  0.87208000  0.49504000  1.0
  C  C31  1  0.80248000  0.93721000  0.43995000  1.0
  C  C32  1  0.12787000  0.93913000  0.55033000  1.0
  C  C33  1  0.60129000  0.87263000  0.38348000  1.0
  C  C34  1  0.47668000  0.93778000  0.33131000  1.0
  C  C35  1  0.07521000  0.13860000  0.50001000  1.0
  C  C36  1  0.19907000  0.07343000  0.55331000  1.0
  C  C37  1  0.87684000  0.07204000  0.44127000  1.0
  C  C38  1  0.75119000  0.13586000  0.38338000  1.0
  C  C39  1  0.55393000  0.07143000  0.33061000  1.0
  Cl  Cl40  1  0.43403000  0.15338000  0.62667000  1.0
  Cl  Cl41  1  0.28159000  0.86340000  0.62208000  1.0
  Cl  Cl42  1  0.22883000  0.85620000  0.26723000  1.0
  Cl  Cl43  1  0.40314000  0.15461000  0.26484000  1.0
  O  O44  1  0.98980000  0.67213000  0.47188000  1.0
  O  O45  1  0.61593000  0.48577000  0.62443000  1.0
  O  O46  1  0.32384000  0.33450000  0.48694000  1.0
  O  O47  1  0.02751000  0.46708000  0.37936000  1.0
  O  O48  1  0.00965000  0.33506000  0.52670000  1.0
  O  O49  1  0.38493000  0.52871000  0.37735000  1.0
  O  O50  1  0.68034000  0.68023000  0.51305000  1.0
  O  O51  1  0.97248000  0.53785000  0.62119000  1.0
  O  O52  1  0.29512000  0.56831000  0.53962000  1.0
  O  O53  1  0.70358000  0.44299000  0.46136000  1.0
