# generated using pymatgen
data_CdH24C32(N7O4)2
_symmetry_space_group_name_H-M   'P 1'
_cell_length_a   7.91920000
_cell_length_b   12.45830000
_cell_length_c   19.73150000
_cell_angle_alpha   82.36440000
_cell_angle_beta   82.58070000
_cell_angle_gamma   74.48440000
_symmetry_Int_Tables_number   1
_chemical_formula_structural   CdH24C32(N7O4)2
_chemical_formula_sum   'Cd2 H48 C64 N28 O16'
_cell_volume   1850.18257867
_cell_formula_units_Z   2
loop_
 _symmetry_equiv_pos_site_id
 _symmetry_equiv_pos_as_xyz
  1  'x, y, z'
loop_
 _atom_site_type_symbol
 _atom_site_label
 _atom_site_symmetry_multiplicity
 _atom_site_fract_x
 _atom_site_fract_y
 _atom_site_fract_z
 _atom_site_occupancy
  Cd  Cd0  1  0.36726000  0.21631000  0.25557000  1.0
  Cd  Cd1  1  0.63274000  0.78369000  0.74443000  1.0
  H  H2  1  0.64025000  0.02464000  0.15237000  1.0
  H  H3  1  0.35975000  0.97536000  0.84762000  1.0
  H  H4  1  0.08800000  0.09314000  0.17588000  1.0
  H  H5  1  0.91200000  0.90686000  0.82412000  1.0
  H  H6  1  0.02583000  0.89265000  0.17405000  1.0
  H  H7  1  0.97417000  0.10735000  0.82595000  1.0
  H  H8  1  0.85506000  0.79888000  0.11410000  1.0
  H  H9  1  0.14494000  0.20112000  0.88590000  1.0
  H  H10  1  0.16689000  0.85486000  0.92351000  1.0
  H  H11  1  0.83311000  0.14514000  0.07649000  1.0
  H  H12  1  0.33354000  0.95391000  0.98368000  1.0
  H  H13  1  0.66646000  0.04609000  0.01632000  1.0
  H  H14  1  0.02777000  0.58505000  0.05610000  1.0
  H  H15  1  0.97224000  0.41496000  0.94390000  1.0
  H  H16  1  0.84554000  0.45487000  0.10974000  1.0
  H  H17  1  0.15446000  0.54513000  0.89025000  1.0
  H  H18  1  0.38860000  0.68037000  0.02562000  1.0
  H  H19  1  0.61140000  0.31963000  0.97438000  1.0
  H  H20  1  0.57482000  0.80856000  0.97113000  1.0
  H  H21  1  0.42517000  0.19144000  0.02888000  1.0
  H  H22  1  0.13906000  0.41881000  0.13178000  1.0
  H  H23  1  0.86094000  0.58119000  0.86822000  1.0
  H  H24  1  0.67712000  0.35249000  0.15770000  1.0
  H  H25  1  0.32288000  0.64751000  0.84230000  1.0
  H  H26  1  0.53612000  0.07564000  0.42218000  1.0
  H  H27  1  0.46388000  0.92436000  0.57782000  1.0
  H  H28  1  0.12033000  0.03814000  0.32113000  1.0
  H  H29  1  0.87967000  0.96186000  0.67887000  1.0
  H  H30  1  0.17277000  0.88353000  0.54767000  1.0
  H  H31  1  0.82723000  0.11647000  0.45233000  1.0
  H  H32  1  0.98655000  0.75241000  0.59254000  1.0
  H  H33  1  0.01345000  0.24759000  0.40746000  1.0
  H  H34  1  0.85587000  0.74956000  0.38728000  1.0
  H  H35  1  0.14414000  0.25044000  0.61272000  1.0
  H  H36  1  0.04572000  0.87590000  0.34224000  1.0
  H  H37  1  0.95428000  0.12410000  0.65776000  1.0
  H  H38  1  0.47076000  0.75052000  0.50307000  1.0
  H  H39  1  0.52924000  0.24948000  0.49694000  1.0
  H  H40  1  0.30260000  0.66182000  0.43708000  1.0
  H  H41  1  0.69740000  0.33818000  0.56292000  1.0
  H  H42  1  0.78660000  0.42588000  0.37421000  1.0
  H  H43  1  0.21340000  0.57412000  0.62579000  1.0
  H  H44  1  0.94963000  0.50816000  0.44432000  1.0
  H  H45  1  0.05036000  0.49184000  0.55568000  1.0
  H  H46  1  0.09408000  0.47286000  0.30751000  1.0
  H  H47  1  0.90592000  0.52714000  0.69249000  1.0
  H  H48  1  0.61656000  0.32411000  0.34940000  1.0
  H  H49  1  0.38344000  0.67589000  0.65060000  1.0
  C  C50  1  0.50693000  0.02219000  0.14656000  1.0
  C  C51  1  0.49308000  0.97781000  0.85344000  1.0
  C  C52  1  0.22634000  0.05875000  0.16046000  1.0
  C  C53  1  0.77367000  0.94125000  0.83954000  1.0
  C  C54  1  0.19167000  0.92614000  0.08209000  1.0
  C  C55  1  0.80833000  0.07386000  0.91791000  1.0
  C  C56  1  0.05758000  0.88338000  0.11935000  1.0
  C  C57  1  0.94242000  0.11663000  0.88064000  1.0
  C  C58  1  0.96205000  0.83086000  0.08591000  1.0
  C  C59  1  0.03795000  0.16914000  0.91409000  1.0
  C  C60  1  0.00355000  0.82034000  0.01556000  1.0
  C  C61  1  0.99645000  0.17966000  0.98444000  1.0
  C  C62  1  0.13869000  0.86308000  0.97842000  1.0
  C  C63  1  0.86130000  0.13691000  0.02157000  1.0
  C  C64  1  0.23132000  0.91721000  0.01170000  1.0
  C  C65  1  0.76868000  0.08279000  0.98830000  1.0
  C  C66  1  0.80985000  0.70390000  0.01139000  1.0
  C  C67  1  0.19014000  0.29610000  0.98861000  1.0
  C  C68  1  0.88753000  0.60489000  0.05008000  1.0
  C  C69  1  0.11247000  0.39512000  0.94992000  1.0
  C  C70  1  0.78526000  0.53263000  0.07983000  1.0
  C  C71  1  0.21474000  0.46737000  0.92017000  1.0
  C  C72  1  0.60576000  0.56063000  0.07066000  1.0
  C  C73  1  0.39424000  0.43937000  0.92934000  1.0
  C  C74  1  0.52850000  0.65953000  0.03173000  1.0
  C  C75  1  0.47150000  0.34047000  0.96828000  1.0
  C  C76  1  0.63175000  0.73106000  0.00170000  1.0
  C  C77  1  0.36824000  0.26894000  0.99830000  1.0
  C  C78  1  0.27252000  0.42764000  0.12853000  1.0
  C  C79  1  0.72748000  0.57236000  0.87147000  1.0
  C  C80  1  0.54574000  0.39001000  0.14199000  1.0
  C  C81  1  0.45427000  0.60999000  0.85801000  1.0
  C  C82  1  0.42651000  0.04777000  0.40970000  1.0
  C  C83  1  0.57349000  0.95222000  0.59030000  1.0
  C  C84  1  0.21938000  0.02911000  0.35640000  1.0
  C  C85  1  0.78062000  0.97089000  0.64360000  1.0
  C  C86  1  0.12195000  0.88690000  0.44213000  1.0
  C  C87  1  0.87805000  0.11309000  0.55788000  1.0
  C  C88  1  0.10583000  0.85256000  0.51256000  1.0
  C  C89  1  0.89417000  0.14744000  0.48744000  1.0
  C  C90  1  0.00102000  0.77982000  0.53778000  1.0
  C  C91  1  0.99897000  0.22018000  0.46222000  1.0
  C  C92  1  0.90974000  0.74386000  0.49267000  1.0
  C  C93  1  0.09026000  0.25614000  0.50733000  1.0
  C  C94  1  0.92527000  0.77865000  0.42235000  1.0
  C  C95  1  0.07473000  0.22135000  0.57765000  1.0
  C  C96  1  0.03305000  0.84951000  0.39707000  1.0
  C  C97  1  0.96695000  0.15049000  0.60293000  1.0
  C  C98  1  0.71740000  0.63197000  0.47883000  1.0
  C  C99  1  0.28260000  0.36803000  0.52117000  1.0
  C  C100  1  0.53727000  0.67772000  0.47601000  1.0
  C  C101  1  0.46273000  0.32228000  0.52399000  1.0
  C  C102  1  0.44400000  0.62948000  0.43878000  1.0
  C  C103  1  0.55599000  0.37052000  0.56122000  1.0
  C  C104  1  0.53405000  0.53747000  0.40366000  1.0
  C  C105  1  0.46595000  0.46253000  0.59634000  1.0
  C  C106  1  0.71621000  0.49428000  0.40430000  1.0
  C  C107  1  0.28379000  0.50572000  0.59570000  1.0
  C  C108  1  0.80805000  0.54129000  0.44274000  1.0
  C  C109  1  0.19195000  0.45871000  0.55726000  1.0
  C  C110  1  0.22343000  0.46038000  0.32461000  1.0
  C  C111  1  0.77656000  0.53963000  0.67539000  1.0
  C  C112  1  0.48869000  0.38268000  0.34553000  1.0
  C  C113  1  0.51131000  0.61732000  0.65447000  1.0
  N  N114  1  0.28865000  0.98095000  0.11579000  1.0
  N  N115  1  0.71135000  0.01905000  0.88421000  1.0
  N  N116  1  0.46880000  0.95729000  0.10574000  1.0
  N  N117  1  0.53120000  0.04272000  0.89426000  1.0
  N  N118  1  0.36186000  0.08606000  0.18121000  1.0
  N  N119  1  0.63814000  0.91394000  0.81879000  1.0
  N  N120  1  0.49955000  0.48780000  0.10139000  1.0
  N  N121  1  0.50046000  0.51220000  0.89861000  1.0
  N  N122  1  0.32431000  0.51269000  0.09254000  1.0
  N  N123  1  0.67569000  0.48732000  0.90746000  1.0
  N  N124  1  0.40384000  0.35018000  0.16000000  1.0
  N  N125  1  0.59616000  0.64981000  0.84000000  1.0
  N  N126  1  0.22902000  0.96088000  0.41570000  1.0
  N  N127  1  0.77098000  0.03912000  0.58430000  1.0
  N  N128  1  0.36053000  0.97222000  0.45053000  1.0
  N  N129  1  0.63947000  0.02778000  0.54947000  1.0
  N  N130  1  0.34409000  0.08476000  0.35092000  1.0
  N  N131  1  0.65591000  0.91523000  0.64908000  1.0
  N  N132  1  0.43775000  0.48528000  0.36821000  1.0
  N  N133  1  0.56225000  0.51472000  0.63179000  1.0
  N  N134  1  0.26732000  0.53580000  0.35540000  1.0
  N  N135  1  0.73268000  0.46421000  0.64460000  1.0
  N  N136  1  0.35571000  0.36482000  0.31753000  1.0
  N  N137  1  0.64429000  0.63518000  0.68247000  1.0
  N  N138  1  0.78106000  0.10415000  0.27722000  1.0
  N  N139  1  0.21894000  0.89585000  0.72278000  1.0
  N  N140  1  0.94264000  0.33134000  0.23659000  1.0
  N  N141  1  0.05736000  0.66865000  0.76341000  1.0
  O  O142  1  0.91048000  0.77478000  0.97789000  1.0
  O  O143  1  0.08951000  0.22522000  0.02211000  1.0
  O  O144  1  0.80454000  0.67457000  0.52180000  1.0
  O  O145  1  0.19546000  0.32542000  0.47820000  1.0
  O  O146  1  0.91787000  0.02795000  0.26334000  1.0
  O  O147  1  0.08213000  0.97205000  0.73666000  1.0
  O  O148  1  0.67859000  0.14644000  0.22953000  1.0
  O  O149  1  0.32141000  0.85356000  0.77047000  1.0
  O  O150  1  0.74485000  0.13932000  0.33556000  1.0
  O  O151  1  0.25515000  0.86068000  0.66444000  1.0
  O  O152  1  0.04979000  0.28509000  0.28230000  1.0
  O  O153  1  0.95022000  0.71490000  0.71770000  1.0
  O  O154  1  0.97112000  0.29676000  0.17763000  1.0
  O  O155  1  0.02889000  0.70324000  0.82237000  1.0
  O  O156  1  0.81217000  0.41037000  0.25149000  1.0
  O  O157  1  0.18782000  0.58961000  0.74852000  1.0
