# generated using pymatgen
data_AlH10(C5O2)3
_symmetry_space_group_name_H-M   'P 1'
_cell_length_a   6.66188000
_cell_length_b   11.01716965
_cell_length_c   17.65900000
_cell_angle_alpha   90.74705923
_cell_angle_beta   99.06510000
_cell_angle_gamma   106.50891169
_symmetry_Int_Tables_number   1
_chemical_formula_structural   AlH10(C5O2)3
_chemical_formula_sum   'Al2 H20 C30 O12'
_cell_volume   1224.84268890
_cell_formula_units_Z   2
loop_
 _symmetry_equiv_pos_site_id
 _symmetry_equiv_pos_as_xyz
  1  'x, y, z'
loop_
 _atom_site_type_symbol
 _atom_site_label
 _atom_site_symmetry_multiplicity
 _atom_site_fract_x
 _atom_site_fract_y
 _atom_site_fract_z
 _atom_site_occupancy
  Al  Al0  1  0.00860000  0.49724000  0.50258000  1.0
  Al  Al1  1  0.50898000  0.49734000  0.50195000  1.0
  H  H2  1  0.35149000  0.65124000  0.54309000  1.0
  H  H3  1  0.66642000  0.34132000  0.46707000  1.0
  H  H4  1  0.81707000  0.45972000  0.27844000  1.0
  H  H5  1  0.72630000  0.46367000  0.13569000  1.0
  H  H6  1  0.47624000  0.52404000  0.26162000  1.0
  H  H7  1  0.53781000  0.47249000  0.74176000  1.0
  H  H8  1  0.19688000  0.53144000  0.72652000  1.0
  H  H9  1  0.28475000  0.52766000  0.86925000  1.0
  H  H10  1  0.53800000  0.76597000  0.39015000  1.0
  H  H11  1  0.79808000  0.23559000  0.40060000  1.0
  H  H12  1  0.35940000  0.11063000  0.55334000  1.0
  H  H13  1  0.23551000  0.87384000  0.54359000  1.0
  H  H14  1  0.35769000  0.53254000  0.05739000  1.0
  H  H15  1  0.65267000  0.46391000  0.94614000  1.0
  H  H16  1  0.12911000  0.89215000  0.32332000  1.0
  H  H17  1  0.23134000  0.76408000  0.30509000  1.0
  H  H18  1  0.25993000  0.89255000  0.24375000  1.0
  H  H19  1  0.39235000  0.12403000  0.24972000  1.0
  H  H20  1  0.49253000  0.24924000  0.32274000  1.0
  H  H21  1  0.25626000  0.12616000  0.32755000  1.0
  C  C22  1  0.86327000  0.72279000  0.48558000  1.0
  C  C23  1  0.81659000  0.50578000  0.64110000  1.0
  C  C24  1  0.14512000  0.26998000  0.50366000  1.0
  C  C25  1  0.19960000  0.48829000  0.36279000  1.0
  C  C26  1  0.15030000  0.49035000  0.27753000  1.0
  C  C27  1  0.93898000  0.47342000  0.24235000  1.0
  C  C28  1  0.88916000  0.47501000  0.16330000  1.0
  C  C29  1  0.05016000  0.49364000  0.11784000  1.0
  C  C30  1  0.26360000  0.51176000  0.15409000  1.0
  C  C31  1  0.31273000  0.50974000  0.23356000  1.0
  C  C32  1  0.01044000  0.49546000  0.03711000  1.0
  C  C33  1  0.99959000  0.49854000  0.96715000  1.0
  C  C34  1  0.96092000  0.50031000  0.88639000  1.0
  C  C35  1  0.74840000  0.48360000  0.84967000  1.0
  C  C36  1  0.70065000  0.48554000  0.77013000  1.0
  C  C37  1  0.86373000  0.50340000  0.72651000  1.0
  C  C38  1  0.07419000  0.51883000  0.76223000  1.0
  C  C39  1  0.12255000  0.51745000  0.84133000  1.0
  C  C40  1  0.92954000  0.86294000  0.47961000  1.0
  C  C41  1  0.79313000  0.93030000  0.44061000  1.0
  C  C42  1  0.13268000  0.92769000  0.51649000  1.0
  C  C43  1  0.59399000  0.86923000  0.39424000  1.0
  C  C44  1  0.47036000  0.93599000  0.35319000  1.0
  C  C45  1  0.06983000  0.12948000  0.48946000  1.0
  C  C46  1  0.20257000  0.06053000  0.52182000  1.0
  C  C47  1  0.86654000  0.06662000  0.44491000  1.0
  C  C48  1  0.73842000  0.13281000  0.40124000  1.0
  C  C49  1  0.54473000  0.07160000  0.35672000  1.0
  C  C50  1  0.26229000  0.86716000  0.30393000  1.0
  C  C51  1  0.41569000  0.14697000  0.31196000  1.0
  O  O52  1  0.00417000  0.66625000  0.48184000  1.0
  O  O53  1  0.62553000  0.49325000  0.60956000  1.0
  O  O54  1  0.33977000  0.32449000  0.50045000  1.0
  O  O55  1  0.04176000  0.47056000  0.39807000  1.0
  O  O56  1  0.01218000  0.32622000  0.51874000  1.0
  O  O57  1  0.39177000  0.50292000  0.39372000  1.0
  O  O58  1  0.67520000  0.66957000  0.49743000  1.0
  O  O59  1  0.97529000  0.52178000  0.60634000  1.0
  O  O60  1  0.30189000  0.55997000  0.53296000  1.0
  O  O61  1  0.71520000  0.43344000  0.47120000  1.0
  O  O62  1  0.42245000  0.53150000  0.11124000  1.0
  O  O63  1  0.58896000  0.46515000  0.89221000  1.0
