# generated using pymatgen
data_ZnH13C20(NO2)2
_symmetry_space_group_name_H-M   'P 1'
_cell_length_a   7.89928000
_cell_length_b   10.60090000
_cell_length_c   21.45910000
_cell_angle_alpha   90.00120000
_cell_angle_beta   90.00130000
_cell_angle_gamma   105.84400000
_symmetry_Int_Tables_number   1
_chemical_formula_structural   ZnH13C20(NO2)2
_chemical_formula_sum   'Zn4 H52 C80 N8 O16'
_cell_volume   1728.70429063
_cell_formula_units_Z   4
loop_
 _symmetry_equiv_pos_site_id
 _symmetry_equiv_pos_as_xyz
  1  'x, y, z'
loop_
 _atom_site_type_symbol
 _atom_site_label
 _atom_site_symmetry_multiplicity
 _atom_site_fract_x
 _atom_site_fract_y
 _atom_site_fract_z
 _atom_site_occupancy
  Zn  Zn0  1  0.13312000  0.15642000  0.49385000  1.0
  Zn  Zn1  1  0.86691000  0.34357000  0.99384000  1.0
  Zn  Zn2  1  0.86692000  0.84360000  0.50616000  1.0
  Zn  Zn3  1  0.13309000  0.65642000  0.00616000  1.0
  H  H4  1  0.60681000  0.50514000  0.60723000  1.0
  H  H5  1  0.39323000  0.99491000  0.10723000  1.0
  H  H6  1  0.39325000  0.49490000  0.39276000  1.0
  H  H7  1  0.60674000  0.00507000  0.89275000  1.0
  H  H8  1  0.89601000  0.48645000  0.60964000  1.0
  H  H9  1  0.10403000  0.01357000  0.10963000  1.0
  H  H10  1  0.10402000  0.51357000  0.39034000  1.0
  H  H11  1  0.89597000  0.98643000  0.89034000  1.0
  H  H12  1  0.21086000  0.57521000  0.58650000  1.0
  H  H13  1  0.78918000  0.92481000  0.08650000  1.0
  H  H14  1  0.78917000  0.42482000  0.41349000  1.0
  H  H15  1  0.21082000  0.07519000  0.91348000  1.0
  H  H16  1  0.51453000  0.25915000  0.44897000  1.0
  H  H17  1  0.48548000  0.24085000  0.94896000  1.0
  H  H18  1  0.48547000  0.74087000  0.55102000  1.0
  H  H19  1  0.51455000  0.75916000  0.05103000  1.0
  H  H20  1  0.28007000  0.36690000  0.60940000  1.0
  H  H21  1  0.71997000  0.13313000  0.10939000  1.0
  H  H22  1  0.71999000  0.63314000  0.39060000  1.0
  H  H23  1  0.28000000  0.86684000  0.89060000  1.0
  H  H24  1  0.65893000  0.31086000  0.73081000  1.0
  H  H25  1  0.34107000  0.18917000  0.23082000  1.0
  H  H26  1  0.34107000  0.68918000  0.26919000  1.0
  H  H27  1  0.65890000  0.81080000  0.76919000  1.0
  H  H28  1  0.87272000  0.26676000  0.65581000  1.0
  H  H29  1  0.12728000  0.23326000  0.15581000  1.0
  H  H30  1  0.12729000  0.73329000  0.34419000  1.0
  H  H31  1  0.87271000  0.76669000  0.84418000  1.0
  H  H32  1  0.45717000  0.98399000  0.56238000  1.0
  H  H33  1  0.54286000  0.51597000  0.06238000  1.0
  H  H34  1  0.54287000  0.01603000  0.43762000  1.0
  H  H35  1  0.45714000  0.48399000  0.93763000  1.0
  H  H36  1  0.24208000  0.02515000  0.63643000  1.0
  H  H37  1  0.75794000  0.47481000  0.13643000  1.0
  H  H38  1  0.75796000  0.97485000  0.36358000  1.0
  H  H39  1  0.24203000  0.52517000  0.86360000  1.0
  H  H40  1  0.49630000  0.26605000  0.80941000  1.0
  H  H41  1  0.50370000  0.23398000  0.30941000  1.0
  H  H42  1  0.50369000  0.73397000  0.19060000  1.0
  H  H43  1  0.49626000  0.76603000  0.69061000  1.0
  H  H44  1  0.27951000  0.30636000  0.88438000  1.0
  H  H45  1  0.72047000  0.19366000  0.38439000  1.0
  H  H46  1  0.72044000  0.69365000  0.11561000  1.0
  H  H47  1  0.27951000  0.80634000  0.61563000  1.0
  H  H48  1  0.86014000  0.14589000  0.75682000  1.0
  H  H49  1  0.13985000  0.35409000  0.25684000  1.0
  H  H50  1  0.13985000  0.85410000  0.24317000  1.0
  H  H51  1  0.86010000  0.64586000  0.74316000  1.0
  H  H52  1  0.07462000  0.11904000  0.67743000  1.0
  H  H53  1  0.92539000  0.38095000  0.17745000  1.0
  H  H54  1  0.92540000  0.88095000  0.32256000  1.0
  H  H55  1  0.07455000  0.61902000  0.82257000  1.0
  C  C56  1  0.81963000  0.45036000  0.51302000  1.0
  C  C57  1  0.18038000  0.04966000  0.01302000  1.0
  C  C58  1  0.18039000  0.54967000  0.48696000  1.0
  C  C59  1  0.81962000  0.95033000  0.98696000  1.0
  C  C60  1  0.94079000  0.49311000  0.56150000  1.0
  C  C61  1  0.05923000  0.00690000  0.06149000  1.0
  C  C62  1  0.05923000  0.50691000  0.43848000  1.0
  C  C63  1  0.94077000  0.99308000  0.93848000  1.0
  C  C64  1  0.11824000  0.54245000  0.54846000  1.0
  C  C65  1  0.88178000  0.95756000  0.04846000  1.0
  C  C66  1  0.88178000  0.45758000  0.45152000  1.0
  C  C67  1  0.11822000  0.04243000  0.95152000  1.0
  C  C68  1  0.63345000  0.39855000  0.52514000  1.0
  C  C69  1  0.36656000  0.10147000  0.02513000  1.0
  C  C70  1  0.36658000  0.60147000  0.47485000  1.0
  C  C71  1  0.63343000  0.89853000  0.97485000  1.0
  C  C72  1  0.50473000  0.30977000  0.49207000  1.0
  C  C73  1  0.49529000  0.19023000  0.99206000  1.0
  C  C74  1  0.49530000  0.69025000  0.50792000  1.0
  C  C75  1  0.50472000  0.80977000  0.00793000  1.0
  C  C76  1  0.37772000  0.36220000  0.57474000  1.0
  C  C77  1  0.62231000  0.13782000  0.07473000  1.0
  C  C78  1  0.62232000  0.63783000  0.42525000  1.0
  C  C79  1  0.37767000  0.86216000  0.92525000  1.0
  C  C80  1  0.43299000  0.16891000  0.69100000  1.0
  C  C81  1  0.56702000  0.33108000  0.19101000  1.0
  C  C82  1  0.56702000  0.83110000  0.30900000  1.0
  C  C83  1  0.43295000  0.66889000  0.80901000  1.0
  C  C84  1  0.61302000  0.23715000  0.69468000  1.0
  C  C85  1  0.38698000  0.26286000  0.19468000  1.0
  C  C86  1  0.38699000  0.76288000  0.30533000  1.0
  C  C87  1  0.61298000  0.73711000  0.80533000  1.0
  C  C88  1  0.73431000  0.21319000  0.65246000  1.0
  C  C89  1  0.26570000  0.28682000  0.15246000  1.0
  C  C90  1  0.26571000  0.78684000  0.34755000  1.0
  C  C91  1  0.73428000  0.71315000  0.84755000  1.0
  C  C92  1  0.68076000  0.11878000  0.60540000  1.0
  C  C93  1  0.31925000  0.38121000  0.10540000  1.0
  C  C94  1  0.31927000  0.88124000  0.39461000  1.0
  C  C95  1  0.68074000  0.61876000  0.89461000  1.0
  C  C96  1  0.50132000  0.05377000  0.60013000  1.0
  C  C97  1  0.49870000  0.44620000  0.10013000  1.0
  C  C98  1  0.49872000  0.94625000  0.39987000  1.0
  C  C99  1  0.50129000  0.55377000  0.89988000  1.0
  C  C100  1  0.37999000  0.07893000  0.64182000  1.0
  C  C101  1  0.62003000  0.42105000  0.14182000  1.0
  C  C102  1  0.62004000  0.92109000  0.35819000  1.0
  C  C103  1  0.37995000  0.57892000  0.85820000  1.0
  C  C104  1  0.81056000  0.08518000  0.56252000  1.0
  C  C105  1  0.18946000  0.41482000  0.06251000  1.0
  C  C106  1  0.18948000  0.91484000  0.43749000  1.0
  C  C107  1  0.81054000  0.58516000  0.93749000  1.0
  C  C108  1  0.30360000  0.19055000  0.73680000  1.0
  C  C109  1  0.69641000  0.30945000  0.23681000  1.0
  C  C110  1  0.69641000  0.80945000  0.26320000  1.0
  C  C111  1  0.30355000  0.69052000  0.76321000  1.0
  C  C112  1  0.35794000  0.24339000  0.79611000  1.0
  C  C113  1  0.64206000  0.25663000  0.29612000  1.0
  C  C114  1  0.64205000  0.75663000  0.20389000  1.0
  C  C115  1  0.35790000  0.74336000  0.70390000  1.0
  C  C116  1  0.23640000  0.26416000  0.83900000  1.0
  C  C117  1  0.76359000  0.23585000  0.33901000  1.0
  C  C118  1  0.76358000  0.73585000  0.16100000  1.0
  C  C119  1  0.23638000  0.76415000  0.66102000  1.0
  C  C120  1  0.05577000  0.22940000  0.82556000  1.0
  C  C121  1  0.94422000  0.27059000  0.32558000  1.0
  C  C122  1  0.94421000  0.77061000  0.17443000  1.0
  C  C123  1  0.05575000  0.72939000  0.67444000  1.0
  C  C124  1  0.00031000  0.17391000  0.76735000  1.0
  C  C125  1  0.99969000  0.32608000  0.26737000  1.0
  C  C126  1  0.99968000  0.82609000  0.23264000  1.0
  C  C127  1  0.00027000  0.67388000  0.73264000  1.0
  C  C128  1  0.12190000  0.15715000  0.72328000  1.0
  C  C129  1  0.87810000  0.34284000  0.22330000  1.0
  C  C130  1  0.87810000  0.84284000  0.27671000  1.0
  C  C131  1  0.12185000  0.65712000  0.77672000  1.0
  C  C132  1  0.92506000  0.24813000  0.87327000  1.0
  C  C133  1  0.07495000  0.25186000  0.37329000  1.0
  C  C134  1  0.07492000  0.75188000  0.12672000  1.0
  C  C135  1  0.92505000  0.74812000  0.62672000  1.0
  N  N136  1  0.54922000  0.43020000  0.57717000  1.0
  N  N137  1  0.45081000  0.06983000  0.07717000  1.0
  N  N138  1  0.45083000  0.56984000  0.42281000  1.0
  N  N139  1  0.54916000  0.93015000  0.92281000  1.0
  N  N140  1  0.34748000  0.28840000  0.52336000  1.0
  N  N141  1  0.65254000  0.21161000  0.02335000  1.0
  N  N142  1  0.65255000  0.71163000  0.47663000  1.0
  N  N143  1  0.34746000  0.78838000  0.97664000  1.0
  O  O144  1  0.97108000  0.15446000  0.56526000  1.0
  O  O145  1  0.02894000  0.34553000  0.06525000  1.0
  O  O146  1  0.02896000  0.84555000  0.43475000  1.0
  O  O147  1  0.97106000  0.65444000  0.93474000  1.0
  O  O148  1  0.75482000  0.98803000  0.52569000  1.0
  O  O149  1  0.24520000  0.51198000  0.02569000  1.0
  O  O150  1  0.24522000  0.01198000  0.47433000  1.0
  O  O151  1  0.75481000  0.48802000  0.97432000  1.0
  O  O152  1  0.99580000  0.32680000  0.91842000  1.0
  O  O153  1  0.00420000  0.17320000  0.41844000  1.0
  O  O154  1  0.00417000  0.67321000  0.08157000  1.0
  O  O155  1  0.99580000  0.82680000  0.58158000  1.0
  O  O156  1  0.76443000  0.18948000  0.86838000  1.0
  O  O157  1  0.23557000  0.31051000  0.36839000  1.0
  O  O158  1  0.23555000  0.81053000  0.13161000  1.0
  O  O159  1  0.76442000  0.68946000  0.63161000  1.0
