# generated using pymatgen
data_Zn4H50C72S3N20(O3F2)3
_symmetry_space_group_name_H-M   'P 1'
_cell_length_a   20.31240000
_cell_length_b   20.33340000
_cell_length_c   21.50175102
_cell_angle_alpha   108.47149437
_cell_angle_beta   107.46233400
_cell_angle_gamma   109.89100000
_symmetry_Int_Tables_number   1
_chemical_formula_structural   Zn4H50C72S3N20(O3F2)3
_chemical_formula_sum   'Zn4 H50 C72 S3 N20 O9 F6'
_cell_volume   7043.86137054
_cell_formula_units_Z   1
loop_
 _symmetry_equiv_pos_site_id
 _symmetry_equiv_pos_as_xyz
  1  'x, y, z'
loop_
 _atom_site_type_symbol
 _atom_site_label
 _atom_site_symmetry_multiplicity
 _atom_site_fract_x
 _atom_site_fract_y
 _atom_site_fract_z
 _atom_site_occupancy
  Zn  Zn0  1  0.09763000  0.10358000  0.48679000  1.0
  Zn  Zn1  1  0.89593000  0.89918000  0.50888000  1.0
  Zn  Zn2  1  0.99309000  0.90165000  0.39827000  1.0
  Zn  Zn3  1  0.00060000  0.09426000  0.61370000  1.0
  H  H4  1  0.09433000  0.12116000  0.34138000  1.0
  H  H5  1  0.74893000  0.91937000  0.42059000  1.0
  H  H6  1  0.02110000  0.43192000  0.45398000  1.0
  H  H7  1  0.04748000  0.55077000  0.44855000  1.0
  H  H8  1  0.14415000  0.59957000  0.52069000  1.0
  H  H9  1  0.10294000  0.55108000  0.68857000  1.0
  H  H10  1  0.17054000  0.55721000  0.65199000  1.0
  H  H11  1  0.09427000  0.65839000  0.67553000  1.0
  H  H12  1  0.95746000  0.48313000  0.60087000  1.0
  H  H13  1  0.95315000  0.58499000  0.57363000  1.0
  H  H14  1  0.17320000  0.67381000  0.65319000  1.0
  H  H15  1  0.00818000  0.84473000  0.59691000  1.0
  H  H16  1  0.44233000  0.10426000  0.41062000  1.0
  H  H17  1  0.86067000  0.90538000  0.27886000  1.0
  H  H18  1  0.57400000  0.13326000  0.44491000  1.0
  H  H19  1  0.56537000  0.99806000  0.52778000  1.0
  H  H20  1  0.47959000  0.08925000  0.52843000  1.0
  H  H21  1  0.44633000  0.99357000  0.52206000  1.0
  H  H22  1  0.50729000  0.89245000  0.40126000  1.0
  H  H23  1  0.36439000  0.88619000  0.31528000  1.0
  H  H24  1  0.54168000  0.06417000  0.35352000  1.0
  H  H25  1  0.40897000  0.02242000  0.32602000  1.0
  H  H26  1  0.11983000  0.08375000  0.73944000  1.0
  H  H27  1  0.92584000  0.20131000  0.57297000  1.0
  H  H28  1  0.74369000  0.79033000  0.14906000  1.0
  H  H29  1  0.62140000  0.69235000  0.03188000  1.0
  H  H30  1  0.47161000  0.50931000  0.84392000  1.0
  H  H31  1  0.60711000  0.78570000  0.26912000  1.0
  H  H32  1  0.48573000  0.68523000  0.15285000  1.0
  H  H33  1  0.24235000  0.34717000  0.86382000  1.0
  H  H34  1  0.14058000  0.09317000  0.86459000  1.0
  H  H35  1  0.71330000  0.77613000  0.35456000  1.0
  H  H36  1  0.18482000  0.08797000  0.98299000  1.0
  H  H37  1  0.92001000  0.85679000  0.66030000  1.0
  H  H38  1  0.21545000  0.13388000  0.17968000  1.0
  H  H39  1  0.17390000  0.12997000  0.27696000  1.0
  H  H40  1  0.02098000  0.83708000  0.74716000  1.0
  H  H41  1  0.08840000  0.88004000  0.05935000  1.0
  H  H42  1  0.04588000  0.87493000  0.15513000  1.0
  H  H43  1  0.84748000  0.13417000  0.62215000  1.0
  H  H44  1  0.02433000  0.87146000  0.25340000  1.0
  H  H45  1  0.27138000  0.23194000  0.64402000  1.0
  H  H46  1  0.39018000  0.87438000  0.20307000  1.0
  H  H47  1  0.43917000  0.57867000  0.04466000  1.0
  H  H48  1  0.25852000  0.12291000  0.48652000  1.0
  H  H49  1  0.10440000  0.32981000  0.44295000  1.0
  H  H50  1  0.13677000  0.25445000  0.76504000  1.0
  H  H51  1  0.93362000  0.53104000  0.48185000  1.0
  H  H52  1  0.92146000  0.42384000  0.50562000  1.0
  H  H53  1  0.12272000  0.47689000  0.51539000  1.0
  C  C54  1  0.07240000  0.05929000  0.32817000  1.0
  C  C55  1  0.22146000  0.06386000  0.47656000  1.0
  C  C56  1  0.15929000  0.23716000  0.72631000  1.0
  C  C57  1  0.78525000  0.97017000  0.47484000  1.0
  C  C58  1  0.00174000  0.76956000  0.43593000  1.0
  C  C59  1  0.23468000  0.27532000  0.73171000  1.0
  C  C60  1  0.02088000  0.76940000  0.50429000  1.0
  C  C61  1  0.22852000  0.99510000  0.44950000  1.0
  C  C62  1  0.03756000  0.96840000  0.72881000  1.0
  C  C63  1  0.96901000  0.48011000  0.55352000  1.0
  C  C64  1  0.06930000  0.48303000  0.50632000  1.0
  C  C65  1  0.76875000  0.03013000  0.50829000  1.0
  C  C66  1  0.08214000  0.56153000  0.50439000  1.0
  C  C67  1  0.04316000  0.71943000  0.52730000  1.0
  C  C68  1  0.04848000  0.47978000  0.56956000  1.0
  C  C69  1  0.83521000  0.87858000  0.30807000  1.0
  C  C70  1  0.97251000  0.55085000  0.53965000  1.0
  C  C71  1  0.05771000  0.60681000  0.55793000  1.0
  C  C72  1  0.11355000  0.62977000  0.63741000  1.0
  C  C73  1  0.11339000  0.55511000  0.64232000  1.0
  C  C74  1  0.05733000  0.67358000  0.54669000  1.0
  C  C75  1  0.04077000  0.40667000  0.57084000  1.0
  C  C76  1  0.75618000  0.82894000  0.28746000  1.0
  C  C77  1  0.02867000  0.34071000  0.56211000  1.0
  C  C78  1  0.53315000  0.07155000  0.40282000  1.0
  C  C79  1  0.55106000  0.03680000  0.50688000  1.0
  C  C80  1  0.47166000  0.03000000  0.49862000  1.0
  C  C81  1  0.96946000  0.20273000  0.55343000  1.0
  C  C82  1  0.28634000  0.98736000  0.42961000  1.0
  C  C83  1  0.55547000  0.01819000  0.43240000  1.0
  C  C84  1  0.44676000  0.05076000  0.38567000  1.0
  C  C85  1  0.41372000  0.99462000  0.41647000  1.0
  C  C86  1  0.40954000  0.91557000  0.37282000  1.0
  C  C87  1  0.02007000  0.26500000  0.54722000  1.0
  C  C88  1  0.49171000  0.93012000  0.37939000  1.0
  C  C89  1  0.33836000  0.98529000  0.41339000  1.0
  C  C90  1  0.63471000  0.02908000  0.45002000  1.0
  C  C91  1  0.69831000  0.03272000  0.47852000  1.0
  C  C92  1  0.29797000  0.35053000  0.79236000  1.0
  C  C93  1  0.76049000  0.81348000  0.34761000  1.0
  C  C94  1  0.29196000  0.38224000  0.85790000  1.0
  C  C95  1  0.34484000  0.45678000  0.91635000  1.0
  C  C96  1  0.41272000  0.50492000  0.91254000  1.0
  C  C97  1  0.42054000  0.47346000  0.84764000  1.0
  C  C98  1  0.22739000  0.22550000  0.66372000  1.0
  C  C99  1  0.36525000  0.39915000  0.79054000  1.0
  C  C100  1  0.61922000  0.71347000  0.08414000  1.0
  C  C101  1  0.68702000  0.76817000  0.14975000  1.0
  C  C102  1  0.54752000  0.67975000  0.08644000  1.0
  C  C103  1  0.68485000  0.79006000  0.21814000  1.0
  C  C104  1  0.61080000  0.76400000  0.21765000  1.0
  C  C105  1  0.06176000  0.23213000  0.51829000  1.0
  C  C106  1  0.54266000  0.70868000  0.15280000  1.0
  C  C107  1  0.10433000  0.00226000  0.22197000  1.0
  C  C108  1  0.08371000  0.93203000  0.16131000  1.0
  C  C109  1  0.00298000  0.82617000  0.54175000  1.0
  C  C110  1  0.10739000  0.93412000  0.10773000  1.0
  C  C111  1  0.15317000  0.00751000  0.11302000  1.0
  C  C112  1  0.17892000  0.07762000  0.17577000  1.0
  C  C113  1  0.15473000  0.07498000  0.22934000  1.0
  C  C114  1  0.15065000  0.03390000  0.93059000  1.0
  C  C115  1  0.12536000  0.03620000  0.86434000  1.0
  C  C116  1  0.12743000  0.96122000  0.93285000  1.0
  C  C117  1  0.83519000  0.08034000  0.57777000  1.0
  C  C118  1  0.07482000  0.96580000  0.79690000  1.0
  C  C119  1  0.05688000  0.89308000  0.79785000  1.0
  C  C120  1  0.16386000  0.93866000  0.44823000  1.0
  C  C121  1  0.08360000  0.89181000  0.86459000  1.0
  C  C122  1  0.03629000  0.93187000  0.28268000  1.0
  C  C123  1  0.07297000  0.99847000  0.27412000  1.0
  C  C124  1  0.06459000  0.02882000  0.70965000  1.0
  C  C125  1  0.96268000  0.91271000  0.66877000  1.0
  S  S126  1  0.48843000  0.88828000  0.28903000  1.0
  S  S127  1  0.31497000  0.48589000  0.98772000  1.0
  S  S128  1  0.14267000  0.27514000  0.50520000  1.0
  N  N129  1  0.03918000  0.03174000  0.36656000  1.0
  N  N130  1  0.48041000  0.61164000  0.02794000  1.0
  N  N131  1  0.16692000  0.01676000  0.05525000  1.0
  N  N132  1  0.85509000  0.98304000  0.52079000  1.0
  N  N133  1  0.13229000  0.95221000  0.99567000  1.0
  N  N134  1  0.88233000  0.89153000  0.37515000  1.0
  N  N135  1  0.98133000  0.13921000  0.53100000  1.0
  N  N136  1  0.83560000  0.85031000  0.39893000  1.0
  N  N137  1  0.03669000  0.15718000  0.50804000  1.0
  N  N138  1  0.88626000  0.05155000  0.58474000  1.0
  N  N139  1  0.01675000  0.95241000  0.33756000  1.0
  N  N140  1  0.97499000  0.85585000  0.49890000  1.0
  N  N141  1  0.15460000  0.16381000  0.62182000  1.0
  N  N142  1  0.12064000  0.96835000  0.47057000  1.0
  N  N143  1  0.01006000  0.01015000  0.64357000  1.0
  N  N144  1  0.94665000  0.93852000  0.61860000  1.0
  N  N145  1  0.15834000  0.04727000  0.48906000  1.0
  N  N146  1  0.11272000  0.17212000  0.66090000  1.0
  N  N147  1  0.97446000  0.82010000  0.43205000  1.0
  N  N148  1  0.47592000  0.57850000  0.96414000  1.0
  O  O149  1  0.56616000  0.92296000  0.29570000  1.0
  O  O150  1  0.43998000  0.80367000  0.25493000  1.0
  O  O151  1  0.43911000  0.92074000  0.24383000  1.0
  O  O152  1  0.29549000  0.54615000  0.97910000  1.0
  O  O153  1  0.25212000  0.41396000  0.97451000  1.0
  O  O154  1  0.38816000  0.52042000  0.05786000  1.0
  O  O155  1  0.19793000  0.35313000  0.56442000  1.0
  O  O156  1  0.16717000  0.21522000  0.48480000  1.0
  O  O157  1  0.10851000  0.28099000  0.43041000  1.0
  F  F158  1  0.14271000  0.86190000  0.42586000  1.0
  F  F159  1  0.00637000  0.72539000  0.37793000  1.0
  F  F160  1  0.61089000  0.11496000  0.55927000  1.0
  F  F161  1  0.38620000  0.86363000  0.40205000  1.0
  F  F162  1  0.37576000  0.37234000  0.72940000  1.0
  F  F163  1  0.06338000  0.82041000  0.86357000  1.0
