# generated using pymatgen
data_CuH14C15(NO2)2
_symmetry_space_group_name_H-M   'P 1'
_cell_length_a   8.09550000
_cell_length_b   9.22849000
_cell_length_c   10.50290000
_cell_angle_alpha   111.74100000
_cell_angle_beta   93.34740000
_cell_angle_gamma   103.99900000
_symmetry_Int_Tables_number   1
_chemical_formula_structural   CuH14C15(NO2)2
_chemical_formula_sum   'Cu2 H28 C30 N4 O8'
_cell_volume   697.60260694
_cell_formula_units_Z   2
loop_
 _symmetry_equiv_pos_site_id
 _symmetry_equiv_pos_as_xyz
  1  'x, y, z'
loop_
 _atom_site_type_symbol
 _atom_site_label
 _atom_site_symmetry_multiplicity
 _atom_site_fract_x
 _atom_site_fract_y
 _atom_site_fract_z
 _atom_site_occupancy
  Cu  Cu0  1  0.64755000  0.97787000  0.64816000  1.0
  Cu  Cu1  1  0.35245000  0.02212000  0.35185000  1.0
  H  H2  1  0.86344000  0.94010000  0.42705000  1.0
  H  H3  1  0.13656000  0.05990000  0.57295000  1.0
  H  H4  1  0.87055000  0.73525000  0.20279000  1.0
  H  H5  1  0.12946000  0.26474000  0.79721000  1.0
  H  H6  1  0.83926000  0.56345000  0.00194000  1.0
  H  H7  1  0.16075000  0.43655000  0.99807000  1.0
  H  H8  1  0.83089000  0.32981000  0.78209000  1.0
  H  H9  1  0.16912000  0.67020000  0.21791000  1.0
  H  H10  1  0.45760000  0.01455000  0.88012000  1.0
  H  H11  1  0.54240000  0.98545000  0.11987000  1.0
  H  H12  1  0.44605000  0.22906000  0.10365000  1.0
  H  H13  1  0.55394000  0.77093000  0.89635000  1.0
  H  H14  1  0.43271000  0.40752000  0.27235000  1.0
  H  H15  1  0.56729000  0.59247000  0.72765000  1.0
  H  H16  1  0.44997000  0.63043000  0.49745000  1.0
  H  H17  1  0.55004000  0.36957000  0.50256000  1.0
  H  H18  1  0.88812000  0.41479000  0.48273000  1.0
  H  H19  1  0.11189000  0.58520000  0.51728000  1.0
  H  H20  1  0.00753000  0.27550000  0.46776000  1.0
  H  H21  1  0.99247000  0.72449000  0.53224000  1.0
  H  H22  1  0.00366000  0.36846000  0.26643000  1.0
  H  H23  1  0.99634000  0.63155000  0.73357000  1.0
  H  H24  1  0.77735000  0.27964000  0.22585000  1.0
  H  H25  1  0.22264000  0.72038000  0.77417000  1.0
  H  H26  1  0.82386000  0.00469000  0.18070000  1.0
  H  H27  1  0.17612000  0.99532000  0.81928000  1.0
  H  H28  1  0.91713000  0.09460000  0.06891000  1.0
  H  H29  1  0.08286000  0.90542000  0.93108000  1.0
  C  C30  1  0.76878000  0.82132000  0.38860000  1.0
  C  C31  1  0.23122000  0.17867000  0.61140000  1.0
  C  C32  1  0.77067000  0.70270000  0.26041000  1.0
  C  C33  1  0.22933000  0.29729000  0.73958000  1.0
  C  C34  1  0.64879000  0.54918000  0.21193000  1.0
  C  C35  1  0.35122000  0.45080000  0.78806000  1.0
  C  C36  1  0.64551000  0.41843000  0.07647000  1.0
  C  C37  1  0.35449000  0.58158000  0.92354000  1.0
  C  C38  1  0.75330000  0.44391000  0.98200000  1.0
  C  C39  1  0.24669000  0.55609000  0.01801000  1.0
  C  C40  1  0.75072000  0.31510000  0.85877000  1.0
  C  C41  1  0.24928000  0.68490000  0.14122000  1.0
  C  C42  1  0.54075000  0.13815000  0.91328000  1.0
  C  C43  1  0.45925000  0.86184000  0.08671000  1.0
  C  C44  1  0.53587000  0.26026000  0.03814000  1.0
  C  C45  1  0.46414000  0.73974000  0.96185000  1.0
  C  C46  1  0.53148000  0.52304000  0.30034000  1.0
  C  C47  1  0.46852000  0.47696000  0.69965000  1.0
  C  C48  1  0.53840000  0.64791000  0.42691000  1.0
  C  C49  1  0.46161000  0.35210000  0.57309000  1.0
  C  C50  1  0.73471000  0.18119000  0.44559000  1.0
  C  C51  1  0.26530000  0.81880000  0.55442000  1.0
  C  C52  1  0.89173000  0.29025000  0.41983000  1.0
  C  C53  1  0.10827000  0.70975000  0.58018000  1.0
  C  C54  1  0.89822000  0.26927000  0.26945000  1.0
  C  C55  1  0.10178000  0.73074000  0.73055000  1.0
  C  C56  1  0.92486000  0.10593000  0.17717000  1.0
  C  C57  1  0.07514000  0.89406000  0.82282000  1.0
  C  C58  1  0.10139000  0.09527000  0.22389000  1.0
  C  C59  1  0.89860000  0.90473000  0.77610000  1.0
  N  N60  1  0.65277000  0.79612000  0.47047000  1.0
  N  N61  1  0.34723000  0.20388000  0.52953000  1.0
  N  N62  1  0.64607000  0.16402000  0.82468000  1.0
  N  N63  1  0.35393000  0.83599000  0.17532000  1.0
  O  O64  1  0.74453000  0.16704000  0.56007000  1.0
  O  O65  1  0.25550000  0.83295000  0.43994000  1.0
  O  O66  1  0.60141000  0.11889000  0.34997000  1.0
  O  O67  1  0.39859000  0.88111000  0.65004000  1.0
  O  O68  1  0.10189000  0.99527000  0.28377000  1.0
  O  O69  1  0.89810000  0.00474000  0.71623000  1.0
  O  O70  1  0.23521000  0.18437000  0.20732000  1.0
  O  O71  1  0.76477000  0.81562000  0.79266000  1.0
