# generated using pymatgen
data_BaP3H15C6O13
_symmetry_space_group_name_H-M   'P 1'
_cell_length_a   7.25231000
_cell_length_b   11.13800000
_cell_length_c   11.18120000
_cell_angle_alpha   65.67880000
_cell_angle_beta   73.35660000
_cell_angle_gamma   73.21030000
_symmetry_Int_Tables_number   1
_chemical_formula_structural   BaP3H15C6O13
_chemical_formula_sum   'Ba2 P6 H30 C12 O26'
_cell_volume   773.28523407
_cell_formula_units_Z   2
loop_
 _symmetry_equiv_pos_site_id
 _symmetry_equiv_pos_as_xyz
  1  'x, y, z'
loop_
 _atom_site_type_symbol
 _atom_site_label
 _atom_site_symmetry_multiplicity
 _atom_site_fract_x
 _atom_site_fract_y
 _atom_site_fract_z
 _atom_site_occupancy
  Ba  Ba0  1  0.85435000  0.14167000  0.23128000  1.0
  Ba  Ba1  1  0.14564000  0.85834000  0.76872000  1.0
  P  P2  1  0.40922000  0.47004000  0.20616000  1.0
  P  P3  1  0.59079000  0.52996000  0.79384000  1.0
  P  P4  1  0.02089000  0.78163000  0.51610000  1.0
  P  P5  1  0.97911000  0.21837000  0.48391000  1.0
  P  P6  1  0.34963000  0.23618000  0.75181000  1.0
  P  P7  1  0.65036000  0.76382000  0.24819000  1.0
  H  H8  1  0.18615000  0.35706000  0.23276000  1.0
  H  H9  1  0.81385000  0.64293000  0.76725000  1.0
  H  H10  1  0.16078000  0.68986000  0.29377000  1.0
  H  H11  1  0.83923000  0.31014000  0.70623000  1.0
  H  H12  1  0.52414000  0.65839000  0.11354000  1.0
  H  H13  1  0.47586000  0.34162000  0.88646000  1.0
  H  H14  1  0.15443000  0.51939000  0.71775000  1.0
  H  H15  1  0.84557000  0.48060000  0.28225000  1.0
  H  H16  1  0.30214000  0.85063000  0.42129000  1.0
  H  H17  1  0.69785000  0.14937000  0.57871000  1.0
  H  H18  1  0.45605000  0.28294000  0.46958000  1.0
  H  H19  1  0.54396000  0.71706000  0.53042000  1.0
  H  H20  1  0.13104000  0.16500000  0.70746000  1.0
  H  H21  1  0.86896000  0.83500000  0.29254000  1.0
  H  H22  1  0.78056000  0.05807000  0.97828000  1.0
  H  H23  1  0.21945000  0.94193000  0.02172000  1.0
  H  H24  1  0.72854000  0.21193000  0.96109000  1.0
  H  H25  1  0.27147000  0.78808000  0.03892000  1.0
  H  H26  1  0.48354000  0.00056000  0.31754000  1.0
  H  H27  1  0.51646000  0.99945000  0.68246000  1.0
  H  H28  1  0.35480000  0.13138000  0.34107000  1.0
  H  H29  1  0.64519000  0.86863000  0.65892000  1.0
  H  H30  1  0.90986000  0.43046000  0.97262000  1.0
  H  H31  1  0.09014000  0.56954000  0.02737000  1.0
  H  H32  1  0.11486000  0.33310000  0.96053000  1.0
  H  H33  1  0.88514000  0.66690000  0.03947000  1.0
  H  H34  1  0.30358000  0.11574000  0.03587000  1.0
  H  H35  1  0.69642000  0.88426000  0.96413000  1.0
  H  H36  1  0.33679000  0.98236000  0.16453000  1.0
  H  H37  1  0.66321000  0.01764000  0.83547000  1.0
  C  C38  1  0.31639000  0.48510000  0.36819000  1.0
  C  C39  1  0.68362000  0.51491000  0.63180000  1.0
  C  C40  1  0.20165000  0.60521000  0.38169000  1.0
  C  C41  1  0.79835000  0.39480000  0.61830000  1.0
  C  C42  1  0.14361000  0.61835000  0.50715000  1.0
  C  C43  1  0.85638000  0.38166000  0.49285000  1.0
  C  C44  1  0.19692000  0.50899000  0.62025000  1.0
  C  C45  1  0.80308000  0.49100000  0.37975000  1.0
  C  C46  1  0.30645000  0.38694000  0.60779000  1.0
  C  C47  1  0.69354000  0.61306000  0.39221000  1.0
  C  C48  1  0.36761000  0.37619000  0.48126000  1.0
  C  C49  1  0.63240000  0.62381000  0.51874000  1.0
  O  O50  1  0.59728000  0.37002000  0.20977000  1.0
  O  O51  1  0.40273000  0.62998000  0.79023000  1.0
  O  O52  1  0.24039000  0.44012000  0.16514000  1.0
  O  O53  1  0.75960000  0.55989000  0.83487000  1.0
  O  O54  1  0.42275000  0.61613000  0.10198000  1.0
  O  O55  1  0.57725000  0.38387000  0.89802000  1.0
  O  O56  1  0.92012000  0.86413000  0.39744000  1.0
  O  O57  1  0.07988000  0.13588000  0.60256000  1.0
  O  O58  1  0.19591000  0.84993000  0.50396000  1.0
  O  O59  1  0.80409000  0.15007000  0.49605000  1.0
  O  O60  1  0.89793000  0.76888000  0.65519000  1.0
  O  O61  1  0.10207000  0.23112000  0.34481000  1.0
  O  O62  1  0.34444000  0.26844000  0.87334000  1.0
  O  O63  1  0.65556000  0.73156000  0.12666000  1.0
  O  O64  1  0.16434000  0.17160000  0.78794000  1.0
  O  O65  1  0.83565000  0.82839000  0.21206000  1.0
  O  O66  1  0.53861000  0.14395000  0.71154000  1.0
  O  O67  1  0.46139000  0.85604000  0.28847000  1.0
  O  O68  1  0.76878000  0.12098000  0.02295000  1.0
  O  O69  1  0.23122000  0.87902000  0.97705000  1.0
  O  O70  1  0.49064000  0.08066000  0.33136000  1.0
  O  O71  1  0.50935000  0.91934000  0.66863000  1.0
  O  O72  1  0.99492000  0.35174000  0.02453000  1.0
  O  O73  1  0.00508000  0.64826000  0.97547000  1.0
  O  O74  1  0.23969000  0.04395000  0.10785000  1.0
  O  O75  1  0.76031000  0.95604000  0.89214000  1.0
