# generated using pymatgen
data_CdH11C8N5Cl2O3
_symmetry_space_group_name_H-M   'P 1'
_cell_length_a   7.24581000
_cell_length_b   8.14907000
_cell_length_c   12.12280757
_cell_angle_alpha   91.39172566
_cell_angle_beta   107.02373786
_cell_angle_gamma   99.97640000
_symmetry_Int_Tables_number   1
_chemical_formula_structural   CdH11C8N5Cl2O3
_chemical_formula_sum   'Cd2 H22 C16 N10 Cl4 O6'
_cell_volume   671.95541948
_cell_formula_units_Z   2
loop_
 _symmetry_equiv_pos_site_id
 _symmetry_equiv_pos_as_xyz
  1  'x, y, z'
loop_
 _atom_site_type_symbol
 _atom_site_label
 _atom_site_symmetry_multiplicity
 _atom_site_fract_x
 _atom_site_fract_y
 _atom_site_fract_z
 _atom_site_occupancy
  Cd  Cd0  1  0.21726000  0.97631000  0.93535000  1.0
  Cd  Cd1  1  0.78273000  0.02370000  0.06465000  1.0
  H  H2  1  0.19100000  0.81745000  0.43275000  1.0
  H  H3  1  0.80899000  0.18255000  0.56724000  1.0
  H  H4  1  0.32585000  0.18226000  0.30193000  1.0
  H  H5  1  0.67415000  0.81774000  0.69806000  1.0
  H  H6  1  0.24014000  0.97088000  0.27355000  1.0
  H  H7  1  0.75985000  0.02913000  0.72644000  1.0
  H  H8  1  0.33570000  0.35482000  0.86384000  1.0
  H  H9  1  0.66429000  0.64518000  0.13616000  1.0
  H  H10  1  0.38255000  0.54111000  0.58935000  1.0
  H  H11  1  0.61745000  0.45888000  0.41067000  1.0
  H  H12  1  0.39677000  0.59344000  0.73779000  1.0
  H  H13  1  0.60322000  0.40653000  0.26221000  1.0
  H  H14  1  0.72996000  0.40921000  0.84925000  1.0
  H  H15  1  0.27004000  0.59080000  0.15075000  1.0
  H  H16  1  0.71529000  0.62328000  0.87845000  1.0
  H  H17  1  0.28470000  0.37673000  0.12155000  1.0
  H  H18  1  0.06153000  0.57718000  0.92164000  1.0
  H  H19  1  0.93846000  0.42283000  0.07835000  1.0
  H  H20  1  0.01274000  0.50416000  0.77413000  1.0
  H  H21  1  0.98726000  0.49585000  0.22588000  1.0
  H  H22  1  0.05807000  0.75881000  0.73142000  1.0
  H  H23  1  0.94193000  0.24119000  0.26858000  1.0
  C  C24  1  0.29787000  0.07314000  0.44193000  1.0
  C  C25  1  0.70213000  0.92686000  0.55807000  1.0
  C  C26  1  0.32739000  0.20807000  0.61015000  1.0
  C  C27  1  0.67261000  0.79194000  0.38984000  1.0
  C  C28  1  0.25648000  0.06678000  0.66031000  1.0
  C  C29  1  0.74352000  0.93321000  0.33968000  1.0
  C  C30  1  0.20048000  0.91020000  0.59348000  1.0
  C  C31  1  0.79952000  0.08979000  0.40651000  1.0
  C  C32  1  0.31744000  0.27731000  0.78585000  1.0
  C  C33  1  0.68256000  0.72269000  0.21415000  1.0
  C  C34  1  0.44320000  0.51483000  0.67965000  1.0
  C  C35  1  0.55680000  0.48516000  0.32036000  1.0
  C  C36  1  0.75789000  0.53733000  0.82276000  1.0
  C  C37  1  0.24213000  0.46268000  0.17725000  1.0
  C  C38  1  0.97276000  0.58784000  0.83234000  1.0
  C  C39  1  0.02724000  0.41216000  0.16766000  1.0
  N  N40  1  0.22645000  0.92667000  0.48344000  1.0
  N  N41  1  0.77354000  0.07331000  0.51656000  1.0
  N  N42  1  0.31499000  0.06771000  0.33438000  1.0
  N  N43  1  0.68501000  0.93229000  0.66562000  1.0
  N  N44  1  0.35420000  0.21815000  0.50585000  1.0
  N  N45  1  0.64581000  0.78185000  0.49415000  1.0
  N  N46  1  0.25305000  0.11377000  0.77052000  1.0
  N  N47  1  0.74695000  0.88622000  0.22948000  1.0
  N  N48  1  0.36365000  0.34104000  0.69132000  1.0
  N  N49  1  0.63636000  0.65896000  0.30868000  1.0
  Cl  Cl50  1  0.92426000  0.15836000  0.90691000  1.0
  Cl  Cl51  1  0.07574000  0.84165000  0.09309000  1.0
  Cl  Cl52  1  0.50677000  0.20262000  0.06463000  1.0
  Cl  Cl53  1  0.49322000  0.79738000  0.93537000  1.0
  O  O54  1  0.13166000  0.76873000  0.61802000  1.0
  O  O55  1  0.86832000  0.23125000  0.38198000  1.0
  O  O56  1  0.64889000  0.54587000  0.70314000  1.0
  O  O57  1  0.35112000  0.45413000  0.29686000  1.0
  O  O58  1  0.01321000  0.75699000  0.80274000  1.0
  O  O59  1  0.98679000  0.24302000  0.19726000  1.0
