# generated using pymatgen
data_CuH12C14(SN5)2
_symmetry_space_group_name_H-M   'P 1'
_cell_length_a   8.19814000
_cell_length_b   8.91052000
_cell_length_c   12.15265399
_cell_angle_alpha   90.00023778
_cell_angle_beta   108.12902503
_cell_angle_gamma   90.00010000
_symmetry_Int_Tables_number   1
_chemical_formula_structural   CuH12C14(SN5)2
_chemical_formula_sum   'Cu2 H24 C28 S4 N20'
_cell_volume   843.67824619
_cell_formula_units_Z   2
loop_
 _symmetry_equiv_pos_site_id
 _symmetry_equiv_pos_as_xyz
  1  'x, y, z'
loop_
 _atom_site_type_symbol
 _atom_site_label
 _atom_site_symmetry_multiplicity
 _atom_site_fract_x
 _atom_site_fract_y
 _atom_site_fract_z
 _atom_site_occupancy
  Cu  Cu0  1  0.00000000  0.00000000  0.00000000  1.0
  Cu  Cu1  1  0.50000000  0.50000000  0.00000000  1.0
  H  H2  1  0.75797000  0.21793000  0.08520000  1.0
  H  H3  1  0.74203000  0.71793000  0.91480000  1.0
  H  H4  1  0.24203000  0.78208000  0.91480000  1.0
  H  H5  1  0.25797000  0.28207000  0.08520000  1.0
  H  H6  1  0.23458000  0.92866000  0.62239000  1.0
  H  H7  1  0.26540000  0.42867000  0.37761000  1.0
  H  H8  1  0.76541000  0.07133000  0.37761000  1.0
  H  H9  1  0.73461000  0.57134000  0.62240000  1.0
  H  H10  1  0.50769000  0.86320000  0.78030000  1.0
  H  H11  1  0.99231000  0.36320000  0.21970000  1.0
  H  H12  1  0.49232000  0.13680000  0.21970000  1.0
  H  H13  1  0.00770000  0.63680000  0.78031000  1.0
  H  H14  1  0.02786000  0.31311000  0.60935000  1.0
  H  H15  1  0.47214000  0.81310000  0.39065000  1.0
  H  H16  1  0.97213000  0.68689000  0.39065000  1.0
  H  H17  1  0.52786000  0.18690000  0.60935000  1.0
  H  H18  1  0.94632000  0.12573000  0.60769000  1.0
  H  H19  1  0.55367000  0.62572000  0.39230000  1.0
  H  H20  1  0.05367000  0.87426000  0.39231000  1.0
  H  H21  1  0.44633000  0.37428000  0.60770000  1.0
  H  H22  1  0.07059000  0.17284000  0.51656000  1.0
  H  H23  1  0.42940000  0.67283000  0.48344000  1.0
  H  H24  1  0.92940000  0.82716000  0.48344000  1.0
  H  H25  1  0.57060000  0.32717000  0.51656000  1.0
  C  C26  1  0.13269000  0.08427000  0.24965000  1.0
  C  C27  1  0.36731000  0.58427000  0.75035000  1.0
  C  C28  1  0.86732000  0.91573000  0.75036000  1.0
  C  C29  1  0.63266000  0.41573000  0.24963000  1.0
  C  C30  1  0.65588000  0.19122000  0.00639000  1.0
  C  C31  1  0.84413000  0.69122000  0.99361000  1.0
  C  C32  1  0.34412000  0.80878000  0.99360000  1.0
  C  C33  1  0.15589000  0.30878000  0.00640000  1.0
  C  C34  1  0.42915000  0.20991000  0.85923000  1.0
  C  C35  1  0.07085000  0.70991000  0.14077000  1.0
  C  C36  1  0.57084000  0.79009000  0.14076000  1.0
  C  C37  1  0.92916000  0.29009000  0.85924000  1.0
  C  C38  1  0.21534000  0.15053000  0.69483000  1.0
  C  C39  1  0.28466000  0.65053000  0.30518000  1.0
  C  C40  1  0.78465000  0.84947000  0.30517000  1.0
  C  C41  1  0.71535000  0.34948000  0.69483000  1.0
  C  C42  1  0.29221000  0.00830000  0.69131000  1.0
  C  C43  1  0.20778000  0.50830000  0.30869000  1.0
  C  C44  1  0.70779000  0.99170000  0.30869000  1.0
  C  C45  1  0.79223000  0.49170000  0.69132000  1.0
  C  C46  1  0.44066000  0.96923000  0.77582000  1.0
  C  C47  1  0.05934000  0.46923000  0.22418000  1.0
  C  C48  1  0.55934000  0.03077000  0.22418000  1.0
  C  C49  1  0.94068000  0.53077000  0.77583000  1.0
  C  C50  1  0.05551000  0.19403000  0.60209000  1.0
  C  C51  1  0.44449000  0.69402000  0.39791000  1.0
  C  C52  1  0.94449000  0.80597000  0.39791000  1.0
  C  C53  1  0.55551000  0.30598000  0.60209000  1.0
  S  S54  1  0.27286000  0.10747000  0.37479000  1.0
  S  S55  1  0.22713000  0.60747000  0.62521000  1.0
  S  S56  1  0.72714000  0.89253000  0.62521000  1.0
  S  S57  1  0.77286000  0.39252000  0.37478000  1.0
  N  N58  1  0.02434000  0.07033000  0.15803000  1.0
  N  N59  1  0.47564000  0.57033000  0.84196000  1.0
  N  N60  1  0.97566000  0.92967000  0.84197000  1.0
  N  N61  1  0.52434000  0.42967000  0.15803000  1.0
  N  N62  1  0.65191000  0.05943000  0.95365000  1.0
  N  N63  1  0.84808000  0.55943000  0.04634000  1.0
  N  N64  1  0.34808000  0.94057000  0.04634000  1.0
  N  N65  1  0.15193000  0.44057000  0.95366000  1.0
  N  N66  1  0.52582000  0.28624000  0.95333000  1.0
  N  N67  1  0.97418000  0.78624000  0.04667000  1.0
  N  N68  1  0.47419000  0.71376000  0.04667000  1.0
  N  N69  1  0.02582000  0.21376000  0.95333000  1.0
  N  N70  1  0.28396000  0.24967000  0.77917000  1.0
  N  N71  1  0.21604000  0.74967000  0.22083000  1.0
  N  N72  1  0.71604000  0.75033000  0.22083000  1.0
  N  N73  1  0.78396000  0.25034000  0.77917000  1.0
  N  N74  1  0.50830000  0.07201000  0.86004000  1.0
  N  N75  1  0.99170000  0.57201000  0.13996000  1.0
  N  N76  1  0.49170000  0.92799000  0.13996000  1.0
  N  N77  1  0.00830000  0.42799000  0.86004000  1.0
