# generated using pymatgen
data_Zn4C24S4N4O21F4
_symmetry_space_group_name_H-M   'P 1'
_cell_length_a   19.55920000
_cell_length_b   19.59730000
_cell_length_c   33.27210000
_cell_angle_alpha   78.96640000
_cell_angle_beta   79.07320000
_cell_angle_gamma   63.85400000
_symmetry_Int_Tables_number   1
_chemical_formula_structural   Zn4C24S4N4O21F4
_chemical_formula_sum   'Zn16 C96 S16 N16 O84 F16'
_cell_volume   11156.40131684
_cell_formula_units_Z   4
loop_
 _symmetry_equiv_pos_site_id
 _symmetry_equiv_pos_as_xyz
  1  'x, y, z'
loop_
 _atom_site_type_symbol
 _atom_site_label
 _atom_site_symmetry_multiplicity
 _atom_site_fract_x
 _atom_site_fract_y
 _atom_site_fract_z
 _atom_site_occupancy
  Zn  Zn0  1  0.59871000  0.94253000  0.52345000  1.0
  Zn  Zn1  1  0.51511000  0.01622000  0.44015000  1.0
  Zn  Zn2  1  0.43933000  0.93895000  0.51793000  1.0
  Zn  Zn3  1  0.44737000  0.09949000  0.52127000  1.0
  Zn  Zn4  1  0.64973000  0.30429000  0.72977000  1.0
  Zn  Zn5  1  0.81361000  0.30672000  0.73501000  1.0
  Zn  Zn6  1  0.73232000  0.23214000  0.81120000  1.0
  Zn  Zn7  1  0.80505000  0.15114000  0.72774000  1.0
  Zn  Zn8  1  0.23325000  0.73414000  0.31137000  1.0
  Zn  Zn9  1  0.30581000  0.65042000  0.22890000  1.0
  Zn  Zn10  1  0.15003000  0.80405000  0.22978000  1.0
  Zn  Zn11  1  0.31375000  0.80712000  0.23506000  1.0
  Zn  Zn12  1  0.93944000  0.43870000  0.01778000  1.0
  Zn  Zn13  1  0.94657000  0.59889000  0.02235000  1.0
  Zn  Zn14  1  0.09850000  0.44263000  0.02322000  1.0
  Zn  Zn15  1  0.01203000  0.51824000  0.94017000  1.0
  C  C16  1  0.68095000  0.93599000  0.44055000  1.0
  C  C17  1  0.42906000  0.93182000  0.43329000  1.0
  C  C18  1  0.56024000  0.81631000  0.56256000  1.0
  C  C19  1  0.31922000  0.06190000  0.56102000  1.0
  C  C20  1  0.57119000  0.06765000  0.56826000  1.0
  C  C21  1  0.44141000  0.18162000  0.43922000  1.0
  C  C22  1  0.69076000  0.43007000  0.69131000  1.0
  C  C23  1  0.81829000  0.31532000  0.82050000  1.0
  C  C24  1  0.56593000  0.30945000  0.81168000  1.0
  C  C25  1  0.80917000  0.06756000  0.81035000  1.0
  C  C26  1  0.68139000  0.18324000  0.68102000  1.0
  C  C27  1  0.93360000  0.18784000  0.69031000  1.0
  C  C28  1  0.31179000  0.56854000  0.31139000  1.0
  C  C29  1  0.18247000  0.68131000  0.18161000  1.0
  C  C30  1  0.06725000  0.80820000  0.31193000  1.0
  C  C31  1  0.19046000  0.93037000  0.19154000  1.0
  C  C32  1  0.31829000  0.81820000  0.31990000  1.0
  C  C33  1  0.43338000  0.68858000  0.19004000  1.0
  C  C34  1  0.81947000  0.56056000  0.06157000  1.0
  C  C35  1  0.07143000  0.56773000  0.06800000  1.0
  C  C36  1  0.06074000  0.31612000  0.06227000  1.0
  C  C37  1  0.17879000  0.43838000  0.93965000  1.0
  C  C38  1  0.92815000  0.43131000  0.93325000  1.0
  C  C39  1  0.93747000  0.68215000  0.93968000  1.0
  C  C40  1  0.59933000  0.09704000  0.59710000  1.0
  C  C41  1  0.65328000  0.15386000  0.65217000  1.0
  C  C42  1  0.55515000  0.16915000  0.61095000  1.0
  C  C43  1  0.69738000  0.08160000  0.63847000  1.0
  C  C44  1  0.58151000  0.19680000  0.63756000  1.0
  C  C45  1  0.67120000  0.05417000  0.61163000  1.0
  C  C46  1  0.40065000  0.90283000  0.40439000  1.0
  C  C47  1  0.34623000  0.84747000  0.34885000  1.0
  C  C48  1  0.35756000  0.85961000  0.41887000  1.0
  C  C49  1  0.38912000  0.89087000  0.33438000  1.0
  C  C50  1  0.33126000  0.83257000  0.39189000  1.0
  C  C51  1  0.41579000  0.91757000  0.36133000  1.0
  C  C52  1  0.54732000  0.69103000  0.59912000  1.0
  C  C53  1  0.70811000  0.55028000  0.64994000  1.0
  C  C54  1  0.58539000  0.73836000  0.58564000  1.0
  C  C55  1  0.66929000  0.50379000  0.66403000  1.0
  C  C56  1  0.66247000  0.62028000  0.62785000  1.0
  C  C57  1  0.59057000  0.62407000  0.62414000  1.0
  C  C58  1  0.42230000  0.27447000  0.37021000  1.0
  C  C59  1  0.32271000  0.47579000  0.38009000  1.0
  C  C60  1  0.41369000  0.25628000  0.41288000  1.0
  C  C61  1  0.33255000  0.49370000  0.33746000  1.0
  C  C62  1  0.35853000  0.39595000  0.39234000  1.0
  C  C63  1  0.39230000  0.35452000  0.35835000  1.0
  C  C64  1  0.77321000  0.92596000  0.37180000  1.0
  C  C65  1  0.97515000  0.82680000  0.38116000  1.0
  C  C66  1  0.75577000  0.91566000  0.41444000  1.0
  C  C67  1  0.99276000  0.83571000  0.33846000  1.0
  C  C68  1  0.89509000  0.85651000  0.39325000  1.0
  C  C69  1  0.85306000  0.89043000  0.35940000  1.0
  C  C70  1  0.19765000  0.15934000  0.60098000  1.0
  C  C71  1  0.05081000  0.09454000  0.64577000  1.0
  C  C72  1  0.24169000  0.09063000  0.58450000  1.0
  C  C73  1  0.00721000  0.16265000  0.66295000  1.0
  C  C74  1  0.12184000  0.09184000  0.62480000  1.0
  C  C75  1  0.12956000  0.15966000  0.62500000  1.0
  C  C76  1  0.84607000  0.34500000  0.84937000  1.0
  C  C77  1  0.90005000  0.40166000  0.90453000  1.0
  C  C78  1  0.83123000  0.33050000  0.89244000  1.0
  C  C79  1  0.91505000  0.41600000  0.86145000  1.0
  C  C80  1  0.85729000  0.35819000  0.91922000  1.0
  C  C81  1  0.88861000  0.38871000  0.83469000  1.0
  C  C82  1  0.47314000  0.32878000  0.88065000  1.0
  C  C83  1  0.27140000  0.42851000  0.87082000  1.0
  C  C84  1  0.49119000  0.33772000  0.83799000  1.0
  C  C85  1  0.25361000  0.41810000  0.91343000  1.0
  C  C86  1  0.35135000  0.39287000  0.85858000  1.0
  C  C87  1  0.39302000  0.35871000  0.89256000  1.0
  C  C88  1  0.87907000  0.91815000  0.82220000  1.0
  C  C89  1  0.87618000  0.83198000  0.92785000  1.0
  C  C90  1  0.83905000  0.99093000  0.83464000  1.0
  C  C91  1  0.91502000  0.75897000  0.91553000  1.0
  C  C92  1  0.85999000  0.88988000  0.89377000  1.0
  C  C93  1  0.88969000  0.85977000  0.85600000  1.0
  C  C94  1  0.15437000  0.65256000  0.15237000  1.0
  C  C95  1  0.10008000  0.59698000  0.09668000  1.0
  C  C96  1  0.08230000  0.69559000  0.13800000  1.0
  C  C97  1  0.17232000  0.55418000  0.11080000  1.0
  C  C98  1  0.05576000  0.66858000  0.11111000  1.0
  C  C99  1  0.19862000  0.58091000  0.13794000  1.0
  C  C100  1  0.54995000  0.59522000  0.14528000  1.0
  C  C101  1  0.69767000  0.65882000  0.10072000  1.0
  C  C102  1  0.50654000  0.66353000  0.16231000  1.0
  C  C103  1  0.74165000  0.58979000  0.08459000  1.0
  C  C104  1  0.62915000  0.65976000  0.12445000  1.0
  C  C105  1  0.62114000  0.59206000  0.12438000  1.0
  C  C106  1  0.20811000  0.05040000  0.15003000  1.0
  C  C107  1  0.04754000  0.19113000  0.09904000  1.0
  C  C108  1  0.16912000  0.00408000  0.16422000  1.0
  C  C109  1  0.08580000  0.23828000  0.08545000  1.0
  C  C110  1  0.09060000  0.12426000  0.12418000  1.0
  C  C111  1  0.16257000  0.12034000  0.12785000  1.0
  S  S112  1  0.67500000  0.69978000  0.60274000  1.0
  S  S113  1  0.57765000  0.54483000  0.64927000  1.0
  S  S114  1  0.36700000  0.33728000  0.43835000  1.0
  S  S115  1  0.38376000  0.41276000  0.31226000  1.0
  S  S116  1  0.83727000  0.86445000  0.43943000  1.0
  S  S117  1  0.91113000  0.88225000  0.31326000  1.0
  S  S118  1  0.19884000  0.02713000  0.59746000  1.0
  S  S119  1  0.05233000  0.22418000  0.65241000  1.0
  S  S120  1  0.40988000  0.38465000  0.81258000  1.0
  S  S121  1  0.33483000  0.36659000  0.93861000  1.0
  S  S122  1  0.81622000  0.98806000  0.88778000  1.0
  S  S123  1  0.93346000  0.76149000  0.86226000  1.0
  S  S124  1  0.55200000  0.72471000  0.15166000  1.0
  S  S125  1  0.69822000  0.52679000  0.09742000  1.0
  S  S126  1  0.07752000  0.04519000  0.14943000  1.0
  S  S127  1  0.17538000  0.19961000  0.10260000  1.0
  N  N128  1  0.47448000  0.70072000  0.58834000  1.0
  N  N129  1  0.78758000  0.53249000  0.65330000  1.0
  N  N130  1  0.45148000  0.22292000  0.33854000  1.0
  N  N131  1  0.27725000  0.52779000  0.41076000  1.0
  N  N132  1  0.72096000  0.97174000  0.34115000  1.0
  N  N133  1  0.02725000  0.79746000  0.41269000  1.0
  N  N134  1  0.21186000  0.22797000  0.59382000  1.0
  N  N135  1  0.02950000  0.03244000  0.64457000  1.0
  N  N136  1  0.52521000  0.29858000  0.91218000  1.0
  N  N137  1  0.21937000  0.47398000  0.84005000  1.0
  N  N138  1  0.91336000  0.89839000  0.78077000  1.0
  N  N139  1  0.85722000  0.85360000  0.96948000  1.0
  N  N140  1  0.52840000  0.53325000  0.14445000  1.0
  N  N141  1  0.71224000  0.72728000  0.09343000  1.0
  N  N142  1  0.28765000  0.03263000  0.15323000  1.0
  N  N143  1  0.97472000  0.20086000  0.08822000  1.0
  O  O144  1  0.50038000  0.99903000  0.50088000  1.0
  O  O145  1  0.68334000  0.93531000  0.47883000  1.0
  O  O146  1  0.44517000  0.98873000  0.41877000  1.0
  O  O147  1  0.48894000  0.85619000  0.56120000  1.0
  O  O148  1  0.62286000  0.94954000  0.42338000  1.0
  O  O149  1  0.61447000  0.83678000  0.54709000  1.0
  O  O150  1  0.43462000  0.89725000  0.46989000  1.0
  O  O151  1  0.33603000  0.00391000  0.54253000  1.0
  O  O152  1  0.51968000  0.11760000  0.54678000  1.0
  O  O153  1  0.36198000  0.09466000  0.56226000  1.0
  O  O154  1  0.60112000  0.99545000  0.56763000  1.0
  O  O155  1  0.49498000  0.12441000  0.42352000  1.0
  O  O156  1  0.40904000  0.18310000  0.47652000  1.0
  O  O157  1  0.74965000  0.24952000  0.75072000  1.0
  O  O158  1  0.64987000  0.39413000  0.69091000  1.0
  O  O159  1  0.85409000  0.30895000  0.78424000  1.0
  O  O160  1  0.62274000  0.25503000  0.82740000  1.0
  O  O161  1  0.74462000  0.41076000  0.71304000  1.0
  O  O162  1  0.56487000  0.34208000  0.77443000  1.0
  O  O163  1  0.76139000  0.29893000  0.83466000  1.0
  O  O164  1  0.79158000  0.12350000  0.83066000  1.0
  O  O165  1  0.75360000  0.15398000  0.68193000  1.0
  O  O166  1  0.80146000  0.07132000  0.77285000  1.0
  O  O167  1  0.63080000  0.23481000  0.70217000  1.0
  O  O168  1  0.90037000  0.25978000  0.69326000  1.0
  O  O169  1  0.91128000  0.13712000  0.70909000  1.0
  O  O170  1  0.25002000  0.74959000  0.25060000  1.0
  O  O171  1  0.29923000  0.62636000  0.32837000  1.0
  O  O172  1  0.25439000  0.65008000  0.18372000  1.0
  O  O173  1  0.06539000  0.84058000  0.27461000  1.0
  O  O174  1  0.31108000  0.56646000  0.27324000  1.0
  O  O175  1  0.12470000  0.75464000  0.32758000  1.0
  O  O176  1  0.13203000  0.73441000  0.20185000  1.0
  O  O177  1  0.14957000  0.89445000  0.19111000  1.0
  O  O178  1  0.35456000  0.81095000  0.28376000  1.0
  O  O179  1  0.24426000  0.91111000  0.21328000  1.0
  O  O180  1  0.26066000  0.80291000  0.33386000  1.0
  O  O181  1  0.41184000  0.63758000  0.20926000  1.0
  O  O182  1  0.39993000  0.76052000  0.19288000  1.0
  O  O183  1  0.00017000  0.49917000  0.00068000  1.0
  O  O184  1  0.83611000  0.50330000  0.04251000  1.0
  O  O185  1  0.01926000  0.61766000  0.04689000  1.0
  O  O186  1  0.11490000  0.33666000  0.04672000  1.0
  O  O187  1  0.86269000  0.59232000  0.06372000  1.0
  O  O188  1  0.98942000  0.35596000  0.06090000  1.0
  O  O189  1  0.10152000  0.49554000  0.06721000  1.0
  O  O190  1  0.18196000  0.43630000  0.97798000  1.0
  O  O191  1  0.94348000  0.48864000  0.91859000  1.0
  O  O192  1  0.12031000  0.45325000  0.92252000  1.0
  O  O193  1  0.93430000  0.39683000  0.96984000  1.0
  O  O194  1  0.90478000  0.67735000  0.97621000  1.0
  O  O195  1  0.98716000  0.62677000  0.92024000  1.0
  O  O196  1  0.44157000  0.66546000  0.61347000  1.0
  O  O197  1  0.45207000  0.73882000  0.55558000  1.0
  O  O198  1  0.80117000  0.58932000  0.65223000  1.0
  O  O199  1  0.83544000  0.46523000  0.65508000  1.0
  O  O200  1  0.47446000  0.24972000  0.30435000  1.0
  O  O201  1  0.44846000  0.16021000  0.34639000  1.0
  O  O202  1  0.29758000  0.50508000  0.44603000  1.0
  O  O203  1  0.22153000  0.58709000  0.40083000  1.0
  O  O204  1  0.74364000  0.95186000  0.30582000  1.0
  O  O205  1  0.66165000  0.02729000  0.35109000  1.0
  O  O206  1  0.00095000  0.77395000  0.44689000  1.0
  O  O207  1  0.08986000  0.80088000  0.40473000  1.0
  O  O208  1  0.18272000  0.26991000  0.62192000  1.0
  O  O209  1  0.24753000  0.24168000  0.56090000  1.0
  O  O210  1  0.08481000  0.96960000  0.63913000  1.0
  O  O211  1  0.96123000  0.04584000  0.64688000  1.0
  O  O212  1  0.49901000  0.27449000  0.94624000  1.0
  O  O213  1  0.58812000  0.30149000  0.90435000  1.0
  O  O214  1  0.24212000  0.45374000  0.80480000  1.0
  O  O215  1  0.15999000  0.52966000  0.84982000  1.0
  O  O216  1  0.92149000  0.83444000  0.77441000  1.0
  O  O217  1  0.93457000  0.94283000  0.75608000  1.0
  O  O218  1  0.80374000  0.91823000  0.97324000  1.0
  O  O219  1  0.89578000  0.81045000  0.99687000  1.0
  O  O220  1  0.58349000  0.47010000  0.13928000  1.0
  O  O221  1  0.46002000  0.54674000  0.14691000  1.0
  O  O222  1  0.68247000  0.76979000  0.12126000  1.0
  O  O223  1  0.74871000  0.74024000  0.06066000  1.0
  O  O224  1  0.30141000  0.08956000  0.15153000  1.0
  O  O225  1  0.33542000  0.96533000  0.15545000  1.0
  O  O226  1  0.94153000  0.16598000  0.11343000  1.0
  O  O227  1  0.95258000  0.23859000  0.05532000  1.0
  F  F228  1  0.48488000  0.21423000  0.59975000  1.0
  F  F229  1  0.76602000  0.03511000  0.65119000  1.0
  F  F230  1  0.53546000  0.26725000  0.64804000  1.0
  F  F231  1  0.71861000  0.98514000  0.59975000  1.0
  F  F232  1  0.33866000  0.84352000  0.45937000  1.0
  F  F233  1  0.40520000  0.90976000  0.29383000  1.0
  F  F234  1  0.29221000  0.79037000  0.40893000  1.0
  F  F235  1  0.45776000  0.95685000  0.34420000  1.0
  F  F236  1  0.79247000  0.28811000  0.90974000  1.0
  F  F237  1  0.95682000  0.45546000  0.84406000  1.0
  F  F238  1  0.83848000  0.34247000  0.95976000  1.0
  F  F239  1  0.90462000  0.40742000  0.79410000  1.0
  F  F240  1  0.03583000  0.76548000  0.14908000  1.0
  F  F241  1  0.22004000  0.48574000  0.09823000  1.0
  F  F242  1  0.98526000  0.71355000  0.10034000  1.0
  F  F243  1  0.26772000  0.53425000  0.15012000  1.0
