# generated using pymatgen
data_Cd3H44C52(N2Cl)6
_symmetry_space_group_name_H-M   'P 1'
_cell_length_a   10.50450000
_cell_length_b   10.63300000
_cell_length_c   13.01600000
_cell_angle_alpha   89.12840000
_cell_angle_beta   74.45780000
_cell_angle_gamma   69.77290000
_symmetry_Int_Tables_number   1
_chemical_formula_structural   Cd3H44C52(N2Cl)6
_chemical_formula_sum   'Cd3 H44 C52 N12 Cl6'
_cell_volume   1309.44417041
_cell_formula_units_Z   1
loop_
 _symmetry_equiv_pos_site_id
 _symmetry_equiv_pos_as_xyz
  1  'x, y, z'
loop_
 _atom_site_type_symbol
 _atom_site_label
 _atom_site_symmetry_multiplicity
 _atom_site_fract_x
 _atom_site_fract_y
 _atom_site_fract_z
 _atom_site_occupancy
  Cd  Cd0  1  0.00000000  0.00000000  0.50000000  1.0
  Cd  Cd1  1  0.96847000  0.71546000  0.68457000  1.0
  Cd  Cd2  1  0.03153000  0.28454000  0.31543000  1.0
  H  H3  1  0.78766000  0.55508000  0.85680000  1.0
  H  H4  1  0.21234000  0.44492000  0.14320000  1.0
  H  H5  1  0.72337000  0.93739000  0.62476000  1.0
  H  H6  1  0.27662000  0.06261000  0.37524000  1.0
  H  H7  1  0.19757000  0.42982000  0.44965000  1.0
  H  H8  1  0.80243000  0.57017000  0.55035000  1.0
  H  H9  1  0.18382000  0.70902000  0.24958000  1.0
  H  H10  1  0.81618000  0.29098000  0.75042000  1.0
  H  H11  1  0.84173000  0.64803000  0.21930000  1.0
  H  H12  1  0.15826000  0.35197000  0.78070000  1.0
  H  H13  1  0.96757000  0.80406000  0.23664000  1.0
  H  H14  1  0.03243000  0.19594000  0.76336000  1.0
  H  H15  1  0.07611000  0.90150000  0.07929000  1.0
  H  H16  1  0.92390000  0.09850000  0.92071000  1.0
  H  H17  1  0.05086000  0.85844000  0.89771000  1.0
  H  H18  1  0.94914000  0.14156000  0.10229000  1.0
  H  H19  1  0.40059000  0.45506000  0.49341000  1.0
  H  H20  1  0.59941000  0.54494000  0.50659000  1.0
  H  H21  1  0.56628000  0.40692000  0.39128000  1.0
  H  H22  1  0.43372000  0.59307000  0.60872000  1.0
  H  H23  1  0.34449000  0.23401000  0.57987000  1.0
  H  H24  1  0.65551000  0.76599000  0.42013000  1.0
  H  H25  1  0.76014000  0.24678000  0.43641000  1.0
  H  H26  1  0.23986000  0.75322000  0.56359000  1.0
  H  H27  1  0.71279000  0.18868000  0.25596000  1.0
  H  H28  1  0.28721000  0.81132000  0.74403000  1.0
  H  H29  1  0.77435000  0.02538000  0.09894000  1.0
  H  H30  1  0.22565000  0.97462000  0.90106000  1.0
  H  H31  1  0.58983000  0.98314000  0.03771000  1.0
  H  H32  1  0.41017000  0.01686000  0.96228000  1.0
  H  H33  1  0.76678000  0.41610000  0.01987000  1.0
  H  H34  1  0.23322000  0.58390000  0.98013000  1.0
  H  H35  1  0.78860000  0.47447000  0.13831000  1.0
  H  H36  1  0.21140000  0.52553000  0.86169000  1.0
  H  H37  1  0.57847000  0.77606000  0.14103000  1.0
  H  H38  1  0.42153000  0.22394000  0.85897000  1.0
  H  H39  1  0.33270000  0.10263000  0.13028000  1.0
  H  H40  1  0.66730000  0.89737000  0.86972000  1.0
  H  H41  1  0.54513000  0.38855000  0.09866000  1.0
  H  H42  1  0.45487000  0.61145000  0.90134000  1.0
  H  H43  1  0.45896000  0.02791000  0.66563000  1.0
  H  H44  1  0.54104000  0.97209000  0.33437000  1.0
  H  H45  1  0.31502000  0.86706000  0.22408000  1.0
  H  H46  1  0.68498000  0.13294000  0.77592000  1.0
  C  C47  1  0.83020000  0.60573000  0.90428000  1.0
  C  C48  1  0.16980000  0.39427000  0.09572000  1.0
  C  C49  1  0.93001000  0.73073000  0.95788000  1.0
  C  C50  1  0.06999000  0.26928000  0.04212000  1.0
  C  C51  1  0.37928000  0.21578000  0.24326000  1.0
  C  C52  1  0.62072000  0.78422000  0.75674000  1.0
  C  C53  1  0.66864000  0.02867000  0.59224000  1.0
  C  C54  1  0.33135000  0.97133000  0.40776000  1.0
  C  C55  1  0.27566000  0.36044000  0.38340000  1.0
  C  C56  1  0.72434000  0.63956000  0.61660000  1.0
  C  C57  1  0.29690000  0.67320000  0.20942000  1.0
  C  C58  1  0.70310000  0.32680000  0.79058000  1.0
  C  C59  1  0.87240000  0.67177000  0.04877000  1.0
  C  C60  1  0.12760000  0.32823000  0.95123000  1.0
  C  C61  1  0.88453000  0.69555000  0.15036000  1.0
  C  C62  1  0.11546000  0.30445000  0.84964000  1.0
  C  C63  1  0.95772000  0.78031000  0.15856000  1.0
  C  C64  1  0.04227000  0.21969000  0.84144000  1.0
  C  C65  1  0.01830000  0.83734000  0.06849000  1.0
  C  C66  1  0.98170000  0.16266000  0.93151000  1.0
  C  C67  1  0.00497000  0.81422000  0.96742000  1.0
  C  C68  1  0.99503000  0.18578000  0.03258000  1.0
  C  C69  1  0.48343000  0.37173000  0.43853000  1.0
  C  C70  1  0.51657000  0.62827000  0.56147000  1.0
  C  C71  1  0.54464000  0.25469000  0.49955000  1.0
  C  C72  1  0.45536000  0.74531000  0.50046000  1.0
  C  C73  1  0.45892000  0.19328000  0.56625000  1.0
  C  C74  1  0.54107000  0.80672000  0.43375000  1.0
  C  C75  1  0.69010000  0.20009000  0.48573000  1.0
  C  C76  1  0.30990000  0.79991000  0.51427000  1.0
  C  C77  1  0.63058000  0.17185000  0.22803000  1.0
  C  C78  1  0.36942000  0.82815000  0.77197000  1.0
  C  C79  1  0.66397000  0.08100000  0.14042000  1.0
  C  C80  1  0.33603000  0.91900000  0.85958000  1.0
  C  C81  1  0.55790000  0.05679000  0.10555000  1.0
  C  C82  1  0.44210000  0.94322000  0.89445000  1.0
  C  C83  1  0.48687000  0.23824000  0.27817000  1.0
  C  C84  1  0.51314000  0.76176000  0.72183000  1.0
  C  C85  1  0.74106000  0.50672000  0.07206000  1.0
  C  C86  1  0.25894000  0.49328000  0.92794000  1.0
  C  C87  1  0.58329000  0.57322000  0.11648000  1.0
  C  C88  1  0.41671000  0.42678000  0.88352000  1.0
  C  C89  1  0.51707000  0.71012000  0.15044000  1.0
  C  C90  1  0.48293000  0.28988000  0.84956000  1.0
  C  C91  1  0.41474000  0.12283000  0.15600000  1.0
  C  C92  1  0.58527000  0.87717000  0.84399000  1.0
  C  C93  1  0.49793000  0.49495000  0.12813000  1.0
  C  C94  1  0.50207000  0.50505000  0.87187000  1.0
  C  C95  1  0.52195000  0.07881000  0.61356000  1.0
  C  C96  1  0.47805000  0.92119000  0.38645000  1.0
  C  C97  1  0.37148000  0.76106000  0.19684000  1.0
  C  C98  1  0.62852000  0.23894000  0.80316000  1.0
  N  N99  1  0.35800000  0.54217000  0.17433000  1.0
  N  N100  1  0.64200000  0.45783000  0.82567000  1.0
  N  N101  1  0.75111000  0.08897000  0.53058000  1.0
  N  N102  1  0.24889000  0.91103000  0.46942000  1.0
  N  N103  1  0.90104000  0.68725000  0.86921000  1.0
  N  N104  1  0.09896000  0.31276000  0.13079000  1.0
  N  N105  1  0.24852000  0.29404000  0.31120000  1.0
  N  N106  1  0.75148000  0.70596000  0.68880000  1.0
  N  N107  1  0.81055000  0.59259000  0.01114000  1.0
  N  N108  1  0.18945000  0.40741000  0.98886000  1.0
  N  N109  1  0.41664000  0.33111000  0.36675000  1.0
  N  N110  1  0.58336000  0.66889000  0.63325000  1.0
  Cl  Cl111  1  0.00069000  0.75145000  0.47528000  1.0
  Cl  Cl112  1  0.99931000  0.24855000  0.52472000  1.0
  Cl  Cl113  1  0.03211000  0.04614000  0.29015000  1.0
  Cl  Cl114  1  0.96789000  0.95386000  0.70986000  1.0
  Cl  Cl115  1  0.20399000  0.53442000  0.65916000  1.0
  Cl  Cl116  1  0.79602000  0.46558000  0.34084000  1.0
