# generated using pymatgen
data_ZnH9C15O4F
_symmetry_space_group_name_H-M   'P 1'
_cell_length_a   6.37901000
_cell_length_b   10.78930000
_cell_length_c   32.05761430
_cell_angle_alpha   90.56662888
_cell_angle_beta   95.04488559
_cell_angle_gamma   90.17920000
_symmetry_Int_Tables_number   1
_chemical_formula_structural   ZnH9C15O4F
_chemical_formula_sum   'Zn4 H36 C60 O16 F4'
_cell_volume   2197.69460530
_cell_formula_units_Z   4
loop_
 _symmetry_equiv_pos_site_id
 _symmetry_equiv_pos_as_xyz
  1  'x, y, z'
loop_
 _atom_site_type_symbol
 _atom_site_label
 _atom_site_symmetry_multiplicity
 _atom_site_fract_x
 _atom_site_fract_y
 _atom_site_fract_z
 _atom_site_occupancy
  Zn  Zn0  1  0.84901000  0.99843000  0.52179000  1.0
  Zn  Zn1  1  0.40283000  0.99406000  0.49591000  1.0
  Zn  Zn2  1  0.05981000  0.98366000  0.97843000  1.0
  Zn  Zn3  1  0.50540000  0.98353000  0.00406000  1.0
  H  H4  1  0.02545000  0.06594000  0.90576000  1.0
  H  H5  1  0.13636000  0.08278000  0.83506000  1.0
  H  H6  1  0.53597000  0.94108000  0.78354000  1.0
  H  H7  1  0.42306000  0.92119000  0.85543000  1.0
  H  H8  1  0.38380000  0.04645000  0.71598000  1.0
  H  H9  1  0.78031000  0.90428000  0.66639000  1.0
  H  H10  1  0.88695000  0.91840000  0.59512000  1.0
  H  H11  1  0.49232000  0.06317000  0.64365000  1.0
  H  H12  1  0.37244000  0.86809000  0.13939000  1.0
  H  H13  1  0.21428000  0.87044000  0.20763000  1.0
  H  H14  1  0.78953000  0.15845000  0.16236000  1.0
  H  H15  1  0.92899000  0.14426000  0.09324000  1.0
  H  H16  1  0.10647000  0.16366000  0.33830000  1.0
  H  H17  1  0.68898000  0.86890000  0.29167000  1.0
  H  H18  1  0.53123000  0.86579000  0.35974000  1.0
  H  H19  1  0.96905000  0.14780000  0.40731000  1.0
  H  H20  1  0.29405000  0.72657000  0.56190000  1.0
  H  H21  1  0.30098000  0.26411000  0.56222000  1.0
  H  H22  1  0.90917000  0.38079000  0.49183000  1.0
  H  H23  1  0.90726000  0.61221000  0.49189000  1.0
  H  H24  1  0.60486000  0.71695000  0.93686000  1.0
  H  H25  1  0.62239000  0.25457000  0.93844000  1.0
  H  H26  1  0.00631000  0.36552000  0.00790000  1.0
  H  H27  1  0.00084000  0.59689000  0.00810000  1.0
  H  H28  1  0.84734000  0.16298000  0.70885000  1.0
  H  H29  1  0.88742000  0.23404000  0.75945000  1.0
  H  H30  1  0.64622000  0.16048000  0.74429000  1.0
  H  H31  1  0.27468000  0.82803000  0.75598000  1.0
  H  H32  1  0.03290000  0.75410000  0.74165000  1.0
  H  H33  1  0.07640000  0.82636000  0.79201000  1.0
  H  H34  1  0.58975000  0.92863000  0.21845000  1.0
  H  H35  1  0.59703000  0.08154000  0.20081000  1.0
  H  H36  1  0.59839000  0.05329000  0.25522000  1.0
  H  H37  1  0.31904000  0.95113000  0.28145000  1.0
  H  H38  1  0.29239000  0.10561000  0.29733000  1.0
  H  H39  1  0.29241000  0.06991000  0.24330000  1.0
  C  C40  1  0.62015000  0.76404000  0.51884000  1.0
  C  C41  1  0.28392000  0.99700000  0.57258000  1.0
  C  C42  1  0.62503000  0.22741000  0.51934000  1.0
  C  C43  1  0.66887000  0.99907000  0.43069000  1.0
  C  C44  1  0.28461000  0.75177000  0.98117000  1.0
  C  C45  1  0.62758000  0.98490000  0.92726000  1.0
  C  C46  1  0.29427000  0.21525000  0.98081000  1.0
  C  C47  1  0.23152000  0.99614000  0.06916000  1.0
  C  C48  1  0.71537000  0.99025000  0.88581000  1.0
  C  C49  1  0.91733000  0.03422000  0.87965000  1.0
  C  C50  1  0.98033000  0.04575000  0.83926000  1.0
  C  C51  1  0.84441000  0.01339000  0.80404000  1.0
  C  C52  1  0.64352000  0.96739000  0.81051000  1.0
  C  C53  1  0.57965000  0.95584000  0.85060000  1.0
  C  C54  1  0.90187000  0.03467000  0.76049000  1.0
  C  C55  1  0.01849000  0.95362000  0.74016000  1.0
  C  C56  1  0.27451000  0.01937000  0.68936000  1.0
  C  C57  1  0.07403000  0.97402000  0.69644000  1.0
  C  C58  1  0.93603000  0.94071000  0.66160000  1.0
  C  C59  1  0.99660000  0.95050000  0.62097000  1.0
  C  C60  1  0.19824000  0.99370000  0.61424000  1.0
  C  C61  1  0.33600000  0.02920000  0.64903000  1.0
  C  C62  1  0.16115000  0.00632000  0.11211000  1.0
  C  C63  1  0.24416000  0.93119000  0.14475000  1.0
  C  C64  1  0.15686000  0.93410000  0.18309000  1.0
  C  C65  1  0.99254000  0.01586000  0.19062000  1.0
  C  C66  1  0.91542000  0.09315000  0.15764000  1.0
  C  C67  1  0.99532000  0.08701000  0.11886000  1.0
  C  C68  1  0.89304000  0.01819000  0.23067000  1.0
  C  C69  1  0.00456000  0.02294000  0.26891000  1.0
  C  C70  1  0.98227000  0.09667000  0.34255000  1.0
  C  C71  1  0.90655000  0.01842000  0.30907000  1.0
  C  C72  1  0.74479000  0.93417000  0.31637000  1.0
  C  C73  1  0.65786000  0.93066000  0.35474000  1.0
  C  C74  1  0.73919000  0.00734000  0.38776000  1.0
  C  C75  1  0.90342000  0.08973000  0.38136000  1.0
  C  C76  1  0.62248000  0.62625000  0.52233000  1.0
  C  C77  1  0.45981000  0.56244000  0.54146000  1.0
  C  C78  1  0.78237000  0.56137000  0.50548000  1.0
  C  C79  1  0.30271000  0.62598000  0.56204000  1.0
  C  C80  1  0.15881000  0.56054000  0.58240000  1.0
  C  C81  1  0.62453000  0.36576000  0.52237000  1.0
  C  C82  1  0.78333000  0.43102000  0.50545000  1.0
  C  C83  1  0.46121000  0.42921000  0.54150000  1.0
  C  C84  1  0.30608000  0.36484000  0.56215000  1.0
  C  C85  1  0.16052000  0.42959000  0.58252000  1.0
  C  C86  1  0.28474000  0.61368000  0.97744000  1.0
  C  C87  1  0.44902000  0.55120000  0.95820000  1.0
  C  C88  1  0.12717000  0.54741000  0.99438000  1.0
  C  C89  1  0.60220000  0.61624000  0.93724000  1.0
  C  C90  1  0.74924000  0.55217000  0.91708000  1.0
  C  C91  1  0.29208000  0.35328000  0.97768000  1.0
  C  C92  1  0.13064000  0.41710000  0.99440000  1.0
  C  C93  1  0.45344000  0.41800000  0.95850000  1.0
  C  C94  1  0.61182000  0.35512000  0.93810000  1.0
  C  C95  1  0.75427000  0.42122000  0.91756000  1.0
  C  C96  1  0.81690000  0.15384000  0.74181000  1.0
  C  C97  1  0.10436000  0.83472000  0.75890000  1.0
  C  C98  1  0.65785000  0.02073000  0.22626000  1.0
  C  C99  1  0.23862000  0.03839000  0.27276000  1.0
  O  O100  1  0.79146000  0.82204000  0.53023000  1.0
  O  O101  1  0.44878000  0.81262000  0.50409000  1.0
  O  O102  1  0.16006000  0.99448000  0.53723000  1.0
  O  O103  1  0.47898000  0.00098000  0.57057000  1.0
  O  O104  1  0.46022000  0.17630000  0.50152000  1.0
  O  O105  1  0.79201000  0.17234000  0.53406000  1.0
  O  O106  1  0.81836000  0.00868000  0.45998000  1.0
  O  O107  1  0.47409000  0.98457000  0.43568000  1.0
  O  O108  1  0.11353000  0.80785000  0.96938000  1.0
  O  O109  1  0.45475000  0.80196000  0.99672000  1.0
  O  O110  1  0.75004000  0.98793000  0.96279000  1.0
  O  O111  1  0.43245000  0.97896000  0.92899000  1.0
  O  O112  1  0.46097000  0.16604000  0.99781000  1.0
  O  O113  1  0.12653000  0.15792000  0.96688000  1.0
  O  O114  1  0.08156000  0.00287000  0.03994000  1.0
  O  O115  1  0.42612000  0.98197000  0.06411000  1.0
  F  F116  1  0.01058000  0.61983000  0.60285000  1.0
  F  F117  1  0.01459000  0.36988000  0.60319000  1.0
  F  F118  1  0.89366000  0.61274000  0.89624000  1.0
  F  F119  1  0.90389000  0.36279000  0.89727000  1.0
