# generated using pymatgen
data_CuH14C20(NO)4
_symmetry_space_group_name_H-M   'P 1'
_cell_length_a   10.21080000
_cell_length_b   12.57330000
_cell_length_c   17.68480000
_cell_angle_alpha   91.22830000
_cell_angle_beta   89.99990000
_cell_angle_gamma   90.00000000
_symmetry_Int_Tables_number   1
_chemical_formula_structural   CuH14C20(NO)4
_chemical_formula_sum   'Cu4 H56 C80 N16 O16'
_cell_volume   2269.91395910
_cell_formula_units_Z   4
loop_
 _symmetry_equiv_pos_site_id
 _symmetry_equiv_pos_as_xyz
  1  'x, y, z'
loop_
 _atom_site_type_symbol
 _atom_site_label
 _atom_site_symmetry_multiplicity
 _atom_site_fract_x
 _atom_site_fract_y
 _atom_site_fract_z
 _atom_site_occupancy
  Cu  Cu0  1  0.00905000  0.25456000  0.83493000  1.0
  Cu  Cu1  1  0.50904000  0.24544000  0.66507000  1.0
  Cu  Cu2  1  0.99095000  0.74543000  0.16507000  1.0
  Cu  Cu3  1  0.49096000  0.75456000  0.33493000  1.0
  H  H4  1  0.37826000  0.81827000  0.17121000  1.0
  H  H5  1  0.87826000  0.68173000  0.32879000  1.0
  H  H6  1  0.62175000  0.18173000  0.82879000  1.0
  H  H7  1  0.12174000  0.31827000  0.67121000  1.0
  H  H8  1  0.42102000  0.20447000  0.96936000  1.0
  H  H9  1  0.92102000  0.29554000  0.53064000  1.0
  H  H10  1  0.57898000  0.79553000  0.03064000  1.0
  H  H11  1  0.07898000  0.70447000  0.46936000  1.0
  H  H12  1  0.72940000  0.09310000  0.61254000  1.0
  H  H13  1  0.22940000  0.40690000  0.88746000  1.0
  H  H14  1  0.27060000  0.90690000  0.38746000  1.0
  H  H15  1  0.77060000  0.59310000  0.11254000  1.0
  H  H16  1  0.84364000  0.16785000  0.69297000  1.0
  H  H17  1  0.34364000  0.33215000  0.80703000  1.0
  H  H18  1  0.15636000  0.83215000  0.30703000  1.0
  H  H19  1  0.65636000  0.66785000  0.19297000  1.0
  H  H20  1  0.09709000  0.99537000  0.00693000  1.0
  H  H21  1  0.59709000  0.50463000  0.49307000  1.0
  H  H22  1  0.90291000  0.00462000  0.99307000  1.0
  H  H23  1  0.40291000  0.49538000  0.50693000  1.0
  H  H24  1  0.20994000  0.91898000  0.11621000  1.0
  H  H25  1  0.70995000  0.58102000  0.38379000  1.0
  H  H26  1  0.79006000  0.08102000  0.88379000  1.0
  H  H27  1  0.29006000  0.41899000  0.61621000  1.0
  H  H28  1  0.59866000  0.00198000  0.51551000  1.0
  H  H29  1  0.09866000  0.49802000  0.98449000  1.0
  H  H30  1  0.40134000  0.99803000  0.48448000  1.0
  H  H31  1  0.90134000  0.50198000  0.01551000  1.0
  H  H32  1  0.59375000  0.99485000  0.33504000  1.0
  H  H33  1  0.09375000  0.50515000  0.16496000  1.0
  H  H34  1  0.40625000  0.00515000  0.66496000  1.0
  H  H35  1  0.90625000  0.49485000  0.83504000  1.0
  H  H36  1  0.53980000  0.12752000  0.07998000  1.0
  H  H37  1  0.03980000  0.37248000  0.42002000  1.0
  H  H38  1  0.46021000  0.87248000  0.92002000  1.0
  H  H39  1  0.96020000  0.62752000  0.57998000  1.0
  H  H40  1  0.04461000  0.86775000  0.57304000  1.0
  H  H41  1  0.54461000  0.63225000  0.92696000  1.0
  H  H42  1  0.95539000  0.13225000  0.42696000  1.0
  H  H43  1  0.45539000  0.36775000  0.07304000  1.0
  H  H44  1  0.21392000  0.07929000  0.77630000  1.0
  H  H45  1  0.71392000  0.42071000  0.72370000  1.0
  H  H46  1  0.78608000  0.92071000  0.22370000  1.0
  H  H47  1  0.28608000  0.57929000  0.27629000  1.0
  H  H48  1  0.53172000  0.12716000  0.21573000  1.0
  H  H49  1  0.03171000  0.37284000  0.28427000  1.0
  H  H50  1  0.46829000  0.87284000  0.78427000  1.0
  H  H51  1  0.96828000  0.62716000  0.71573000  1.0
  H  H52  1  0.14699000  0.94014000  0.65916000  1.0
  H  H53  1  0.64699000  0.55986000  0.84085000  1.0
  H  H54  1  0.85301000  0.05986000  0.34085000  1.0
  H  H55  1  0.35300000  0.44015000  0.15915000  1.0
  H  H56  1  0.91064000  0.78016000  0.47265000  1.0
  H  H57  1  0.41064000  0.71984000  0.02735000  1.0
  H  H58  1  0.08936000  0.21985000  0.52735000  1.0
  H  H59  1  0.58936000  0.28015000  0.97265000  1.0
  C  C60  1  0.74639000  0.88379000  0.48769000  1.0
  C  C61  1  0.24639000  0.61621000  0.01231000  1.0
  C  C62  1  0.25361000  0.11621000  0.51231000  1.0
  C  C63  1  0.75361000  0.38379000  0.98769000  1.0
  C  C64  1  0.25165000  0.10719000  0.98239000  1.0
  C  C65  1  0.75165000  0.39281000  0.51762000  1.0
  C  C66  1  0.74836000  0.89281000  0.01762000  1.0
  C  C67  1  0.24835000  0.60719000  0.48238000  1.0
  C  C68  1  0.18245000  0.16239000  0.91963000  1.0
  C  C69  1  0.68245000  0.33762000  0.58038000  1.0
  C  C70  1  0.81755000  0.83761000  0.08037000  1.0
  C  C71  1  0.31755000  0.66239000  0.41963000  1.0
  C  C72  1  0.67060000  0.82744000  0.42657000  1.0
  C  C73  1  0.17059000  0.67256000  0.07343000  1.0
  C  C74  1  0.32940000  0.17256000  0.57343000  1.0
  C  C75  1  0.82941000  0.32744000  0.92657000  1.0
  C  C76  1  0.89534000  0.98546000  0.60105000  1.0
  C  C77  1  0.39534000  0.51454000  0.89895000  1.0
  C  C78  1  0.10466000  0.01455000  0.39895000  1.0
  C  C79  1  0.60466000  0.48546000  0.10105000  1.0
  C  C80  1  0.37973000  0.02134000  0.10627000  1.0
  C  C81  1  0.87973000  0.47866000  0.39373000  1.0
  C  C82  1  0.62027000  0.97866000  0.89372000  1.0
  C  C83  1  0.12027000  0.52134000  0.60627000  1.0
  C  C84  1  0.43055000  0.88264000  0.20022000  1.0
  C  C85  1  0.93055000  0.61736000  0.29978000  1.0
  C  C86  1  0.56945000  0.11736000  0.79978000  1.0
  C  C87  1  0.06945000  0.38264000  0.70022000  1.0
  C  C88  1  0.37689000  0.14260000  0.00310000  1.0
  C  C89  1  0.87689000  0.35741000  0.49691000  1.0
  C  C90  1  0.62311000  0.85740000  0.99690000  1.0
  C  C91  1  0.12311000  0.64260000  0.50310000  1.0
  C  C92  1  0.76991000  0.02310000  0.58385000  1.0
  C  C93  1  0.26991000  0.47690000  0.91615000  1.0
  C  C94  1  0.23009000  0.97690000  0.41614000  1.0
  C  C95  1  0.73009000  0.52310000  0.08385000  1.0
  C  C96  1  0.93289000  0.12304000  0.70188000  1.0
  C  C97  1  0.43289000  0.37696000  0.79813000  1.0
  C  C98  1  0.06711000  0.87695000  0.29812000  1.0
  C  C99  1  0.56711000  0.62304000  0.20188000  1.0
  C  C100  1  0.19347000  0.02513000  0.02283000  1.0
  C  C101  1  0.69347000  0.47488000  0.47717000  1.0
  C  C102  1  0.80654000  0.97487000  0.97717000  1.0
  C  C103  1  0.30653000  0.52513000  0.52283000  1.0
  C  C104  1  0.25676000  0.98209000  0.08481000  1.0
  C  C105  1  0.75676000  0.51791000  0.41519000  1.0
  C  C106  1  0.74324000  0.01791000  0.91519000  1.0
  C  C107  1  0.24323000  0.48209000  0.58481000  1.0
  C  C108  1  0.69613000  0.97194000  0.52784000  1.0
  C  C109  1  0.19613000  0.52805000  0.97217000  1.0
  C  C110  1  0.30387000  0.02806000  0.47216000  1.0
  C  C111  1  0.80387000  0.47195000  0.02784000  1.0
  C  C112  1  0.54271000  0.97784000  0.28256000  1.0
  C  C113  1  0.04270000  0.52216000  0.21744000  1.0
  C  C114  1  0.45730000  0.02216000  0.71744000  1.0
  C  C115  1  0.95729000  0.47784000  0.78256000  1.0
  C  C116  1  0.44167000  0.10039000  0.06475000  1.0
  C  C117  1  0.94167000  0.39961000  0.43525000  1.0
  C  C118  1  0.55833000  0.89961000  0.93525000  1.0
  C  C119  1  0.05833000  0.60039000  0.56475000  1.0
  C  C120  1  0.94678000  0.89743000  0.56127000  1.0
  C  C121  1  0.44678000  0.60257000  0.93873000  1.0
  C  C122  1  0.05322000  0.10257000  0.43873000  1.0
  C  C123  1  0.55322000  0.39743000  0.06127000  1.0
  C  C124  1  0.12571000  0.07462000  0.74249000  1.0
  C  C125  1  0.62571000  0.42538000  0.75751000  1.0
  C  C126  1  0.87429000  0.92538000  0.25751000  1.0
  C  C127  1  0.37429000  0.57462000  0.24249000  1.0
  C  C128  1  0.51284000  0.04358000  0.22430000  1.0
  C  C129  1  0.01284000  0.45642000  0.27570000  1.0
  C  C130  1  0.48717000  0.95642000  0.77570000  1.0
  C  C131  1  0.98716000  0.54358000  0.72430000  1.0
  C  C132  1  0.09343000  0.00578000  0.68458000  1.0
  C  C133  1  0.59343000  0.49422000  0.81542000  1.0
  C  C134  1  0.90657000  0.99422000  0.31542000  1.0
  C  C135  1  0.40656000  0.50578000  0.18458000  1.0
  C  C136  1  0.87240000  0.84800000  0.50489000  1.0
  C  C137  1  0.37239000  0.65200000  0.99511000  1.0
  C  C138  1  0.12760000  0.15200000  0.49511000  1.0
  C  C139  1  0.62760000  0.34800000  0.00489000  1.0
  N  N140  1  0.49167000  0.87801000  0.26667000  1.0
  N  N141  1  0.99167000  0.62199000  0.23333000  1.0
  N  N142  1  0.50833000  0.12199000  0.73333000  1.0
  N  N143  1  0.00833000  0.37801000  0.76667000  1.0
  N  N144  1  0.97044000  0.03642000  0.65908000  1.0
  N  N145  1  0.47044000  0.46357000  0.84092000  1.0
  N  N146  1  0.02956000  0.96358000  0.34092000  1.0
  N  N147  1  0.52956000  0.53643000  0.15908000  1.0
  N  N148  1  0.02497000  0.14681000  0.75255000  1.0
  N  N149  1  0.52498000  0.35319000  0.74745000  1.0
  N  N150  1  0.97502000  0.85319000  0.24745000  1.0
  N  N151  1  0.47503000  0.64680000  0.25255000  1.0
  N  N152  1  0.44098000  0.98269000  0.17263000  1.0
  N  N153  1  0.94097000  0.51731000  0.32737000  1.0
  N  N154  1  0.55903000  0.01731000  0.82737000  1.0
  N  N155  1  0.05903000  0.48269000  0.67263000  1.0
  O  O156  1  0.54725000  0.84988000  0.42146000  1.0
  O  O157  1  0.04724000  0.65011000  0.07854000  1.0
  O  O158  1  0.45275000  0.15012000  0.57854000  1.0
  O  O159  1  0.95276000  0.34988000  0.92146000  1.0
  O  O160  1  0.05857000  0.14501000  0.91199000  1.0
  O  O161  1  0.55857000  0.35499000  0.58801000  1.0
  O  O162  1  0.94143000  0.85498000  0.08801000  1.0
  O  O163  1  0.44143000  0.64501000  0.41199000  1.0
  O  O164  1  0.72718000  0.76234000  0.38238000  1.0
  O  O165  1  0.22717000  0.73765000  0.11763000  1.0
  O  O166  1  0.27282000  0.23766000  0.61762000  1.0
  O  O167  1  0.77282000  0.26234000  0.88238000  1.0
  O  O168  1  0.24594000  0.22483000  0.87829000  1.0
  O  O169  1  0.74593000  0.27517000  0.62171000  1.0
  O  O170  1  0.75406000  0.77517000  0.12171000  1.0
  O  O171  1  0.25406000  0.72483000  0.37829000  1.0
