# generated using pymatgen
data_AlH18C21N7O6
_symmetry_space_group_name_H-M   'P 1'
_cell_length_a   4.17158000
_cell_length_b   13.50440000
_cell_length_c   13.50440000
_cell_angle_alpha   60.00000000
_cell_angle_beta   89.99960000
_cell_angle_gamma   90.00000000
_symmetry_Int_Tables_number   1
_chemical_formula_structural   AlH18C21N7O6
_chemical_formula_sum   'Al1 H18 C21 N7 O6'
_cell_volume   658.84278577
_cell_formula_units_Z   1
loop_
 _symmetry_equiv_pos_site_id
 _symmetry_equiv_pos_as_xyz
  1  'x, y, z'
loop_
 _atom_site_type_symbol
 _atom_site_label
 _atom_site_symmetry_multiplicity
 _atom_site_fract_x
 _atom_site_fract_y
 _atom_site_fract_z
 _atom_site_occupancy
  Al  Al0  1  0.00000000  0.00000000  0.50000000  1.0
  H  H1  1  0.20040000  0.86384000  0.10494000  1.0
  H  H2  1  0.79960000  0.60494000  0.36384000  1.0
  H  H3  1  0.79963000  0.86383000  0.03123000  1.0
  H  H4  1  0.20039000  0.60493000  0.03123000  1.0
  H  H5  1  0.79966000  0.53123000  0.10494000  1.0
  H  H6  1  0.20034000  0.53122000  0.36383000  1.0
  H  H7  1  0.96002000  0.76106000  0.50399000  1.0
  H  H8  1  0.00105000  0.63839000  0.50487000  1.0
  H  H9  1  0.03996000  0.00399000  0.26106000  1.0
  H  H10  1  0.99894000  0.00486000  0.13840000  1.0
  H  H11  1  0.96006000  0.00399000  0.73495000  1.0
  H  H12  1  0.00109000  0.00486000  0.85674000  1.0
  H  H13  1  0.03996000  0.76107000  0.73495000  1.0
  H  H14  1  0.99893000  0.63840000  0.85674000  1.0
  H  H15  1  0.96010000  0.23495000  0.26108000  1.0
  H  H16  1  0.00115000  0.35674000  0.13842000  1.0
  H  H17  1  0.03989000  0.23495000  0.50397000  1.0
  H  H18  1  0.99885000  0.35675000  0.50484000  1.0
  C  C19  1  0.50000000  0.91126000  0.67748000  1.0
  C  C20  1  0.50000000  0.17748000  0.41126000  1.0
  C  C21  1  0.49999000  0.91126000  0.41126000  1.0
  C  C22  1  0.32478000  0.88995000  0.24480000  1.0
  C  C23  1  0.33342000  0.83068000  0.18442000  1.0
  C  C24  1  0.50001000  0.72736000  0.22736000  1.0
  C  C25  1  0.66657000  0.68441000  0.33069000  1.0
  C  C26  1  0.67521000  0.74479000  0.38995000  1.0
  C  C27  1  0.50000000  0.84764000  0.34764000  1.0
  C  C28  1  0.66666667  0.83069000  0.98490000  1.0
  C  C29  1  0.67522000  0.88995000  0.86526000  1.0
  C  C30  1  0.50000000  0.84765000  0.80472000  1.0
  C  C31  1  0.32478000  0.74480000  0.86526000  1.0
  C  C32  1  0.33342000  0.68442000  0.98490000  1.0
  C  C33  1  0.50000000  0.72736000  0.04528000  1.0
  C  C34  1  0.66666667  0.48490000  0.18442000  1.0
  C  C35  1  0.67525000  0.36526000  0.24480000  1.0
  C  C36  1  0.50000000  0.30472000  0.34764000  1.0
  C  C37  1  0.32475000  0.36526000  0.38994000  1.0
  C  C38  1  0.33338000  0.48490000  0.33068000  1.0
  C  C39  1  0.50000000  0.54528000  0.22736000  1.0
  N  N40  1  0.50000000  0.66667000  0.16667000  1.0
  N  N41  1  0.84388000  0.70105000  0.49250000  1.0
  N  N42  1  0.15611000  0.99250000  0.20105000  1.0
  N  N43  1  0.84391000  0.99250000  0.80645000  1.0
  N  N44  1  0.15611000  0.70106000  0.80645000  1.0
  N  N45  1  0.84396000  0.30645000  0.20107000  1.0
  N  N46  1  0.15604000  0.30645000  0.49248000  1.0
  O  O47  1  0.73644000  0.97792000  0.39639000  1.0
  O  O48  1  0.73644000  0.89639000  0.62569000  1.0
  O  O49  1  0.73644000  0.12569000  0.47792000  1.0
  O  O50  1  0.26355000  0.89638000  0.47793000  1.0
  O  O51  1  0.26355000  0.12569000  0.39639000  1.0
  O  O52  1  0.26355000  0.97792000  0.62569000  1.0
