# generated using pymatgen
data_KP2H11(C2O)6
_symmetry_space_group_name_H-M   'P 1'
_cell_length_a   5.82033000
_cell_length_b   7.66226000
_cell_length_c   14.92220000
_cell_angle_alpha   100.92380000
_cell_angle_beta   91.03220000
_cell_angle_gamma   93.93730000
_symmetry_Int_Tables_number   1
_chemical_formula_structural   KP2H11(C2O)6
_chemical_formula_sum   'K2 P4 H22 C24 O12'
_cell_volume   651.55578113
_cell_formula_units_Z   2
loop_
 _symmetry_equiv_pos_site_id
 _symmetry_equiv_pos_as_xyz
  1  'x, y, z'
loop_
 _atom_site_type_symbol
 _atom_site_label
 _atom_site_symmetry_multiplicity
 _atom_site_fract_x
 _atom_site_fract_y
 _atom_site_fract_z
 _atom_site_occupancy
  K  K0  1  0.73029000  0.21250000  0.99993000  1.0
  K  K1  1  0.26973000  0.78752000  0.00006000  1.0
  P  P2  1  0.27228000  0.33952000  0.15419000  1.0
  P  P3  1  0.72771000  0.66048000  0.84581000  1.0
  P  P4  1  0.81664000  0.82596000  0.15993000  1.0
  P  P5  1  0.18336000  0.17404000  0.84006000  1.0
  H  H6  1  0.06235000  0.56356000  0.12908000  1.0
  H  H7  1  0.93766000  0.43643000  0.87092000  1.0
  H  H8  1  0.50154000  0.55068000  0.32178000  1.0
  H  H9  1  0.49845000  0.44933000  0.67823000  1.0
  H  H10  1  0.06373000  0.07358000  0.12031000  1.0
  H  H11  1  0.93626000  0.92642000  0.87969000  1.0
  H  H12  1  0.37292000  0.62732000  0.47853000  1.0
  H  H13  1  0.62706000  0.37270000  0.52147000  1.0
  H  H14  1  0.57919000  0.57726000  0.12367000  1.0
  H  H15  1  0.42080000  0.42274000  0.87633000  1.0
  H  H16  1  0.73144000  0.31076000  0.39886000  1.0
  H  H17  1  0.26855000  0.68926000  0.60114000  1.0
  H  H18  1  0.85732000  0.24093000  0.24286000  1.0
  H  H19  1  0.14267000  0.75907000  0.75714000  1.0
  H  H20  1  0.98977000  0.77137000  0.33888000  1.0
  H  H21  1  0.01024000  0.22863000  0.66112000  1.0
  H  H22  1  0.84360000  0.84960000  0.49309000  1.0
  H  H23  1  0.15642000  0.15039000  0.50691000  1.0
  H  H24  1  0.27326000  0.08948000  0.38542000  1.0
  H  H25  1  0.72673000  0.91049000  0.61457000  1.0
  H  H26  1  0.42003000  0.00985000  0.23262000  1.0
  H  H27  1  0.57997000  0.99014000  0.76738000  1.0
  C  C28  1  0.19029000  0.38869000  0.27121000  1.0
  C  C29  1  0.80970000  0.61132000  0.72880000  1.0
  C  C30  1  0.33281000  0.49779000  0.33893000  1.0
  C  C31  1  0.66719000  0.50221000  0.66108000  1.0
  C  C32  1  0.25818000  0.54075000  0.42808000  1.0
  C  C33  1  0.74181000  0.45927000  0.57192000  1.0
  C  C34  1  0.04032000  0.47634000  0.45273000  1.0
  C  C35  1  0.95966000  0.52368000  0.54727000  1.0
  C  C36  1  0.90060000  0.36559000  0.38384000  1.0
  C  C37  1  0.09939000  0.63442000  0.61617000  1.0
  C  C38  1  0.97270000  0.32369000  0.29466000  1.0
  C  C39  1  0.02729000  0.67632000  0.70534000  1.0
  C  C40  1  0.71645000  0.88550000  0.27463000  1.0
  C  C41  1  0.28356000  0.11449000  0.72537000  1.0
  C  C42  1  0.83297000  0.84174000  0.34942000  1.0
  C  C43  1  0.16705000  0.15826000  0.65057000  1.0
  C  C44  1  0.74836000  0.88691000  0.43700000  1.0
  C  C45  1  0.25165000  0.11308000  0.56299000  1.0
  C  C46  1  0.54534000  0.97676000  0.45337000  1.0
  C  C47  1  0.45468000  0.02323000  0.54663000  1.0
  C  C48  1  0.43086000  0.02004000  0.37726000  1.0
  C  C49  1  0.56915000  0.97995000  0.62273000  1.0
  C  C50  1  0.51407000  0.97512000  0.28977000  1.0
  C  C51  1  0.48593000  0.02487000  0.71023000  1.0
  O  O52  1  0.09425000  0.42444000  0.09845000  1.0
  O  O53  1  0.90575000  0.57555000  0.90155000  1.0
  O  O54  1  0.52145000  0.40145000  0.14478000  1.0
  O  O55  1  0.47855000  0.59855000  0.85523000  1.0
  O  O56  1  0.23707000  0.13287000  0.11809000  1.0
  O  O57  1  0.76293000  0.86713000  0.88193000  1.0
  O  O58  1  0.84237000  0.99060000  0.11561000  1.0
  O  O59  1  0.15763000  0.00939000  0.88439000  1.0
  O  O60  1  0.61750000  0.69908000  0.10315000  1.0
  O  O61  1  0.38250000  0.30092000  0.89685000  1.0
  O  O62  1  0.04043000  0.73387000  0.16255000  1.0
  O  O63  1  0.95957000  0.26612000  0.83744000  1.0
