# generated using pymatgen
data_Zr3H3C26(O4F3)4
_symmetry_space_group_name_H-M   'P 1'
_cell_length_a   14.79190000
_cell_length_b   14.79140000
_cell_length_c   14.83510000
_cell_angle_alpha   60.12610000
_cell_angle_beta   60.12130000
_cell_angle_gamma   60.20080000
_symmetry_Int_Tables_number   1
_chemical_formula_structural   Zr3H3C26(O4F3)4
_chemical_formula_sum   'Zr6 H6 C52 O32 F24'
_cell_volume   2302.90170333
_cell_formula_units_Z   2
loop_
 _symmetry_equiv_pos_site_id
 _symmetry_equiv_pos_as_xyz
  1  'x, y, z'
loop_
 _atom_site_type_symbol
 _atom_site_label
 _atom_site_symmetry_multiplicity
 _atom_site_fract_x
 _atom_site_fract_y
 _atom_site_fract_z
 _atom_site_occupancy
  Zr  Zr0  1  0.88208000  0.62159000  0.87681000  1.0
  Zr  Zr1  1  0.12104000  0.38307000  0.11524000  1.0
  Zr  Zr2  1  0.88182000  0.62231000  0.11537000  1.0
  Zr  Zr3  1  0.11993000  0.38363000  0.87664000  1.0
  Zr  Zr4  1  0.88167000  0.38298000  0.11652000  1.0
  Zr  Zr5  1  0.12103000  0.62227000  0.87750000  1.0
  H  H6  1  0.71886000  0.59479000  0.09244000  1.0
  H  H7  1  0.09331000  0.22024000  0.09214000  1.0
  H  H8  1  0.09585000  0.59705000  0.09015000  1.0
  H  H9  1  0.09475000  0.59635000  0.71514000  1.0
  H  H10  1  0.57320000  0.73802000  0.99203000  1.0
  H  H11  1  0.23718000  0.07449000  0.99081000  1.0
  C  C12  1  0.70384000  0.49488000  0.99255000  1.0
  C  C13  1  0.99688000  0.20516000  0.30341000  1.0
  C  C14  1  0.30961000  0.49570000  0.99192000  1.0
  C  C15  1  0.99654000  0.81040000  0.70063000  1.0
  C  C16  1  0.70265000  0.80978000  0.99005000  1.0
  C  C17  1  0.99451000  0.49682000  0.70042000  1.0
  C  C18  1  0.30835000  0.20404000  0.98963000  1.0
  C  C19  1  0.99646000  0.49794000  0.30259000  1.0
  C  C20  1  0.70398000  0.49793000  0.30359000  1.0
  C  C21  1  0.99459000  0.81082000  0.99195000  1.0
  C  C22  1  0.30874000  0.49790000  0.70036000  1.0
  C  C23  1  0.99334000  0.20538000  0.99225000  1.0
  C  C24  1  0.41392000  0.49025000  0.99128000  1.0
  C  C25  1  0.60584000  0.48902000  0.99173000  1.0
  C  C26  1  0.41880000  0.48244000  0.08670000  1.0
  C  C27  1  0.60180000  0.49481000  0.89672000  1.0
  C  C28  1  0.51305000  0.48182000  0.08688000  1.0
  C  C29  1  0.50735000  0.49549000  0.89648000  1.0
  C  C30  1  0.99432000  0.10804000  0.40796000  1.0
  C  C31  1  0.99366000  0.91511000  0.60354000  1.0
  C  C32  1  0.08398000  0.04819000  0.44772000  1.0
  C  C33  1  0.90266000  0.97695000  0.56573000  1.0
  C  C34  1  0.08373000  0.95464000  0.54233000  1.0
  C  C35  1  0.90324000  0.06989000  0.47067000  1.0
  C  C36  1  0.98909000  0.91518000  0.99126000  1.0
  C  C37  1  0.98772000  0.10722000  0.99149000  1.0
  C  C38  1  0.99364000  0.00875000  0.89657000  1.0
  C  C39  1  0.98125000  0.01425000  0.08652000  1.0
  C  C40  1  0.99293000  0.10326000  0.89672000  1.0
  C  C41  1  0.98188000  0.91995000  0.08645000  1.0
  C  C42  1  0.60657000  0.49550000  0.40793000  1.0
  C  C43  1  0.41328000  0.49513000  0.60311000  1.0
  C  C44  1  0.56881000  0.40418000  0.47100000  1.0
  C  C45  1  0.45235000  0.58552000  0.54148000  1.0
  C  C46  1  0.47562000  0.40375000  0.56586000  1.0
  C  C47  1  0.54608000  0.58564000  0.44705000  1.0
  C  C48  1  0.60097000  0.91047000  0.98799000  1.0
  C  C49  1  0.50385000  0.90813000  0.99132000  1.0
  C  C50  1  0.59985000  0.00624000  0.98370000  1.0
  C  C51  1  0.50028000  0.81138000  0.99652000  1.0
  C  C52  1  0.40513000  0.81123000  0.00213000  1.0
  C  C53  1  0.40909000  0.10239000  0.98758000  1.0
  C  C54  1  0.50470000  0.10140000  0.98354000  1.0
  C  C55  1  0.40693000  0.00512000  0.99105000  1.0
  C  C56  1  0.31041000  0.00150000  0.99583000  1.0
  C  C57  1  0.31037000  0.90619000  0.00169000  1.0
  C  C58  1  0.99233000  0.49411000  0.40744000  1.0
  C  C59  1  0.99124000  0.49344000  0.60287000  1.0
  C  C60  1  0.91032000  0.57334000  0.45897000  1.0
  C  C61  1  0.07149000  0.41244000  0.55310000  1.0
  C  C62  1  0.90989000  0.57309000  0.55341000  1.0
  C  C63  1  0.07198000  0.41275000  0.45861000  1.0
  O  O64  1  0.73814000  0.57495000  0.91775000  1.0
  O  O65  1  0.07477000  0.24342000  0.26198000  1.0
  O  O66  1  0.26894000  0.42080000  0.06937000  1.0
  O  O67  1  0.92325000  0.76835000  0.73545000  1.0
  O  O68  1  0.73920000  0.77157000  0.06787000  1.0
  O  O69  1  0.07274000  0.42253000  0.73776000  1.0
  O  O70  1  0.26769000  0.24299000  0.91424000  1.0
  O  O71  1  0.92237000  0.57642000  0.26122000  1.0
  O  O72  1  0.74006000  0.42354000  0.26272000  1.0
  O  O73  1  0.07434000  0.77156000  0.91734000  1.0
  O  O74  1  0.26852000  0.57483000  0.73920000  1.0
  O  O75  1  0.91922000  0.24268000  0.07008000  1.0
  O  O76  1  0.91966000  0.77019000  0.06944000  1.0
  O  O77  1  0.26657000  0.42472000  0.73510000  1.0
  O  O78  1  0.07326000  0.23987000  0.91730000  1.0
  O  O79  1  0.74233000  0.57570000  0.26237000  1.0
  O  O80  1  0.74161000  0.76920000  0.91460000  1.0
  O  O81  1  0.07478000  0.42366000  0.26145000  1.0
  O  O82  1  0.27019000  0.24056000  0.06745000  1.0
  O  O83  1  0.92042000  0.57520000  0.73762000  1.0
  O  O84  1  0.07376000  0.76984000  0.73919000  1.0
  O  O85  1  0.74121000  0.42072000  0.07032000  1.0
  O  O86  1  0.92250000  0.24118000  0.26255000  1.0
  O  O87  1  0.27035000  0.57547000  0.91730000  1.0
  O  O88  1  0.06837000  0.56991000  0.79508000  1.0
  O  O89  1  0.06937000  0.57058000  0.06273000  1.0
  O  O90  1  0.06852000  0.30031000  0.06313000  1.0
  O  O91  1  0.79893000  0.56995000  0.06339000  1.0
  O  O92  1  0.95206000  0.45332000  0.14421000  1.0
  O  O93  1  0.95113000  0.45274000  0.94745000  1.0
  O  O94  1  0.14919000  0.45327000  0.94689000  1.0
  O  O95  1  0.95200000  0.65053000  0.94700000  1.0
  F  F96  1  0.32907000  0.48246000  0.17899000  1.0
  F  F97  1  0.69098000  0.49723000  0.80398000  1.0
  F  F98  1  0.51039000  0.48211000  0.17917000  1.0
  F  F99  1  0.50835000  0.49862000  0.80345000  1.0
  F  F100  1  0.17591000  0.07599000  0.39499000  1.0
  F  F101  1  0.81016000  0.94991000  0.61986000  1.0
  F  F102  1  0.17555000  0.90254000  0.56985000  1.0
  F  F103  1  0.81182000  0.12174000  0.44265000  1.0
  F  F104  1  0.99609000  0.00978000  0.80384000  1.0
  F  F105  1  0.98225000  0.01155000  0.17849000  1.0
  F  F106  1  0.99481000  0.19257000  0.80408000  1.0
  F  F107  1  0.98255000  0.83008000  0.17857000  1.0
  F  F108  1  0.62144000  0.31228000  0.44365000  1.0
  F  F109  1  0.39958000  0.67776000  0.56841000  1.0
  F  F110  1  0.44902000  0.31096000  0.62054000  1.0
  F  F111  1  0.57344000  0.67786000  0.39383000  1.0
  F  F112  1  0.82849000  0.65393000  0.41963000  1.0
  F  F113  1  0.15271000  0.33121000  0.59301000  1.0
  F  F114  1  0.82807000  0.65382000  0.59376000  1.0
  F  F115  1  0.15332000  0.33147000  0.41880000  1.0
  F  F116  1  0.51150000  0.19286000  0.97612000  1.0
  F  F117  1  0.69120000  0.01321000  0.97634000  1.0
  F  F118  1  0.39986000  0.72016000  0.00652000  1.0
  F  F119  1  0.21952000  0.90091000  0.00560000  1.0
