# generated using pymatgen
data_CdH4C3SBrN3
_symmetry_space_group_name_H-M   'P 1'
_cell_length_a   7.79600000
_cell_length_b   10.72160000
_cell_length_c   17.80830000
_cell_angle_alpha   90.00000000
_cell_angle_beta   90.00000000
_cell_angle_gamma   90.00000000
_symmetry_Int_Tables_number   1
_chemical_formula_structural   CdH4C3SBrN3
_chemical_formula_sum   'Cd8 H32 C24 S8 Br8 N24'
_cell_volume   1488.51732651
_cell_formula_units_Z   8
loop_
 _symmetry_equiv_pos_site_id
 _symmetry_equiv_pos_as_xyz
  1  'x, y, z'
loop_
 _atom_site_type_symbol
 _atom_site_label
 _atom_site_symmetry_multiplicity
 _atom_site_fract_x
 _atom_site_fract_y
 _atom_site_fract_z
 _atom_site_occupancy
  Cd  Cd0  1  0.81450000  0.82125000  0.33167000  1.0
  Cd  Cd1  1  0.68549000  0.67875000  0.83167000  1.0
  Cd  Cd2  1  0.81450000  0.17875000  0.16833000  1.0
  Cd  Cd3  1  0.68549000  0.32125000  0.66833000  1.0
  Cd  Cd4  1  0.18550000  0.17875000  0.66833000  1.0
  Cd  Cd5  1  0.31450000  0.32125000  0.16833000  1.0
  Cd  Cd6  1  0.18550000  0.82125000  0.83167000  1.0
  Cd  Cd7  1  0.31450000  0.67875000  0.33167000  1.0
  H  H8  1  0.41360000  0.13519000  0.32693000  1.0
  H  H9  1  0.08639000  0.36481000  0.82694000  1.0
  H  H10  1  0.41360000  0.86481000  0.17307000  1.0
  H  H11  1  0.08640000  0.63520000  0.67307000  1.0
  H  H12  1  0.58641000  0.86480000  0.67307000  1.0
  H  H13  1  0.91360000  0.63519000  0.17307000  1.0
  H  H14  1  0.58640000  0.13520000  0.82693000  1.0
  H  H15  1  0.91359000  0.36481000  0.32693000  1.0
  H  H16  1  0.32042000  0.04848000  0.45200000  1.0
  H  H17  1  0.17958000  0.45152000  0.95200000  1.0
  H  H18  1  0.32041000  0.95152000  0.04800000  1.0
  H  H19  1  0.17958000  0.54848000  0.54800000  1.0
  H  H20  1  0.67959000  0.95151000  0.54800000  1.0
  H  H21  1  0.82041000  0.54848000  0.04800000  1.0
  H  H22  1  0.67959000  0.04848000  0.95200000  1.0
  H  H23  1  0.82042000  0.45151000  0.45200000  1.0
  H  H24  1  0.14329000  0.94392000  0.44251000  1.0
  H  H25  1  0.35671000  0.55608000  0.94250000  1.0
  H  H26  1  0.14328000  0.05608000  0.05749000  1.0
  H  H27  1  0.35671000  0.44392000  0.55749000  1.0
  H  H28  1  0.85672000  0.05608000  0.55749000  1.0
  H  H29  1  0.64329000  0.44392000  0.05750000  1.0
  H  H30  1  0.85671000  0.94392000  0.94250000  1.0
  H  H31  1  0.64329000  0.55608000  0.44251000  1.0
  H  H32  1  0.10978000  0.09853000  0.47802000  1.0
  H  H33  1  0.39023000  0.40147000  0.97802000  1.0
  H  H34  1  0.10977000  0.90147000  0.02198000  1.0
  H  H35  1  0.39022000  0.59853000  0.52198000  1.0
  H  H36  1  0.89023000  0.90146000  0.52199000  1.0
  H  H37  1  0.60977000  0.59853000  0.02199000  1.0
  H  H38  1  0.89023000  0.09853000  0.97801000  1.0
  H  H39  1  0.60977000  0.40146000  0.47802000  1.0
  C  C40  1  0.99999000  0.10091000  0.32707000  1.0
  C  C41  1  0.50000000  0.39909000  0.82707000  1.0
  C  C42  1  0.99999000  0.89909000  0.17293000  1.0
  C  C43  1  0.50001000  0.60090000  0.67293000  1.0
  C  C44  1  0.00001000  0.89909000  0.67294000  1.0
  C  C45  1  0.49999000  0.60090000  0.17293000  1.0
  C  C46  1  0.00001000  0.10091000  0.82706000  1.0
  C  C47  1  0.49999000  0.39909000  0.32707000  1.0
  C  C48  1  0.27699000  0.13367000  0.31512000  1.0
  C  C49  1  0.22302000  0.36633000  0.81512000  1.0
  C  C50  1  0.27700000  0.86633000  0.18488000  1.0
  C  C51  1  0.22301000  0.63367000  0.68488000  1.0
  C  C52  1  0.72299000  0.86633000  0.68488000  1.0
  C  C53  1  0.77698000  0.63367000  0.18489000  1.0
  C  C54  1  0.72302000  0.13367000  0.81511000  1.0
  C  C55  1  0.77702000  0.36633000  0.31512000  1.0
  C  C56  1  0.18400000  0.04152000  0.43862000  1.0
  C  C57  1  0.31600000  0.45848000  0.93862000  1.0
  C  C58  1  0.18400000  0.95848000  0.06138000  1.0
  C  C59  1  0.31600000  0.54152000  0.56138000  1.0
  C  C60  1  0.81600000  0.95848000  0.56139000  1.0
  C  C61  1  0.68400000  0.54152000  0.06139000  1.0
  C  C62  1  0.81600000  0.04152000  0.93861000  1.0
  C  C63  1  0.68401000  0.45848000  0.43861000  1.0
  S  S64  1  0.80485000  0.05616000  0.36240000  1.0
  S  S65  1  0.69515000  0.44384000  0.86240000  1.0
  S  S66  1  0.80484000  0.94384000  0.13760000  1.0
  S  S67  1  0.69515000  0.55616000  0.63760000  1.0
  S  S68  1  0.19516000  0.94384000  0.63760000  1.0
  S  S69  1  0.30484000  0.55616000  0.13760000  1.0
  S  S70  1  0.19516000  0.05616000  0.86240000  1.0
  S  S71  1  0.30485000  0.44384000  0.36240000  1.0
  Br  Br72  1  0.02371000  0.69454000  0.42310000  1.0
  Br  Br73  1  0.47629000  0.80547000  0.92311000  1.0
  Br  Br74  1  0.02371000  0.30547000  0.07689000  1.0
  Br  Br75  1  0.47628000  0.19454000  0.57690000  1.0
  Br  Br76  1  0.97628000  0.30544000  0.57689000  1.0
  Br  Br77  1  0.52371000  0.19454000  0.07690000  1.0
  Br  Br78  1  0.97628000  0.69453000  0.92310000  1.0
  Br  Br79  1  0.52371000  0.80546000  0.42311000  1.0
  N  N80  1  0.02972000  0.15473000  0.26038000  1.0
  N  N81  1  0.47028000  0.34527000  0.76038000  1.0
  N  N82  1  0.02972000  0.84527000  0.23962000  1.0
  N  N83  1  0.47028000  0.65473000  0.73962000  1.0
  N  N84  1  0.97029000  0.84527000  0.73962000  1.0
  N  N85  1  0.52971000  0.65473000  0.23962000  1.0
  N  N86  1  0.97029000  0.15474000  0.76038000  1.0
  N  N87  1  0.52971000  0.34527000  0.26038000  1.0
  N  N88  1  0.15672000  0.08813000  0.36274000  1.0
  N  N89  1  0.34328000  0.41187000  0.86274000  1.0
  N  N90  1  0.15672000  0.91187000  0.13725000  1.0
  N  N91  1  0.34328000  0.58813000  0.63726000  1.0
  N  N92  1  0.84329000  0.91187000  0.63725000  1.0
  N  N93  1  0.65672000  0.58813000  0.13726000  1.0
  N  N94  1  0.84328000  0.08814000  0.86274000  1.0
  N  N95  1  0.65671000  0.41187000  0.36275000  1.0
  N  N96  1  0.20283000  0.17467000  0.25301000  1.0
  N  N97  1  0.29717000  0.32533000  0.75301000  1.0
  N  N98  1  0.20283000  0.82533000  0.24699000  1.0
  N  N99  1  0.29718000  0.67467000  0.74699000  1.0
  N  N100  1  0.79718000  0.82533000  0.74700000  1.0
  N  N101  1  0.70282000  0.67467000  0.24699000  1.0
  N  N102  1  0.79717000  0.17467000  0.75300000  1.0
  N  N103  1  0.70282000  0.32533000  0.25300000  1.0
