# generated using pymatgen
data_CoMo4H24C36N12O13
_symmetry_space_group_name_H-M   'P 1'
_cell_length_a   8.08676000
_cell_length_b   8.63370000
_cell_length_c   13.57730000
_cell_angle_alpha   80.87070000
_cell_angle_beta   83.59600000
_cell_angle_gamma   82.33350000
_symmetry_Int_Tables_number   1
_chemical_formula_structural   CoMo4H24C36N12O13
_chemical_formula_sum   'Co1 Mo4 H24 C36 N12 O13'
_cell_volume   923.61054200
_cell_formula_units_Z   1
loop_
 _symmetry_equiv_pos_site_id
 _symmetry_equiv_pos_as_xyz
  1  'x, y, z'
loop_
 _atom_site_type_symbol
 _atom_site_label
 _atom_site_symmetry_multiplicity
 _atom_site_fract_x
 _atom_site_fract_y
 _atom_site_fract_z
 _atom_site_occupancy
  Co  Co0  1  0.00000000  0.00000000  0.50000000  1.0
  Mo  Mo1  1  0.35067000  0.68359000  0.57584000  1.0
  Mo  Mo2  1  0.64933000  0.31641000  0.42416000  1.0
  Mo  Mo3  1  0.80931000  0.63091000  0.54809000  1.0
  Mo  Mo4  1  0.19069000  0.36909000  0.45191000  1.0
  H  H5  1  0.15730000  0.73577000  0.40858000  1.0
  H  H6  1  0.84270000  0.26423000  0.59142000  1.0
  H  H7  1  0.30226000  0.69022000  0.24377000  1.0
  H  H8  1  0.69775000  0.30978000  0.75622000  1.0
  H  H9  1  0.08641000  0.15537000  0.12198000  1.0
  H  H10  1  0.91359000  0.84463000  0.87802000  1.0
  H  H11  1  0.96731000  0.19301000  0.29699000  1.0
  H  H12  1  0.03268000  0.80699000  0.70301000  1.0
  H  H13  1  0.62132000  0.54401000  0.14825000  1.0
  H  H14  1  0.37868000  0.45600000  0.85175000  1.0
  H  H15  1  0.84456000  0.32078000  0.14029000  1.0
  H  H16  1  0.15544000  0.67923000  0.85971000  1.0
  H  H17  1  0.92760000  0.42789000  0.83114000  1.0
  H  H18  1  0.07240000  0.57211000  0.16886000  1.0
  H  H19  1  0.70376000  0.65219000  0.82592000  1.0
  H  H20  1  0.29625000  0.34781000  0.17408000  1.0
  H  H21  1  0.09178000  0.39295000  0.70230000  1.0
  H  H22  1  0.90822000  0.60705000  0.29770000  1.0
  H  H23  1  0.13202000  0.22887000  0.87125000  1.0
  H  H24  1  0.86798000  0.77113000  0.12875000  1.0
  H  H25  1  0.49911000  0.91584000  0.71974000  1.0
  H  H26  1  0.50089000  0.08415000  0.28026000  1.0
  H  H27  1  0.43684000  0.08485000  0.55877000  1.0
  H  H28  1  0.56316000  0.91515000  0.44123000  1.0
  C  C29  1  0.14918000  0.82836000  0.34480000  1.0
  C  C30  1  0.85082000  0.17164000  0.65519000  1.0
  C  C31  1  0.22811000  0.80277000  0.25205000  1.0
  C  C32  1  0.77190000  0.19723000  0.74795000  1.0
  C  C33  1  0.20969000  0.92160000  0.16981000  1.0
  C  C34  1  0.79031000  0.07841000  0.83019000  1.0
  C  C35  1  0.10812000  0.06202000  0.18494000  1.0
  C  C36  1  0.89189000  0.93798000  0.81506000  1.0
  C  C37  1  0.04029000  0.08266000  0.28166000  1.0
  C  C38  1  0.95970000  0.91733000  0.71834000  1.0
  C  C39  1  0.30076000  0.89501000  0.07207000  1.0
  C  C40  1  0.69924000  0.10500000  0.92793000  1.0
  C  C41  1  0.50810000  0.74965000  0.98740000  1.0
  C  C42  1  0.49190000  0.25035000  0.01260000  1.0
  C  C43  1  0.35233000  0.95805000  0.90409000  1.0
  C  C44  1  0.64767000  0.04195000  0.09591000  1.0
  C  C45  1  0.64513000  0.61846000  0.98722000  1.0
  C  C46  1  0.35487000  0.38155000  0.01278000  1.0
  C  C47  1  0.68706000  0.52303000  0.07635000  1.0
  C  C48  1  0.31294000  0.47698000  0.92366000  1.0
  C  C49  1  0.81332000  0.39701000  0.07119000  1.0
  C  C50  1  0.18668000  0.60299000  0.92881000  1.0
  C  C51  1  0.85844000  0.45582000  0.90086000  1.0
  C  C52  1  0.14156000  0.54419000  0.09914000  1.0
  C  C53  1  0.73354000  0.58349000  0.89734000  1.0
  C  C54  1  0.26647000  0.41651000  0.10266000  1.0
  C  C55  1  0.18003000  0.28570000  0.70971000  1.0
  C  C56  1  0.81997000  0.71429000  0.29029000  1.0
  C  C57  1  0.20292000  0.19554000  0.80305000  1.0
  C  C58  1  0.79708000  0.80446000  0.19695000  1.0
  C  C59  1  0.31966000  0.05988000  0.80807000  1.0
  C  C60  1  0.68034000  0.94012000  0.19193000  1.0
  C  C61  1  0.40779000  0.02065000  0.71895000  1.0
  C  C62  1  0.59221000  0.97935000  0.28105000  1.0
  C  C63  1  0.37436000  0.11538000  0.62941000  1.0
  C  C64  1  0.62564000  0.88462000  0.37059000  1.0
  N  N65  1  0.06258000  0.96801000  0.36110000  1.0
  N  N66  1  0.93742000  0.03199000  0.63891000  1.0
  N  N67  1  0.26048000  0.99228000  0.98853000  1.0
  N  N68  1  0.73952000  0.00772000  0.01147000  1.0
  N  N69  1  0.42388000  0.77369000  0.07550000  1.0
  N  N70  1  0.57612000  0.22632000  0.92450000  1.0
  N  N71  1  0.47581000  0.83827000  0.89948000  1.0
  N  N72  1  0.52419000  0.16173000  0.10052000  1.0
  N  N73  1  0.89883000  0.36159000  0.98544000  1.0
  N  N74  1  0.10118000  0.63841000  0.01456000  1.0
  N  N75  1  0.26301000  0.24651000  0.62375000  1.0
  N  N76  1  0.73699000  0.75349000  0.37625000  1.0
  O  O77  1  0.23411000  0.86537000  0.53877000  1.0
  O  O78  1  0.76589000  0.13462000  0.46123000  1.0
  O  O79  1  0.31502000  0.54797000  0.49367000  1.0
  O  O80  1  0.68498000  0.45202000  0.50633000  1.0
  O  O81  1  0.27693000  0.61616000  0.69686000  1.0
  O  O82  1  0.72307000  0.38384000  0.30314000  1.0
  O  O83  1  0.82010000  0.56106000  0.67274000  1.0
  O  O84  1  0.17989000  0.43894000  0.32726000  1.0
  O  O85  1  0.00000000  0.50000000  0.50000000  1.0
  O  O86  1  0.90160000  0.80950000  0.53180000  1.0
  O  O87  1  0.09840000  0.19050000  0.46820000  1.0
  O  O88  1  0.57078000  0.72200000  0.57115000  1.0
  O  O89  1  0.42921000  0.27800000  0.42885000  1.0
