# generated using pymatgen
data_KH8C8NO5
_symmetry_space_group_name_H-M   'P 1'
_cell_length_a   4.34575000
_cell_length_b   7.79674000
_cell_length_c   27.56870000
_cell_angle_alpha   90.00000000
_cell_angle_beta   90.00020000
_cell_angle_gamma   90.00000000
_symmetry_Int_Tables_number   1
_chemical_formula_structural   KH8C8NO5
_chemical_formula_sum   'K4 H32 C32 N4 O20'
_cell_volume   934.10151882
_cell_formula_units_Z   4
loop_
 _symmetry_equiv_pos_site_id
 _symmetry_equiv_pos_as_xyz
  1  'x, y, z'
loop_
 _atom_site_type_symbol
 _atom_site_label
 _atom_site_symmetry_multiplicity
 _atom_site_fract_x
 _atom_site_fract_y
 _atom_site_fract_z
 _atom_site_occupancy
  K  K0  1  0.62802000  0.52136000  0.97831000  1.0
  K  K1  1  0.87198000  0.47864000  0.47831000  1.0
  K  K2  1  0.12802000  0.97864000  0.02169000  1.0
  K  K3  1  0.37198000  0.02136000  0.52169000  1.0
  H  H4  1  0.30791000  0.58607000  0.25837000  1.0
  H  H5  1  0.19210000  0.41393000  0.75837000  1.0
  H  H6  1  0.80790000  0.91393000  0.74164000  1.0
  H  H7  1  0.69210000  0.08608000  0.24163000  1.0
  H  H8  1  0.93322000  0.49067000  0.26396000  1.0
  H  H9  1  0.56678000  0.50933000  0.76396000  1.0
  H  H10  1  0.43321000  0.00933000  0.73604000  1.0
  H  H11  1  0.06678000  0.99067000  0.23604000  1.0
  H  H12  1  0.78110000  0.68386000  0.19247000  1.0
  H  H13  1  0.71890000  0.31613000  0.69247000  1.0
  H  H14  1  0.28110000  0.81614000  0.80753000  1.0
  H  H15  1  0.21890000  0.18387000  0.30753000  1.0
  H  H16  1  0.44637000  0.45267000  0.11365000  1.0
  H  H17  1  0.05364000  0.54733000  0.61365000  1.0
  H  H18  1  0.94636000  0.04733000  0.88635000  1.0
  H  H19  1  0.55365000  0.95268000  0.38635000  1.0
  H  H20  1  0.62982000  0.76431000  0.07450000  1.0
  H  H21  1  0.87017000  0.23569000  0.57450000  1.0
  H  H22  1  0.12983000  0.73569000  0.92550000  1.0
  H  H23  1  0.37017000  0.26431000  0.42550000  1.0
  H  H24  1  0.50526000  0.04677000  0.15148000  1.0
  H  H25  1  0.99474000  0.95323000  0.65148000  1.0
  H  H26  1  0.00525000  0.45323000  0.84852000  1.0
  H  H27  1  0.49474000  0.54677000  0.34852000  1.0
  H  H28  1  0.88683000  0.99325000  0.13387000  1.0
  H  H29  1  0.61317000  0.00675000  0.63387000  1.0
  H  H30  1  0.38682000  0.50675000  0.86613000  1.0
  H  H31  1  0.11318000  0.49325000  0.36613000  1.0
  H  H32  1  0.71228000  0.21172000  0.08379000  1.0
  H  H33  1  0.78772000  0.78828000  0.58379000  1.0
  H  H34  1  0.21228000  0.28828000  0.91622000  1.0
  H  H35  1  0.28772000  0.71172000  0.41621000  1.0
  C  C36  1  0.21338000  0.39205000  0.20146000  1.0
  C  C37  1  0.28662000  0.60795000  0.70146000  1.0
  C  C38  1  0.71339000  0.10795000  0.79854000  1.0
  C  C39  1  0.78661000  0.89206000  0.29854000  1.0
  C  C40  1  0.11548000  0.52759000  0.23856000  1.0
  C  C41  1  0.38452000  0.47241000  0.73856000  1.0
  C  C42  1  0.61548000  0.97241000  0.76144000  1.0
  C  C43  1  0.88452000  0.02759000  0.26144000  1.0
  C  C44  1  0.01399000  0.63092000  0.19376000  1.0
  C  C45  1  0.48602000  0.36907000  0.69376000  1.0
  C  C46  1  0.51397000  0.86908000  0.80624000  1.0
  C  C47  1  0.98603000  0.13093000  0.30624000  1.0
  C  C48  1  0.24295000  0.53539000  0.11890000  1.0
  C  C49  1  0.25706000  0.46460000  0.61890000  1.0
  C  C50  1  0.74294000  0.96461000  0.88110000  1.0
  C  C51  1  0.75707000  0.03540000  0.38110000  1.0
  C  C52  1  0.06107000  0.52127000  0.07056000  1.0
  C  C53  1  0.43894000  0.47873000  0.57056000  1.0
  C  C54  1  0.56108000  0.97872000  0.92944000  1.0
  C  C55  1  0.93895000  0.02127000  0.42944000  1.0
  C  C56  1  0.34803000  0.71535000  0.13302000  1.0
  C  C57  1  0.15197000  0.28465000  0.63302000  1.0
  C  C58  1  0.84802000  0.78465000  0.86698000  1.0
  C  C59  1  0.65198000  0.21536000  0.36698000  1.0
  C  C60  1  0.54203000  0.81673000  0.10839000  1.0
  C  C61  1  0.95796000  0.18327000  0.60839000  1.0
  C  C62  1  0.04203000  0.68327000  0.89161000  1.0
  C  C63  1  0.45798000  0.31673000  0.39161000  1.0
  C  C64  1  0.64385000  0.99325000  0.12180000  1.0
  C  C65  1  0.85615000  0.00675000  0.62180000  1.0
  C  C66  1  0.14384000  0.50674000  0.87820000  1.0
  C  C67  1  0.35615000  0.49326000  0.37820000  1.0
  N  N68  1  0.07919000  0.48222000  0.16258000  1.0
  N  N69  1  0.42081000  0.51778000  0.66258000  1.0
  N  N70  1  0.57919000  0.01778000  0.83742000  1.0
  N  N71  1  0.92082000  0.98222000  0.33742000  1.0
  O  O72  1  0.36170000  0.25951000  0.20180000  1.0
  O  O73  1  0.13828000  0.74049000  0.70179000  1.0
  O  O74  1  0.86171000  0.24049000  0.79821000  1.0
  O  O75  1  0.63827000  0.75952000  0.29821000  1.0
  O  O76  1  0.13859000  0.62112000  0.03645000  1.0
  O  O77  1  0.36142000  0.37888000  0.53645000  1.0
  O  O78  1  0.63858000  0.87888000  0.96355000  1.0
  O  O79  1  0.86141000  0.12113000  0.46355000  1.0
  O  O80  1  0.85713000  0.40546000  0.06735000  1.0
  O  O81  1  0.64287000  0.59453000  0.56735000  1.0
  O  O82  1  0.35712000  0.09454000  0.93265000  1.0
  O  O83  1  0.14287000  0.90547000  0.43265000  1.0
  O  O84  1  0.61493000  0.09778000  0.07864000  1.0
  O  O85  1  0.88507000  0.90222000  0.57864000  1.0
  O  O86  1  0.11493000  0.40221000  0.92136000  1.0
  O  O87  1  0.38507000  0.59778000  0.42136000  1.0
  O  O88  1  0.22918000  0.76091000  0.17784000  1.0
  O  O89  1  0.27082000  0.23909000  0.67784000  1.0
  O  O90  1  0.72917000  0.73909000  0.82216000  1.0
  O  O91  1  0.77082000  0.26092000  0.32216000  1.0
