# generated using pymatgen
data_ZnH19C26N3O5
_symmetry_space_group_name_H-M   'P 1'
_cell_length_a   12.79530000
_cell_length_b   13.06680000
_cell_length_c   13.86730000
_cell_angle_alpha   89.99990000
_cell_angle_beta   102.87300000
_cell_angle_gamma   90.00000000
_symmetry_Int_Tables_number   1
_chemical_formula_structural   ZnH19C26N3O5
_chemical_formula_sum   'Zn4 H76 C104 N12 O20'
_cell_volume   2260.25105648
_cell_formula_units_Z   4
loop_
 _symmetry_equiv_pos_site_id
 _symmetry_equiv_pos_as_xyz
  1  'x, y, z'
loop_
 _atom_site_type_symbol
 _atom_site_label
 _atom_site_symmetry_multiplicity
 _atom_site_fract_x
 _atom_site_fract_y
 _atom_site_fract_z
 _atom_site_occupancy
  Zn  Zn0  1  0.36255000  0.43491000  0.80629000  1.0
  Zn  Zn1  1  0.13745000  0.93491000  0.69371000  1.0
  Zn  Zn2  1  0.63745000  0.56509000  0.19371000  1.0
  Zn  Zn3  1  0.86255000  0.06509000  0.30629000  1.0
  H  H4  1  0.18481000  0.62640000  0.38299000  1.0
  H  H5  1  0.31519000  0.12639000  0.11701000  1.0
  H  H6  1  0.81519000  0.37360000  0.61701000  1.0
  H  H7  1  0.68481000  0.87360000  0.88299000  1.0
  H  H8  1  0.20674000  0.54480000  0.53261000  1.0
  H  H9  1  0.29326000  0.04480000  0.96739000  1.0
  H  H10  1  0.79326000  0.45520000  0.46739000  1.0
  H  H11  1  0.70674000  0.95520000  0.03260000  1.0
  H  H12  1  0.00435000  0.42742000  0.26403000  1.0
  H  H13  1  0.49565000  0.92742000  0.23597000  1.0
  H  H14  1  0.99565000  0.57258000  0.73597000  1.0
  H  H15  1  0.50435000  0.07258000  0.76403000  1.0
  H  H16  1  0.04232000  0.25924000  0.53642000  1.0
  H  H17  1  0.45768000  0.75924000  0.96358000  1.0
  H  H18  1  0.95768000  0.74076000  0.46358000  1.0
  H  H19  1  0.54232000  0.24076000  0.03642000  1.0
  H  H20  1  0.23578000  0.62491000  0.79571000  1.0
  H  H21  1  0.26422000  0.12491000  0.70429000  1.0
  H  H22  1  0.76422000  0.37509000  0.20429000  1.0
  H  H23  1  0.73578000  0.87509000  0.29571000  1.0
  H  H24  1  0.15530000  0.73104000  0.90615000  1.0
  H  H25  1  0.34470000  0.23105000  0.59385000  1.0
  H  H26  1  0.84470000  0.26896000  0.09385000  1.0
  H  H27  1  0.65530000  0.76896000  0.40615000  1.0
  H  H28  1  0.31037000  0.53557000  0.14892000  1.0
  H  H29  1  0.18963000  0.03558000  0.35108000  1.0
  H  H30  1  0.68963000  0.46442000  0.85108000  1.0
  H  H31  1  0.81037000  0.96442000  0.64892000  1.0
  H  H32  1  0.38740000  0.43697000  0.02565000  1.0
  H  H33  1  0.11260000  0.93697000  0.47435000  1.0
  H  H34  1  0.61260000  0.56303000  0.97435000  1.0
  H  H35  1  0.88740000  0.06303000  0.52565000  1.0
  H  H36  1  0.16764000  0.66210000  0.17245000  1.0
  H  H37  1  0.33236000  0.16210000  0.32755000  1.0
  H  H38  1  0.83236000  0.33790000  0.82755000  1.0
  H  H39  1  0.66764000  0.83790000  0.67245000  1.0
  H  H40  1  0.17475000  0.84248000  0.03002000  1.0
  H  H41  1  0.32525000  0.34248000  0.46998000  1.0
  H  H42  1  0.82525000  0.15752000  0.96998000  1.0
  H  H43  1  0.67475000  0.65752000  0.53002000  1.0
  H  H44  1  0.11519000  0.00485000  0.07534000  1.0
  H  H45  1  0.38481000  0.50485000  0.42466000  1.0
  H  H46  1  0.88481000  0.99515000  0.92466000  1.0
  H  H47  1  0.61519000  0.49515000  0.57534000  1.0
  H  H48  1  0.00561000  0.10690000  0.17080000  1.0
  H  H49  1  0.49439000  0.60690000  0.32920000  1.0
  H  H50  1  0.99439000  0.89310000  0.82920000  1.0
  H  H51  1  0.50561000  0.39310000  0.67080000  1.0
  H  H52  1  0.95506000  0.85104000  0.33179000  1.0
  H  H53  1  0.54494000  0.35104000  0.16821000  1.0
  H  H54  1  0.04494000  0.14896000  0.66821000  1.0
  H  H55  1  0.45506000  0.64895000  0.83179000  1.0
  H  H56  1  0.06021000  0.74039000  0.24727000  1.0
  H  H57  1  0.43979000  0.24039000  0.25273000  1.0
  H  H58  1  0.93979000  0.25961000  0.75273000  1.0
  H  H59  1  0.56021000  0.75961000  0.74727000  1.0
  H  H60  1  0.24778000  0.20775000  0.91989000  1.0
  H  H61  1  0.25221000  0.70775000  0.58010000  1.0
  H  H62  1  0.75221000  0.79225000  0.08010000  1.0
  H  H63  1  0.74779000  0.29225000  0.41990000  1.0
  H  H64  1  0.12752000  0.35210000  0.85952000  1.0
  H  H65  1  0.37247000  0.85210000  0.64048000  1.0
  H  H66  1  0.87247000  0.64790000  0.14048000  1.0
  H  H67  1  0.62753000  0.14790000  0.35952000  1.0
  H  H68  1  0.00461000  0.48361000  0.89081000  1.0
  H  H69  1  0.49539000  0.98361000  0.60919000  1.0
  H  H70  1  0.99539000  0.51639000  0.10919000  1.0
  H  H71  1  0.50461000  0.01639000  0.39081000  1.0
  H  H72  1  0.06214000  0.36964000  0.15399000  1.0
  H  H73  1  0.43786000  0.86964000  0.34601000  1.0
  H  H74  1  0.93786000  0.63036000  0.84601000  1.0
  H  H75  1  0.56214000  0.13036000  0.65399000  1.0
  H  H76  1  0.18479000  0.22507000  0.20060000  1.0
  H  H77  1  0.31521000  0.72507000  0.29940000  1.0
  H  H78  1  0.81521000  0.77493000  0.79940000  1.0
  H  H79  1  0.68479000  0.27493000  0.70060000  1.0
  C  C80  1  0.18015000  0.38958000  0.65307000  1.0
  C  C81  1  0.31985000  0.88958000  0.84693000  1.0
  C  C82  1  0.81985000  0.61042000  0.34693000  1.0
  C  C83  1  0.68015000  0.11042000  0.15307000  1.0
  C  C84  1  0.12814000  0.40210000  0.54522000  1.0
  C  C85  1  0.37186000  0.90210000  0.95478000  1.0
  C  C86  1  0.87186000  0.59790000  0.45478000  1.0
  C  C87  1  0.62814000  0.09790000  0.04522000  1.0
  C  C88  1  0.15239000  0.48718000  0.49286000  1.0
  C  C89  1  0.34761000  0.98718000  0.00713000  1.0
  C  C90  1  0.84761000  0.51282000  0.50714000  1.0
  C  C91  1  0.65239000  0.01282000  0.99286000  1.0
  C  C92  1  0.10788000  0.49793000  0.39124000  1.0
  C  C93  1  0.39212000  0.99793000  0.10876000  1.0
  C  C94  1  0.89212000  0.50207000  0.60876000  1.0
  C  C95  1  0.60788000  0.00207000  0.89124000  1.0
  C  C96  1  0.04028000  0.42078000  0.34261000  1.0
  C  C97  1  0.45972000  0.92078000  0.15739000  1.0
  C  C98  1  0.95972000  0.57922000  0.65739000  1.0
  C  C99  1  0.54028000  0.07922000  0.84261000  1.0
  C  C100  1  0.01814000  0.33453000  0.39442000  1.0
  C  C101  1  0.48186000  0.83453000  0.10557000  1.0
  C  C102  1  0.98186000  0.66547000  0.60557000  1.0
  C  C103  1  0.51814000  0.16547000  0.89442000  1.0
  C  C104  1  0.95668000  0.24761000  0.33931000  1.0
  C  C105  1  0.54332000  0.74761000  0.16068000  1.0
  C  C106  1  0.04332000  0.75239000  0.66069000  1.0
  C  C107  1  0.45668000  0.25239000  0.83931000  1.0
  C  C108  1  0.06002000  0.32602000  0.49618000  1.0
  C  C109  1  0.43998000  0.82602000  0.00381000  1.0
  C  C110  1  0.93998000  0.67398000  0.50381000  1.0
  C  C111  1  0.56002000  0.17398000  0.99619000  1.0
  C  C112  1  0.25241000  0.60912000  0.87482000  1.0
  C  C113  1  0.24759000  0.10912000  0.62518000  1.0
  C  C114  1  0.74759000  0.39088000  0.12518000  1.0
  C  C115  1  0.75241000  0.89088000  0.37482000  1.0
  C  C116  1  0.20847000  0.66887000  0.93792000  1.0
  C  C117  1  0.29153000  0.16888000  0.56208000  1.0
  C  C118  1  0.79153000  0.33112000  0.06208000  1.0
  C  C119  1  0.70847000  0.83113000  0.43792000  1.0
  C  C120  1  0.22883000  0.64422000  0.03901000  1.0
  C  C121  1  0.27117000  0.14422000  0.46100000  1.0
  C  C122  1  0.77117000  0.35578000  0.96100000  1.0
  C  C123  1  0.72883000  0.85578000  0.53900000  1.0
  C  C124  1  0.29380000  0.55877000  0.07156000  1.0
  C  C125  1  0.20620000  0.05877000  0.42844000  1.0
  C  C126  1  0.70620000  0.44123000  0.92844000  1.0
  C  C127  1  0.79380000  0.94123000  0.57156000  1.0
  C  C128  1  0.33682000  0.50392000  0.00414000  1.0
  C  C129  1  0.16318000  0.00392000  0.49586000  1.0
  C  C130  1  0.66318000  0.49608000  0.99586000  1.0
  C  C131  1  0.83682000  0.99608000  0.50414000  1.0
  C  C132  1  0.18110000  0.70289000  0.10736000  1.0
  C  C133  1  0.31890000  0.20289000  0.39265000  1.0
  C  C134  1  0.81890000  0.29711000  0.89264000  1.0
  C  C135  1  0.68110000  0.79711000  0.60736000  1.0
  C  C136  1  0.15405000  0.80249000  0.09247000  1.0
  C  C137  1  0.34595000  0.30249000  0.40753000  1.0
  C  C138  1  0.84595000  0.19751000  0.90753000  1.0
  C  C139  1  0.65405000  0.69751000  0.59247000  1.0
  C  C140  1  0.09811000  0.86324000  0.15272000  1.0
  C  C141  1  0.40189000  0.36324000  0.34728000  1.0
  C  C142  1  0.90189000  0.13676000  0.84728000  1.0
  C  C143  1  0.59811000  0.63676000  0.65272000  1.0
  C  C144  1  0.08173000  0.96840000  0.13250000  1.0
  C  C145  1  0.41827000  0.46840000  0.36750000  1.0
  C  C146  1  0.91827000  0.03160000  0.86750000  1.0
  C  C147  1  0.58173000  0.53160000  0.63250000  1.0
  C  C148  1  0.02141000  0.02556000  0.18453000  1.0
  C  C149  1  0.47859000  0.52556000  0.31547000  1.0
  C  C150  1  0.97859000  0.97444000  0.81547000  1.0
  C  C151  1  0.52141000  0.47444000  0.68453000  1.0
  C  C152  1  0.99395000  0.88353000  0.27641000  1.0
  C  C153  1  0.50605000  0.38354000  0.22359000  1.0
  C  C154  1  0.00605000  0.11647000  0.72359000  1.0
  C  C155  1  0.49395000  0.61646000  0.77641000  1.0
  C  C156  1  0.05320000  0.82131000  0.22785000  1.0
  C  C157  1  0.44680000  0.32131000  0.27215000  1.0
  C  C158  1  0.94680000  0.17869000  0.77215000  1.0
  C  C159  1  0.55320000  0.67868000  0.72785000  1.0
  C  C160  1  0.20506000  0.24554000  0.96985000  1.0
  C  C161  1  0.29493000  0.74554000  0.53015000  1.0
  C  C162  1  0.79494000  0.75445000  0.03015000  1.0
  C  C163  1  0.70507000  0.25446000  0.46985000  1.0
  C  C164  1  0.13741000  0.32778000  0.93644000  1.0
  C  C165  1  0.36258000  0.82778000  0.56356000  1.0
  C  C166  1  0.86258000  0.67222000  0.06356000  1.0
  C  C167  1  0.63742000  0.17222000  0.43644000  1.0
  C  C168  1  0.08576000  0.37823000  0.00255000  1.0
  C  C169  1  0.41424000  0.87823000  0.49745000  1.0
  C  C170  1  0.91424000  0.62177000  0.99745000  1.0
  C  C171  1  0.58576000  0.12177000  0.50255000  1.0
  C  C172  1  0.02000000  0.46810000  0.97017000  1.0
  C  C173  1  0.48000000  0.96810000  0.52983000  1.0
  C  C174  1  0.98000000  0.53190000  0.02983000  1.0
  C  C175  1  0.52000000  0.03190000  0.47017000  1.0
  C  C176  1  0.10241000  0.33859000  0.09923000  1.0
  C  C177  1  0.39759000  0.83859000  0.40077000  1.0
  C  C178  1  0.89759000  0.66141000  0.90077000  1.0
  C  C179  1  0.60241000  0.16141000  0.59923000  1.0
  C  C180  1  0.17068000  0.25605000  0.12566000  1.0
  C  C181  1  0.32932000  0.75605000  0.37434000  1.0
  C  C182  1  0.82932000  0.74395000  0.87434000  1.0
  C  C183  1  0.67068000  0.24395000  0.62566000  1.0
  N  N184  1  0.31606000  0.52819000  0.90724000  1.0
  N  N185  1  0.18393000  0.02819000  0.59276000  1.0
  N  N186  1  0.68394000  0.47181000  0.09276000  1.0
  N  N187  1  0.81607000  0.97181000  0.40724000  1.0
  N  N188  1  0.97780000  0.98391000  0.25552000  1.0
  N  N189  1  0.52220000  0.48391000  0.24447000  1.0
  N  N190  1  0.02220000  0.01609000  0.74447000  1.0
  N  N191  1  0.47780000  0.51609000  0.75553000  1.0
  N  N192  1  0.22289000  0.21006000  0.06313000  1.0
  N  N193  1  0.27710000  0.71006000  0.43687000  1.0
  N  N194  1  0.77710000  0.78994000  0.93687000  1.0
  N  N195  1  0.72290000  0.28994000  0.56313000  1.0
  O  O196  1  0.25511000  0.45672000  0.68543000  1.0
  O  O197  1  0.24489000  0.95671000  0.81457000  1.0
  O  O198  1  0.74489000  0.54328000  0.31457000  1.0
  O  O199  1  0.75511000  0.04329000  0.18543000  1.0
  O  O200  1  0.15363000  0.31887000  0.70331000  1.0
  O  O201  1  0.34637000  0.81887000  0.79669000  1.0
  O  O202  1  0.84637000  0.68113000  0.29669000  1.0
  O  O203  1  0.65363000  0.18113000  0.20331000  1.0
  O  O204  1  0.13024000  0.57948000  0.33851000  1.0
  O  O205  1  0.36976000  0.07948000  0.16149000  1.0
  O  O206  1  0.86976000  0.42052000  0.66149000  1.0
  O  O207  1  0.63024000  0.92052000  0.83851000  1.0
  O  O208  1  0.94517000  0.23997000  0.24721000  1.0
  O  O209  1  0.55483000  0.73997000  0.25279000  1.0
  O  O210  1  0.05483000  0.76003000  0.75279000  1.0
  O  O211  1  0.44517000  0.26003000  0.74721000  1.0
  O  O212  1  0.92040000  0.17982000  0.39241000  1.0
  O  O213  1  0.57960000  0.67982000  0.10759000  1.0
  O  O214  1  0.07960000  0.82018000  0.60759000  1.0
  O  O215  1  0.42040000  0.32018000  0.89241000  1.0
