# generated using pymatgen
data_AlH9C24(ClO)6
_symmetry_space_group_name_H-M   'P 1'
_cell_length_a   3.99051000
_cell_length_b   28.79690000
_cell_length_c   28.79695000
_cell_angle_alpha   119.99982769
_cell_angle_beta   90.00000000
_cell_angle_gamma   89.99960000
_symmetry_Int_Tables_number   1
_chemical_formula_structural   AlH9C24(ClO)6
_chemical_formula_sum   'Al2 H18 C48 Cl12 O12'
_cell_volume   2865.84052628
_cell_formula_units_Z   2
loop_
 _symmetry_equiv_pos_site_id
 _symmetry_equiv_pos_as_xyz
  1  'x, y, z'
loop_
 _atom_site_type_symbol
 _atom_site_label
 _atom_site_symmetry_multiplicity
 _atom_site_fract_x
 _atom_site_fract_y
 _atom_site_fract_z
 _atom_site_occupancy
  Al  Al0  1  0.99993000  0.00000000  0.50000000  1.0
  Al  Al1  1  0.99993000  0.33334000  0.16667000  1.0
  H  H2  1  0.49855000  0.58662000  0.35669000  1.0
  H  H3  1  0.50172000  0.57748000  0.20204000  1.0
  H  H4  1  0.50173000  0.75586000  0.46465000  1.0
  H  H5  1  0.49855000  0.74670000  0.30999000  1.0
  H  H6  1  0.50001000  0.66245000  0.27790000  1.0
  H  H7  1  0.50002000  0.67089000  0.38879000  1.0
  H  H8  1  0.49855000  0.14331000  0.22993000  1.0
  H  H9  1  0.50172000  0.29796000  0.37544000  1.0
  H  H10  1  0.50172000  0.03535000  0.29121000  1.0
  H  H11  1  0.49856000  0.19001000  0.43671000  1.0
  H  H12  1  0.50002000  0.22210000  0.38455000  1.0
  H  H13  1  0.50002000  0.11121000  0.28210000  1.0
  H  H14  1  0.49855000  0.27007000  0.91338000  1.0
  H  H15  1  0.50172000  0.12456000  0.92252000  1.0
  H  H16  1  0.50172000  0.20879000  0.74414000  1.0
  H  H17  1  0.49856000  0.06329000  0.75330000  1.0
  H  H18  1  0.50002000  0.11545000  0.83755000  1.0
  H  H19  1  0.50003000  0.21790000  0.82911000  1.0
  C  C20  1  0.49995000  0.04515000  0.58260000  1.0
  C  C21  1  0.49995000  0.91740000  0.46255000  1.0
  C  C22  1  0.49995000  0.03745000  0.45485000  1.0
  C  C23  1  0.49993000  0.41594000  0.20413000  1.0
  C  C24  1  0.49993000  0.29588000  0.21181000  1.0
  C  C25  1  0.49993000  0.28820000  0.08407000  1.0
  C  C26  1  0.49986000  0.47607000  0.23126000  1.0
  C  C27  1  0.50171000  0.50848000  0.28764000  1.0
  C  C28  1  0.50057000  0.56413000  0.31304000  1.0
  C  C29  1  0.50021000  0.59033000  0.28292000  1.0
  C  C30  1  0.49969000  0.55860000  0.22676000  1.0
  C  C31  1  0.49821000  0.50285000  0.20166000  1.0
  C  C32  1  0.50019000  0.64844000  0.30689000  1.0
  C  C33  1  0.50019000  0.68490000  0.35981000  1.0
  C  C34  1  0.49970000  0.77474000  0.43993000  1.0
  C  C35  1  0.50024000  0.74301000  0.38377000  1.0
  C  C36  1  0.50057000  0.76920000  0.35364000  1.0
  C  C37  1  0.50171000  0.82485000  0.37905000  1.0
  C  C38  1  0.49988000  0.85726000  0.43542000  1.0
  C  C39  1  0.49823000  0.83048000  0.46502000  1.0
  C  C40  1  0.49986000  0.26874000  0.24481000  1.0
  C  C41  1  0.50171000  0.21237000  0.22085000  1.0
  C  C42  1  0.50057000  0.18696000  0.25109000  1.0
  C  C43  1  0.50022000  0.21709000  0.30741000  1.0
  C  C44  1  0.49969000  0.27324000  0.33185000  1.0
  C  C45  1  0.49822000  0.29834000  0.30119000  1.0
  C  C46  1  0.50019000  0.19312000  0.34155000  1.0
  C  C47  1  0.50020000  0.14019000  0.32509000  1.0
  C  C48  1  0.49970000  0.06007000  0.33480000  1.0
  C  C49  1  0.50024000  0.11623000  0.35924000  1.0
  C  C50  1  0.50058000  0.14636000  0.41556000  1.0
  C  C51  1  0.50171000  0.12095000  0.44580000  1.0
  C  C52  1  0.49988000  0.06458000  0.42184000  1.0
  C  C53  1  0.49823000  0.03498000  0.36546000  1.0
  C  C54  1  0.49987000  0.25519000  0.02393000  1.0
  C  C55  1  0.50171000  0.27916000  0.99152000  1.0
  C  C56  1  0.50057000  0.24891000  0.93587000  1.0
  C  C57  1  0.50022000  0.19260000  0.90968000  1.0
  C  C58  1  0.49969000  0.16815000  0.94139000  1.0
  C  C59  1  0.49822000  0.19881000  0.99715000  1.0
  C  C60  1  0.50020000  0.15846000  0.85157000  1.0
  C  C61  1  0.50020000  0.17491000  0.81510000  1.0
  C  C62  1  0.49970000  0.16520000  0.72527000  1.0
  C  C63  1  0.50024000  0.14076000  0.75699000  1.0
  C  C64  1  0.50057000  0.08444000  0.73080000  1.0
  C  C65  1  0.50171000  0.05420000  0.67515000  1.0
  C  C66  1  0.49988000  0.07817000  0.64274000  1.0
  C  C67  1  0.49823000  0.13454000  0.66952000  1.0
  Cl  Cl68  1  0.50814000  0.46729000  0.13254000  1.0
  Cl  Cl69  1  0.49115000  0.47945000  0.32749000  1.0
  Cl  Cl70  1  0.49114000  0.85388000  0.33919000  1.0
  Cl  Cl71  1  0.50816000  0.86605000  0.53414000  1.0
  Cl  Cl72  1  0.50814000  0.36746000  0.33475000  1.0
  Cl  Cl73  1  0.49115000  0.17252000  0.15196000  1.0
  Cl  Cl74  1  0.49114000  0.16081000  0.51469000  1.0
  Cl  Cl75  1  0.50815000  0.96586000  0.33191000  1.0
  Cl  Cl76  1  0.50814000  0.16525000  0.03271000  1.0
  Cl  Cl77  1  0.49115000  0.34804000  0.02055000  1.0
  Cl  Cl78  1  0.49114000  0.98531000  0.64612000  1.0
  Cl  Cl79  1  0.50815000  0.16809000  0.63395000  1.0
  O  O80  1  0.26309000  0.00481000  0.44695000  1.0
  O  O81  1  0.26309000  0.05305000  0.55786000  1.0
  O  O82  1  0.26309000  0.94214000  0.49519000  1.0
  O  O83  1  0.73684000  0.04891000  0.48835000  1.0
  O  O84  1  0.73684000  0.93944000  0.45109000  1.0
  O  O85  1  0.73684000  0.01165000  0.56056000  1.0
  O  O86  1  0.26310000  0.28029000  0.10881000  1.0
  O  O87  1  0.26309000  0.39120000  0.17148000  1.0
  O  O88  1  0.26309000  0.32853000  0.21972000  1.0
  O  O89  1  0.73684000  0.32169000  0.10611000  1.0
  O  O90  1  0.73684000  0.28442000  0.17831000  1.0
  O  O91  1  0.73684000  0.39389000  0.21558000  1.0
