# generated using pymatgen
data_PrH7C8O9
_symmetry_space_group_name_H-M   'P 1'
_cell_length_a   8.41439000
_cell_length_b   8.78007000
_cell_length_c   14.48000000
_cell_angle_alpha   90.00000000
_cell_angle_beta   90.00000000
_cell_angle_gamma   103.63000000
_symmetry_Int_Tables_number   1
_chemical_formula_structural   PrH7C8O9
_chemical_formula_sum   'Pr4 H28 C32 O36'
_cell_volume   1039.63990551
_cell_formula_units_Z   4
loop_
 _symmetry_equiv_pos_site_id
 _symmetry_equiv_pos_as_xyz
  1  'x, y, z'
loop_
 _atom_site_type_symbol
 _atom_site_label
 _atom_site_symmetry_multiplicity
 _atom_site_fract_x
 _atom_site_fract_y
 _atom_site_fract_z
 _atom_site_occupancy
  Pr  Pr0  1  0.36745000  0.90481000  0.81204000  1.0
  Pr  Pr1  1  0.63255000  0.59519000  0.31204000  1.0
  Pr  Pr2  1  0.63255000  0.09519000  0.18796000  1.0
  Pr  Pr3  1  0.36745000  0.40481000  0.68796000  1.0
  H  H4  1  0.92158000  0.88603000  0.70451000  1.0
  H  H5  1  0.07842000  0.61397000  0.20451000  1.0
  H  H6  1  0.07842000  0.11397000  0.29549000  1.0
  H  H7  1  0.92158000  0.38603000  0.79549000  1.0
  H  H8  1  0.82169000  0.53674000  0.65171000  1.0
  H  H9  1  0.17831000  0.96326000  0.15171000  1.0
  H  H10  1  0.17831000  0.46326000  0.34829000  1.0
  H  H11  1  0.82169000  0.03674000  0.84829000  1.0
  H  H12  1  0.43900000  0.37436000  0.92512000  1.0
  H  H13  1  0.56100000  0.12563000  0.42512000  1.0
  H  H14  1  0.56100000  0.62563000  0.07488000  1.0
  H  H15  1  0.43900000  0.87436000  0.57488000  1.0
  H  H16  1  0.00519000  0.89730000  0.90052000  1.0
  H  H17  1  0.99481000  0.60270000  0.40052000  1.0
  H  H18  1  0.99480000  0.10270000  0.09948000  1.0
  H  H19  1  0.00519000  0.39730000  0.59948000  1.0
  H  H20  1  0.86431000  0.56505000  0.04718000  1.0
  H  H21  1  0.13569000  0.93495000  0.54718000  1.0
  H  H22  1  0.13569000  0.43495000  0.95282000  1.0
  H  H23  1  0.86431000  0.06505000  0.45282000  1.0
  H  H24  1  0.35631000  0.91678000  0.03096000  1.0
  H  H25  1  0.64369000  0.58321000  0.53096000  1.0
  H  H26  1  0.64369000  0.08321000  0.96904000  1.0
  H  H27  1  0.35631000  0.41679000  0.46904000  1.0
  H  H28  1  0.35528000  0.08468000  0.99841000  1.0
  H  H29  1  0.64472000  0.41532000  0.49841000  1.0
  H  H30  1  0.64472000  0.91532000  0.00159000  1.0
  H  H31  1  0.35528000  0.58468000  0.50159000  1.0
  C  C32  1  0.66240000  0.76265000  0.68326000  1.0
  C  C33  1  0.33760000  0.73735000  0.18326000  1.0
  C  C34  1  0.33760000  0.23735000  0.31674000  1.0
  C  C35  1  0.66240000  0.26265000  0.81674000  1.0
  C  C36  1  0.84212000  0.77397000  0.68472000  1.0
  C  C37  1  0.15788000  0.72603000  0.18472000  1.0
  C  C38  1  0.15788000  0.22603000  0.31528000  1.0
  C  C39  1  0.84212000  0.27397000  0.81528000  1.0
  C  C40  1  0.90397000  0.64903000  0.66830000  1.0
  C  C41  1  0.09603000  0.85097000  0.16830000  1.0
  C  C42  1  0.09604000  0.35097000  0.33170000  1.0
  C  C43  1  0.90397000  0.14903000  0.83170000  1.0
  C  C44  1  0.08062000  0.65104000  0.67539000  1.0
  C  C45  1  0.91938000  0.84896000  0.17539000  1.0
  C  C46  1  0.91938000  0.34896000  0.32461000  1.0
  C  C47  1  0.08062000  0.15104000  0.82461000  1.0
  C  C48  1  0.46918000  0.62571000  0.89575000  1.0
  C  C49  1  0.53082000  0.87429000  0.39574000  1.0
  C  C50  1  0.53082000  0.37429000  0.10426000  1.0
  C  C51  1  0.46918000  0.12572000  0.60425000  1.0
  C  C52  1  0.47713000  0.49081000  0.95559000  1.0
  C  C53  1  0.52287000  0.00919000  0.45559000  1.0
  C  C54  1  0.52287000  0.50919000  0.04441000  1.0
  C  C55  1  0.47713000  0.99081000  0.54441000  1.0
  C  C56  1  0.02505000  0.69560000  0.93852000  1.0
  C  C57  1  0.97495000  0.80440000  0.43851000  1.0
  C  C58  1  0.97495000  0.30440000  0.06149000  1.0
  C  C59  1  0.02505000  0.19560000  0.56149000  1.0
  C  C60  1  0.96467000  0.56104000  0.00040000  1.0
  C  C61  1  0.03533000  0.93896000  0.50040000  1.0
  C  C62  1  0.03533000  0.43896000  0.99960000  1.0
  C  C63  1  0.96467000  0.06104000  0.49960000  1.0
  O  O64  1  0.14290000  0.69981000  0.88585000  1.0
  O  O65  1  0.85710000  0.80019000  0.38585000  1.0
  O  O66  1  0.85710000  0.30019000  0.11415000  1.0
  O  O67  1  0.14290000  0.19981000  0.61415000  1.0
  O  O68  1  0.94606000  0.80842000  0.94419000  1.0
  O  O69  1  0.05394000  0.69158000  0.44419000  1.0
  O  O70  1  0.05393000  0.19158000  0.05581000  1.0
  O  O71  1  0.94607000  0.30842000  0.55581000  1.0
  O  O72  1  0.40619000  0.59919000  0.81502000  1.0
  O  O73  1  0.59381000  0.90081000  0.31502000  1.0
  O  O74  1  0.59381000  0.40081000  0.18498000  1.0
  O  O75  1  0.40619000  0.09919000  0.68498000  1.0
  O  O76  1  0.51600000  0.76579000  0.92550000  1.0
  O  O77  1  0.48400000  0.73420000  0.42550000  1.0
  O  O78  1  0.48400000  0.23421000  0.07450000  1.0
  O  O79  1  0.51600000  0.26580000  0.57450000  1.0
  O  O80  1  0.61206000  0.86923000  0.72494000  1.0
  O  O81  1  0.38794000  0.63077000  0.22494000  1.0
  O  O82  1  0.38794000  0.13077000  0.27506000  1.0
  O  O83  1  0.61206000  0.36923000  0.77506000  1.0
  O  O84  1  0.56958000  0.64648000  0.64083000  1.0
  O  O85  1  0.43043000  0.85352000  0.14083000  1.0
  O  O86  1  0.43043000  0.35352000  0.35917000  1.0
  O  O87  1  0.56957000  0.14648000  0.85917000  1.0
  O  O88  1  0.18579000  0.77745000  0.69055000  1.0
  O  O89  1  0.81421000  0.72255000  0.19055000  1.0
  O  O90  1  0.81421000  0.22255000  0.30945000  1.0
  O  O91  1  0.18579000  0.27745000  0.80945000  1.0
  O  O92  1  0.11656000  0.51751000  0.66553000  1.0
  O  O93  1  0.88344000  0.98249000  0.16553000  1.0
  O  O94  1  0.88344000  0.48250000  0.33447000  1.0
  O  O95  1  0.11656000  0.01751000  0.83447000  1.0
  O  O96  1  0.31777000  0.97400000  0.97990000  1.0
  O  O97  1  0.68223000  0.52600000  0.47990000  1.0
  O  O98  1  0.68223000  0.02600000  0.02010000  1.0
  O  O99  1  0.31777000  0.47400000  0.52010000  1.0
