# generated using pymatgen
data_MnH26C22(N3O4)2
_symmetry_space_group_name_H-M   'P 1'
_cell_length_a   7.23565000
_cell_length_b   8.30465000
_cell_length_c   11.60960000
_cell_angle_alpha   101.43800000
_cell_angle_beta   90.50780000
_cell_angle_gamma   108.37500000
_symmetry_Int_Tables_number   1
_chemical_formula_structural   MnH26C22(N3O4)2
_chemical_formula_sum   'Mn1 H26 C22 N6 O8'
_cell_volume   646.98507645
_cell_formula_units_Z   1
loop_
 _symmetry_equiv_pos_site_id
 _symmetry_equiv_pos_as_xyz
  1  'x, y, z'
loop_
 _atom_site_type_symbol
 _atom_site_label
 _atom_site_symmetry_multiplicity
 _atom_site_fract_x
 _atom_site_fract_y
 _atom_site_fract_z
 _atom_site_occupancy
  Mn  Mn0  1  0.49994000  0.49998000  0.50000000  1.0
  H  H1  1  0.82496000  0.51235000  0.39596000  1.0
  H  H2  1  0.17501000  0.48769000  0.60407000  1.0
  H  H3  1  0.91598000  0.58102000  0.53064000  1.0
  H  H4  1  0.08381000  0.41922000  0.46942000  1.0
  H  H5  1  0.29044000  0.31894000  0.12502000  1.0
  H  H6  1  0.70957000  0.68103000  0.87499000  1.0
  H  H7  1  0.02539000  0.68278000  0.97292000  1.0
  H  H8  1  0.97461000  0.31719000  0.02708000  1.0
  H  H9  1  0.40500000  0.77853000  0.05152000  1.0
  H  H10  1  0.59502000  0.22146000  0.94846000  1.0
  H  H11  1  0.51183000  0.99591000  0.12381000  1.0
  H  H12  1  0.48818000  0.00411000  0.87618000  1.0
  H  H13  1  0.16768000  0.01973000  0.14500000  1.0
  H  H14  1  0.83232000  0.98025000  0.85499000  1.0
  H  H15  1  0.24040000  0.98594000  0.99855000  1.0
  H  H16  1  0.75959000  0.01404000  0.00145000  1.0
  H  H17  1  0.19730000  0.12468000  0.57968000  1.0
  H  H18  1  0.80270000  0.87530000  0.42031000  1.0
  H  H19  1  0.55875000  0.18879000  0.29806000  1.0
  H  H20  1  0.44129000  0.81120000  0.70194000  1.0
  H  H21  1  0.23336000  0.70964000  0.23174000  1.0
  H  H22  1  0.76668000  0.29036000  0.76825000  1.0
  H  H23  1  0.49182000  0.78944000  0.25499000  1.0
  H  H24  1  0.50820000  0.21056000  0.74499000  1.0
  H  H25  1  0.13074000  0.80315000  0.42705000  1.0
  H  H26  1  0.86926000  0.19683000  0.57292000  1.0
  C  C27  1  0.56402000  0.51337000  0.11732000  1.0
  C  C28  1  0.43600000  0.48662000  0.88269000  1.0
  C  C29  1  0.38053000  0.39924000  0.06949000  1.0
  C  C30  1  0.61949000  0.60074000  0.93051000  1.0
  C  C31  1  0.62855000  0.51464000  0.24121000  1.0
  C  C32  1  0.37144000  0.48535000  0.75881000  1.0
  C  C33  1  0.86353000  0.76484000  0.10167000  1.0
  C  C34  1  0.13646000  0.23515000  0.89832000  1.0
  C  C35  1  0.68436000  0.61698000  0.04743000  1.0
  C  C36  1  0.31565000  0.38299000  0.95258000  1.0
  C  C37  1  0.37998000  0.88238000  0.11797000  1.0
  C  C38  1  0.62001000  0.11762000  0.88203000  1.0
  C  C39  1  0.20493000  0.92658000  0.07569000  1.0
  C  C40  1  0.79507000  0.07344000  0.92431000  1.0
  C  C41  1  0.26157000  0.09166000  0.49791000  1.0
  C  C42  1  0.73845000  0.90833000  0.50208000  1.0
  C  C43  1  0.44918000  0.13046000  0.35376000  1.0
  C  C44  1  0.55086000  0.86953000  0.64624000  1.0
  C  C45  1  0.36267000  0.82419000  0.23518000  1.0
  C  C46  1  0.63735000  0.17579000  0.76482000  1.0
  C  C47  1  0.22657000  0.93184000  0.42419000  1.0
  C  C48  1  0.77345000  0.06814000  0.57578000  1.0
  N  N49  1  0.40029000  0.21499000  0.45243000  1.0
  N  N50  1  0.59974000  0.78500000  0.54758000  1.0
  N  N51  1  0.02875000  0.77688000  0.04454000  1.0
  N  N52  1  0.97125000  0.22310000  0.95546000  1.0
  N  N53  1  0.34592000  0.95873000  0.33311000  1.0
  N  N54  1  0.65410000  0.04125000  0.66688000  1.0
  O  O55  1  0.49698000  0.50320000  0.31400000  1.0
  O  O56  1  0.50299000  0.49677000  0.68600000  1.0
  O  O57  1  0.80352000  0.51949000  0.26148000  1.0
  O  O58  1  0.19649000  0.48055000  0.73856000  1.0
  O  O59  1  0.80701000  0.49405000  0.48037000  1.0
  O  O60  1  0.19300000  0.50596000  0.51966000  1.0
  O  O61  1  0.85171000  0.87443000  0.18879000  1.0
  O  O62  1  0.14829000  0.12558000  0.81120000  1.0
