# generated using pymatgen
data_SmH6C6(NO4)2
_symmetry_space_group_name_H-M   'P 1'
_cell_length_a   7.59537000
_cell_length_b   7.99096000
_cell_length_c   17.23260000
_cell_angle_alpha   90.00000000
_cell_angle_beta   89.99980000
_cell_angle_gamma   108.24800000
_symmetry_Int_Tables_number   1
_chemical_formula_structural   SmH6C6(NO4)2
_chemical_formula_sum   'Sm4 H24 C24 N8 O32'
_cell_volume   993.32127211
_cell_formula_units_Z   4
loop_
 _symmetry_equiv_pos_site_id
 _symmetry_equiv_pos_as_xyz
  1  'x, y, z'
loop_
 _atom_site_type_symbol
 _atom_site_label
 _atom_site_symmetry_multiplicity
 _atom_site_fract_x
 _atom_site_fract_y
 _atom_site_fract_z
 _atom_site_occupancy
  Sm  Sm0  1  0.31440000  0.26063000  0.91499000  1.0
  Sm  Sm1  1  0.68560000  0.23937000  0.41499000  1.0
  Sm  Sm2  1  0.68560000  0.73936000  0.08501000  1.0
  Sm  Sm3  1  0.31440000  0.76064000  0.58501000  1.0
  H  H4  1  0.94771000  0.40047000  0.71626000  1.0
  H  H5  1  0.05230000  0.09954000  0.21627000  1.0
  H  H6  1  0.05229000  0.59953000  0.28374000  1.0
  H  H7  1  0.94771000  0.90048000  0.78373000  1.0
  H  H8  1  0.82204000  0.38590000  0.85394000  1.0
  H  H9  1  0.17797000  0.11410000  0.35395000  1.0
  H  H10  1  0.17796000  0.61410000  0.14606000  1.0
  H  H11  1  0.82204000  0.88589000  0.64605000  1.0
  H  H12  1  0.93228000  0.16386000  0.97408000  1.0
  H  H13  1  0.06771000  0.33613000  0.47408000  1.0
  H  H14  1  0.06770000  0.83614000  0.02592000  1.0
  H  H15  1  0.93228000  0.66386000  0.52592000  1.0
  H  H16  1  0.90697000  0.00225000  0.92020000  1.0
  H  H17  1  0.09303000  0.49775000  0.42020000  1.0
  H  H18  1  0.09303000  0.99774000  0.07980000  1.0
  H  H19  1  0.90697000  0.50225000  0.57980000  1.0
  H  H20  1  0.25040000  0.58709000  0.98343000  1.0
  H  H21  1  0.74959000  0.91291000  0.48343000  1.0
  H  H22  1  0.74958000  0.41291000  0.01657000  1.0
  H  H23  1  0.25041000  0.08709000  0.51657000  1.0
  H  H24  1  0.16287000  0.52730000  0.90226000  1.0
  H  H25  1  0.83713000  0.97269000  0.40226000  1.0
  H  H26  1  0.83713000  0.47270000  0.09774000  1.0
  H  H27  1  0.16287000  0.02731000  0.59774000  1.0
  C  C28  1  0.80592000  0.32753000  0.73313000  1.0
  C  C29  1  0.19408000  0.17246000  0.23313000  1.0
  C  C30  1  0.19409000  0.67246000  0.26687000  1.0
  C  C31  1  0.80593000  0.82754000  0.76687000  1.0
  C  C32  1  0.65614000  0.21864000  0.69128000  1.0
  C  C33  1  0.34386000  0.28136000  0.19128000  1.0
  C  C34  1  0.34387000  0.78137000  0.30872000  1.0
  C  C35  1  0.65615000  0.71865000  0.80872000  1.0
  C  C36  1  0.50975000  0.16165000  0.74673000  1.0
  C  C37  1  0.49026000  0.33835000  0.24674000  1.0
  C  C38  1  0.49022000  0.83832000  0.25327000  1.0
  C  C39  1  0.50976000  0.66167000  0.75327000  1.0
  C  C40  1  0.31031000  0.05025000  0.74515000  1.0
  C  C41  1  0.68970000  0.44976000  0.24514000  1.0
  C  C42  1  0.68970000  0.94974000  0.25485000  1.0
  C  C43  1  0.31030000  0.55027000  0.75485000  1.0
  C  C44  1  0.65932000  0.17880000  0.60740000  1.0
  C  C45  1  0.34068000  0.32120000  0.10740000  1.0
  C  C46  1  0.34068000  0.82120000  0.39261000  1.0
  C  C47  1  0.65932000  0.67880000  0.89261000  1.0
  C  C48  1  0.41310000  0.92132000  0.99044000  1.0
  C  C49  1  0.58689000  0.57867000  0.49044000  1.0
  C  C50  1  0.58690000  0.07866000  0.00957000  1.0
  C  C51  1  0.41309000  0.42133000  0.50957000  1.0
  N  N52  1  0.74641000  0.32996000  0.80668000  1.0
  N  N53  1  0.25361000  0.17004000  0.30669000  1.0
  N  N54  1  0.25358000  0.67004000  0.19332000  1.0
  N  N55  1  0.74641000  0.82995000  0.69332000  1.0
  N  N56  1  0.56787000  0.23463000  0.81616000  1.0
  N  N57  1  0.43213000  0.26538000  0.31616000  1.0
  N  N58  1  0.43213000  0.76536000  0.18382000  1.0
  N  N59  1  0.56787000  0.73462000  0.68383000  1.0
  O  O60  1  0.21266000  0.06985000  0.80229000  1.0
  O  O61  1  0.78734000  0.43015000  0.30229000  1.0
  O  O62  1  0.78734000  0.93013000  0.19770000  1.0
  O  O63  1  0.21266000  0.56987000  0.69771000  1.0
  O  O64  1  0.28581000  0.95059000  0.95108000  1.0
  O  O65  1  0.71420000  0.54940000  0.45108000  1.0
  O  O66  1  0.71418000  0.04941000  0.04892000  1.0
  O  O67  1  0.28581000  0.45059000  0.54892000  1.0
  O  O68  1  0.97776000  0.13068000  0.92502000  1.0
  O  O69  1  0.02224000  0.36932000  0.42502000  1.0
  O  O70  1  0.02224000  0.86932000  0.07498000  1.0
  O  O71  1  0.97775000  0.63068000  0.57498000  1.0
  O  O72  1  0.16640000  0.48362000  0.95518000  1.0
  O  O73  1  0.83359000  0.01638000  0.45518000  1.0
  O  O74  1  0.83359000  0.51639000  0.04482000  1.0
  O  O75  1  0.16639000  0.98362000  0.54483000  1.0
  O  O76  1  0.24730000  0.94357000  0.68978000  1.0
  O  O77  1  0.75271000  0.55643000  0.18978000  1.0
  O  O78  1  0.75270000  0.05642000  0.31022000  1.0
  O  O79  1  0.24731000  0.44358000  0.81021000  1.0
  O  O80  1  0.55726000  0.03188000  0.58203000  1.0
  O  O81  1  0.44273000  0.46812000  0.08203000  1.0
  O  O82  1  0.44272000  0.96812000  0.41798000  1.0
  O  O83  1  0.55728000  0.53188000  0.91798000  1.0
  O  O84  1  0.76627000  0.29404000  0.56233000  1.0
  O  O85  1  0.23373000  0.20596000  0.06233000  1.0
  O  O86  1  0.23373000  0.70598000  0.43768000  1.0
  O  O87  1  0.76627000  0.79404000  0.93767000  1.0
  O  O88  1  0.41170000  0.77253000  0.01688000  1.0
  O  O89  1  0.58830000  0.72746000  0.51688000  1.0
  O  O90  1  0.58830000  0.22745000  0.98313000  1.0
  O  O91  1  0.41170000  0.27254000  0.48312000  1.0
