# generated using pymatgen
data_Ag2H10C20S2N2O7F6
_symmetry_space_group_name_H-M   'P 1'
_cell_length_a   10.16300000
_cell_length_b   10.60340000
_cell_length_c   11.38310000
_cell_angle_alpha   97.35840000
_cell_angle_beta   100.37300000
_cell_angle_gamma   92.63530000
_symmetry_Int_Tables_number   1
_chemical_formula_structural   Ag2H10C20S2N2O7F6
_chemical_formula_sum   'Ag4 H20 C40 S4 N4 O14 F12'
_cell_volume   1193.68383985
_cell_formula_units_Z   2
loop_
 _symmetry_equiv_pos_site_id
 _symmetry_equiv_pos_as_xyz
  1  'x, y, z'
loop_
 _atom_site_type_symbol
 _atom_site_label
 _atom_site_symmetry_multiplicity
 _atom_site_fract_x
 _atom_site_fract_y
 _atom_site_fract_z
 _atom_site_occupancy
  Ag  Ag0  1  0.40983000  0.68281000  0.05189000  1.0
  Ag  Ag1  1  0.59017000  0.31720000  0.94811000  1.0
  Ag  Ag2  1  0.04768000  0.66556000  0.01390000  1.0
  Ag  Ag3  1  0.95233000  0.33444000  0.98610000  1.0
  H  H4  1  0.88090000  0.83652000  0.03745000  1.0
  H  H5  1  0.11910000  0.16348000  0.96255000  1.0
  H  H6  1  0.66737000  0.93939000  0.01405000  1.0
  H  H7  1  0.33262000  0.06060000  0.98595000  1.0
  H  H8  1  0.42554000  0.26195000  0.11149000  1.0
  H  H9  1  0.57445000  0.73803000  0.88850000  1.0
  H  H10  1  0.85781000  0.27115000  0.25569000  1.0
  H  H11  1  0.14219000  0.72885000  0.74430000  1.0
  H  H12  1  0.07183000  0.16725000  0.28228000  1.0
  H  H13  1  0.92817000  0.83275000  0.71772000  1.0
  H  H14  1  0.56511000  0.81116000  0.26589000  1.0
  H  H15  1  0.43490000  0.18884000  0.73411000  1.0
  H  H16  1  0.78417000  0.89805000  0.38795000  1.0
  H  H17  1  0.21583000  0.10196000  0.61206000  1.0
  H  H18  1  0.02184000  0.22415000  0.65569000  1.0
  H  H19  1  0.97817000  0.77584000  0.34432000  1.0
  H  H20  1  0.61524000  0.25371000  0.48524000  1.0
  H  H21  1  0.38476000  0.74628000  0.51477000  1.0
  H  H22  1  0.39573000  0.16859000  0.36287000  1.0
  H  H23  1  0.60427000  0.83141000  0.63713000  1.0
  C  C24  1  0.87700000  0.93126000  0.08599000  1.0
  C  C25  1  0.12301000  0.06874000  0.91401000  1.0
  C  C26  1  0.75663000  0.98893000  0.07212000  1.0
  C  C27  1  0.24337000  0.01106000  0.92788000  1.0
  C  C28  1  0.74846000  0.11224000  0.13257000  1.0
  C  C29  1  0.25153000  0.88775000  0.86743000  1.0
  C  C30  1  0.62629000  0.17240000  0.11572000  1.0
  C  C31  1  0.37371000  0.82760000  0.88428000  1.0
  C  C32  1  0.52188000  0.22740000  0.10020000  1.0
  C  C33  1  0.47811000  0.77258000  0.89979000  1.0
  C  C34  1  0.86352000  0.17605000  0.20890000  1.0
  C  C35  1  0.13648000  0.82395000  0.79109000  1.0
  C  C36  1  0.98346000  0.11766000  0.22363000  1.0
  C  C37  1  0.01653000  0.88234000  0.77636000  1.0
  C  C38  1  0.99179000  0.99529000  0.16171000  1.0
  C  C39  1  0.00821000  0.00471000  0.83829000  1.0
  C  C40  1  0.12010000  0.93981000  0.17580000  1.0
  C  C41  1  0.87991000  0.06019000  0.82420000  1.0
  C  C42  1  0.33408000  0.93529000  0.23979000  1.0
  C  C43  1  0.66592000  0.06472000  0.76021000  1.0
  C  C44  1  0.46479000  0.98377000  0.30722000  1.0
  C  C45  1  0.53521000  0.01623000  0.69278000  1.0
  C  C46  1  0.57545000  0.90811000  0.31357000  1.0
  C  C47  1  0.42455000  0.09189000  0.68643000  1.0
  C  C48  1  0.69864000  0.95649000  0.38218000  1.0
  C  C49  1  0.30136000  0.04352000  0.61782000  1.0
  C  C50  1  0.71427000  0.08093000  0.44625000  1.0
  C  C51  1  0.28574000  0.91907000  0.55376000  1.0
  C  C52  1  0.83742000  0.13067000  0.52151000  1.0
  C  C53  1  0.16259000  0.86933000  0.47850000  1.0
  C  C54  1  0.93785000  0.17830000  0.59054000  1.0
  C  C55  1  0.06215000  0.82169000  0.40947000  1.0
  C  C56  1  0.60340000  0.15699000  0.43739000  1.0
  C  C57  1  0.39660000  0.84301000  0.56261000  1.0
  C  C58  1  0.48041000  0.10899000  0.36910000  1.0
  C  C59  1  0.51959000  0.89102000  0.63091000  1.0
  C  C60  1  0.76134000  0.54707000  0.32453000  1.0
  C  C61  1  0.23865000  0.45294000  0.67546000  1.0
  C  C62  1  0.23917000  0.45333000  0.34055000  1.0
  C  C63  1  0.76084000  0.54667000  0.65945000  1.0
  S  S64  1  0.23631000  0.42778000  0.17530000  1.0
  S  S65  1  0.76369000  0.57222000  0.82470000  1.0
  S  S66  1  0.76182000  0.57370000  0.16594000  1.0
  S  S67  1  0.23818000  0.42629000  0.83406000  1.0
  N  N68  1  0.15709000  0.82987000  0.12892000  1.0
  N  N69  1  0.84291000  0.17014000  0.87108000  1.0
  N  N70  1  0.29396000  0.82672000  0.16963000  1.0
  N  N71  1  0.70604000  0.17328000  0.83037000  1.0
  O  O72  1  0.22835000  0.00973000  0.24635000  1.0
  O  O73  1  0.77165000  0.99027000  0.75365000  1.0
  O  O74  1  0.34939000  0.51049000  0.16232000  1.0
  O  O75  1  0.65061000  0.48951000  0.83767000  1.0
  O  O76  1  0.24840000  0.29116000  0.14802000  1.0
  O  O77  1  0.75160000  0.70884000  0.85199000  1.0
  O  O78  1  0.10290000  0.46809000  0.12397000  1.0
  O  O79  1  0.89710000  0.53191000  0.87604000  1.0
  O  O80  1  0.87424000  0.66789000  0.17770000  1.0
  O  O81  1  0.12576000  0.33210000  0.82229000  1.0
  O  O82  1  0.62985000  0.61926000  0.12766000  1.0
  O  O83  1  0.37015000  0.38074000  0.87233000  1.0
  O  O84  1  0.78158000  0.44701000  0.10606000  1.0
  O  O85  1  0.21842000  0.55299000  0.89394000  1.0
  F  F86  1  0.66321000  0.45889000  0.33082000  1.0
  F  F87  1  0.33679000  0.54112000  0.66918000  1.0
  F  F88  1  0.88061000  0.50730000  0.37537000  1.0
  F  F89  1  0.11938000  0.49271000  0.62463000  1.0
  F  F90  1  0.74065000  0.65843000  0.39049000  1.0
  F  F91  1  0.25934000  0.34157000  0.60950000  1.0
  F  F92  1  0.13703000  0.38264000  0.36772000  1.0
  F  F93  1  0.86298000  0.61736000  0.63229000  1.0
  F  F94  1  0.35678000  0.41753000  0.39976000  1.0
  F  F95  1  0.64323000  0.58248000  0.60024000  1.0
  F  F96  1  0.22761000  0.57723000  0.38023000  1.0
  F  F97  1  0.77238000  0.42277000  0.61977000  1.0
