# generated using pymatgen
data_CoAgH34C26(NO4)2
_symmetry_space_group_name_H-M   'P 1'
_cell_length_a   11.84020000
_cell_length_b   11.84120000
_cell_length_c   12.61364935
_cell_angle_alpha   109.39251778
_cell_angle_beta   105.61056116
_cell_angle_gamma   111.06500000
_symmetry_Int_Tables_number   1
_chemical_formula_structural   CoAgH34C26(NO4)2
_chemical_formula_sum   'Co2 Ag2 H68 C52 N4 O16'
_cell_volume   1396.88255726
_cell_formula_units_Z   2
loop_
 _symmetry_equiv_pos_site_id
 _symmetry_equiv_pos_as_xyz
  1  'x, y, z'
loop_
 _atom_site_type_symbol
 _atom_site_label
 _atom_site_symmetry_multiplicity
 _atom_site_fract_x
 _atom_site_fract_y
 _atom_site_fract_z
 _atom_site_occupancy
  Co  Co0  1  0.54652000  0.54665000  0.99999000  1.0
  Co  Co1  1  0.30307000  0.80285000  0.50009000  1.0
  Ag  Ag2  1  0.58381000  0.12273000  0.78524000  1.0
  Ag  Ag3  1  0.33731000  0.79833000  0.21469000  1.0
  H  H4  1  0.05380000  0.82117000  0.31873000  1.0
  H  H5  1  0.50246000  0.73502000  0.68101000  1.0
  H  H6  1  0.16034000  0.06253000  0.35445000  1.0
  H  H7  1  0.70825000  0.80587000  0.64550000  1.0
  H  H8  1  0.01520000  0.14582000  0.25890000  1.0
  H  H9  1  0.88709000  0.75641000  0.74131000  1.0
  H  H10  1  0.76877000  0.99064000  0.13082000  1.0
  H  H11  1  0.85979000  0.63811000  0.86947000  1.0
  H  H12  1  0.86456000  0.61051000  0.24940000  1.0
  H  H13  1  0.36098000  0.61516000  0.75042000  1.0
  H  H14  1  0.70550000  0.38278000  0.14378000  1.0
  H  H15  1  0.23885000  0.56181000  0.85624000  1.0
  H  H16  1  0.47398000  0.42318000  0.17604000  1.0
  H  H17  1  0.24717000  0.29809000  0.82377000  1.0
  H  H18  1  0.60127000  0.48903000  0.40022000  1.0
  H  H19  1  0.08877000  0.20124000  0.59967000  1.0
  H  H20  1  0.70058000  0.59891000  0.35629000  1.0
  H  H21  1  0.24251000  0.34448000  0.64352000  1.0
  H  H22  1  0.73123000  0.46632000  0.36741000  1.0
  H  H23  1  0.09876000  0.36395000  0.63246000  1.0
  H  H24  1  0.42886000  0.23842000  0.23918000  1.0
  H  H25  1  0.99927000  0.18979000  0.76086000  1.0
  H  H26  1  0.55242000  0.20881000  0.20011000  1.0
  H  H27  1  0.00874000  0.35242000  0.80004000  1.0
  H  H28  1  0.40379000  0.17310000  0.08135000  1.0
  H  H29  1  0.09191000  0.32249000  0.91866000  1.0
  H  H30  1  0.62023000  0.73566000  0.30267000  1.0
  H  H31  1  0.43282000  0.31722000  0.69714000  1.0
  H  H32  1  0.83400000  0.95722000  0.39772000  1.0
  H  H33  1  0.55918000  0.43600000  0.60199000  1.0
  H  H34  1  0.87435000  0.16237000  0.57845000  1.0
  H  H35  1  0.58380000  0.29576000  0.42132000  1.0
  H  H36  1  0.71601000  0.14326000  0.67361000  1.0
  H  H37  1  0.46990000  0.04232000  0.32630000  1.0
  H  H38  1  0.41752000  0.60209000  0.28866000  1.0
  H  H39  1  0.31352000  0.12868000  0.71127000  1.0
  H  H40  1  0.17549000  0.51282000  0.20503000  1.0
  H  H41  1  0.30788000  0.97043000  0.79511000  1.0
  H  H42  1  0.07136000  0.32862000  0.24860000  1.0
  H  H43  1  0.08001000  0.82286000  0.75142000  1.0
  H  H44  1  0.23836000  0.25000000  0.25434000  1.0
  H  H45  1  0.99585000  0.98420000  0.74570000  1.0
  H  H46  1  0.37167000  0.42013000  0.32512000  1.0
  H  H47  1  0.09524000  0.04672000  0.67493000  1.0
  H  H48  1  0.24766000  0.34304000  0.16824000  1.0
  H  H49  1  0.17494000  0.07950000  0.83179000  1.0
  H  H50  1  0.19046000  0.32291000  0.44185000  1.0
  H  H51  1  0.88125000  0.74879000  0.55810000  1.0
  H  H52  1  0.14352000  0.45297000  0.47862000  1.0
  H  H53  1  0.97459000  0.66512000  0.52138000  1.0
  H  H54  1  0.31280000  0.49847000  0.50915000  1.0
  H  H55  1  0.98964000  0.80388000  0.49087000  1.0
  H  H56  1  0.69522000  0.42341000  0.87439000  1.0
  H  H57  1  0.54882000  0.82070000  0.12554000  1.0
  H  H58  1  0.85807000  0.41695000  0.04626000  1.0
  H  H59  1  0.37059000  0.81181000  0.95357000  1.0
  H  H60  1  0.91408000  0.54309000  0.99703000  1.0
  H  H61  1  0.54600000  0.91689000  0.00295000  1.0
  H  H62  1  0.92731000  0.39182000  0.93662000  1.0
  H  H63  1  0.45514000  0.99062000  0.06330000  1.0
  H  H64  1  0.74641000  0.16560000  0.03345000  1.0
  H  H65  1  0.13212000  0.71327000  0.96674000  1.0
  H  H66  1  0.87627000  0.04064000  0.99322000  1.0
  H  H67  1  0.04762000  0.88359000  0.00713000  1.0
  H  H68  1  0.94056000  0.21432000  0.01689000  1.0
  H  H69  1  0.19761000  0.92395000  0.98340000  1.0
  H  H70  1  0.84601000  0.07160000  0.86187000  1.0
  H  H71  1  0.20993000  0.98441000  0.13846000  1.0
  C  C72  1  0.76963000  0.81735000  0.15042000  1.0
  C  C73  1  0.66678000  0.61919000  0.84952000  1.0
  C  C74  1  0.85232000  0.76981000  0.20509000  1.0
  C  C75  1  0.56461000  0.64720000  0.79475000  1.0
  C  C76  1  0.99271000  0.85992000  0.27809000  1.0
  C  C77  1  0.58184000  0.71460000  0.72175000  1.0
  C  C78  1  0.05203000  0.99426000  0.29792000  1.0
  C  C79  1  0.69644000  0.75409000  0.70203000  1.0
  C  C80  1  0.97033000  0.04067000  0.24432000  1.0
  C  C81  1  0.79642000  0.72604000  0.75577000  1.0
  C  C82  1  0.83230000  0.95447000  0.17198000  1.0
  C  C83  1  0.78247000  0.66041000  0.82814000  1.0
  C  C84  1  0.79668000  0.63448000  0.19407000  1.0
  C  C85  1  0.44029000  0.60265000  0.80581000  1.0
  C  C86  1  0.62184000  0.40376000  0.11556000  1.0
  C  C87  1  0.28809000  0.50639000  0.88442000  1.0
  C  C88  1  0.52139000  0.30086000  0.97910000  1.0
  C  C89  1  0.32160000  0.54230000  0.02087000  1.0
  C  C90  1  0.55030000  0.39260000  0.20173000  1.0
  C  C91  1  0.19084000  0.34871000  0.79818000  1.0
  C  C92  1  0.65156000  0.49217000  0.33878000  1.0
  C  C93  1  0.15331000  0.31297000  0.66111000  1.0
  C  C94  1  0.47956000  0.24467000  0.17875000  1.0
  C  C95  1  0.06597000  0.30089000  0.82126000  1.0
  C  C96  1  0.57784000  0.92724000  0.54534000  1.0
  C  C97  1  0.38228000  0.03236000  0.45472000  1.0
  C  C98  1  0.54967000  0.81249000  0.43585000  1.0
  C  C99  1  0.37690000  0.11364000  0.56416000  1.0
  C  C100  1  0.64515000  0.82488000  0.38668000  1.0
  C  C101  1  0.43819000  0.25824000  0.61319000  1.0
  C  C102  1  0.76307000  0.94814000  0.43841000  1.0
  C  C103  1  0.50961000  0.32442000  0.56139000  1.0
  C  C104  1  0.78648000  0.06263000  0.54111000  1.0
  C  C105  1  0.52151000  0.24521000  0.45874000  1.0
  C  C106  1  0.69729000  0.05210000  0.59450000  1.0
  C  C107  1  0.45782000  0.10265000  0.40544000  1.0
  C  C108  1  0.42394000  0.68447000  0.36703000  1.0
  C  C109  1  0.31768000  0.05677000  0.63301000  1.0
  C  C110  1  0.19023000  0.53429000  0.30138000  1.0
  C  C111  1  0.23302000  0.88883000  0.69876000  1.0
  C  C112  1  0.07717000  0.56065000  0.31720000  1.0
  C  C113  1  0.24344000  0.75992000  0.68299000  1.0
  C  C114  1  0.17888000  0.40445000  0.31165000  1.0
  C  C115  1  0.09291000  0.86731000  0.68837000  1.0
  C  C116  1  0.26366000  0.35185000  0.26131000  1.0
  C  C117  1  0.09072000  0.00247000  0.73872000  1.0
  C  C118  1  0.20748000  0.42071000  0.44271000  1.0
  C  C119  1  0.97821000  0.76496000  0.55728000  1.0
  C  C120  1  0.86469000  0.43192000  0.96621000  1.0
  C  C121  1  0.46558000  0.89837000  0.03368000  1.0
  C  C122  1  0.85628000  0.10808000  0.95775000  1.0
  C  C123  1  0.15046000  0.89888000  0.04255000  1.0
  N  N124  1  0.67203000  0.53892000  0.12212000  1.0
  N  N125  1  0.41670000  0.55006000  0.87785000  1.0
  N  N126  1  0.31802000  0.66333000  0.38721000  1.0
  N  N127  1  0.27642000  0.93072000  0.61294000  1.0
  O  O128  1  0.63645000  0.74219000  0.08455000  1.0
  O  O129  1  0.65742000  0.55185000  0.91537000  1.0
  O  O130  1  0.46374000  0.34818000  0.91655000  1.0
  O  O131  1  0.43155000  0.54739000  0.08347000  1.0
  O  O132  1  0.49580000  0.17791000  0.93357000  1.0
  O  O133  1  0.24404000  0.56206000  0.06637000  1.0
  O  O134  1  0.49663000  0.92112000  0.60144000  1.0
  O  O135  1  0.32030000  0.89508000  0.39878000  1.0
  O  O136  1  0.11436000  0.68607000  0.39613000  1.0
  O  O137  1  0.28980000  0.71800000  0.60398000  1.0
  O  O138  1  0.95706000  0.46796000  0.25473000  1.0
  O  O139  1  0.21314000  0.70235000  0.74550000  1.0
  O  O140  1  0.73457000  0.36109000  0.86092000  1.0
  O  O141  1  0.49982000  0.87338000  0.13891000  1.0
  O  O142  1  0.73045000  0.10091000  0.95200000  1.0
  O  O143  1  0.14878000  0.77867000  0.04819000  1.0
