# generated using pymatgen
data_AgH5C5O4
_symmetry_space_group_name_H-M   'P 1'
_cell_length_a   5.39761000
_cell_length_b   9.67051000
_cell_length_c   12.72310000
_cell_angle_alpha   69.85600000
_cell_angle_beta   90.00290000
_cell_angle_gamma   90.00060000
_symmetry_Int_Tables_number   1
_chemical_formula_structural   AgH5C5O4
_chemical_formula_sum   'Ag4 H20 C20 O16'
_cell_volume   623.49188945
_cell_formula_units_Z   4
loop_
 _symmetry_equiv_pos_site_id
 _symmetry_equiv_pos_as_xyz
  1  'x, y, z'
loop_
 _atom_site_type_symbol
 _atom_site_label
 _atom_site_symmetry_multiplicity
 _atom_site_fract_x
 _atom_site_fract_y
 _atom_site_fract_z
 _atom_site_occupancy
  Ag  Ag0  1  0.52875000  0.32077000  0.71384000  1.0
  Ag  Ag1  1  0.02878000  0.67924000  0.28615000  1.0
  Ag  Ag2  1  0.96617000  0.16829000  0.72546000  1.0
  Ag  Ag3  1  0.46620000  0.83172000  0.27454000  1.0
  H  H4  1  0.16577000  0.85594000  0.87813000  1.0
  H  H5  1  0.66578000  0.14407000  0.12184000  1.0
  H  H6  1  0.82793000  0.74963000  0.02015000  1.0
  H  H7  1  0.32791000  0.25039000  0.97983000  1.0
  H  H8  1  0.66221000  0.59245000  0.10571000  1.0
  H  H9  1  0.16221000  0.40755000  0.89428000  1.0
  H  H10  1  0.65582000  0.74623000  0.67242000  1.0
  H  H11  1  0.15582000  0.25377000  0.32759000  1.0
  H  H12  1  0.78717000  0.92409000  0.63451000  1.0
  H  H13  1  0.28715000  0.07589000  0.36549000  1.0
  H  H14  1  0.20513000  0.82944000  0.64644000  1.0
  H  H15  1  0.70511000  0.17054000  0.35359000  1.0
  H  H16  1  0.06954000  0.67210000  0.74849000  1.0
  H  H17  1  0.56955000  0.32788000  0.25154000  1.0
  H  H18  1  0.46367000  0.87860000  0.05195000  1.0
  H  H19  1  0.96366000  0.12140000  0.94804000  1.0
  H  H20  1  0.27352000  0.72125000  0.06994000  1.0
  H  H21  1  0.77351000  0.27876000  0.93004000  1.0
  H  H22  1  0.29144000  0.64972000  0.55678000  1.0
  H  H23  1  0.79145000  0.35029000  0.44324000  1.0
  C  C24  1  0.78747000  0.82937000  0.50491000  1.0
  C  C25  1  0.28745000  0.17064000  0.49509000  1.0
  C  C26  1  0.80792000  0.81620000  0.62568000  1.0
  C  C27  1  0.30790000  0.18380000  0.37433000  1.0
  C  C28  1  0.06131000  0.74493000  0.66101000  1.0
  C  C29  1  0.56130000  0.25507000  0.33900000  1.0
  C  C30  1  0.09865000  0.66114000  0.57906000  1.0
  C  C31  1  0.59867000  0.33884000  0.42095000  1.0
  C  C32  1  0.97161000  0.51099000  0.62440000  1.0
  C  C33  1  0.47168000  0.48900000  0.37560000  1.0
  C  C34  1  0.62524000  0.64013000  0.92839000  1.0
  C  C35  1  0.12525000  0.35987000  0.07161000  1.0
  C  C36  1  0.65291000  0.68860000  0.02878000  1.0
  C  C37  1  0.15288000  0.31140000  0.97122000  1.0
  C  C38  1  0.42778000  0.78700000  0.02190000  1.0
  C  C39  1  0.92778000  0.21300000  0.97808000  1.0
  C  C40  1  0.36468000  0.84100000  0.89603000  1.0
  C  C41  1  0.86468000  0.15899000  0.10395000  1.0
  C  C42  1  0.50327000  0.98464000  0.83455000  1.0
  C  C43  1  0.00327000  0.01536000  0.16546000  1.0
  O  O44  1  0.74182000  0.50767000  0.60516000  1.0
  O  O45  1  0.24187000  0.49233000  0.39484000  1.0
  O  O46  1  0.10318000  0.40323000  0.68397000  1.0
  O  O47  1  0.60319000  0.59679000  0.31603000  1.0
  O  O48  1  0.63416000  0.89768000  0.43525000  1.0
  O  O49  1  0.13416000  0.10235000  0.56475000  1.0
  O  O50  1  0.97199000  0.75219000  0.47737000  1.0
  O  O51  1  0.47198000  0.24782000  0.52263000  1.0
  O  O52  1  0.72499000  0.97374000  0.80655000  1.0
  O  O53  1  0.22502000  0.02628000  0.19344000  1.0
  O  O54  1  0.38290000  0.10315000  0.82221000  1.0
  O  O55  1  0.88289000  0.89686000  0.17777000  1.0
  O  O56  1  0.73483000  0.54440000  0.90521000  1.0
  O  O57  1  0.23484000  0.45560000  0.09480000  1.0
  O  O58  1  0.44848000  0.72428000  0.85757000  1.0
  O  O59  1  0.94850000  0.27569000  0.14244000  1.0
