# generated using pymatgen
data_RbLiH6C4O7
_symmetry_space_group_name_H-M   'P 1'
_cell_length_a   9.64940000
_cell_length_b   9.78885000
_cell_length_c   10.40884707
_cell_angle_alpha   118.04742003
_cell_angle_beta   112.66594389
_cell_angle_gamma   90.00040000
_symmetry_Int_Tables_number   1
_chemical_formula_structural   RbLiH6C4O7
_chemical_formula_sum   'Rb4 Li4 H24 C16 O28'
_cell_volume   780.62973442
_cell_formula_units_Z   4
loop_
 _symmetry_equiv_pos_site_id
 _symmetry_equiv_pos_as_xyz
  1  'x, y, z'
loop_
 _atom_site_type_symbol
 _atom_site_label
 _atom_site_symmetry_multiplicity
 _atom_site_fract_x
 _atom_site_fract_y
 _atom_site_fract_z
 _atom_site_occupancy
  Rb  Rb0  1  0.25000000  0.96834000  0.00000000  1.0
  Rb  Rb1  1  0.75000000  0.03166000  0.00000000  1.0
  Rb  Rb2  1  0.25000000  0.48590000  0.00001000  1.0
  Rb  Rb3  1  0.75000000  0.51410000  0.99999000  1.0
  Li  Li4  1  0.07028000  0.09140000  0.66814000  1.0
  Li  Li5  1  0.42974000  0.42328000  0.33187000  1.0
  Li  Li6  1  0.92972000  0.90860000  0.33186000  1.0
  Li  Li7  1  0.57026000  0.57672000  0.66813000  1.0
  H  H8  1  0.09083000  0.99733000  0.25079000  1.0
  H  H9  1  0.40918000  0.74655000  0.74923000  1.0
  H  H10  1  0.90917000  0.00267000  0.74921000  1.0
  H  H11  1  0.59082000  0.25345000  0.25077000  1.0
  H  H12  1  0.89160000  0.44687000  0.32641000  1.0
  H  H13  1  0.60840000  0.12046000  0.67357000  1.0
  H  H14  1  0.10840000  0.55313000  0.67359000  1.0
  H  H15  1  0.39160000  0.87954000  0.32643000  1.0
  H  H16  1  0.96213000  0.24976000  0.89071000  1.0
  H  H17  1  0.53787000  0.35905000  0.10929000  1.0
  H  H18  1  0.03787000  0.75024000  0.10929000  1.0
  H  H19  1  0.46213000  0.64095000  0.89071000  1.0
  H  H20  1  0.84731000  0.21641000  0.71424000  1.0
  H  H21  1  0.65269000  0.50218000  0.28576000  1.0
  H  H22  1  0.15269000  0.78359000  0.28576000  1.0
  H  H23  1  0.34731000  0.49783000  0.71425000  1.0
  H  H24  1  0.27047000  0.26237000  0.41033000  1.0
  H  H25  1  0.22953000  0.85206000  0.58969000  1.0
  H  H26  1  0.72953000  0.73763000  0.58967000  1.0
  H  H27  1  0.77047000  0.14795000  0.41031000  1.0
  H  H28  1  0.14891000  0.47843000  0.43350000  1.0
  H  H29  1  0.35109000  0.04494000  0.56652000  1.0
  H  H30  1  0.85109000  0.52157000  0.56650000  1.0
  H  H31  1  0.64891000  0.95506000  0.43348000  1.0
  C  C32  1  0.12041000  0.24797000  0.51224000  1.0
  C  C33  1  0.37959000  0.73573000  0.48778000  1.0
  C  C34  1  0.87959000  0.75203000  0.48776000  1.0
  C  C35  1  0.62041000  0.26427000  0.51222000  1.0
  C  C36  1  0.14472000  0.23513000  0.36987000  1.0
  C  C37  1  0.35528000  0.86526000  0.63015000  1.0
  C  C38  1  0.85528000  0.76488000  0.63013000  1.0
  C  C39  1  0.64472000  0.13474000  0.36985000  1.0
  C  C40  1  0.07719000  0.36055000  0.33159000  1.0
  C  C41  1  0.42282000  0.02896000  0.66842000  1.0
  C  C42  1  0.92281000  0.63944000  0.66840000  1.0
  C  C43  1  0.57718000  0.97103000  0.33158000  1.0
  C  C44  1  0.09008000  0.33868000  0.17992000  1.0
  C  C45  1  0.40994000  0.15875000  0.82009000  1.0
  C  C46  1  0.90992000  0.66131000  0.82007000  1.0
  C  C47  1  0.59007000  0.84125000  0.17991000  1.0
  O  O48  1  0.18121000  0.37907000  0.64650000  1.0
  O  O49  1  0.31879000  0.73259000  0.35352000  1.0
  O  O50  1  0.81879000  0.62093000  0.35350000  1.0
  O  O51  1  0.68122000  0.26742000  0.64649000  1.0
  O  O52  1  0.04518000  0.12736000  0.49122000  1.0
  O  O53  1  0.45483000  0.63615000  0.50879000  1.0
  O  O54  1  0.95482000  0.87263000  0.50877000  1.0
  O  O55  1  0.54517000  0.36385000  0.49121000  1.0
  O  O56  1  0.07484000  0.08417000  0.22591000  1.0
  O  O57  1  0.42516000  0.85825000  0.77410000  1.0
  O  O58  1  0.92516000  0.91583000  0.77409000  1.0
  O  O59  1  0.57484000  0.14175000  0.22590000  1.0
  O  O60  1  0.92341000  0.34699000  0.31392000  1.0
  O  O61  1  0.57659000  0.03306000  0.68608000  1.0
  O  O62  1  0.07659000  0.65301000  0.68608000  1.0
  O  O63  1  0.42341000  0.96694000  0.31392000  1.0
  O  O64  1  0.96848000  0.32843000  0.06547000  1.0
  O  O65  1  0.53156000  0.26294000  0.93456000  1.0
  O  O66  1  0.03152000  0.67158000  0.93453000  1.0
  O  O67  1  0.46844000  0.73706000  0.06544000  1.0
  O  O68  1  0.22104000  0.33295000  0.17929000  1.0
  O  O69  1  0.27899000  0.15369000  0.82073000  1.0
  O  O70  1  0.77896000  0.66705000  0.82071000  1.0
  O  O71  1  0.72101000  0.84631000  0.17927000  1.0
  O  O72  1  0.94469000  0.19315000  0.77339000  1.0
  O  O73  1  0.55530000  0.41977000  0.22661000  1.0
  O  O74  1  0.05531000  0.80685000  0.22661000  1.0
  O  O75  1  0.44470000  0.58023000  0.77339000  1.0
