# generated using pymatgen
data_Al4H11C32NO27
_symmetry_space_group_name_H-M   'P 1'
_cell_length_a   6.67489000
_cell_length_b   16.73490000
_cell_length_c   18.53340000
_cell_angle_alpha   74.16650000
_cell_angle_beta   89.83450000
_cell_angle_gamma   89.92840000
_symmetry_Int_Tables_number   1
_chemical_formula_structural   Al4H11C32NO27
_chemical_formula_sum   'Al4 H11 C32 N1 O27'
_cell_volume   1991.69123447
_cell_formula_units_Z   1
loop_
 _symmetry_equiv_pos_site_id
 _symmetry_equiv_pos_as_xyz
  1  'x, y, z'
loop_
 _atom_site_type_symbol
 _atom_site_label
 _atom_site_symmetry_multiplicity
 _atom_site_fract_x
 _atom_site_fract_y
 _atom_site_fract_z
 _atom_site_occupancy
  Al  Al0  1  0.12590000  0.50255000  0.49824000  1.0
  Al  Al1  1  0.62710000  0.50070000  0.50083000  1.0
  Al  Al2  1  0.61628000  0.00254000  0.99946000  1.0
  Al  Al3  1  0.11590000  0.99924000  0.00104000  1.0
  H  H4  1  0.17103000  0.78879000  0.16968000  1.0
  H  H5  1  0.18381000  0.67059000  0.28639000  1.0
  H  H6  1  0.54142000  0.65716000  0.37117000  1.0
  H  H7  1  0.41526000  0.80782000  0.24866000  1.0
  H  H8  1  0.05712000  0.10967000  0.83454000  1.0
  H  H9  1  0.77513000  0.28148000  0.81835000  1.0
  H  H10  1  0.69211000  0.38927000  0.67040000  1.0
  H  H11  1  0.37513000  0.59610000  0.51923000  1.0
  H  H12  1  0.88097000  0.39282000  0.51106000  1.0
  H  H13  1  0.37269000  0.89848000  0.04877000  1.0
  H  H14  1  0.86940000  0.10459000  0.00479000  1.0
  C  C15  1  0.37989000  0.41492000  0.41548000  1.0
  C  C16  1  0.36876000  0.38709000  0.61347000  1.0
  C  C17  1  0.87358000  0.59014000  0.58407000  1.0
  C  C18  1  0.88070000  0.61385000  0.38327000  1.0
  C  C19  1  0.69250000  0.72463000  0.29036000  1.0
  C  C20  1  0.68602000  0.79277000  0.22505000  1.0
  C  C21  1  0.86047000  0.81588000  0.18198000  1.0
  C  C22  1  0.03888000  0.77044000  0.20481000  1.0
  C  C23  1  0.04583000  0.70489000  0.26878000  1.0
  C  C24  1  0.87228000  0.68136000  0.31307000  1.0
  C  C25  1  0.86292000  0.87061000  0.85822000  1.0
  C  C26  1  0.86615000  0.82692000  0.81481000  1.0
  C  C27  1  0.86906000  0.77867000  0.76776000  1.0
  C  C28  1  0.87142000  0.73382000  0.72483000  1.0
  C  C29  1  0.87344000  0.68530000  0.67803000  1.0
  C  C30  1  0.87518000  0.64104000  0.63504000  1.0
  C  C31  1  0.37932000  0.36408000  0.36437000  1.0
  C  C32  1  0.37551000  0.32062000  0.32074000  1.0
  C  C33  1  0.37149000  0.27306000  0.27310000  1.0
  C  C34  1  0.36799000  0.22922000  0.22933000  1.0
  C  C35  1  0.36593000  0.18159000  0.18172000  1.0
  C  C36  1  0.36522000  0.13802000  0.13814000  1.0
  C  C37  1  0.20734000  0.25751000  0.69784000  1.0
  C  C38  1  0.19585000  0.19653000  0.76698000  1.0
  C  C39  1  0.36127000  0.18684000  0.81820000  1.0
  C  C40  1  0.52348000  0.24235000  0.80011000  1.0
  C  C41  1  0.52384000  0.30723000  0.73230000  1.0
  C  C42  1  0.36878000  0.31446000  0.68084000  1.0
  C  C43  1  0.36335000  0.11644000  0.88678000  1.0
  C  C44  1  0.36934000  0.08820000  0.08587000  1.0
  C  C45  1  0.86574000  0.88588000  0.11246000  1.0
  C  C46  1  0.86014000  0.91970000  0.91115000  1.0
  N  N47  1  0.06265000  0.25644000  0.63937000  1.0
  O  O48  1  0.54269000  0.41301000  0.58685000  1.0
  O  O49  1  0.20990000  0.43292000  0.43797000  1.0
  O  O50  1  0.04929000  0.58365000  0.40784000  1.0
  O  O51  1  0.20322000  0.42014000  0.58904000  1.0
  O  O52  1  0.04214000  0.57527000  0.55786000  1.0
  O  O53  1  0.55019000  0.43761000  0.43384000  1.0
  O  O54  1  0.37759000  0.55333000  0.49274000  1.0
  O  O55  1  0.70255000  0.56470000  0.56908000  1.0
  O  O56  1  0.71163000  0.59066000  0.41713000  1.0
  O  O57  1  0.87689000  0.45149000  0.50900000  1.0
  O  O58  1  0.20070000  0.07407000  0.05950000  1.0
  O  O59  1  0.52678000  0.09402000  0.92035000  1.0
  O  O60  1  0.69014000  0.94583000  0.92576000  1.0
  O  O61  1  0.54166000  0.06437000  0.07061000  1.0
  O  O62  1  0.70064000  0.91042000  0.07951000  1.0
  O  O63  1  0.19350000  0.08065000  0.90871000  1.0
  O  O64  1  0.36701000  0.95081000  0.00982000  1.0
  O  O65  1  0.03828000  0.91554000  0.08942000  1.0
  O  O66  1  0.02877000  0.93113000  0.93861000  1.0
  O  O67  1  0.86805000  0.05157000  0.99307000  1.0
  O  O68  1  0.51618000  0.70724000  0.32780000  1.0
  O  O69  1  0.50915000  0.83355000  0.20807000  1.0
  O  O70  1  0.88271000  0.24666000  0.65641000  1.0
  O  O71  1  0.12945000  0.26506000  0.57473000  1.0
  O  O72  1  0.03802000  0.14538000  0.78183000  1.0
  O  O73  1  0.68090000  0.23874000  0.84603000  1.0
  O  O74  1  0.68113000  0.36049000  0.72462000  1.0
