# generated using pymatgen
data_ZnH21C35N3O4
_symmetry_space_group_name_H-M   'P 1'
_cell_length_a   16.67540000
_cell_length_b   16.67540000
_cell_length_c   23.19660000
_cell_angle_alpha   99.84620000
_cell_angle_beta   99.84590000
_cell_angle_gamma   114.36400000
_symmetry_Int_Tables_number   1
_chemical_formula_structural   ZnH21C35N3O4
_chemical_formula_sum   'Zn4 H84 C140 N12 O16'
_cell_volume   5575.67753095
_cell_formula_units_Z   4
loop_
 _symmetry_equiv_pos_site_id
 _symmetry_equiv_pos_as_xyz
  1  'x, y, z'
loop_
 _atom_site_type_symbol
 _atom_site_label
 _atom_site_symmetry_multiplicity
 _atom_site_fract_x
 _atom_site_fract_y
 _atom_site_fract_z
 _atom_site_occupancy
  Zn  Zn0  1  0.91210000  0.39455000  0.65879000  1.0
  Zn  Zn1  1  0.60545000  0.08790000  0.84121000  1.0
  Zn  Zn2  1  0.08790000  0.60545000  0.34121000  1.0
  Zn  Zn3  1  0.39455000  0.91210000  0.15879000  1.0
  H  H4  1  0.26688000  0.92831000  0.43396000  1.0
  H  H5  1  0.07169000  0.73312000  0.06604000  1.0
  H  H6  1  0.73312000  0.07169000  0.56603000  1.0
  H  H7  1  0.92831000  0.26688000  0.93397000  1.0
  H  H8  1  0.43121000  0.14794000  0.59611000  1.0
  H  H9  1  0.85206000  0.56879000  0.90389000  1.0
  H  H10  1  0.56879000  0.85206000  0.40389000  1.0
  H  H11  1  0.14794000  0.43121000  0.09611000  1.0
  H  H12  1  0.01776000  0.57397000  0.51509000  1.0
  H  H13  1  0.42603000  0.98224000  0.98491000  1.0
  H  H14  1  0.98224000  0.42603000  0.48491000  1.0
  H  H15  1  0.57397000  0.01776000  0.01509000  1.0
  H  H16  1  0.09191000  0.72598000  0.49728000  1.0
  H  H17  1  0.27402000  0.90809000  0.00272000  1.0
  H  H18  1  0.90809000  0.27402000  0.50272000  1.0
  H  H19  1  0.72598000  0.09191000  0.99728000  1.0
  H  H20  1  0.05061000  0.92975000  0.61008000  1.0
  H  H21  1  0.07025000  0.94939000  0.88991000  1.0
  H  H22  1  0.94939000  0.07025000  0.38992000  1.0
  H  H23  1  0.92975000  0.05061000  0.11009000  1.0
  H  H24  1  0.25152000  0.13463000  0.55059000  1.0
  H  H25  1  0.86536000  0.74848000  0.94941000  1.0
  H  H26  1  0.74848000  0.86537000  0.44941000  1.0
  H  H27  1  0.13464000  0.25152000  0.05059000  1.0
  H  H28  1  0.12552000  0.31243000  0.64145000  1.0
  H  H29  1  0.68757000  0.87448000  0.85855000  1.0
  H  H30  1  0.87448000  0.68757000  0.35855000  1.0
  H  H31  1  0.31243000  0.12552000  0.14145000  1.0
  H  H32  1  0.79954000  0.32316000  0.53391000  1.0
  H  H33  1  0.67684000  0.20046000  0.96610000  1.0
  H  H34  1  0.20046000  0.67684000  0.46610000  1.0
  H  H35  1  0.32316000  0.79954000  0.03391000  1.0
  H  H36  1  0.63758000  0.20760000  0.47707000  1.0
  H  H37  1  0.79240000  0.36241000  0.02293000  1.0
  H  H38  1  0.36242000  0.79240000  0.52293000  1.0
  H  H39  1  0.20761000  0.63758000  0.97707000  1.0
  H  H40  1  0.57321000  0.21784000  0.64979000  1.0
  H  H41  1  0.78216000  0.42679000  0.85021000  1.0
  H  H42  1  0.42679000  0.78216000  0.35021000  1.0
  H  H43  1  0.21784000  0.57321000  0.14979000  1.0
  H  H44  1  0.73612000  0.32877000  0.69874000  1.0
  H  H45  1  0.67123000  0.26388000  0.80126000  1.0
  H  H46  1  0.26388000  0.67123000  0.30126000  1.0
  H  H47  1  0.32877000  0.73612000  0.19874000  1.0
  H  H48  1  0.03129000  0.69883000  0.69745000  1.0
  H  H49  1  0.30116000  0.96871000  0.80255000  1.0
  H  H50  1  0.96871000  0.30116000  0.30255000  1.0
  H  H51  1  0.69883000  0.03129000  0.19745000  1.0
  H  H52  1  0.87639000  0.06150000  0.57952000  1.0
  H  H53  1  0.93850000  0.12361000  0.92048000  1.0
  H  H54  1  0.12361000  0.93850000  0.42048000  1.0
  H  H55  1  0.06150000  0.87639000  0.07952000  1.0
  H  H56  1  0.54797000  0.03982000  0.38718000  1.0
  H  H57  1  0.96018000  0.45203000  0.11282000  1.0
  H  H58  1  0.45203000  0.96018000  0.61282000  1.0
  H  H59  1  0.03982000  0.54797000  0.88718000  1.0
  H  H60  1  0.10494000  0.85296000  0.67932000  1.0
  H  H61  1  0.14704000  0.89506000  0.82068000  1.0
  H  H62  1  0.89506000  0.14704000  0.32068000  1.0
  H  H63  1  0.85296000  0.10494000  0.17932000  1.0
  H  H64  1  0.24768000  0.87213000  0.53808000  1.0
  H  H65  1  0.12787000  0.75232000  0.96192000  1.0
  H  H66  1  0.75232000  0.12787000  0.46192000  1.0
  H  H67  1  0.87213000  0.24768000  0.03808000  1.0
  H  H68  1  0.21461000  0.22623000  0.62384000  1.0
  H  H69  1  0.77377000  0.78539000  0.87616000  1.0
  H  H70  1  0.78539000  0.77377000  0.37616000  1.0
  H  H71  1  0.22623000  0.21461000  0.12384000  1.0
  H  H72  1  0.96315000  0.97518000  0.55733000  1.0
  H  H73  1  0.02482000  0.03685000  0.94267000  1.0
  H  H74  1  0.03685000  0.02482000  0.44267000  1.0
  H  H75  1  0.97518000  0.96315000  0.05733000  1.0
  H  H76  1  0.53699000  0.98506000  0.27641000  1.0
  H  H77  1  0.01494000  0.46301000  0.22358000  1.0
  H  H78  1  0.46301000  0.01494000  0.72359000  1.0
  H  H79  1  0.98506000  0.53699000  0.77641000  1.0
  H  H80  1  0.25259000  0.90686000  0.33956000  1.0
  H  H81  1  0.09314000  0.74741000  0.16044000  1.0
  H  H82  1  0.74741000  0.09313000  0.66044000  1.0
  H  H83  1  0.90686000  0.25259000  0.83956000  1.0
  H  H84  1  0.25467000  0.86339000  0.23127000  1.0
  H  H85  1  0.13661000  0.74533000  0.26873000  1.0
  H  H86  1  0.74533000  0.13661000  0.76873000  1.0
  H  H87  1  0.86339000  0.25467000  0.73127000  1.0
  C  C88  1  0.49791000  0.13078000  0.52531000  1.0
  C  C89  1  0.86922000  0.50209000  0.97469000  1.0
  C  C90  1  0.50209000  0.86922000  0.47469000  1.0
  C  C91  1  0.13078000  0.49791000  0.02531000  1.0
  C  C92  1  0.40715000  0.01802000  0.43613000  1.0
  C  C93  1  0.98199000  0.59285000  0.06387000  1.0
  C  C94  1  0.59285000  0.98198000  0.56387000  1.0
  C  C95  1  0.01802000  0.40715000  0.93613000  1.0
  C  C96  1  0.33155000  0.98726000  0.46014000  1.0
  C  C97  1  0.01275000  0.66845000  0.03986000  1.0
  C  C98  1  0.66845000  0.01274000  0.53986000  1.0
  C  C99  1  0.98726000  0.33155000  0.96014000  1.0
  C  C100  1  0.42382000  0.10925000  0.55095000  1.0
  C  C101  1  0.89075000  0.57618000  0.94905000  1.0
  C  C102  1  0.57618000  0.89074000  0.44905000  1.0
  C  C103  1  0.10926000  0.42382000  0.05095000  1.0
  C  C104  1  0.33928000  0.03535000  0.51823000  1.0
  C  C105  1  0.96465000  0.66072000  0.98177000  1.0
  C  C106  1  0.66072000  0.96465000  0.48177000  1.0
  C  C107  1  0.03535000  0.33928000  0.01823000  1.0
  C  C108  1  0.99547000  0.19204000  0.61288000  1.0
  C  C109  1  0.80796000  0.00453000  0.88712000  1.0
  C  C110  1  0.00454000  0.80797000  0.38712000  1.0
  C  C111  1  0.19204000  0.99547000  0.11289000  1.0
  C  C112  1  0.03699000  0.63473000  0.55135000  1.0
  C  C113  1  0.36526000  0.96301000  0.94865000  1.0
  C  C114  1  0.96301000  0.36527000  0.44865000  1.0
  C  C115  1  0.63473000  0.03699000  0.05135000  1.0
  C  C116  1  0.08004000  0.72069000  0.54162000  1.0
  C  C117  1  0.27931000  0.91996000  0.95838000  1.0
  C  C118  1  0.91996000  0.27931000  0.45838000  1.0
  C  C119  1  0.72069000  0.08004000  0.04162000  1.0
  C  C120  1  0.10922000  0.95182000  0.59119000  1.0
  C  C121  1  0.04818000  0.89078000  0.90882000  1.0
  C  C122  1  0.89078000  0.04818000  0.40881000  1.0
  C  C123  1  0.95182000  0.10922000  0.09119000  1.0
  C  C124  1  0.22258000  0.06743000  0.55916000  1.0
  C  C125  1  0.93257000  0.77742000  0.94084000  1.0
  C  C126  1  0.77742000  0.93257000  0.44084000  1.0
  C  C127  1  0.06743000  0.22258000  0.05916000  1.0
  C  C128  1  0.09076000  0.23828000  0.62364000  1.0
  C  C129  1  0.76173000  0.90924000  0.87636000  1.0
  C  C130  1  0.90924000  0.76173000  0.37636000  1.0
  C  C131  1  0.23827000  0.09076000  0.12364000  1.0
  C  C132  1  0.74667000  0.29653000  0.55721000  1.0
  C  C133  1  0.70347000  0.25333000  0.94279000  1.0
  C  C134  1  0.25333000  0.70347000  0.44279000  1.0
  C  C135  1  0.29653000  0.74666000  0.05721000  1.0
  C  C136  1  0.65737000  0.23380000  0.52626000  1.0
  C  C137  1  0.76620000  0.34263000  0.97374000  1.0
  C  C138  1  0.34263000  0.76620000  0.47374000  1.0
  C  C139  1  0.23380000  0.65737000  0.02626000  1.0
  C  C140  1  0.62016000  0.23907000  0.62171000  1.0
  C  C141  1  0.76093000  0.37984000  0.87829000  1.0
  C  C142  1  0.37984000  0.76093000  0.37829000  1.0
  C  C143  1  0.23907000  0.62016000  0.12171000  1.0
  C  C144  1  0.71119000  0.30093000  0.64950000  1.0
  C  C145  1  0.69907000  0.28881000  0.85050000  1.0
  C  C146  1  0.28881000  0.69907000  0.35050000  1.0
  C  C147  1  0.30093000  0.71119000  0.14950000  1.0
  C  C148  1  0.04429000  0.70576000  0.65365000  1.0
  C  C149  1  0.29424000  0.95572000  0.84635000  1.0
  C  C150  1  0.95571000  0.29424000  0.34635000  1.0
  C  C151  1  0.70576000  0.04428000  0.15365000  1.0
  C  C152  1  0.25950000  0.00744000  0.54384000  1.0
  C  C153  1  0.99256000  0.74050000  0.95616000  1.0
  C  C154  1  0.74050000  0.99256000  0.45616000  1.0
  C  C155  1  0.00744000  0.25950000  0.04384000  1.0
  C  C156  1  0.95050000  0.09698000  0.58907000  1.0
  C  C157  1  0.90302000  0.04950000  0.91093000  1.0
  C  C158  1  0.04950000  0.90302000  0.41093000  1.0
  C  C159  1  0.09698000  0.95050000  0.08907000  1.0
  C  C160  1  0.48192000  0.99931000  0.35384000  1.0
  C  C161  1  0.00069000  0.51808000  0.14616000  1.0
  C  C162  1  0.51808000  0.00069000  0.64616000  1.0
  C  C163  1  0.99931000  0.48192000  0.85384000  1.0
  C  C164  1  0.97306000  0.53459000  0.61791000  1.0
  C  C165  1  0.46541000  0.02695000  0.88209000  1.0
  C  C166  1  0.02695000  0.46541000  0.38209000  1.0
  C  C167  1  0.53459000  0.97305000  0.11791000  1.0
  C  C168  1  0.01889000  0.62667000  0.60748000  1.0
  C  C169  1  0.37333000  0.98112000  0.89252000  1.0
  C  C170  1  0.98111000  0.37333000  0.39252000  1.0
  C  C171  1  0.62666000  0.01888000  0.10748000  1.0
  C  C172  1  0.10389000  0.80002000  0.58722000  1.0
  C  C173  1  0.19997000  0.89611000  0.91278000  1.0
  C  C174  1  0.89611000  0.19998000  0.41278000  1.0
  C  C175  1  0.80002000  0.10389000  0.08722000  1.0
  C  C176  1  0.08532000  0.79146000  0.64336000  1.0
  C  C177  1  0.20854000  0.91468000  0.85664000  1.0
  C  C178  1  0.91468000  0.20854000  0.35664000  1.0
  C  C179  1  0.79145000  0.08532000  0.14336000  1.0
  C  C180  1  0.14521000  0.89120000  0.57631000  1.0
  C  C181  1  0.10880000  0.85478000  0.92369000  1.0
  C  C182  1  0.85479000  0.10880000  0.42370000  1.0
  C  C183  1  0.89120000  0.14522000  0.07630000  1.0
  C  C184  1  0.14454000  0.03874000  0.58097000  1.0
  C  C185  1  0.96126000  0.85546000  0.91903000  1.0
  C  C186  1  0.85546000  0.96126000  0.41903000  1.0
  C  C187  1  0.03874000  0.14454000  0.08097000  1.0
  C  C188  1  0.21927000  0.91879000  0.55079000  1.0
  C  C189  1  0.08121000  0.78073000  0.94921000  1.0
  C  C190  1  0.78073000  0.08121000  0.44921000  1.0
  C  C191  1  0.91879000  0.21927000  0.05079000  1.0
  C  C192  1  0.09546000  0.09398000  0.59069000  1.0
  C  C193  1  0.90602000  0.90454000  0.90931000  1.0
  C  C194  1  0.90454000  0.90602000  0.40931000  1.0
  C  C195  1  0.09398000  0.09546000  0.09069000  1.0
  C  C196  1  0.14016000  0.18971000  0.61305000  1.0
  C  C197  1  0.81029000  0.85984000  0.88695000  1.0
  C  C198  1  0.85984000  0.81029000  0.38695000  1.0
  C  C199  1  0.18971000  0.14016000  0.11305000  1.0
  C  C200  1  0.99946000  0.04885000  0.57753000  1.0
  C  C201  1  0.95115000  0.00054000  0.92247000  1.0
  C  C202  1  0.00054000  0.95115000  0.42246000  1.0
  C  C203  1  0.04885000  0.99946000  0.07754000  1.0
  C  C204  1  0.40150000  0.97930000  0.37233000  1.0
  C  C205  1  0.02070000  0.59850000  0.12767000  1.0
  C  C206  1  0.59850000  0.02070000  0.62767000  1.0
  C  C207  1  0.97930000  0.40150000  0.87233000  1.0
  C  C208  1  0.94077000  0.24124000  0.62767000  1.0
  C  C209  1  0.75876000  0.05923000  0.87233000  1.0
  C  C210  1  0.05923000  0.75876000  0.37233000  1.0
  C  C211  1  0.24124000  0.94077000  0.12767000  1.0
  C  C212  1  0.59171000  0.20237000  0.55846000  1.0
  C  C213  1  0.79763000  0.40829000  0.94154000  1.0
  C  C214  1  0.40829000  0.79763000  0.44154000  1.0
  C  C215  1  0.20237000  0.59171000  0.05846000  1.0
  C  C216  1  0.47635000  0.96928000  0.29306000  1.0
  C  C217  1  0.03071000  0.52365000  0.20694000  1.0
  C  C218  1  0.52365000  0.03071000  0.70694000  1.0
  C  C219  1  0.96929000  0.47635000  0.79306000  1.0
  C  C220  1  0.31765000  0.92662000  0.32805000  1.0
  C  C221  1  0.07338000  0.68235000  0.17195000  1.0
  C  C222  1  0.68235000  0.07337000  0.67195000  1.0
  C  C223  1  0.92663000  0.31765000  0.82805000  1.0
  C  C224  1  0.31788000  0.90036000  0.26792000  1.0
  C  C225  1  0.09964000  0.68212000  0.23208000  1.0
  C  C226  1  0.68212000  0.09964000  0.73208000  1.0
  C  C227  1  0.90036000  0.31788000  0.76792000  1.0
  N  N228  1  0.48869000  0.08681000  0.46861000  1.0
  N  N229  1  0.91319000  0.51131000  0.03139000  1.0
  N  N230  1  0.51132000  0.91319000  0.53139000  1.0
  N  N231  1  0.08681000  0.48869000  0.96861000  1.0
  N  N232  1  0.77389000  0.32853000  0.61824000  1.0
  N  N233  1  0.67147000  0.22611000  0.88176000  1.0
  N  N234  1  0.22611000  0.67147000  0.38176000  1.0
  N  N235  1  0.32853000  0.77389000  0.11824000  1.0
  N  N236  1  0.39551000  0.92147000  0.25037000  1.0
  N  N237  1  0.07853000  0.60449000  0.24963000  1.0
  N  N238  1  0.60449000  0.07853000  0.74963000  1.0
  N  N239  1  0.92147000  0.39551000  0.75037000  1.0
  O  O240  1  0.97253000  0.53115000  0.67347000  1.0
  O  O241  1  0.46885000  0.02747000  0.82653000  1.0
  O  O242  1  0.02747000  0.46885000  0.32653000  1.0
  O  O243  1  0.53115000  0.97253000  0.17346000  1.0
  O  O244  1  0.93659000  0.46300000  0.57449000  1.0
  O  O245  1  0.53700000  0.06342000  0.92551000  1.0
  O  O246  1  0.06341000  0.53700000  0.42551000  1.0
  O  O247  1  0.46300000  0.93658000  0.07449000  1.0
  O  O248  1  0.98388000  0.32958000  0.64061000  1.0
  O  O249  1  0.67042000  0.01612000  0.85939000  1.0
  O  O250  1  0.01612000  0.67042000  0.35939000  1.0
  O  O251  1  0.32958000  0.98388000  0.14061000  1.0
  O  O252  1  0.85866000  0.19639000  0.62755000  1.0
  O  O253  1  0.80361000  0.14134000  0.87246000  1.0
  O  O254  1  0.14134000  0.80361000  0.37245000  1.0
  O  O255  1  0.19639000  0.85866000  0.12754000  1.0
