# generated using pymatgen
data_Cd2H27C28N3O10
_symmetry_space_group_name_H-M   'P 1'
_cell_length_a   9.93756000
_cell_length_b   13.79650000
_cell_length_c   13.99210000
_cell_angle_alpha   63.00010000
_cell_angle_beta   72.45210000
_cell_angle_gamma   78.99640000
_symmetry_Int_Tables_number   1
_chemical_formula_structural   Cd2H27C28N3O10
_chemical_formula_sum   'Cd4 H54 C56 N6 O20'
_cell_volume   1626.44308128
_cell_formula_units_Z   2
loop_
 _symmetry_equiv_pos_site_id
 _symmetry_equiv_pos_as_xyz
  1  'x, y, z'
loop_
 _atom_site_type_symbol
 _atom_site_label
 _atom_site_symmetry_multiplicity
 _atom_site_fract_x
 _atom_site_fract_y
 _atom_site_fract_z
 _atom_site_occupancy
  Cd  Cd0  1  0.21148000  0.02888000  0.38800000  1.0
  Cd  Cd1  1  0.78853000  0.97113000  0.61201000  1.0
  Cd  Cd2  1  0.76751000  0.93116000  0.02186000  1.0
  Cd  Cd3  1  0.23250000  0.06885000  0.97812000  1.0
  H  H4  1  0.00370000  0.86609000  0.11071000  1.0
  H  H5  1  0.99628000  0.13391000  0.88930000  1.0
  H  H6  1  0.93132000  0.96055000  0.14365000  1.0
  H  H7  1  0.06868000  0.03945000  0.85636000  1.0
  H  H8  1  0.65538000  0.90472000  0.86534000  1.0
  H  H9  1  0.34461000  0.09527000  0.13467000  1.0
  H  H10  1  0.53459000  0.96793000  0.91640000  1.0
  H  H11  1  0.46543000  0.03208000  0.08360000  1.0
  H  H12  1  0.20208000  0.77546000  0.56163000  1.0
  H  H13  1  0.79787000  0.22455000  0.43838000  1.0
  H  H14  1  0.14060000  0.59854000  0.58635000  1.0
  H  H15  1  0.85936000  0.40147000  0.41365000  1.0
  H  H16  1  0.13449000  0.75204000  0.24032000  1.0
  H  H17  1  0.86552000  0.24798000  0.75967000  1.0
  H  H18  1  0.19411000  0.92268000  0.23126000  1.0
  H  H19  1  0.80591000  0.07734000  0.76873000  1.0
  H  H20  1  0.07956000  0.57000000  0.34270000  1.0
  H  H21  1  0.92044000  0.43001000  0.65729000  1.0
  H  H22  1  0.15951000  0.44952000  0.56445000  1.0
  H  H23  1  0.84048000  0.55050000  0.43554000  1.0
  H  H24  1  0.18012000  0.24196000  0.63630000  1.0
  H  H25  1  0.81987000  0.75806000  0.36370000  1.0
  H  H26  1  0.23894000  0.08736000  0.58285000  1.0
  H  H27  1  0.76106000  0.91265000  0.41716000  1.0
  H  H28  1  0.22232000  0.28750000  0.25946000  1.0
  H  H29  1  0.77768000  0.71250000  0.74055000  1.0
  H  H30  1  0.16551000  0.45310000  0.29651000  1.0
  H  H31  1  0.83446000  0.54690000  0.70349000  1.0
  H  H32  1  0.57421000  0.88308000  0.27053000  1.0
  H  H33  1  0.42579000  0.11692000  0.72946000  1.0
  H  H34  1  0.50915000  0.71483000  0.44194000  1.0
  H  H35  1  0.49085000  0.28516000  0.55804000  1.0
  H  H36  1  0.53442000  0.55148000  0.23539000  1.0
  H  H37  1  0.46556000  0.44854000  0.76457000  1.0
  H  H38  1  0.60723000  0.72693000  0.07084000  1.0
  H  H39  1  0.39278000  0.27308000  0.92914000  1.0
  H  H40  1  0.47010000  0.44752000  0.43249000  1.0
  H  H41  1  0.52990000  0.55248000  0.56748000  1.0
  H  H42  1  0.56544000  0.25100000  0.22709000  1.0
  H  H43  1  0.43455000  0.74898000  0.77292000  1.0
  H  H44  1  0.65741000  0.07707000  0.36095000  1.0
  H  H45  1  0.34261000  0.92292000  0.63906000  1.0
  H  H46  1  0.75650000  0.04394000  0.25033000  1.0
  H  H47  1  0.24351000  0.95605000  0.74967000  1.0
  H  H48  1  0.77793000  0.24518000  0.28114000  1.0
  H  H49  1  0.22209000  0.75481000  0.71887000  1.0
  H  H50  1  0.96321000  0.30580000  0.12142000  1.0
  H  H51  1  0.03680000  0.69419000  0.87858000  1.0
  H  H52  1  0.74532000  0.37174000  0.07543000  1.0
  H  H53  1  0.25469000  0.62824000  0.92459000  1.0
  H  H54  1  0.85144000  0.33239000  0.97030000  1.0
  H  H55  1  0.14856000  0.66759000  0.02971000  1.0
  H  H56  1  0.59459000  0.28509000  0.03773000  1.0
  H  H57  1  0.40542000  0.71491000  0.96228000  1.0
  C  C58  1  0.18578000  0.76666000  0.49250000  1.0
  C  C59  1  0.81418000  0.23335000  0.50751000  1.0
  C  C60  1  0.15172000  0.66760000  0.50535000  1.0
  C  C61  1  0.84824000  0.33241000  0.49465000  1.0
  C  C62  1  0.12673000  0.66019000  0.41549000  1.0
  C  C63  1  0.87326000  0.33982000  0.58451000  1.0
  C  C64  1  0.14763000  0.75273000  0.31458000  1.0
  C  C65  1  0.85237000  0.24728000  0.68542000  1.0
  C  C66  1  0.18096000  0.84918000  0.30851000  1.0
  C  C67  1  0.81904000  0.15083000  0.69149000  1.0
  C  C68  1  0.06422000  0.56437000  0.42593000  1.0
  C  C69  1  0.93577000  0.43565000  0.57406000  1.0
  C  C70  1  0.09960000  0.44891000  0.51039000  1.0
  C  C71  1  0.90040000  0.55110000  0.48961000  1.0
  C  C72  1  0.16439000  0.36199000  0.47122000  1.0
  C  C73  1  0.83559000  0.63802000  0.52879000  1.0
  C  C74  1  0.19177000  0.25736000  0.55059000  1.0
  C  C75  1  0.80823000  0.74265000  0.44942000  1.0
  C  C76  1  0.22345000  0.17013000  0.52190000  1.0
  C  C77  1  0.77655000  0.82988000  0.47810000  1.0
  C  C78  1  0.21353000  0.28230000  0.34127000  1.0
  C  C79  1  0.78647000  0.71770000  0.65874000  1.0
  C  C80  1  0.18215000  0.37412000  0.36332000  1.0
  C  C81  1  0.81783000  0.62588000  0.63668000  1.0
  C  C82  1  0.56700000  0.80711000  0.26639000  1.0
  C  C83  1  0.43302000  0.19289000  0.73360000  1.0
  C  C84  1  0.53022000  0.71267000  0.36189000  1.0
  C  C85  1  0.46979000  0.28733000  0.63809000  1.0
  C  C86  1  0.52170000  0.61631000  0.35345000  1.0
  C  C87  1  0.47831000  0.38370000  0.64652000  1.0
  C  C88  1  0.54334000  0.62312000  0.24655000  1.0
  C  C89  1  0.45667000  0.37688000  0.75342000  1.0
  C  C90  1  0.58239000  0.72044000  0.15497000  1.0
  C  C91  1  0.41762000  0.27958000  0.84500000  1.0
  C  C92  1  0.49558000  0.51156000  0.44862000  1.0
  C  C93  1  0.50442000  0.48844000  0.55136000  1.0
  C  C94  1  0.47053000  0.12412000  0.23743000  1.0
  C  C95  1  0.52946000  0.87585000  0.76260000  1.0
  C  C96  1  0.60502000  0.18083000  0.20546000  1.0
  C  C97  1  0.39499000  0.81916000  0.79456000  1.0
  C  C98  1  0.71146000  0.11213000  0.27283000  1.0
  C  C99  1  0.28855000  0.88786000  0.72718000  1.0
  C  C100  1  0.82943000  0.18099000  0.25244000  1.0
  C  C101  1  0.17058000  0.81900000  0.74756000  1.0
  C  C102  1  0.90325000  0.24212000  0.12960000  1.0
  C  C103  1  0.09676000  0.75787000  0.87040000  1.0
  C  C104  1  0.79474000  0.30092000  0.05802000  1.0
  C  C105  1  0.20527000  0.69906000  0.94199000  1.0
  C  C106  1  0.67551000  0.23110000  0.08068000  1.0
  C  C107  1  0.32449000  0.76888000  0.91933000  1.0
  C  C108  1  0.93232000  0.11533000  0.32546000  1.0
  C  C109  1  0.06769000  0.88466000  0.67455000  1.0
  C  C110  1  0.01610000  0.17348000  0.08122000  1.0
  C  C111  1  0.98392000  0.82651000  0.91878000  1.0
  C  C112  1  0.72311000  0.14751000  0.03083000  1.0
  C  C113  1  0.27687000  0.85248000  0.96918000  1.0
  N  N114  1  0.19663000  0.85726000  0.39685000  1.0
  N  N115  1  0.80336000  0.14275000  0.60316000  1.0
  N  N116  1  0.22986000  0.18146000  0.41997000  1.0
  N  N117  1  0.77015000  0.81854000  0.58004000  1.0
  N  N118  1  0.59644000  0.81044000  0.16448000  1.0
  N  N119  1  0.40358000  0.18956000  0.83551000  1.0
  O  O120  1  0.45174000  0.03344000  0.32391000  1.0
  O  O121  1  0.54828000  0.96654000  0.67611000  1.0
  O  O122  1  0.91016000  0.89230000  0.14495000  1.0
  O  O123  1  0.08983000  0.10770000  0.85506000  1.0
  O  O124  1  0.37873000  0.17435000  0.18172000  1.0
  O  O125  1  0.62127000  0.82562000  0.81831000  1.0
  O  O126  1  0.63842000  0.96078000  0.89604000  1.0
  O  O127  1  0.36159000  0.03922000  0.10395000  1.0
  O  O128  1  0.88422000  0.04292000  0.42152000  1.0
  O  O129  1  0.11580000  0.95708000  0.57848000  1.0
  O  O130  1  0.06141000  0.13852000  0.28539000  1.0
  O  O131  1  0.93861000  0.86147000  0.71461000  1.0
  O  O132  1  0.11284000  0.22482000  0.99825000  1.0
  O  O133  1  0.88719000  0.77519000  0.00175000  1.0
  O  O134  1  0.01366000  0.06942000  0.12254000  1.0
  O  O135  1  0.98637000  0.93058000  0.87744000  1.0
  O  O136  1  0.65400000  0.06062000  0.07941000  1.0
  O  O137  1  0.34598000  0.93937000  0.92060000  1.0
  O  O138  1  0.82240000  0.16780000  0.94484000  1.0
  O  O139  1  0.17758000  0.83218000  0.05517000  1.0
