# generated using pymatgen
data_Li2MnH12(C8O5)2
_symmetry_space_group_name_H-M   'P 1'
_cell_length_a   9.84837000
_cell_length_b   9.84835000
_cell_length_c   10.26860000
_cell_angle_alpha   70.34200000
_cell_angle_beta   70.34150000
_cell_angle_gamma   63.93280000
_symmetry_Int_Tables_number   1
_chemical_formula_structural   Li2MnH12(C8O5)2
_chemical_formula_sum   'Li4 Mn2 H24 C32 O20'
_cell_volume   821.29872362
_cell_formula_units_Z   2
loop_
 _symmetry_equiv_pos_site_id
 _symmetry_equiv_pos_as_xyz
  1  'x, y, z'
loop_
 _atom_site_type_symbol
 _atom_site_label
 _atom_site_symmetry_multiplicity
 _atom_site_fract_x
 _atom_site_fract_y
 _atom_site_fract_z
 _atom_site_occupancy
  Li  Li0  1  0.73532000  0.44610000  0.93254000  1.0
  Li  Li1  1  0.55390000  0.26468000  0.56746000  1.0
  Li  Li2  1  0.26468000  0.55390000  0.06746000  1.0
  Li  Li3  1  0.44610000  0.73532000  0.43254000  1.0
  Mn  Mn4  1  0.41715000  0.58285000  0.75000000  1.0
  Mn  Mn5  1  0.58285000  0.41715000  0.25000000  1.0
  H  H6  1  0.02349000  0.44189000  0.88591000  1.0
  H  H7  1  0.55811000  0.97651000  0.61409000  1.0
  H  H8  1  0.97651000  0.55811000  0.11410000  1.0
  H  H9  1  0.44189000  0.02349000  0.38591000  1.0
  H  H10  1  0.94245000  0.37583000  0.03995000  1.0
  H  H11  1  0.62417000  0.05755000  0.46005000  1.0
  H  H12  1  0.05755000  0.62417000  0.96005000  1.0
  H  H13  1  0.37583000  0.94245000  0.53995000  1.0
  H  H14  1  0.90809000  0.57032000  0.73922000  1.0
  H  H15  1  0.42968000  0.09191000  0.76078000  1.0
  H  H16  1  0.09191000  0.42968000  0.26077000  1.0
  H  H17  1  0.57032000  0.90808000  0.23922000  1.0
  H  H18  1  0.16329000  0.79644000  0.37273000  1.0
  H  H19  1  0.20356000  0.83671000  0.12727000  1.0
  H  H20  1  0.83671000  0.20357000  0.62727000  1.0
  H  H21  1  0.79644000  0.16328000  0.87272000  1.0
  H  H22  1  0.97593000  0.84114000  0.23262000  1.0
  H  H23  1  0.15886000  0.02407000  0.26738000  1.0
  H  H24  1  0.02406000  0.15887000  0.76738000  1.0
  H  H25  1  0.84114000  0.97592000  0.73262000  1.0
  H  H26  1  0.76294000  0.74149000  0.34626000  1.0
  H  H27  1  0.25851000  0.23706000  0.15374000  1.0
  H  H28  1  0.23705000  0.25852000  0.65374000  1.0
  H  H29  1  0.74148000  0.76293000  0.84626000  1.0
  C  C30  1  0.69157000  0.59435000  0.62241000  1.0
  C  C31  1  0.40565000  0.30844000  0.87759000  1.0
  C  C32  1  0.30843000  0.40565000  0.37759000  1.0
  C  C33  1  0.59435000  0.69156000  0.12241000  1.0
  C  C34  1  0.15677000  0.64882000  0.65279000  1.0
  C  C35  1  0.35118000  0.84323000  0.84721000  1.0
  C  C36  1  0.84324000  0.35118000  0.34721000  1.0
  C  C37  1  0.64882000  0.15677000  0.15279000  1.0
  C  C38  1  0.82165000  0.65032000  0.55088000  1.0
  C  C39  1  0.34968000  0.17835000  0.94912000  1.0
  C  C40  1  0.17835000  0.34969000  0.44912000  1.0
  C  C41  1  0.65032000  0.82165000  0.05088000  1.0
  C  C42  1  0.92360000  0.62995000  0.62852000  1.0
  C  C43  1  0.37005000  0.07640000  0.87148000  1.0
  C  C44  1  0.07640000  0.37006000  0.37147000  1.0
  C  C45  1  0.62995000  0.92359000  0.12852000  1.0
  C  C46  1  0.04684000  0.68191000  0.56557000  1.0
  C  C47  1  0.31809000  0.95316000  0.93442000  1.0
  C  C48  1  0.95316000  0.31809000  0.43443000  1.0
  C  C49  1  0.68191000  0.04684000  0.06557000  1.0
  C  C50  1  0.06576000  0.75820000  0.42213000  1.0
  C  C51  1  0.24180000  0.93425000  0.07787000  1.0
  C  C52  1  0.93425000  0.24181000  0.57786000  1.0
  C  C53  1  0.75820000  0.06574000  0.92213000  1.0
  C  C54  1  0.96232000  0.78180000  0.34412000  1.0
  C  C55  1  0.21820000  0.03768000  0.15588000  1.0
  C  C56  1  0.03768000  0.21821000  0.65589000  1.0
  C  C57  1  0.78180000  0.96231000  0.84411000  1.0
  C  C58  1  0.84158000  0.72677000  0.40747000  1.0
  C  C59  1  0.27323000  0.15842000  0.09254000  1.0
  C  C60  1  0.15842000  0.27324000  0.59254000  1.0
  C  C61  1  0.72677000  0.84157000  0.90746000  1.0
  O  O62  1  0.59645000  0.61460000  0.55212000  1.0
  O  O63  1  0.38540000  0.40355000  0.94788000  1.0
  O  O64  1  0.40355000  0.38540000  0.44788000  1.0
  O  O65  1  0.61460000  0.59644000  0.05213000  1.0
  O  O66  1  0.66955000  0.53244000  0.75546000  1.0
  O  O67  1  0.46756000  0.33045000  0.74454000  1.0
  O  O68  1  0.33046000  0.46756000  0.24454000  1.0
  O  O69  1  0.53244000  0.66954000  0.25546000  1.0
  O  O70  1  0.27703000  0.68634000  0.59346000  1.0
  O  O71  1  0.31366000  0.72297000  0.90654000  1.0
  O  O72  1  0.72298000  0.31366000  0.40654000  1.0
  O  O73  1  0.68635000  0.27702000  0.09346000  1.0
  O  O74  1  0.13130000  0.58171000  0.78305000  1.0
  O  O75  1  0.41829000  0.86870000  0.71695000  1.0
  O  O76  1  0.86870000  0.41829000  0.21695000  1.0
  O  O77  1  0.58171000  0.13130000  0.28304000  1.0
  O  O78  1  0.95254000  0.38576000  0.93868000  1.0
  O  O79  1  0.61424000  0.04746000  0.56132000  1.0
  O  O80  1  0.04746000  0.61424000  0.06132000  1.0
  O  O81  1  0.38576000  0.95254000  0.43868000  1.0
