# generated using pymatgen
data_ZnH17C20(NO2)3
_symmetry_space_group_name_H-M   'P 1'
_cell_length_a   7.00130000
_cell_length_b   9.93872000
_cell_length_c   32.97890000
_cell_angle_alpha   90.00090000
_cell_angle_beta   90.00050000
_cell_angle_gamma   87.83630000
_symmetry_Int_Tables_number   1
_chemical_formula_structural   ZnH17C20(NO2)3
_chemical_formula_sum   'Zn4 H68 C80 N12 O24'
_cell_volume   2293.16635907
_cell_formula_units_Z   4
loop_
 _symmetry_equiv_pos_site_id
 _symmetry_equiv_pos_as_xyz
  1  'x, y, z'
loop_
 _atom_site_type_symbol
 _atom_site_label
 _atom_site_symmetry_multiplicity
 _atom_site_fract_x
 _atom_site_fract_y
 _atom_site_fract_z
 _atom_site_occupancy
  Zn  Zn0  1  0.68659000  0.98672000  0.93817000  1.0
  Zn  Zn1  1  0.81340000  0.01328000  0.43816000  1.0
  Zn  Zn2  1  0.31341000  0.01328000  0.06183000  1.0
  Zn  Zn3  1  0.18657000  0.98672000  0.56183000  1.0
  H  H4  1  0.97094000  0.64092000  0.06201000  1.0
  H  H5  1  0.52906000  0.35909000  0.56200000  1.0
  H  H6  1  0.02908000  0.35908000  0.93799000  1.0
  H  H7  1  0.47094000  0.64092000  0.43799000  1.0
  H  H8  1  0.62880000  0.05412000  0.78318000  1.0
  H  H9  1  0.87124000  0.94588000  0.28318000  1.0
  H  H10  1  0.37123000  0.94589000  0.21682000  1.0
  H  H11  1  0.12876000  0.05412000  0.71682000  1.0
  H  H12  1  0.89537000  0.59501000  0.93383000  1.0
  H  H13  1  0.60464000  0.40499000  0.43383000  1.0
  H  H14  1  0.10465000  0.40498000  0.06617000  1.0
  H  H15  1  0.39536000  0.59502000  0.56616000  1.0
  H  H16  1  0.45691000  0.50203000  0.92520000  1.0
  H  H17  1  0.04310000  0.49798000  0.42519000  1.0
  H  H18  1  0.54309000  0.49797000  0.07481000  1.0
  H  H19  1  0.95690000  0.50204000  0.57480000  1.0
  H  H20  1  0.64801000  0.29858000  0.03368000  1.0
  H  H21  1  0.85198000  0.70143000  0.53367000  1.0
  H  H22  1  0.35198000  0.70143000  0.96633000  1.0
  H  H23  1  0.14802000  0.29859000  0.46633000  1.0
  H  H24  1  0.63048000  0.73304000  0.89648000  1.0
  H  H25  1  0.86952000  0.26698000  0.39648000  1.0
  H  H26  1  0.36952000  0.26697000  0.10352000  1.0
  H  H27  1  0.13047000  0.73302000  0.60352000  1.0
  H  H28  1  0.64313000  0.51637000  0.61107000  1.0
  H  H29  1  0.85684000  0.48357000  0.11108000  1.0
  H  H30  1  0.35684000  0.48359000  0.38893000  1.0
  H  H31  1  0.14317000  0.51642000  0.88893000  1.0
  H  H32  1  0.63686000  0.75550000  0.58948000  1.0
  H  H33  1  0.86313000  0.24445000  0.08949000  1.0
  H  H34  1  0.36312000  0.24447000  0.41052000  1.0
  H  H35  1  0.13688000  0.75556000  0.91052000  1.0
  H  H36  1  0.61968000  0.64381000  0.82670000  1.0
  H  H37  1  0.88033000  0.35620000  0.32670000  1.0
  H  H38  1  0.38034000  0.35620000  0.17330000  1.0
  H  H39  1  0.11967000  0.64380000  0.67330000  1.0
  H  H40  1  0.62747000  0.94077000  0.63975000  1.0
  H  H41  1  0.87251000  0.05919000  0.13976000  1.0
  H  H42  1  0.37252000  0.05920000  0.36024000  1.0
  H  H43  1  0.12748000  0.94081000  0.86024000  1.0
  H  H44  1  0.63609000  0.12758000  0.85649000  1.0
  H  H45  1  0.86392000  0.87244000  0.35649000  1.0
  H  H46  1  0.36392000  0.87243000  0.14351000  1.0
  H  H47  1  0.13606000  0.12756000  0.64351000  1.0
  H  H48  1  0.63537000  0.45305000  0.68395000  1.0
  H  H49  1  0.86460000  0.54694000  0.18395000  1.0
  H  H50  1  0.36459000  0.54695000  0.31605000  1.0
  H  H51  1  0.13544000  0.45306000  0.81605000  1.0
  H  H52  1  0.62602000  0.58668000  0.76351000  1.0
  H  H53  1  0.87399000  0.41331000  0.26351000  1.0
  H  H54  1  0.37398000  0.41332000  0.23649000  1.0
  H  H55  1  0.12604000  0.58669000  0.73649000  1.0
  H  H56  1  0.32215000  0.02123000  0.96132000  1.0
  H  H57  1  0.17786000  0.97877000  0.46132000  1.0
  H  H58  1  0.67786000  0.97877000  0.03868000  1.0
  H  H59  1  0.82213000  0.02122000  0.53868000  1.0
  H  H60  1  0.02626000  0.11684000  0.93475000  1.0
  H  H61  1  0.47375000  0.88315000  0.43475000  1.0
  H  H62  1  0.97374000  0.88315000  0.06525000  1.0
  H  H63  1  0.52623000  0.11684000  0.56525000  1.0
  H  H64  1  0.39960000  0.88951000  0.98178000  1.0
  H  H65  1  0.10041000  0.11050000  0.48178000  1.0
  H  H66  1  0.60042000  0.11049000  0.01822000  1.0
  H  H67  1  0.89958000  0.88951000  0.51822000  1.0
  H  H68  1  0.85815000  0.17150000  0.90700000  1.0
  H  H69  1  0.64186000  0.82849000  0.40699000  1.0
  H  H70  1  0.14185000  0.82850000  0.09301000  1.0
  H  H71  1  0.35813000  0.17150000  0.59300000  1.0
  C  C72  1  0.61999000  0.27018000  0.95126000  1.0
  C  C73  1  0.88003000  0.72983000  0.45125000  1.0
  C  C74  1  0.38003000  0.72982000  0.04875000  1.0
  C  C75  1  0.11995000  0.27019000  0.54874000  1.0
  C  C76  1  0.92673000  0.63370000  0.99747000  1.0
  C  C77  1  0.57326000  0.36630000  0.49747000  1.0
  C  C78  1  0.07329000  0.36629000  0.00253000  1.0
  C  C79  1  0.42674000  0.63371000  0.50253000  1.0
  C  C80  1  0.98379000  0.57884000  0.03485000  1.0
  C  C81  1  0.51621000  0.42117000  0.53485000  1.0
  C  C82  1  0.01623000  0.42117000  0.96515000  1.0
  C  C83  1  0.48380000  0.57884000  0.46514000  1.0
  C  C84  1  0.62542000  0.80107000  0.75647000  1.0
  C  C85  1  0.87460000  0.19892000  0.25647000  1.0
  C  C86  1  0.37459000  0.19892000  0.24353000  1.0
  C  C87  1  0.12542000  0.80108000  0.74353000  1.0
  C  C88  1  0.62818000  0.98132000  0.80780000  1.0
  C  C89  1  0.87185000  0.01869000  0.30780000  1.0
  C  C90  1  0.37185000  0.01869000  0.19220000  1.0
  C  C91  1  0.12815000  0.98132000  0.69220000  1.0
  C  C92  1  0.55731000  0.38792000  0.97670000  1.0
  C  C93  1  0.94269000  0.61210000  0.47670000  1.0
  C  C94  1  0.44269000  0.61209000  0.02331000  1.0
  C  C95  1  0.05729000  0.38792000  0.52330000  1.0
  C  C96  1  0.84905000  0.77637000  0.99450000  1.0
  C  C97  1  0.65093000  0.22363000  0.49450000  1.0
  C  C98  1  0.15095000  0.22362000  0.00550000  1.0
  C  C99  1  0.34905000  0.77638000  0.50550000  1.0
  C  C100  1  0.94272000  0.55290000  0.96272000  1.0
  C  C101  1  0.55729000  0.44710000  0.46272000  1.0
  C  C102  1  0.05730000  0.44710000  0.03728000  1.0
  C  C103  1  0.44272000  0.55291000  0.53728000  1.0
  C  C104  1  0.62530000  0.84345000  0.79866000  1.0
  C  C105  1  0.87472000  0.15657000  0.29866000  1.0
  C  C106  1  0.37472000  0.15657000  0.20134000  1.0
  C  C107  1  0.12528000  0.84344000  0.70134000  1.0
  C  C108  1  0.47552000  0.50252000  0.95800000  1.0
  C  C109  1  0.02448000  0.49748000  0.45800000  1.0
  C  C110  1  0.52448000  0.49748000  0.04200000  1.0
  C  C111  1  0.97551000  0.50252000  0.54200000  1.0
  C  C112  1  0.58151000  0.38626000  0.01892000  1.0
  C  C113  1  0.91849000  0.61374000  0.51892000  1.0
  C  C114  1  0.41849000  0.61374000  0.98108000  1.0
  C  C115  1  0.08151000  0.38626000  0.48108000  1.0
  C  C116  1  0.62918000  0.80088000  0.87052000  1.0
  C  C117  1  0.87083000  0.19913000  0.37052000  1.0
  C  C118  1  0.37083000  0.19912000  0.12948000  1.0
  C  C119  1  0.12916000  0.80087000  0.62948000  1.0
  C  C120  1  0.63888000  0.59522000  0.63404000  1.0
  C  C121  1  0.86111000  0.40475000  0.13404000  1.0
  C  C122  1  0.36112000  0.40477000  0.36596000  1.0
  C  C123  1  0.13891000  0.59525000  0.86596000  1.0
  C  C124  1  0.62986000  0.80199000  0.69097000  1.0
  C  C125  1  0.87013000  0.19800000  0.19097000  1.0
  C  C126  1  0.37012000  0.19801000  0.30902000  1.0
  C  C127  1  0.12988000  0.80201000  0.80902000  1.0
  C  C128  1  0.63063000  0.66395000  0.70288000  1.0
  C  C129  1  0.86936000  0.33603000  0.20288000  1.0
  C  C130  1  0.36936000  0.33603000  0.29712000  1.0
  C  C131  1  0.13066000  0.66397000  0.79712000  1.0
  C  C132  1  0.63661000  0.73134000  0.62171000  1.0
  C  C133  1  0.86338000  0.26862000  0.12171000  1.0
  C  C134  1  0.36339000  0.26863000  0.37829000  1.0
  C  C135  1  0.13662000  0.73138000  0.87829000  1.0
  C  C136  1  0.62404000  0.75229000  0.83111000  1.0
  C  C137  1  0.87596000  0.24772000  0.33111000  1.0
  C  C138  1  0.37597000  0.24773000  0.16889000  1.0
  C  C139  1  0.12403000  0.75228000  0.66889000  1.0
  C  C140  1  0.63186000  0.83609000  0.64971000  1.0
  C  C141  1  0.86812000  0.16387000  0.14971000  1.0
  C  C142  1  0.36813000  0.16388000  0.35029000  1.0
  C  C143  1  0.13188000  0.83613000  0.85029000  1.0
  C  C144  1  0.63313000  0.02165000  0.84795000  1.0
  C  C145  1  0.86689000  0.97836000  0.34795000  1.0
  C  C146  1  0.36689000  0.97836000  0.15205000  1.0
  C  C147  1  0.13310000  0.02165000  0.65205000  1.0
  C  C148  1  0.63508000  0.55856000  0.67484000  1.0
  C  C149  1  0.86490000  0.44141000  0.17484000  1.0
  C  C150  1  0.36490000  0.44142000  0.32516000  1.0
  C  C151  1  0.13512000  0.55859000  0.82516000  1.0
  N  N152  1  0.63551000  0.93299000  0.87895000  1.0
  N  N153  1  0.86450000  0.06704000  0.37895000  1.0
  N  N154  1  0.36450000  0.06702000  0.12105000  1.0
  N  N155  1  0.13548000  0.93297000  0.62105000  1.0
  N  N156  1  0.62705000  0.66718000  0.74472000  1.0
  N  N157  1  0.87295000  0.33281000  0.24472000  1.0
  N  N158  1  0.37294000  0.33282000  0.25528000  1.0
  N  N159  1  0.12708000  0.66719000  0.75528000  1.0
  N  N160  1  0.62687000  0.88372000  0.72489000  1.0
  N  N161  1  0.87314000  0.11626000  0.22489000  1.0
  N  N162  1  0.37313000  0.11627000  0.27511000  1.0
  N  N163  1  0.12687000  0.88374000  0.77511000  1.0
  O  O164  1  0.40313000  0.93860000  0.95539000  1.0
  O  O165  1  0.09687000  0.06140000  0.45539000  1.0
  O  O166  1  0.59687000  0.06140000  0.04461000  1.0
  O  O167  1  0.90311000  0.93860000  0.54461000  1.0
  O  O168  1  0.94076000  0.09002000  0.91220000  1.0
  O  O169  1  0.55926000  0.90998000  0.41219000  1.0
  O  O170  1  0.05925000  0.90998000  0.08780000  1.0
  O  O171  1  0.44073000  0.09002000  0.58780000  1.0
  O  O172  1  0.64706000  0.28319000  0.91378000  1.0
  O  O173  1  0.85300000  0.71682000  0.41377000  1.0
  O  O174  1  0.35298000  0.71683000  0.08623000  1.0
  O  O175  1  0.14700000  0.28318000  0.58623000  1.0
  O  O176  1  0.64665000  0.15688000  0.97054000  1.0
  O  O177  1  0.85335000  0.84312000  0.47053000  1.0
  O  O178  1  0.35336000  0.84311000  0.02947000  1.0
  O  O179  1  0.14665000  0.15688000  0.52947000  1.0
  O  O180  1  0.82526000  0.84534000  0.02652000  1.0
  O  O181  1  0.67474000  0.15465000  0.52652000  1.0
  O  O182  1  0.17475000  0.15465000  0.97348000  1.0
  O  O183  1  0.32526000  0.84535000  0.47348000  1.0
  O  O184  1  0.81052000  0.81824000  0.95849000  1.0
  O  O185  1  0.68944000  0.18175000  0.45849000  1.0
  O  O186  1  0.18945000  0.18176000  0.04151000  1.0
  O  O187  1  0.31052000  0.81825000  0.54150000  1.0
