# generated using pymatgen
data_Cu2H5C3I2N3
_symmetry_space_group_name_H-M   'P 1'
_cell_length_a   7.84395000
_cell_length_b   8.08147000
_cell_length_c   8.08471000
_cell_angle_alpha   115.95400000
_cell_angle_beta   99.39220000
_cell_angle_gamma   104.12100000
_symmetry_Int_Tables_number   1
_chemical_formula_structural   Cu2H5C3I2N3
_chemical_formula_sum   'Cu4 H10 C6 I4 N6'
_cell_volume   424.92628329
_cell_formula_units_Z   2
loop_
 _symmetry_equiv_pos_site_id
 _symmetry_equiv_pos_as_xyz
  1  'x, y, z'
loop_
 _atom_site_type_symbol
 _atom_site_label
 _atom_site_symmetry_multiplicity
 _atom_site_fract_x
 _atom_site_fract_y
 _atom_site_fract_z
 _atom_site_occupancy
  Cu  Cu0  1  0.88931000  0.97449000  0.85021000  1.0
  Cu  Cu1  1  0.11069000  0.02552000  0.14979000  1.0
  Cu  Cu2  1  0.66441000  0.00977000  0.08286000  1.0
  Cu  Cu3  1  0.33559000  0.99022000  0.91713000  1.0
  H  H4  1  0.28711000  0.67483000  0.46242000  1.0
  H  H5  1  0.71287000  0.32514000  0.53756000  1.0
  H  H6  1  0.93063000  0.48897000  0.19369000  1.0
  H  H7  1  0.06936000  0.51102000  0.80631000  1.0
  H  H8  1  0.62112000  0.65238000  0.49352000  1.0
  H  H9  1  0.37889000  0.34765000  0.50649000  1.0
  H  H10  1  0.61418000  0.48630000  0.25265000  1.0
  H  H11  1  0.38582000  0.51372000  0.74736000  1.0
  H  H12  1  0.65004000  0.73873000  0.32605000  1.0
  H  H13  1  0.34997000  0.26129000  0.67396000  1.0
  C  C14  1  0.15801000  0.69402000  0.47913000  1.0
  C  C15  1  0.84201000  0.30597000  0.52087000  1.0
  C  C16  1  0.98407000  0.60255000  0.34493000  1.0
  C  C17  1  0.01591000  0.39741000  0.65503000  1.0
  C  C18  1  0.67726000  0.63744000  0.37420000  1.0
  C  C19  1  0.32273000  0.36257000  0.62580000  1.0
  I  I20  1  0.79081000  0.70758000  0.95959000  1.0
  I  I21  1  0.20920000  0.29243000  0.04042000  1.0
  I  I22  1  0.63366000  0.12178000  0.82552000  1.0
  I  I23  1  0.36634000  0.87822000  0.17448000  1.0
  N  N24  1  0.97331000  0.81794000  0.62808000  1.0
  N  N25  1  0.02670000  0.18207000  0.37192000  1.0
  N  N26  1  0.14627000  0.82335000  0.65087000  1.0
  N  N27  1  0.85374000  0.17665000  0.34914000  1.0
  N  N28  1  0.87466000  0.68285000  0.44319000  1.0
  N  N29  1  0.12533000  0.31716000  0.55681000  1.0
