# generated using pymatgen
data_MnH12C10(ClO3)2
_symmetry_space_group_name_H-M   'P 1'
_cell_length_a   5.09627000
_cell_length_b   7.67396000
_cell_length_c   8.75241800
_cell_angle_alpha   73.35334978
_cell_angle_beta   73.14403967
_cell_angle_gamma   80.93130000
_symmetry_Int_Tables_number   1
_chemical_formula_structural   MnH12C10(ClO3)2
_chemical_formula_sum   'Mn1 H12 C10 Cl2 O6'
_cell_volume   312.81998701
_cell_formula_units_Z   1
loop_
 _symmetry_equiv_pos_site_id
 _symmetry_equiv_pos_as_xyz
  1  'x, y, z'
loop_
 _atom_site_type_symbol
 _atom_site_label
 _atom_site_symmetry_multiplicity
 _atom_site_fract_x
 _atom_site_fract_y
 _atom_site_fract_z
 _atom_site_occupancy
  Mn  Mn0  1  0.00000000  0.00000000  0.00000000  1.0
  H  H1  1  0.54769000  0.96168000  0.81736000  1.0
  H  H2  1  0.45231000  0.03833000  0.18263000  1.0
  H  H3  1  0.47640000  0.29281000  0.75008000  1.0
  H  H4  1  0.52360000  0.70719000  0.24992000  1.0
  H  H5  1  0.27934000  0.26173000  0.62285000  1.0
  H  H6  1  0.72066000  0.73828000  0.37715000  1.0
  H  H7  1  0.89196000  0.13176000  0.59520000  1.0
  H  H8  1  0.10804000  0.86825000  0.40480000  1.0
  H  H9  1  0.76811000  0.33053000  0.46593000  1.0
  H  H10  1  0.23189000  0.66948000  0.53408000  1.0
  H  H11  1  0.70070000  0.11197000  0.46019000  1.0
  H  H12  1  0.29931000  0.88805000  0.53981000  1.0
  C  C13  1  0.91464000  0.68462000  0.93972000  1.0
  C  C14  1  0.08535000  0.31536000  0.06028000  1.0
  C  C15  1  0.08133000  0.63062000  0.05737000  1.0
  C  C16  1  0.91867000  0.36937000  0.94263000  1.0
  C  C17  1  0.16167000  0.44610000  0.11916000  1.0
  C  C18  1  0.83832000  0.55388000  0.88084000  1.0
  C  C19  1  0.45524000  0.20510000  0.67538000  1.0
  C  C20  1  0.54475000  0.79491000  0.32462000  1.0
  C  C21  1  0.71839000  0.19266000  0.54159000  1.0
  C  C22  1  0.28161000  0.80735000  0.45842000  1.0
  Cl  Cl23  1  0.35209000  0.38245000  0.26175000  1.0
  Cl  Cl24  1  0.64790000  0.61754000  0.73825000  1.0
  O  O25  1  0.84519000  0.86198000  0.89682000  1.0
  O  O26  1  0.15481000  0.13802000  0.10318000  1.0
  O  O27  1  0.14779000  0.76613000  0.09960000  1.0
  O  O28  1  0.85221000  0.23386000  0.90040000  1.0
  O  O29  1  0.38273000  0.02703000  0.78212000  1.0
  O  O30  1  0.61727000  0.97298000  0.21787000  1.0
