# generated using pymatgen
data_Zn4H4C24S6Cl4O19
_symmetry_space_group_name_H-M   'P 1'
_cell_length_a   19.58660000
_cell_length_b   19.71920000
_cell_length_c   33.20650000
_cell_angle_alpha   79.09800000
_cell_angle_beta   79.49110000
_cell_angle_gamma   64.07990000
_symmetry_Int_Tables_number   1
_chemical_formula_structural   Zn4H4C24S6Cl4O19
_chemical_formula_sum   'Zn16 H16 C96 S24 Cl16 O76'
_cell_volume   11254.61952163
_cell_formula_units_Z   4
loop_
 _symmetry_equiv_pos_site_id
 _symmetry_equiv_pos_as_xyz
  1  'x, y, z'
loop_
 _atom_site_type_symbol
 _atom_site_label
 _atom_site_symmetry_multiplicity
 _atom_site_fract_x
 _atom_site_fract_y
 _atom_site_fract_z
 _atom_site_occupancy
  Zn  Zn0  1  0.05657000  0.39792000  0.47970000  1.0
  Zn  Zn1  1  0.98749000  0.48005000  0.56082000  1.0
  Zn  Zn2  1  0.05635000  0.56234000  0.48145000  1.0
  Zn  Zn3  1  0.90208000  0.55611000  0.47911000  1.0
  Zn  Zn4  1  0.69076000  0.34922000  0.27274000  1.0
  Zn  Zn5  1  0.68796000  0.19032000  0.26728000  1.0
  Zn  Zn6  1  0.77145000  0.26512000  0.19048000  1.0
  Zn  Zn7  1  0.84836000  0.19574000  0.27071000  1.0
  Zn  Zn8  1  0.26842000  0.76432000  0.68910000  1.0
  Zn  Zn9  1  0.35271000  0.69706000  0.76941000  1.0
  Zn  Zn10  1  0.19037000  0.84736000  0.77141000  1.0
  Zn  Zn11  1  0.19033000  0.69097000  0.76868000  1.0
  Zn  Zn12  1  0.55621000  0.06548000  0.98277000  1.0
  Zn  Zn13  1  0.40177000  0.05610000  0.97571000  1.0
  Zn  Zn14  1  0.55756000  0.90076000  0.98067000  1.0
  Zn  Zn15  1  0.48177000  0.98142000  0.05939000  1.0
  H  H16  1  0.74810000  0.45068000  0.34943000  1.0
  H  H17  1  0.00048000  0.30132000  0.40054000  1.0
  H  H18  1  0.19983000  0.70132000  0.60137000  1.0
  H  H19  1  0.04955000  0.54893000  0.64895000  1.0
  H  H20  1  0.64918000  0.14843000  0.04921000  1.0
  H  H21  1  0.60148000  0.10024000  0.20099000  1.0
  H  H22  1  0.30198000  0.99889000  0.90073000  1.0
  H  H23  1  0.44910000  0.74949000  0.84911000  1.0
  H  H24  1  0.84314000  0.57280000  0.39968000  1.0
  H  H25  1  0.96450000  0.23808000  0.29145000  1.0
  H  H26  1  0.06958000  0.68719000  0.51362000  1.0
  H  H27  1  0.06336000  0.67728000  0.73713000  1.0
  H  H28  1  0.79521000  0.17705000  0.12161000  1.0
  H  H29  1  0.56974000  0.95683000  0.12936000  1.0
  H  H30  1  0.17751000  0.90627000  0.84992000  1.0
  H  H31  1  0.51659000  0.78448000  0.95784000  1.0
  C  C32  1  0.06251000  0.31397000  0.56312000  1.0
  C  C33  1  0.06573000  0.57370000  0.56814000  1.0
  C  C34  1  0.18172000  0.44057000  0.43938000  1.0
  C  C35  1  0.93516000  0.68646000  0.43807000  1.0
  C  C36  1  0.93347000  0.43374000  0.42889000  1.0
  C  C37  1  0.82051000  0.55915000  0.56193000  1.0
  C  C38  1  0.56365000  0.30996000  0.31204000  1.0
  C  C39  1  0.68735000  0.17570000  0.18078000  1.0
  C  C40  1  0.68988000  0.43072000  0.18856000  1.0
  C  C41  1  0.93777000  0.18678000  0.18898000  1.0
  C  C42  1  0.82017000  0.32298000  0.31621000  1.0
  C  C43  1  0.81150000  0.06858000  0.31106000  1.0
  C  C44  1  0.43551000  0.69024000  0.68605000  1.0
  C  C45  1  0.31576000  0.81815000  0.82055000  1.0
  C  C46  1  0.18759000  0.93045000  0.68870000  1.0
  C  C47  1  0.06377000  0.80901000  0.81293000  1.0
  C  C48  1  0.17631000  0.68381000  0.68221000  1.0
  C  C49  1  0.31574000  0.56860000  0.80994000  1.0
  C  C50  1  0.43461000  0.18735000  0.93780000  1.0
  C  C51  1  0.43167000  0.92684000  0.93282000  1.0
  C  C52  1  0.68135000  0.94301000  0.93979000  1.0
  C  C53  1  0.56134000  0.81475000  0.06312000  1.0
  C  C54  1  0.57136000  0.06485000  0.06949000  1.0
  C  C55  1  0.31672000  0.06085000  0.05886000  1.0
  C  C56  1  0.89978000  0.40674000  0.40143000  1.0
  C  C57  1  0.85064000  0.34710000  0.34670000  1.0
  C  C58  1  0.82724000  0.44804000  0.38721000  1.0
  C  C59  1  0.92190000  0.30451000  0.36222000  1.0
  C  C60  1  0.80410000  0.41807000  0.36025000  1.0
  C  C61  1  0.94527000  0.33474000  0.38892000  1.0
  C  C62  1  0.09784000  0.60154000  0.59593000  1.0
  C  C63  1  0.14852000  0.65171000  0.65441000  1.0
  C  C64  1  0.14168000  0.64416000  0.58278000  1.0
  C  C65  1  0.10653000  0.60725000  0.66756000  1.0
  C  C66  1  0.16596000  0.66855000  0.61190000  1.0
  C  C67  1  0.08188000  0.58324000  0.63843000  1.0
  C  C68  1  0.30318000  0.45514000  0.40138000  1.0
  C  C69  1  0.44214000  0.29564000  0.35011000  1.0
  C  C70  1  0.25630000  0.41664000  0.41451000  1.0
  C  C71  1  0.48892000  0.33416000  0.33680000  1.0
  C  C72  1  0.37421000  0.33999000  0.37351000  1.0
  C  C73  1  0.37084000  0.41094000  0.37768000  1.0
  C  C74  1  0.72863000  0.57622000  0.62964000  1.0
  C  C75  1  0.52727000  0.67172000  0.61814000  1.0
  C  C76  1  0.74598000  0.58318000  0.58683000  1.0
  C  C77  1  0.50989000  0.66469000  0.66094000  1.0
  C  C78  1  0.60720000  0.63890000  0.60673000  1.0
  C  C79  1  0.64875000  0.60812000  0.64101000  1.0
  C  C80  1  0.07879000  0.22235000  0.63122000  1.0
  C  C81  1  0.17347000  0.02212000  0.62075000  1.0
  C  C82  1  0.08719000  0.23975000  0.58840000  1.0
  C  C83  1  0.16495000  0.00472000  0.66357000  1.0
  C  C84  1  0.14249000  0.10160000  0.60902000  1.0
  C  C85  1  0.11086000  0.14282000  0.64302000  1.0
  C  C86  1  0.84119000  0.80382000  0.39595000  1.0
  C  C87  1  0.90558000  0.95129000  0.35327000  1.0
  C  C88  1  0.90967000  0.76097000  0.41319000  1.0
  C  C89  1  0.83726000  0.99388000  0.33583000  1.0
  C  C90  1  0.90702000  0.88170000  0.37501000  1.0
  C  C91  1  0.83998000  0.87307000  0.37388000  1.0
  C  C92  1  0.65678000  0.15102000  0.15058000  1.0
  C  C93  1  0.59713000  0.09440000  0.09964000  1.0
  C  C94  1  0.66876000  0.16543000  0.10719000  1.0
  C  C95  1  0.58291000  0.08223000  0.14302000  1.0
  C  C96  1  0.63933000  0.13701000  0.08264000  1.0
  C  C97  1  0.61284000  0.11015000  0.16757000  1.0
  C  C98  1  0.67414000  0.52254000  0.12041000  1.0
  C  C99  1  0.57673000  0.72283000  0.13109000  1.0
  C  C100  1  0.66542000  0.50494000  0.16323000  1.0
  C  C101  1  0.58584000  0.74046000  0.08829000  1.0
  C  C102  1  0.60932000  0.64327000  0.14278000  1.0
  C  C103  1  0.64204000  0.60217000  0.10879000  1.0
  C  C104  1  0.08547000  0.12412000  0.17716000  1.0
  C  C105  1  0.16906000  0.12422000  0.07084000  1.0
  C  C106  1  0.01253000  0.16186000  0.16438000  1.0
  C  C107  1  0.24199000  0.08681000  0.08360000  1.0
  C  C108  1  0.11198000  0.13817000  0.10504000  1.0
  C  C109  1  0.14261000  0.11083000  0.14295000  1.0
  C  C110  1  0.34353000  0.85020000  0.84844000  1.0
  C  C111  1  0.40608000  0.89670000  0.90291000  1.0
  C  C112  1  0.30261000  0.92171000  0.86295000  1.0
  C  C113  1  0.44789000  0.82610000  0.88749000  1.0
  C  C114  1  0.33410000  0.94357000  0.88976000  1.0
  C  C115  1  0.41625000  0.80404000  0.86084000  1.0
  C  C116  1  0.40833000  0.45103000  0.85278000  1.0
  C  C117  1  0.34195000  0.30496000  0.89501000  1.0
  C  C118  1  0.34080000  0.49387000  0.83469000  1.0
  C  C119  1  0.40966000  0.26193000  0.91292000  1.0
  C  C120  1  0.34169000  0.37385000  0.87287000  1.0
  C  C121  1  0.40879000  0.38194000  0.87464000  1.0
  C  C122  1  0.94097000  0.79631000  0.85024000  1.0
  C  C123  1  0.80390000  0.95577000  0.90211000  1.0
  C  C124  1  0.98895000  0.83369000  0.83757000  1.0
  C  C125  1  0.75579000  0.91854000  0.91468000  1.0
  C  C126  1  0.87127000  0.91123000  0.87840000  1.0
  C  C127  1  0.87317000  0.84117000  0.87361000  1.0
  S  S128  1  0.29487000  0.32703000  0.39796000  1.0
  S  S129  1  0.44988000  0.42411000  0.35291000  1.0
  S  S130  1  0.66497000  0.62805000  0.56065000  1.0
  S  S131  1  0.59092000  0.61814000  0.68706000  1.0
  S  S132  1  0.13412000  0.15924000  0.56275000  1.0
  S  S133  1  0.11985000  0.08519000  0.68930000  1.0
  S  S134  1  0.97206000  0.80532000  0.40245000  1.0
  S  S135  1  0.77542000  0.94895000  0.34593000  1.0
  S  S136  1  0.61820000  0.58537000  0.18900000  1.0
  S  S137  1  0.63403000  0.66002000  0.06259000  1.0
  S  S138  1  0.01391000  0.18091000  0.11082000  1.0
  S  S139  1  0.24071000  0.06931000  0.13716000  1.0
  S  S140  1  0.27839000  0.44961000  0.84421000  1.0
  S  S141  1  0.47256000  0.30564000  0.90276000  1.0
  S  S142  1  0.95121000  0.92323000  0.85412000  1.0
  S  S143  1  0.79266000  0.82974000  0.89739000  1.0
  S  S144  1  0.75646000  0.53697000  0.40382000  1.0
  S  S145  1  0.98550000  0.20827000  0.35296000  1.0
  S  S146  1  0.17559000  0.66569000  0.52976000  1.0
  S  S147  1  0.08613000  0.57217000  0.72056000  1.0
  S  S148  1  0.71497000  0.22498000  0.07950000  1.0
  S  S149  1  0.52212000  0.03729000  0.17065000  1.0
  S  S150  1  0.21246000  0.99281000  0.84690000  1.0
  S  S151  1  0.54467000  0.76182000  0.89685000  1.0
  Cl  Cl152  1  0.28541000  0.54322000  0.41131000  1.0
  Cl  Cl153  1  0.46003000  0.20715000  0.34051000  1.0
  Cl  Cl154  1  0.79188000  0.53505000  0.66551000  1.0
  Cl  Cl155  1  0.46395000  0.71333000  0.58236000  1.0
  Cl  Cl156  1  0.03654000  0.28505000  0.66666667  1.0
  Cl  Cl157  1  0.21532000  0.95936000  0.58526000  1.0
  Cl  Cl158  1  0.76686000  0.77935000  0.39927000  1.0
  Cl  Cl159  1  0.97976000  0.97579000  0.34999000  1.0
  Cl  Cl160  1  0.71690000  0.45993000  0.08503000  1.0
  Cl  Cl161  1  0.53385000  0.78555000  0.16651000  1.0
  Cl  Cl162  1  0.10730000  0.09669000  0.22669000  1.0
  Cl  Cl163  1  0.14693000  0.15196000  0.02131000  1.0
  Cl  Cl164  1  0.48306000  0.47477000  0.85010000  1.0
  Cl  Cl165  1  0.26704000  0.28147000  0.89785000  1.0
  Cl  Cl166  1  0.95736000  0.70898000  0.83959000  1.0
  Cl  Cl167  1  0.78770000  0.04329000  0.91250000  1.0
  O  O168  1  0.00138000  0.49760000  0.50023000  1.0
  O  O169  1  0.08131000  0.31296000  0.52405000  1.0
  O  O170  1  0.04922000  0.51815000  0.58358000  1.0
  O  O171  1  0.15551000  0.50420000  0.45352000  1.0
  O  O172  1  0.02469000  0.37266000  0.58178000  1.0
  O  O173  1  0.14955000  0.39456000  0.44462000  1.0
  O  O174  1  0.05488000  0.60800000  0.53134000  1.0
  O  O175  1  0.00363000  0.65865000  0.44774000  1.0
  O  O176  1  0.90759000  0.50547000  0.43048000  1.0
  O  O177  1  0.88837000  0.65539000  0.44819000  1.0
  O  O178  1  0.98749000  0.38323000  0.44814000  1.0
  O  O179  1  0.87984000  0.53289000  0.58080000  1.0
  O  O180  1  0.81872000  0.56765000  0.52275000  1.0
  O  O181  1  0.74792000  0.25116000  0.25057000  1.0
  O  O182  1  0.59196000  0.35938000  0.30281000  1.0
  O  O183  1  0.65383000  0.17804000  0.21724000  1.0
  O  O184  1  0.72054000  0.37172000  0.16978000  1.0
  O  O185  1  0.59402000  0.24281000  0.30193000  1.0
  O  O186  1  0.67784000  0.43235000  0.22778000  1.0
  O  O187  1  0.74588000  0.19094000  0.16871000  1.0
  O  O188  1  0.87977000  0.22440000  0.16866000  1.0
  O  O189  1  0.86771000  0.27330000  0.29287000  1.0
  O  O190  1  0.93585000  0.16945000  0.22808000  1.0
  O  O191  1  0.74865000  0.35506000  0.31470000  1.0
  O  O192  1  0.74822000  0.09095000  0.29591000  1.0
  O  O193  1  0.85338000  0.10469000  0.30681000  1.0
  O  O194  1  0.25123000  0.74996000  0.74970000  1.0
  O  O195  1  0.37599000  0.72767000  0.66738000  1.0
  O  O196  1  0.36650000  0.76604000  0.80066000  1.0
  O  O197  1  0.17720000  0.93167000  0.72794000  1.0
  O  O198  1  0.43730000  0.67239000  0.72521000  1.0
  O  O199  1  0.21466000  0.87183000  0.66981000  1.0
  O  O200  1  0.24351000  0.84332000  0.81918000  1.0
  O  O201  1  0.09218000  0.85837000  0.80329000  1.0
  O  O202  1  0.14291000  0.69279000  0.71914000  1.0
  O  O203  1  0.09466000  0.74155000  0.80313000  1.0
  O  O204  1  0.23084000  0.70214000  0.66666667  1.0
  O  O205  1  0.35843000  0.60393000  0.80491000  1.0
  O  O206  1  0.25142000  0.59172000  0.79570000  1.0
  O  O207  1  0.49960000  0.00133000  0.99926000  1.0
  O  O208  1  0.50240000  0.15998000  0.94834000  1.0
  O  O209  1  0.39929000  0.99804000  0.93371000  1.0
  O  O210  1  0.64870000  0.89745000  0.94474000  1.0
  O  O211  1  0.38794000  0.15611000  0.94683000  1.0
  O  O212  1  0.65595000  0.00592000  0.95456000  1.0
  O  O213  1  0.48239000  0.87991000  0.95621000  1.0
  O  O214  1  0.58225000  0.81397000  0.02415000  1.0
  O  O215  1  0.55596000  0.00669000  0.08172000  1.0
  O  O216  1  0.52152000  0.87365000  0.08143000  1.0
  O  O217  1  0.56840000  0.09874000  0.03300000  1.0
  O  O218  1  0.31806000  0.06713000  0.01981000  1.0
  O  O219  1  0.37467000  0.03318000  0.07940000  1.0
  O  O220  1  0.79601000  0.59322000  0.38518000  1.0
  O  O221  1  0.69137000  0.56120000  0.38199000  1.0
  O  O222  1  0.74893000  0.52783000  0.44823000  1.0
  O  O223  1  0.01261000  0.21865000  0.30494000  1.0
  O  O224  1  0.05184000  0.18523000  0.37356000  1.0
  O  O225  1  0.94060000  0.16465000  0.36114000  1.0
  O  O226  1  0.09808000  0.72003000  0.51063000  1.0
  O  O227  1  0.21578000  0.71177000  0.52888000  1.0
  O  O228  1  0.21169000  0.59548000  0.51186000  1.0
  O  O229  1  0.03093000  0.64851000  0.73970000  1.0
  O  O230  1  0.04046000  0.53158000  0.72121000  1.0
  O  O231  1  0.15700000  0.53659000  0.73862000  1.0
  O  O232  1  0.80015000  0.17827000  0.09080000  1.0
  O  O233  1  0.71829000  0.22358000  0.03618000  1.0
  O  O234  1  0.67954000  0.29566000  0.09695000  1.0
  O  O235  1  0.56854000  0.95234000  0.16012000  1.0
  O  O236  1  0.52351000  0.03410000  0.21397000  1.0
  O  O237  1  0.45116000  0.07290000  0.15266000  1.0
  O  O238  1  0.15657000  0.95249000  0.86479000  1.0
  O  O239  1  0.18841000  0.05599000  0.86957000  1.0
  O  O240  1  0.22059000  0.00281000  0.80248000  1.0
  O  O241  1  0.53500000  0.73618000  0.94514000  1.0
  O  O242  1  0.56582000  0.69557000  0.87722000  1.0
  O  O243  1  0.58961000  0.80543000  0.88762000  1.0
