# generated using pymatgen
data_ZnH22C32(N5O2)2
_symmetry_space_group_name_H-M   'P 1'
_cell_length_a   9.46635000
_cell_length_b   11.98280000
_cell_length_c   14.14900000
_cell_angle_alpha   78.04830000
_cell_angle_beta   88.74550000
_cell_angle_gamma   88.79740000
_symmetry_Int_Tables_number   1
_chemical_formula_structural   ZnH22C32(N5O2)2
_chemical_formula_sum   'Zn2 H44 C64 N20 O8'
_cell_volume   1569.57870180
_cell_formula_units_Z   2
loop_
 _symmetry_equiv_pos_site_id
 _symmetry_equiv_pos_as_xyz
  1  'x, y, z'
loop_
 _atom_site_type_symbol
 _atom_site_label
 _atom_site_symmetry_multiplicity
 _atom_site_fract_x
 _atom_site_fract_y
 _atom_site_fract_z
 _atom_site_occupancy
  Zn  Zn0  1  0.15567000  0.44122000  0.82373000  1.0
  Zn  Zn1  1  0.84433000  0.55878000  0.17628000  1.0
  H  H2  1  0.31926000  0.31540000  0.01765000  1.0
  H  H3  1  0.68075000  0.68459000  0.98236000  1.0
  H  H4  1  0.24450000  0.66449000  0.90834000  1.0
  H  H5  1  0.75549000  0.33551000  0.09167000  1.0
  H  H6  1  0.07645000  0.51945000  0.34416000  1.0
  H  H7  1  0.92356000  0.48055000  0.65584000  1.0
  H  H8  1  0.02916000  0.34110000  0.11871000  1.0
  H  H9  1  0.97083000  0.65891000  0.88129000  1.0
  H  H10  1  0.39325000  0.53181000  0.22657000  1.0
  H  H11  1  0.60674000  0.46818000  0.77344000  1.0
  H  H12  1  0.44152000  0.67742000  0.32287000  1.0
  H  H13  1  0.55847000  0.32258000  0.67714000  1.0
  H  H14  1  0.39683000  0.94315000  0.06741000  1.0
  H  H15  1  0.60317000  0.05685000  0.93258000  1.0
  H  H16  1  0.35196000  0.79836000  0.97129000  1.0
  H  H17  1  0.64806000  0.20163000  0.02871000  1.0
  H  H18  1  0.68182000  0.89664000  0.54351000  1.0
  H  H19  1  0.31818000  0.10337000  0.45648000  1.0
  H  H20  1  0.47108000  0.93000000  0.44101000  1.0
  H  H21  1  0.52891000  0.06999000  0.55899000  1.0
  H  H22  1  0.70314000  0.80742000  0.21621000  1.0
  H  H23  1  0.29684000  0.19258000  0.78378000  1.0
  H  H24  1  0.91524000  0.77925000  0.31641000  1.0
  H  H25  1  0.08475000  0.22075000  0.68358000  1.0
  H  H26  1  0.57016000  0.09847000  0.27649000  1.0
  H  H27  1  0.42984000  0.90153000  0.72350000  1.0
  H  H28  1  0.44361000  0.28184000  0.26815000  1.0
  H  H29  1  0.55640000  0.71816000  0.73184000  1.0
  H  H30  1  0.05666000  0.12624000  0.20873000  1.0
  H  H31  1  0.94334000  0.87377000  0.79126000  1.0
  H  H32  1  0.18440000  0.94346000  0.21231000  1.0
  H  H33  1  0.81559000  0.05654000  0.78769000  1.0
  H  H34  1  0.56720000  0.64469000  0.59329000  1.0
  H  H35  1  0.43280000  0.35533000  0.40671000  1.0
  H  H36  1  0.29111000  0.37923000  0.55227000  1.0
  H  H37  1  0.70888000  0.62078000  0.44773000  1.0
  H  H38  1  0.14917000  0.07904000  0.85637000  1.0
  H  H39  1  0.85083000  0.92097000  0.14364000  1.0
  H  H40  1  0.88123000  0.13170000  0.09213000  1.0
  H  H41  1  0.11877000  0.86831000  0.90788000  1.0
  H  H42  1  0.89870000  0.94017000  0.58997000  1.0
  H  H43  1  0.10131000  0.05983000  0.41002000  1.0
  H  H44  1  0.23985000  0.72561000  0.55025000  1.0
  H  H45  1  0.76014000  0.27438000  0.44974000  1.0
  C  C46  1  0.31571000  0.40720000  0.01093000  1.0
  C  C47  1  0.68430000  0.59280000  0.98907000  1.0
  C  C48  1  0.27734000  0.58422000  0.95307000  1.0
  C  C49  1  0.72266000  0.41578000  0.04694000  1.0
  C  C50  1  0.09082000  0.45730000  0.29864000  1.0
  C  C51  1  0.90919000  0.54271000  0.70136000  1.0
  C  C52  1  0.06177000  0.36749000  0.18426000  1.0
  C  C53  1  0.93823000  0.63251000  0.81574000  1.0
  C  C54  1  0.36811000  0.65588000  0.09363000  1.0
  C  C55  1  0.63189000  0.34411000  0.90638000  1.0
  C  C56  1  0.39412000  0.62190000  0.19241000  1.0
  C  C57  1  0.60588000  0.37810000  0.80759000  1.0
  C  C58  1  0.42058000  0.70380000  0.24598000  1.0
  C  C59  1  0.57942000  0.29620000  0.75402000  1.0
  C  C60  1  0.42217000  0.82010000  0.20200000  1.0
  C  C61  1  0.57782000  0.17989000  0.79800000  1.0
  C  C62  1  0.39546000  0.85316000  0.10267000  1.0
  C  C63  1  0.60454000  0.14684000  0.89733000  1.0
  C  C64  1  0.36912000  0.77144000  0.04859000  1.0
  C  C65  1  0.63088000  0.22855000  0.95142000  1.0
  C  C66  1  0.81449000  0.84173000  0.43422000  1.0
  C  C67  1  0.18550000  0.15827000  0.56577000  1.0
  C  C68  1  0.68848000  0.88212000  0.47004000  1.0
  C  C69  1  0.31152000  0.11788000  0.52995000  1.0
  C  C70  1  0.56943000  0.89973000  0.41277000  1.0
  C  C71  1  0.43057000  0.10027000  0.58723000  1.0
  C  C72  1  0.57498000  0.87718000  0.31926000  1.0
  C  C73  1  0.42501000  0.12282000  0.68074000  1.0
  C  C74  1  0.69912000  0.83112000  0.28647000  1.0
  C  C75  1  0.30087000  0.16888000  0.71353000  1.0
  C  C76  1  0.81883000  0.81410000  0.34305000  1.0
  C  C77  1  0.18116000  0.18591000  0.65694000  1.0
  C  C78  1  0.38619000  0.00694000  0.24656000  1.0
  C  C79  1  0.61381000  0.99306000  0.75343000  1.0
  C  C80  1  0.45772000  0.10424000  0.26078000  1.0
  C  C81  1  0.54228000  0.89576000  0.73922000  1.0
  C  C82  1  0.38623000  0.20753000  0.25723000  1.0
  C  C83  1  0.61377000  0.79247000  0.74276000  1.0
  C  C84  1  0.24148000  0.21437000  0.23879000  1.0
  C  C85  1  0.75853000  0.78564000  0.76121000  1.0
  C  C86  1  0.17012000  0.12040000  0.22029000  1.0
  C  C87  1  0.82988000  0.87960000  0.77970000  1.0
  C  C88  1  0.24178000  0.01734000  0.22363000  1.0
  C  C89  1  0.75822000  0.98266000  0.77637000  1.0
  C  C90  1  0.33887000  0.52401000  0.67153000  1.0
  C  C91  1  0.66112000  0.47600000  0.32847000  1.0
  C  C92  1  0.03694000  0.24475000  0.94230000  1.0
  C  C93  1  0.96306000  0.75525000  0.05771000  1.0
  C  C94  1  0.53755000  0.58213000  0.55183000  1.0
  C  C95  1  0.46245000  0.41788000  0.44817000  1.0
  C  C96  1  0.42004000  0.51366000  0.58135000  1.0
  C  C97  1  0.57996000  0.48635000  0.41865000  1.0
  C  C98  1  0.38275000  0.43176000  0.52873000  1.0
  C  C99  1  0.61724000  0.56825000  0.47126000  1.0
  C  C100  1  0.08431000  0.04391000  0.91939000  1.0
  C  C101  1  0.91570000  0.95609000  0.08061000  1.0
  C  C102  1  0.01716000  0.11825000  0.97139000  1.0
  C  C103  1  0.98285000  0.88174000  0.02862000  1.0
  C  C104  1  0.93262000  0.07321000  0.05204000  1.0
  C  C105  1  0.06738000  0.92680000  0.94797000  1.0
  C  C106  1  0.96866000  0.87913000  0.56505000  1.0
  C  C107  1  0.03134000  0.12087000  0.43494000  1.0
  C  C108  1  0.13914000  0.77134000  0.54184000  1.0
  C  C109  1  0.86085000  0.22864000  0.45815000  1.0
  N  N110  1  0.09521000  0.84459000  0.59954000  1.0
  N  N111  1  0.90479000  0.15540000  0.40045000  1.0
  N  N112  1  0.04791000  0.75885000  0.47452000  1.0
  N  N113  1  0.95208000  0.24114000  0.52547000  1.0
  N  N114  1  0.26121000  0.48130000  0.93306000  1.0
  N  N115  1  0.73879000  0.51869000  0.06695000  1.0
  N  N116  1  0.36429000  0.45844000  0.07748000  1.0
  N  N117  1  0.63573000  0.54155000  0.92252000  1.0
  N  N118  1  0.33812000  0.57161000  0.03997000  1.0
  N  N119  1  0.66188000  0.42838000  0.96004000  1.0
  N  N120  1  0.01344000  0.45785000  0.21779000  1.0
  N  N121  1  0.98655000  0.54215000  0.78221000  1.0
  N  N122  1  0.18428000  0.37225000  0.31640000  1.0
  N  N123  1  0.81572000  0.62775000  0.68360000  1.0
  N  N124  1  0.16389000  0.31583000  0.24320000  1.0
  N  N125  1  0.83612000  0.68418000  0.75679000  1.0
  N  N126  1  0.93756000  0.82838000  0.49068000  1.0
  N  N127  1  0.06244000  0.17162000  0.50931000  1.0
  N  N128  1  0.45668000  0.90094000  0.25756000  1.0
  N  N129  1  0.54331000  0.09906000  0.74244000  1.0
  O  O130  1  0.11409000  0.27749000  0.86521000  1.0
  O  O131  1  0.88593000  0.72251000  0.13480000  1.0
  O  O132  1  0.98214000  0.31024000  0.99205000  1.0
  O  O133  1  0.01786000  0.68976000  0.00795000  1.0
  O  O134  1  0.25394000  0.43961000  0.70256000  1.0
  O  O135  1  0.74605000  0.56040000  0.29744000  1.0
  O  O136  1  0.35642000  0.60609000  0.71200000  1.0
  O  O137  1  0.64359000  0.39392000  0.28800000  1.0
