# generated using pymatgen
data_NaH10C9SNO7
_symmetry_space_group_name_H-M   'P 1'
_cell_length_a   5.36723000
_cell_length_b   7.59199000
_cell_length_c   14.13640000
_cell_angle_alpha   99.51120000
_cell_angle_beta   90.61760000
_cell_angle_gamma   103.95490000
_symmetry_Int_Tables_number   1
_chemical_formula_structural   NaH10C9SNO7
_chemical_formula_sum   'Na2 H20 C18 S2 N2 O14'
_cell_volume   550.57177901
_cell_formula_units_Z   2
loop_
 _symmetry_equiv_pos_site_id
 _symmetry_equiv_pos_as_xyz
  1  'x, y, z'
loop_
 _atom_site_type_symbol
 _atom_site_label
 _atom_site_symmetry_multiplicity
 _atom_site_fract_x
 _atom_site_fract_y
 _atom_site_fract_z
 _atom_site_occupancy
  Na  Na0  1  0.16059000  0.43973000  0.79061000  1.0
  Na  Na1  1  0.83943000  0.56028000  0.20939000  1.0
  H  H2  1  0.33866000  0.46921000  0.30309000  1.0
  H  H3  1  0.66135000  0.53079000  0.69690000  1.0
  H  H4  1  0.14247000  0.62481000  0.96315000  1.0
  H  H5  1  0.85753000  0.37519000  0.03687000  1.0
  H  H6  1  0.32145000  0.56907000  0.03364000  1.0
  H  H7  1  0.67858000  0.43092000  0.96636000  1.0
  H  H8  1  0.31168000  0.86206000  0.87745000  1.0
  H  H9  1  0.68831000  0.13794000  0.12255000  1.0
  H  H10  1  0.09539000  0.63497000  0.52278000  1.0
  H  H11  1  0.90460000  0.36503000  0.47722000  1.0
  H  H12  1  0.08931000  0.81793000  0.68469000  1.0
  H  H13  1  0.91068000  0.18207000  0.31531000  1.0
  H  H14  1  0.89043000  0.09083000  0.67063000  1.0
  H  H15  1  0.10956000  0.90917000  0.32938000  1.0
  H  H16  1  0.89438000  0.89214000  0.51094000  1.0
  H  H17  1  0.10563000  0.10786000  0.48906000  1.0
  H  H18  1  0.70923000  0.88229000  0.97863000  1.0
  H  H19  1  0.29077000  0.11771000  0.02137000  1.0
  H  H20  1  0.88452000  0.02337000  0.90172000  1.0
  H  H21  1  0.11548000  0.97663000  0.09829000  1.0
  C  C22  1  0.51820000  0.65002000  0.40949000  1.0
  C  C23  1  0.48180000  0.34997000  0.59050000  1.0
  C  C24  1  0.49821000  0.75518000  0.50686000  1.0
  C  C25  1  0.50179000  0.24482000  0.49314000  1.0
  C  C26  1  0.26950000  0.73274000  0.55555000  1.0
  C  C27  1  0.73049000  0.26726000  0.44444000  1.0
  C  C28  1  0.26504000  0.83684000  0.64593000  1.0
  C  C29  1  0.73496000  0.16316000  0.35407000  1.0
  C  C30  1  0.48816000  0.96647000  0.68637000  1.0
  C  C31  1  0.51184000  0.03354000  0.31364000  1.0
  C  C32  1  0.71740000  0.99013000  0.63898000  1.0
  C  C33  1  0.28260000  0.00986000  0.36101000  1.0
  C  C34  1  0.71965000  0.88180000  0.54967000  1.0
  C  C35  1  0.28034000  0.11819000  0.45033000  1.0
  C  C36  1  0.71854000  0.90730000  0.90426000  1.0
  C  C37  1  0.28145000  0.09270000  0.09574000  1.0
  C  C38  1  0.76537000  0.73610000  0.84099000  1.0
  C  C39  1  0.23463000  0.26391000  0.15901000  1.0
  S  S40  1  0.48123000  0.09508000  0.80284000  1.0
  S  S41  1  0.51875000  0.90492000  0.19716000  1.0
  N  N42  1  0.48463000  0.96073000  0.88116000  1.0
  N  N43  1  0.51536000  0.03928000  0.11884000  1.0
  O  O44  1  0.29864000  0.54100000  0.36965000  1.0
  O  O45  1  0.70138000  0.45901000  0.63035000  1.0
  O  O46  1  0.72635000  0.66638000  0.37010000  1.0
  O  O47  1  0.27366000  0.33362000  0.62990000  1.0
  O  O48  1  0.23375000  0.14069000  0.81008000  1.0
  O  O49  1  0.76625000  0.85931000  0.18992000  1.0
  O  O50  1  0.71358000  0.24331000  0.82022000  1.0
  O  O51  1  0.28642000  0.75669000  0.17978000  1.0
  O  O52  1  0.58584000  0.64054000  0.78095000  1.0
  O  O53  1  0.41415000  0.35947000  0.21904000  1.0
  O  O54  1  0.98182000  0.70008000  0.85250000  1.0
  O  O55  1  0.01816000  0.29992000  0.14750000  1.0
  O  O56  1  0.27435000  0.55587000  0.96561000  1.0
  O  O57  1  0.72567000  0.44414000  0.03438000  1.0
