# generated using pymatgen
data_CuH10C13N3Cl
_symmetry_space_group_name_H-M   'P 1'
_cell_length_a   8.88355000
_cell_length_b   8.88369000
_cell_length_c   10.64800000
_cell_angle_alpha   102.73100000
_cell_angle_beta   102.73100000
_cell_angle_gamma   116.27100000
_symmetry_Int_Tables_number   1
_chemical_formula_structural   CuH10C13N3Cl
_chemical_formula_sum   'Cu2 H20 C26 N6 Cl2'
_cell_volume   684.73415544
_cell_formula_units_Z   2
loop_
 _symmetry_equiv_pos_site_id
 _symmetry_equiv_pos_as_xyz
  1  'x, y, z'
loop_
 _atom_site_type_symbol
 _atom_site_label
 _atom_site_symmetry_multiplicity
 _atom_site_fract_x
 _atom_site_fract_y
 _atom_site_fract_z
 _atom_site_occupancy
  Cu  Cu0  1  0.90047000  0.09951000  0.50000000  1.0
  Cu  Cu1  1  0.09953000  0.90047000  0.50000000  1.0
  H  H2  1  0.60309000  0.15209000  0.53731000  1.0
  H  H3  1  0.84793000  0.39690000  0.46268000  1.0
  H  H4  1  0.39691000  0.84792000  0.46269000  1.0
  H  H5  1  0.15208000  0.60310000  0.53732000  1.0
  H  H6  1  0.50236000  0.22582000  0.72631000  1.0
  H  H7  1  0.77419000  0.49764000  0.27369000  1.0
  H  H8  1  0.49764000  0.77418000  0.27369000  1.0
  H  H9  1  0.22581000  0.50236000  0.72632000  1.0
  H  H10  1  0.98560000  0.29802000  0.00674000  1.0
  H  H11  1  0.70196000  0.01439000  0.99326000  1.0
  H  H12  1  0.01441000  0.70198000  0.99326000  1.0
  H  H13  1  0.29804000  0.98562000  0.00675000  1.0
  H  H14  1  0.06488000  0.21809000  0.80220000  1.0
  H  H15  1  0.78189000  0.93510000  0.19779000  1.0
  H  H16  1  0.93513000  0.78192000  0.19779000  1.0
  H  H17  1  0.21809000  0.06489000  0.80221000  1.0
  H  H18  1  0.72253000  0.56050000  0.88450000  1.0
  H  H19  1  0.43950000  0.27748000  0.11550000  1.0
  H  H20  1  0.27747000  0.43949000  0.11550000  1.0
  H  H21  1  0.56050000  0.72252000  0.88450000  1.0
  C  C22  1  0.68425000  0.18316000  0.64287000  1.0
  C  C23  1  0.81684000  0.31574000  0.35713000  1.0
  C  C24  1  0.31574000  0.81684000  0.35712000  1.0
  C  C25  1  0.18317000  0.68426000  0.64288000  1.0
  C  C26  1  0.62801000  0.22526000  0.75023000  1.0
  C  C27  1  0.77476000  0.37199000  0.24978000  1.0
  C  C28  1  0.37199000  0.77476000  0.24979000  1.0
  C  C29  1  0.22525000  0.62802000  0.75022000  1.0
  C  C30  1  0.73506000  0.26644000  0.88571000  1.0
  C  C31  1  0.73357000  0.26493000  0.11428000  1.0
  C  C32  1  0.26494000  0.73356000  0.11428000  1.0
  C  C33  1  0.26644000  0.73507000  0.88572000  1.0
  C  C34  1  0.89559000  0.26393000  0.90398000  1.0
  C  C35  1  0.73606000  0.10440000  0.09602000  1.0
  C  C36  1  0.10442000  0.73608000  0.09602000  1.0
  C  C37  1  0.26394000  0.89560000  0.90398000  1.0
  C  C38  1  0.93979000  0.21832000  0.79041000  1.0
  C  C39  1  0.78167000  0.06019000  0.20958000  1.0
  C  C40  1  0.06021000  0.78169000  0.20958000  1.0
  C  C41  1  0.21833000  0.93980000  0.79042000  1.0
  C  C42  1  0.59352000  0.40648000  0.00000000  1.0
  C  C43  1  0.40648000  0.59352000  0.00000000  1.0
  C  C44  1  0.62576000  0.53386000  0.93613000  1.0
  C  C45  1  0.46612000  0.37423000  0.06387000  1.0
  C  C46  1  0.37424000  0.46614000  0.06387000  1.0
  C  C47  1  0.53387000  0.62577000  0.93613000  1.0
  N  N48  1  0.83630000  0.17616000  0.65948000  1.0
  N  N49  1  0.82384000  0.16370000  0.34052000  1.0
  N  N50  1  0.16371000  0.82384000  0.34053000  1.0
  N  N51  1  0.17616000  0.83629000  0.65948000  1.0
  N  N52  1  0.68762000  0.31238000  1.00000000  1.0
  N  N53  1  0.31238000  0.68761000  1.00000000  1.0
  Cl  Cl54  1  0.21646000  0.21646000  0.59652000  1.0
  Cl  Cl55  1  0.78353000  0.78353000  0.40349000  1.0
