# generated using pymatgen
data_Sr3P2H12C4(SO7)2
_symmetry_space_group_name_H-M   'P 1'
_cell_length_a   7.01643000
_cell_length_b   9.94743000
_cell_length_c   12.69470000
_cell_angle_alpha   108.32600000
_cell_angle_beta   97.57360000
_cell_angle_gamma   92.35420000
_symmetry_Int_Tables_number   1
_chemical_formula_structural   Sr3P2H12C4(SO7)2
_chemical_formula_sum   'Sr6 P4 H24 C8 S4 O28'
_cell_volume   830.54595814
_cell_formula_units_Z   2
loop_
 _symmetry_equiv_pos_site_id
 _symmetry_equiv_pos_as_xyz
  1  'x, y, z'
loop_
 _atom_site_type_symbol
 _atom_site_label
 _atom_site_symmetry_multiplicity
 _atom_site_fract_x
 _atom_site_fract_y
 _atom_site_fract_z
 _atom_site_occupancy
  Sr  Sr0  1  0.33546000  0.65712000  0.06646000  1.0
  Sr  Sr1  1  0.66454000  0.34289000  0.93354000  1.0
  Sr  Sr2  1  0.23259000  0.01915000  0.40799000  1.0
  Sr  Sr3  1  0.76740000  0.98085000  0.59201000  1.0
  Sr  Sr4  1  0.89018000  0.66433000  0.22059000  1.0
  Sr  Sr5  1  0.10982000  0.33567000  0.77941000  1.0
  P  P6  1  0.15106000  0.34445000  0.04364000  1.0
  P  P7  1  0.84895000  0.65555000  0.95635000  1.0
  P  P8  1  0.42131000  0.71970000  0.33878000  1.0
  P  P9  1  0.57869000  0.28030000  0.66122000  1.0
  H  H10  1  0.29909000  0.68838000  0.82403000  1.0
  H  H11  1  0.70091000  0.31162000  0.17597000  1.0
  H  H12  1  0.39678000  0.54112000  0.80538000  1.0
  H  H13  1  0.60322000  0.45888000  0.19461000  1.0
  H  H14  1  0.97772000  0.89355000  0.15463000  1.0
  H  H15  1  0.02228000  0.10645000  0.84537000  1.0
  H  H16  1  0.85940000  0.01642000  0.22105000  1.0
  H  H17  1  0.14060000  0.98358000  0.77895000  1.0
  H  H18  1  0.36505000  0.33053000  0.20003000  1.0
  H  H19  1  0.63495000  0.66947000  0.79997000  1.0
  H  H20  1  0.13325000  0.25427000  0.19637000  1.0
  H  H21  1  0.86675000  0.74574000  0.80363000  1.0
  H  H22  1  0.37333000  0.10470000  0.01384000  1.0
  H  H23  1  0.62667000  0.89530000  0.98616000  1.0
  H  H24  1  0.18754000  0.02858000  0.06562000  1.0
  H  H25  1  0.81246000  0.97142000  0.93439000  1.0
  H  H26  1  0.26764000  0.50705000  0.35871000  1.0
  H  H27  1  0.73235000  0.49295000  0.64129000  1.0
  H  H28  1  0.49416000  0.56802000  0.44493000  1.0
  H  H29  1  0.50584000  0.43197000  0.55507000  1.0
  H  H30  1  0.34003000  0.76350000  0.57958000  1.0
  H  H31  1  0.65997000  0.23650000  0.42042000  1.0
  H  H32  1  0.24499000  0.58858000  0.56480000  1.0
  H  H33  1  0.75501000  0.41142000  0.43520000  1.0
  C  C34  1  0.24459000  0.25868000  0.14396000  1.0
  C  C35  1  0.75541000  0.74132000  0.85604000  1.0
  C  C36  1  0.30782000  0.11165000  0.08905000  1.0
  C  C37  1  0.69218000  0.88836000  0.91096000  1.0
  C  C38  1  0.35519000  0.60242000  0.41611000  1.0
  C  C39  1  0.64480000  0.39758000  0.58389000  1.0
  C  C40  1  0.25956000  0.66635000  0.52045000  1.0
  C  C41  1  0.74043000  0.33364000  0.47955000  1.0
  S  S42  1  0.48630000  0.06069000  0.17992000  1.0
  S  S43  1  0.51370000  0.93931000  0.82008000  1.0
  S  S44  1  0.01570000  0.70702000  0.49298000  1.0
  S  S45  1  0.98430000  0.29298000  0.50702000  1.0
  O  O46  1  0.08542000  0.48603000  0.11226000  1.0
  O  O47  1  0.91457000  0.51397000  0.88774000  1.0
  O  O48  1  0.31353000  0.37568000  0.97939000  1.0
  O  O49  1  0.68647000  0.62432000  0.02061000  1.0
  O  O50  1  0.98705000  0.24311000  0.95856000  1.0
  O  O51  1  0.01296000  0.75690000  0.04144000  1.0
  O  O52  1  0.67512000  0.13484000  0.18229000  1.0
  O  O53  1  0.32489000  0.86516000  0.81772000  1.0
  O  O54  1  0.42623000  0.10390000  0.29153000  1.0
  O  O55  1  0.57378000  0.89610000  0.70847000  1.0
  O  O56  1  0.48949000  0.90582000  0.13071000  1.0
  O  O57  1  0.51051000  0.09419000  0.86929000  1.0
  O  O58  1  0.52980000  0.85460000  0.42495000  1.0
  O  O59  1  0.47021000  0.14540000  0.57505000  1.0
  O  O60  1  0.23895000  0.76112000  0.27705000  1.0
  O  O61  1  0.76105000  0.23888000  0.72295000  1.0
  O  O62  1  0.54004000  0.63543000  0.24920000  1.0
  O  O63  1  0.45996000  0.36457000  0.75080000  1.0
  O  O64  1  0.01896000  0.84191000  0.46276000  1.0
  O  O65  1  0.98104000  0.15809000  0.53724000  1.0
  O  O66  1  0.92768000  0.73029000  0.59489000  1.0
  O  O67  1  0.07232000  0.26971000  0.40511000  1.0
  O  O68  1  0.92020000  0.58787000  0.39592000  1.0
  O  O69  1  0.07980000  0.41213000  0.60407000  1.0
  O  O70  1  0.30695000  0.60303000  0.84810000  1.0
  O  O71  1  0.69305000  0.39697000  0.15190000  1.0
  O  O72  1  0.95168000  0.94789000  0.23175000  1.0
  O  O73  1  0.04832000  0.05211000  0.76825000  1.0
