# generated using pymatgen
data_CuH4C5BrN
_symmetry_space_group_name_H-M   'P 1'
_cell_length_a   3.89948000
_cell_length_b   15.34950000
_cell_length_c   18.92510000
_cell_angle_alpha   89.99970000
_cell_angle_beta   86.90560000
_cell_angle_gamma   89.99950000
_symmetry_Int_Tables_number   1
_chemical_formula_structural   CuH4C5BrN
_chemical_formula_sum   'Cu8 H32 C40 Br8 N8'
_cell_volume   1131.11152824
_cell_formula_units_Z   8
loop_
 _symmetry_equiv_pos_site_id
 _symmetry_equiv_pos_as_xyz
  1  'x, y, z'
loop_
 _atom_site_type_symbol
 _atom_site_label
 _atom_site_symmetry_multiplicity
 _atom_site_fract_x
 _atom_site_fract_y
 _atom_site_fract_z
 _atom_site_occupancy
  Cu  Cu0  1  0.03353000  0.35125000  0.69739000  1.0
  Cu  Cu1  1  0.46645000  0.85125000  0.80261000  1.0
  Cu  Cu2  1  0.96647000  0.64875000  0.30261000  1.0
  Cu  Cu3  1  0.53354000  0.14875000  0.19739000  1.0
  Cu  Cu4  1  0.31238000  0.26260000  0.59243000  1.0
  Cu  Cu5  1  0.18760000  0.76261000  0.90757000  1.0
  Cu  Cu6  1  0.68762000  0.73740000  0.40757000  1.0
  Cu  Cu7  1  0.81238000  0.23739000  0.09243000  1.0
  H  H8  1  0.89756000  0.43158000  0.55367000  1.0
  H  H9  1  0.60242000  0.93158000  0.94633000  1.0
  H  H10  1  0.10245000  0.56842000  0.44633000  1.0
  H  H11  1  0.39754000  0.06843000  0.05367000  1.0
  H  H12  1  0.63224000  0.57225000  0.51508000  1.0
  H  H13  1  0.86775000  0.07225000  0.98492000  1.0
  H  H14  1  0.36777000  0.42775000  0.48491000  1.0
  H  H15  1  0.13220000  0.92776000  0.01508000  1.0
  H  H16  1  0.40457000  0.67597000  0.60742000  1.0
  H  H17  1  0.09541000  0.17596000  0.89258000  1.0
  H  H18  1  0.59544000  0.32403000  0.39258000  1.0
  H  H19  1  0.90455000  0.82404000  0.10742000  1.0
  H  H20  1  0.45995000  0.63852000  0.73439000  1.0
  H  H21  1  0.04003000  0.13852000  0.76561000  1.0
  H  H22  1  0.54006000  0.36148000  0.26560000  1.0
  H  H23  1  0.95996000  0.86148000  0.23439000  1.0
  H  H24  1  0.53430000  0.60508000  0.83659000  1.0
  H  H25  1  0.96569000  0.10508000  0.66341000  1.0
  H  H26  1  0.46574000  0.39492000  0.16341000  1.0
  H  H27  1  0.03428000  0.89492000  0.33659000  1.0
  H  H28  1  0.62579000  0.55196000  0.95684000  1.0
  H  H29  1  0.87422000  0.05195000  0.54315000  1.0
  H  H30  1  0.37428000  0.44805000  0.04315000  1.0
  H  H31  1  0.12573000  0.94803000  0.45685000  1.0
  H  H32  1  0.91231000  0.40451000  0.97209000  1.0
  H  H33  1  0.58772000  0.90450000  0.52792000  1.0
  H  H34  1  0.08776000  0.59550000  0.02792000  1.0
  H  H35  1  0.41224000  0.09549000  0.47209000  1.0
  H  H36  1  0.10991000  0.32285000  0.86351000  1.0
  H  H37  1  0.39011000  0.82285000  0.63650000  1.0
  H  H38  1  0.89014000  0.67715000  0.13649000  1.0
  H  H39  1  0.60987000  0.17714000  0.36351000  1.0
  C  C40  1  0.80587000  0.48054000  0.59193000  1.0
  C  C41  1  0.69411000  0.98054000  0.90807000  1.0
  C  C42  1  0.19413000  0.51946000  0.40807000  1.0
  C  C43  1  0.30586000  0.01946000  0.09193000  1.0
  C  C44  1  0.65418000  0.55769000  0.57092000  1.0
  C  C45  1  0.84581000  0.05770000  0.92908000  1.0
  C  C46  1  0.34582000  0.44231000  0.42907000  1.0
  C  C47  1  0.15418000  0.94231000  0.07092000  1.0
  C  C48  1  0.52967000  0.61586000  0.62263000  1.0
  C  C49  1  0.97031000  0.11586000  0.87737000  1.0
  C  C50  1  0.47034000  0.38415000  0.37737000  1.0
  C  C51  1  0.02968000  0.88414000  0.12263000  1.0
  C  C52  1  0.56235000  0.59474000  0.69333000  1.0
  C  C53  1  0.93763000  0.09474000  0.80667000  1.0
  C  C54  1  0.43765000  0.40526000  0.30667000  1.0
  C  C55  1  0.06236000  0.90526000  0.19333000  1.0
  C  C56  1  0.72382000  0.51703000  0.71112000  1.0
  C  C57  1  0.77616000  0.01703000  0.78888000  1.0
  C  C58  1  0.27620000  0.48297000  0.28888000  1.0
  C  C59  1  0.22382000  0.98297000  0.21113000  1.0
  C  C60  1  0.77005000  0.49143000  0.78537000  1.0
  C  C61  1  0.72995000  0.99143000  0.71462000  1.0
  C  C62  1  0.22997000  0.50857000  0.21462000  1.0
  C  C63  1  0.27002000  0.00857000  0.28538000  1.0
  C  C64  1  0.65935000  0.54249000  0.84353000  1.0
  C  C65  1  0.84065000  0.04248000  0.65647000  1.0
  C  C66  1  0.34070000  0.45752000  0.15647000  1.0
  C  C67  1  0.15931000  0.95751000  0.34353000  1.0
  C  C68  1  0.71009000  0.51210000  0.91151000  1.0
  C  C69  1  0.78993000  0.01209000  0.58849000  1.0
  C  C70  1  0.29000000  0.48791000  0.08849000  1.0
  C  C71  1  0.21002000  0.98790000  0.41151000  1.0
  C  C72  1  0.87004000  0.43178000  0.92012000  1.0
  C  C73  1  0.63000000  0.93177000  0.57988000  1.0
  C  C74  1  0.13004000  0.56823000  0.07988000  1.0
  C  C75  1  0.36997000  0.06822000  0.42012000  1.0
  C  C76  1  0.97717000  0.38521000  0.85969000  1.0
  C  C77  1  0.52286000  0.88520000  0.64031000  1.0
  C  C78  1  0.02289000  0.61480000  0.14031000  1.0
  C  C79  1  0.47712000  0.11479000  0.35969000  1.0
  Br  Br80  1  0.48347000  0.25032000  0.71071000  1.0
  Br  Br81  1  0.01653000  0.75033000  0.78929000  1.0
  Br  Br82  1  0.51654000  0.74967000  0.28929000  1.0
  Br  Br83  1  0.98346000  0.24967000  0.21071000  1.0
  Br  Br84  1  0.85242000  0.24995000  0.51846000  1.0
  Br  Br85  1  0.64758000  0.74996000  0.98153000  1.0
  Br  Br86  1  0.14759000  0.75004000  0.48153000  1.0
  Br  Br87  1  0.35242000  0.25004000  0.01847000  1.0
  N  N88  1  0.84504000  0.46052000  0.66030000  1.0
  N  N89  1  0.65495000  0.96052000  0.83971000  1.0
  N  N90  1  0.15497000  0.53948000  0.33970000  1.0
  N  N91  1  0.34503000  0.03948000  0.16030000  1.0
  N  N92  1  0.92831000  0.41395000  0.79420000  1.0
  N  N93  1  0.57168000  0.91394000  0.70581000  1.0
  N  N94  1  0.07171000  0.58606000  0.20580000  1.0
  N  N95  1  0.42829000  0.08605000  0.29420000  1.0
