# generated using pymatgen
data_AlH9C14NO5
_symmetry_space_group_name_H-M   'P 1'
_cell_length_a   6.61089000
_cell_length_b   11.03396283
_cell_length_c   17.72380000
_cell_angle_alpha   91.43390663
_cell_angle_beta   99.80360000
_cell_angle_gamma   105.93928081
_symmetry_Int_Tables_number   1
_chemical_formula_structural   AlH9C14NO5
_chemical_formula_sum   'Al2 H18 C28 N2 O10'
_cell_volume   1221.47065135
_cell_formula_units_Z   2
loop_
 _symmetry_equiv_pos_site_id
 _symmetry_equiv_pos_as_xyz
  1  'x, y, z'
loop_
 _atom_site_type_symbol
 _atom_site_label
 _atom_site_symmetry_multiplicity
 _atom_site_fract_x
 _atom_site_fract_y
 _atom_site_fract_z
 _atom_site_occupancy
  Al  Al0  1  0.00724000  0.49380000  0.50455000  1.0
  Al  Al1  1  0.50623000  0.49434000  0.50319000  1.0
  H  H2  1  0.35061000  0.65043000  0.53641000  1.0
  H  H3  1  0.66149000  0.34421000  0.45278000  1.0
  H  H4  1  0.81006000  0.43577000  0.27421000  1.0
  H  H5  1  0.72658000  0.44328000  0.13165000  1.0
  H  H6  1  0.40056000  0.59790000  0.12978000  1.0
  H  H7  1  0.48163000  0.58413000  0.27176000  1.0
  H  H8  1  0.59018000  0.43311000  0.87807000  1.0
  H  H9  1  0.52074000  0.42718000  0.73458000  1.0
  H  H10  1  0.19577000  0.56896000  0.73720000  1.0
  H  H11  1  0.26775000  0.58149000  0.88086000  1.0
  H  H12  1  0.55028000  0.75789000  0.39942000  1.0
  H  H13  1  0.33147000  0.87305000  0.32133000  1.0
  H  H14  1  0.80400000  0.22566000  0.40270000  1.0
  H  H15  1  0.46052000  0.10906000  0.32239000  1.0
  H  H16  1  0.47203000  0.21161000  0.57019000  1.0
  H  H17  1  0.51975000  0.06970000  0.57809000  1.0
  H  H18  1  0.20433000  0.77691000  0.59251000  1.0
  H  H19  1  0.35128000  0.92174000  0.63344000  1.0
  C  C20  1  0.86484000  0.72108000  0.49715000  1.0
  C  C21  1  0.81194000  0.49693000  0.64250000  1.0
  C  C22  1  0.14455000  0.26676000  0.50600000  1.0
  C  C23  1  0.19799000  0.49598000  0.36521000  1.0
  C  C24  1  0.15062000  0.50754000  0.28097000  1.0
  C  C25  1  0.93752000  0.47014000  0.24166000  1.0
  C  C26  1  0.89141000  0.47502000  0.16265000  1.0
  C  C27  1  0.05845000  0.51968000  0.12117000  1.0
  C  C28  1  0.27197000  0.56131000  0.16154000  1.0
  C  C29  1  0.31715000  0.55409000  0.24043000  1.0
  C  C30  1  0.01311000  0.51958000  0.04026000  1.0
  C  C31  1  0.97480000  0.51488000  0.97019000  1.0
  C  C32  1  0.93359000  0.50883000  0.88902000  1.0
  C  C33  1  0.72209000  0.46418000  0.84706000  1.0
  C  C34  1  0.68336000  0.46015000  0.76741000  1.0
  C  C35  1  0.85410000  0.49853000  0.72775000  1.0
  C  C36  1  0.06490000  0.54071000  0.76894000  1.0
  C  C37  1  0.10465000  0.54701000  0.84860000  1.0
  C  C38  1  0.93431000  0.86058000  0.49561000  1.0
  C  C39  1  0.80071000  0.92553000  0.45091000  1.0
  C  C40  1  0.13397000  0.92606000  0.53839000  1.0
  C  C41  1  0.60457000  0.86062000  0.40217000  1.0
  C  C42  1  0.48198000  0.92528000  0.35798000  1.0
  C  C43  1  0.07503000  0.12657000  0.49932000  1.0
  C  C44  1  0.21051000  0.06125000  0.53724000  1.0
  C  C45  1  0.87110000  0.06077000  0.45363000  1.0
  C  C46  1  0.74453000  0.12386000  0.40539000  1.0
  C  C47  1  0.55360000  0.05808000  0.35906000  1.0
  N  N48  1  0.41172000  0.11945000  0.58025000  1.0
  N  N49  1  0.26873000  0.86921000  0.58415000  1.0
  O  O50  1  0.00294000  0.66322000  0.48790000  1.0
  O  O51  1  0.61750000  0.47453000  0.60888000  1.0
  O  O52  1  0.33464000  0.32239000  0.49636000  1.0
  O  O53  1  0.03848000  0.46813000  0.39962000  1.0
  O  O54  1  0.01239000  0.32447000  0.52147000  1.0
  O  O55  1  0.39304000  0.51283000  0.39696000  1.0
  O  O56  1  0.67799000  0.66682000  0.50944000  1.0
  O  O57  1  0.97403000  0.52029000  0.60926000  1.0
  O  O58  1  0.30207000  0.55884000  0.53657000  1.0
  O  O59  1  0.71353000  0.43315000  0.47039000  1.0
