# generated using pymatgen
data_MnH15C22N2O5
_symmetry_space_group_name_H-M   'P 1'
_cell_length_a   9.09584000
_cell_length_b   9.91862000
_cell_length_c   12.50850000
_cell_angle_alpha   95.52030000
_cell_angle_beta   106.76100000
_cell_angle_gamma   109.94500000
_symmetry_Int_Tables_number   1
_chemical_formula_structural   MnH15C22N2O5
_chemical_formula_sum   'Mn2 H30 C44 N4 O10'
_cell_volume   991.72415490
_cell_formula_units_Z   2
loop_
 _symmetry_equiv_pos_site_id
 _symmetry_equiv_pos_as_xyz
  1  'x, y, z'
loop_
 _atom_site_type_symbol
 _atom_site_label
 _atom_site_symmetry_multiplicity
 _atom_site_fract_x
 _atom_site_fract_y
 _atom_site_fract_z
 _atom_site_occupancy
  Mn  Mn0  1  0.54811000  0.94093000  0.61119000  1.0
  Mn  Mn1  1  0.45189000  0.05907000  0.38881000  1.0
  H  H2  1  0.19684000  0.29925000  0.52333000  1.0
  H  H3  1  0.80315000  0.70074000  0.47667000  1.0
  H  H4  1  0.06971000  0.41873000  0.63445000  1.0
  H  H5  1  0.93029000  0.58127000  0.36555000  1.0
  H  H6  1  0.00513000  0.07411000  0.82199000  1.0
  H  H7  1  0.99487000  0.92589000  0.17801000  1.0
  H  H8  1  0.14091000  0.95809000  0.71291000  1.0
  H  H9  1  0.85909000  0.04191000  0.28709000  1.0
  H  H10  1  0.81374000  0.78466000  0.69442000  1.0
  H  H11  1  0.18627000  0.21534000  0.30559000  1.0
  H  H12  1  0.09410000  0.59967000  0.93325000  1.0
  H  H13  1  0.90590000  0.40032000  0.06676000  1.0
  H  H14  1  0.65522000  0.53733000  0.56518000  1.0
  H  H15  1  0.34478000  0.46268000  0.43482000  1.0
  H  H16  1  0.02956000  0.81371000  0.88286000  1.0
  H  H17  1  0.97044000  0.18629000  0.11715000  1.0
  H  H18  1  0.43015000  0.65222000  0.72335000  1.0
  H  H19  1  0.56985000  0.34778000  0.27665000  1.0
  H  H20  1  0.79093000  0.07956000  0.88615000  1.0
  H  H21  1  0.20907000  0.92044000  0.11385000  1.0
  H  H22  1  0.76993000  0.90623000  0.04861000  1.0
  H  H23  1  0.23007000  0.09377000  0.95139000  1.0
  H  H24  1  0.62133000  0.49961000  0.84628000  1.0
  H  H25  1  0.37868000  0.50039000  0.15371000  1.0
  H  H26  1  0.55250000  0.83857000  0.15213000  1.0
  H  H27  1  0.44751000  0.16143000  0.84787000  1.0
  H  H28  1  0.34037000  0.72496000  0.11708000  1.0
  H  H29  1  0.65964000  0.27504000  0.88292000  1.0
  H  H30  1  0.40999000  0.81596000  0.01444000  1.0
  H  H31  1  0.59001000  0.18405000  0.98556000  1.0
  C  C32  1  0.27004000  0.05935000  0.55517000  1.0
  C  C33  1  0.72996000  0.94065000  0.44483000  1.0
  C  C34  1  0.17962000  0.12388000  0.61369000  1.0
  C  C35  1  0.82038000  0.87612000  0.38631000  1.0
  C  C36  1  0.15637000  0.25165000  0.58984000  1.0
  C  C37  1  0.84362000  0.74834000  0.41016000  1.0
  C  C38  1  0.08481000  0.31770000  0.65192000  1.0
  C  C39  1  0.91518000  0.68229000  0.34808000  1.0
  C  C40  1  0.03329000  0.25519000  0.73753000  1.0
  C  C41  1  0.96671000  0.74481000  0.26247000  1.0
  C  C42  1  0.05152000  0.12401000  0.75816000  1.0
  C  C43  1  0.94847000  0.87598000  0.24184000  1.0
  C  C44  1  0.12486000  0.05940000  0.69755000  1.0
  C  C45  1  0.87513000  0.94060000  0.30245000  1.0
  C  C46  1  0.96410000  0.32552000  0.80990000  1.0
  C  C47  1  0.03590000  0.67447000  0.19010000  1.0
  C  C48  1  0.91591000  0.44973000  0.77652000  1.0
  C  C49  1  0.08410000  0.55027000  0.22348000  1.0
  C  C50  1  0.68608000  0.28262000  0.59716000  1.0
  C  C51  1  0.31392000  0.71738000  0.40284000  1.0
  C  C52  1  0.84203000  0.69139000  0.71875000  1.0
  C  C53  1  0.15798000  0.30861000  0.28125000  1.0
  C  C54  1  0.00075000  0.58738000  0.85153000  1.0
  C  C55  1  0.99925000  0.41262000  0.14847000  1.0
  C  C56  1  0.78980000  0.43196000  0.67303000  1.0
  C  C57  1  0.21021000  0.56805000  0.32697000  1.0
  C  C58  1  0.75451000  0.55344000  0.64497000  1.0
  C  C59  1  0.24550000  0.44657000  0.35503000  1.0
  C  C60  1  0.96386000  0.70764000  0.82271000  1.0
  C  C61  1  0.03615000  0.29236000  0.17729000  1.0
  C  C62  1  0.52545000  0.74625000  0.78828000  1.0
  C  C63  1  0.47455000  0.25375000  0.21172000  1.0
  C  C64  1  0.71234000  0.96543000  0.87634000  1.0
  C  C65  1  0.28766000  0.03457000  0.12366000  1.0
  C  C66  1  0.70364000  0.88270000  0.95767000  1.0
  C  C67  1  0.29636000  0.11730000  0.04233000  1.0
  C  C68  1  0.53951000  0.62048000  0.95220000  1.0
  C  C69  1  0.46049000  0.37952000  0.04780000  1.0
  C  C70  1  0.56522000  0.49693000  0.91270000  1.0
  C  C71  1  0.43478000  0.50307000  0.08729000  1.0
  C  C72  1  0.47390000  0.62764000  0.04058000  1.0
  C  C73  1  0.52610000  0.37236000  0.95942000  1.0
  C  C74  1  0.44234000  0.75845000  0.08273000  1.0
  C  C75  1  0.55766000  0.24155000  0.91727000  1.0
  N  N76  1  0.60036000  0.87920000  0.77111000  1.0
  N  N77  1  0.39964000  0.12080000  0.22889000  1.0
  N  N78  1  0.58493000  0.74406000  0.90095000  1.0
  N  N79  1  0.41507000  0.25594000  0.09905000  1.0
  O  O80  1  0.33161000  0.97508000  0.60521000  1.0
  O  O81  1  0.66838000  0.02491000  0.39479000  1.0
  O  O82  1  0.28399000  0.09597000  0.46260000  1.0
  O  O83  1  0.71601000  0.90403000  0.53739000  1.0
  O  O84  1  0.61573000  0.27465000  0.49191000  1.0
  O  O85  1  0.38427000  0.72535000  0.50809000  1.0
  O  O86  1  0.67362000  0.17370000  0.64623000  1.0
  O  O87  1  0.32638000  0.82631000  0.35378000  1.0
  O  O88  1  0.95815000  0.29069000  0.90155000  1.0
  O  O89  1  0.04186000  0.70931000  0.09845000  1.0
