# generated using pymatgen
data_Co2H26C36N4O11
_symmetry_space_group_name_H-M   'P 1'
_cell_length_a   8.18424000
_cell_length_b   11.33100000
_cell_length_c   12.88610000
_cell_angle_alpha   104.47500000
_cell_angle_beta   108.49600000
_cell_angle_gamma   90.01860000
_symmetry_Int_Tables_number   1
_chemical_formula_structural   Co2H26C36N4O11
_chemical_formula_sum   'Co2 H26 C36 N4 O11'
_cell_volume   1093.16711462
_cell_formula_units_Z   1
loop_
 _symmetry_equiv_pos_site_id
 _symmetry_equiv_pos_as_xyz
  1  'x, y, z'
loop_
 _atom_site_type_symbol
 _atom_site_label
 _atom_site_symmetry_multiplicity
 _atom_site_fract_x
 _atom_site_fract_y
 _atom_site_fract_z
 _atom_site_occupancy
  Co  Co0  1  0.31903000  0.06308000  0.63120000  1.0
  Co  Co1  1  0.68749000  0.93674000  0.36862000  1.0
  H  H2  1  0.13754000  0.19399000  0.02777000  1.0
  H  H3  1  0.06299000  0.29055000  0.20380000  1.0
  H  H4  1  0.15444000  0.19754000  0.36788000  1.0
  H  H5  1  0.15263000  0.81728000  0.46190000  1.0
  H  H6  1  0.14319000  0.59755000  0.46029000  1.0
  H  H7  1  0.49227000  0.70316000  0.80636000  1.0
  H  H8  1  0.48467000  0.91854000  0.79352000  1.0
  H  H9  1  0.04767000  0.45189000  0.53638000  1.0
  H  H10  1  0.06272000  0.23246000  0.53973000  1.0
  H  H11  1  0.58042000  0.28929000  0.73148000  1.0
  H  H12  1  0.58998000  0.51110000  0.73796000  1.0
  H  H13  1  0.65242000  0.02343000  0.61719000  1.0
  H  H14  1  0.65715000  0.07088000  0.74482000  1.0
  H  H15  1  0.10858000  0.80613000  0.97211000  1.0
  H  H16  1  0.85778000  0.70983000  0.79618000  1.0
  H  H17  1  0.78583000  0.80262000  0.63200000  1.0
  H  H18  1  0.69068000  0.18246000  0.53812000  1.0
  H  H19  1  0.68401000  0.40233000  0.54012000  1.0
  H  H20  1  0.68685000  0.29697000  0.19394000  1.0
  H  H21  1  0.69069000  0.08145000  0.20636000  1.0
  H  H22  1  0.51210000  0.54792000  0.46388000  1.0
  H  H23  1  0.52292000  0.76723000  0.46008000  1.0
  H  H24  1  0.84929000  0.71087000  0.26850000  1.0
  H  H25  1  0.85343000  0.48921000  0.26258000  1.0
  H  H26  1  0.03503000  0.97677000  0.38289000  1.0
  H  H27  1  0.91238000  0.92953000  0.25525000  1.0
  C  C28  1  0.33209000  0.00446000  0.38840000  1.0
  C  C29  1  0.27718000  0.05291000  0.28618000  1.0
  C  C30  1  0.31783000  0.99759000  0.18743000  1.0
  C  C31  1  0.26398000  0.05129000  0.09674000  1.0
  C  C32  1  0.17295000  0.15559000  0.10094000  1.0
  C  C33  1  0.13294000  0.20848000  0.19893000  1.0
  C  C34  1  0.18382000  0.15707000  0.29053000  1.0
  C  C35  1  0.22625000  0.78792000  0.53637000  1.0
  C  C36  1  0.22130000  0.66543000  0.53638000  1.0
  C  C37  1  0.31926000  0.63019000  0.63321000  1.0
  C  C38  1  0.41778000  0.72332000  0.72712000  1.0
  C  C39  1  0.41445000  0.84378000  0.72077000  1.0
  C  C40  1  0.31943000  0.50090000  0.63533000  1.0
  C  C41  1  0.16997000  0.41979000  0.57913000  1.0
  C  C42  1  0.17675000  0.29773000  0.58068000  1.0
  C  C43  1  0.46560000  0.32962000  0.68959000  1.0
  C  C44  1  0.46940000  0.45309000  0.69268000  1.0
  C  C45  1  0.40360000  0.87829000  0.17081000  1.0
  C  C46  1  0.94350000  0.99547000  0.61139000  1.0
  C  C47  1  0.99054000  0.94710000  0.71364000  1.0
  C  C48  1  0.13000000  0.00234000  0.81234000  1.0
  C  C49  1  0.16664000  0.94862000  0.90301000  1.0
  C  C50  1  0.07101000  0.84453000  0.89893000  1.0
  C  C51  1  0.93288000  0.79176000  0.80100000  1.0
  C  C52  1  0.89250000  0.84308000  0.70936000  1.0
  C  C53  1  0.69012000  0.21192000  0.46371000  1.0
  C  C54  1  0.68579000  0.33451000  0.46388000  1.0
  C  C55  1  0.68719000  0.36984000  0.36714000  1.0
  C  C56  1  0.69142000  0.27674000  0.27311000  1.0
  C  C57  1  0.69373000  0.15621000  0.27923000  1.0
  C  C58  1  0.68521000  0.49911000  0.36505000  1.0
  C  C59  1  0.59156000  0.58006000  0.42107000  1.0
  C  C60  1  0.59631000  0.70207000  0.41931000  1.0
  C  C61  1  0.77648000  0.67046000  0.31046000  1.0
  C  C62  1  0.77777000  0.54705000  0.30767000  1.0
  C  C63  1  0.23259000  0.12157000  0.82894000  1.0
  N  N64  1  0.32251000  0.25216000  0.63346000  1.0
  N  N65  1  0.32102000  0.87678000  0.62706000  1.0
  N  N66  1  0.68910000  0.74777000  0.36642000  1.0
  N  N67  1  0.69371000  0.12307000  0.37285000  1.0
  O  O68  1  0.24134000  0.02979000  0.45558000  1.0
  O  O69  1  0.46052000  0.94199000  0.40818000  1.0
  O  O70  1  0.30851000  0.78172000  0.12697000  1.0
  O  O71  1  0.57227000  0.88684000  0.20151000  1.0
  O  O72  1  0.59707000  0.07768000  0.66847000  1.0
  O  O73  1  0.78553000  0.97040000  0.54430000  1.0
  O  O74  1  0.05244000  0.05757000  0.59146000  1.0
  O  O75  1  0.18149000  0.21820000  0.87276000  1.0
  O  O76  1  0.37058000  0.11301000  0.79828000  1.0
  O  O77  1  0.92847000  0.92252000  0.33152000  1.0
  O  O78  1  0.30789000  0.99979000  0.99978000  1.0
