# generated using pymatgen
data_Zn2H9C12N5Cl2O
_symmetry_space_group_name_H-M   'P 1'
_cell_length_a   7.24517000
_cell_length_b   7.24517000
_cell_length_c   15.63780000
_cell_angle_alpha   79.77180000
_cell_angle_beta   79.77170000
_cell_angle_gamma   64.83360000
_symmetry_Int_Tables_number   1
_chemical_formula_structural   Zn2H9C12N5Cl2O
_chemical_formula_sum   'Zn4 H18 C24 N10 Cl4 O2'
_cell_volume   726.32518624
_cell_formula_units_Z   2
loop_
 _symmetry_equiv_pos_site_id
 _symmetry_equiv_pos_as_xyz
  1  'x, y, z'
loop_
 _atom_site_type_symbol
 _atom_site_label
 _atom_site_symmetry_multiplicity
 _atom_site_fract_x
 _atom_site_fract_y
 _atom_site_fract_z
 _atom_site_occupancy
  Zn  Zn0  1  0.61646000  0.26969000  0.66475000  1.0
  Zn  Zn1  1  0.73031000  0.38353000  0.83525000  1.0
  Zn  Zn2  1  0.38354000  0.73031000  0.33525000  1.0
  Zn  Zn3  1  0.26969000  0.61646000  0.16475000  1.0
  H  H4  1  0.93700000  0.06300000  0.75000000  1.0
  H  H5  1  0.06300000  0.93700000  0.25000000  1.0
  H  H6  1  0.03645000  0.25138000  0.60717000  1.0
  H  H7  1  0.74862000  0.96355000  0.89283000  1.0
  H  H8  1  0.96355000  0.74862000  0.39283000  1.0
  H  H9  1  0.25138000  0.03645000  0.10717000  1.0
  H  H10  1  0.27853000  0.20535000  0.46940000  1.0
  H  H11  1  0.79465000  0.72147000  0.03060000  1.0
  H  H12  1  0.72147000  0.79465000  0.53060000  1.0
  H  H13  1  0.20535000  0.27853000  0.96940000  1.0
  H  H14  1  0.14566000  0.23301000  0.32715000  1.0
  H  H15  1  0.76700000  0.85433000  0.17285000  1.0
  H  H16  1  0.85433000  0.76699000  0.67285000  1.0
  H  H17  1  0.23301000  0.14567000  0.82715000  1.0
  H  H18  1  0.55920000  0.31573000  0.47578000  1.0
  H  H19  1  0.68427000  0.44080000  0.02422000  1.0
  H  H20  1  0.44080000  0.68428000  0.52422000  1.0
  H  H21  1  0.31573000  0.55920000  0.97578000  1.0
  C  C22  1  0.98538000  0.25996000  0.54445000  1.0
  C  C23  1  0.74004000  0.01462000  0.95555000  1.0
  C  C24  1  0.01462000  0.74004000  0.45555000  1.0
  C  C25  1  0.25996000  0.98538000  0.04445000  1.0
  C  C26  1  0.11850000  0.23651000  0.46723000  1.0
  C  C27  1  0.76349000  0.88150000  0.03277000  1.0
  C  C28  1  0.88150000  0.76349000  0.53277000  1.0
  C  C29  1  0.23651000  0.11850000  0.96723000  1.0
  C  C30  1  0.04563000  0.24904000  0.38888000  1.0
  C  C31  1  0.75096000  0.95436000  0.11112000  1.0
  C  C32  1  0.95437000  0.75096000  0.61112000  1.0
  C  C33  1  0.24904000  0.04563000  0.88888000  1.0
  C  C34  1  0.83916000  0.28456000  0.39020000  1.0
  C  C35  1  0.71544000  0.16084000  0.10980000  1.0
  C  C36  1  0.16084000  0.71544000  0.60980000  1.0
  C  C37  1  0.28456000  0.83916000  0.89020000  1.0
  C  C38  1  0.71690000  0.30065000  0.47062000  1.0
  C  C39  1  0.69935000  0.28309000  0.02938000  1.0
  C  C40  1  0.28309000  0.69936000  0.52938000  1.0
  C  C41  1  0.30065000  0.71690000  0.97062000  1.0
  C  C42  1  0.75084000  0.30166000  0.31039000  1.0
  C  C43  1  0.69834000  0.24915000  0.18961000  1.0
  C  C44  1  0.24915000  0.69834000  0.68961000  1.0
  C  C45  1  0.30166000  0.75085000  0.81039000  1.0
  N  N46  1  0.78811000  0.28975000  0.54590000  1.0
  N  N47  1  0.71026000  0.21188000  0.95410000  1.0
  N  N48  1  0.21189000  0.71026000  0.45410000  1.0
  N  N49  1  0.28974000  0.78812000  0.04590000  1.0
  N  N50  1  0.83233000  0.16766000  0.25000000  1.0
  N  N51  1  0.16767000  0.83233000  0.75000000  1.0
  N  N52  1  0.57477000  0.45792000  0.28907000  1.0
  N  N53  1  0.54208000  0.42522000  0.21093000  1.0
  N  N54  1  0.42522000  0.54208000  0.71093000  1.0
  N  N55  1  0.45792000  0.57477000  0.78907000  1.0
  Cl  Cl56  1  0.43398000  0.10300000  0.64529000  1.0
  Cl  Cl57  1  0.89701000  0.56602000  0.85471000  1.0
  Cl  Cl58  1  0.56602000  0.89701000  0.35471000  1.0
  Cl  Cl59  1  0.10300000  0.43398000  0.14529000  1.0
  O  O60  1  0.80866000  0.19134000  0.75000000  1.0
  O  O61  1  0.19134000  0.80866000  0.25000000  1.0
