# generated using pymatgen
data_CoH19C25N3O4
_symmetry_space_group_name_H-M   'P 1'
_cell_length_a   9.99947000
_cell_length_b   11.29960000
_cell_length_c   25.70388089
_cell_angle_alpha   86.49284844
_cell_angle_beta   82.09978752
_cell_angle_gamma   63.74620000
_symmetry_Int_Tables_number   1
_chemical_formula_structural   CoH19C25N3O4
_chemical_formula_sum   'Co4 H76 C100 N12 O16'
_cell_volume   2579.96454886
_cell_formula_units_Z   4
loop_
 _symmetry_equiv_pos_site_id
 _symmetry_equiv_pos_as_xyz
  1  'x, y, z'
loop_
 _atom_site_type_symbol
 _atom_site_label
 _atom_site_symmetry_multiplicity
 _atom_site_fract_x
 _atom_site_fract_y
 _atom_site_fract_z
 _atom_site_occupancy
  Co  Co0  1  0.27328000  0.67537000  0.07750000  1.0
  Co  Co1  1  0.19866000  0.82441000  0.57740000  1.0
  Co  Co2  1  0.03976000  0.32052000  0.92390000  1.0
  Co  Co3  1  0.61077000  0.17978000  0.42385000  1.0
  H  H4  1  0.39854000  0.02774000  0.07308000  1.0
  H  H5  1  0.80942000  0.67548000  0.07809000  1.0
  H  H6  1  0.82202000  0.04993000  0.06900000  1.0
  H  H7  1  0.19418000  0.47100000  0.10885000  1.0
  H  H8  1  0.30570000  0.22743000  0.10811000  1.0
  H  H9  1  0.71648000  0.23077000  0.03036000  1.0
  H  H10  1  0.58939000  0.47396000  0.03671000  1.0
  H  H11  1  0.38308000  0.82602000  0.82285000  1.0
  H  H12  1  0.36750000  0.67847000  0.81429000  1.0
  H  H13  1  0.25669000  0.88928000  0.01286000  1.0
  H  H14  1  0.26503000  0.94458000  0.91755000  1.0
  H  H15  1  0.35288000  0.54116000  0.88854000  1.0
  H  H16  1  0.33336000  0.50629000  0.98327000  1.0
  H  H17  1  0.10992000  0.95547000  0.83657000  1.0
  H  H18  1  0.08036000  0.81180000  0.84037000  1.0
  H  H19  1  0.29696000  0.94363000  0.64639000  1.0
  H  H20  1  0.28179000  0.96835000  0.74306000  1.0
  H  H21  1  0.02580000  0.74179000  0.76399000  1.0
  H  H22  1  0.04497000  0.73193000  0.66704000  1.0
  H  H23  1  0.67629000  0.47187000  0.57296000  1.0
  H  H24  1  0.73488000  0.82414000  0.57825000  1.0
  H  H25  1  0.12191000  0.44971000  0.56895000  1.0
  H  H26  1  0.91506000  0.02849000  0.60860000  1.0
  H  H27  1  0.78302000  0.27209000  0.60788000  1.0
  H  H28  1  0.19706000  0.26900000  0.53017000  1.0
  H  H29  1  0.31321000  0.02574000  0.53662000  1.0
  H  H30  1  0.45977000  0.67352000  0.32285000  1.0
  H  H31  1  0.29718000  0.82136000  0.31415000  1.0
  H  H32  1  0.39605000  0.61058000  0.51283000  1.0
  H  H33  1  0.46016000  0.55543000  0.41755000  1.0
  H  H34  1  0.14496000  0.95886000  0.38836000  1.0
  H  H35  1  0.09007000  0.99362000  0.48310000  1.0
  H  H36  1  0.31514000  0.54490000  0.33676000  1.0
  H  H37  1  0.14232000  0.68893000  0.34048000  1.0
  H  H38  1  0.49083000  0.55619000  0.14659000  1.0
  H  H39  1  0.50015000  0.53196000  0.24329000  1.0
  H  H40  1  0.01765000  0.75811000  0.26402000  1.0
  H  H41  1  0.02716000  0.76767000  0.16705000  1.0
  H  H42  1  0.49809000  0.97295000  0.92711000  1.0
  H  H43  1  0.54263000  0.33439000  0.92285000  1.0
  H  H44  1  0.93596000  0.96512000  0.92342000  1.0
  H  H45  1  0.75708000  0.53640000  0.89018000  1.0
  H  H46  1  0.62999000  0.78179000  0.88670000  1.0
  H  H47  1  0.98140000  0.78072000  0.96801000  1.0
  H  H48  1  0.09067000  0.53660000  0.96882000  1.0
  H  H49  1  0.03502000  0.15991000  0.18791000  1.0
  H  H50  1  0.87106000  0.31212000  0.19117000  1.0
  H  H51  1  0.17645000  0.09960000  0.99806000  1.0
  H  H52  1  0.13698000  0.04405000  0.09279000  1.0
  H  H53  1  0.80326000  0.45112000  0.11494000  1.0
  H  H54  1  0.85098000  0.48467000  0.02064000  1.0
  H  H55  1  0.90011000  0.04260000  0.16042000  1.0
  H  H56  1  0.73837000  0.19245000  0.15324000  1.0
  H  H57  1  0.88865000  0.02417000  0.35303000  1.0
  H  H58  1  0.98973000  0.00486000  0.25796000  1.0
  H  H59  1  0.54242000  0.27368000  0.22538000  1.0
  H  H60  1  0.46114000  0.28319000  0.32220000  1.0
  H  H61  1  0.72166000  0.52764000  0.42690000  1.0
  H  H62  1  0.12719000  0.16592000  0.42274000  1.0
  H  H63  1  0.15195000  0.53497000  0.42322000  1.0
  H  H64  1  0.54442000  0.96391000  0.38999000  1.0
  H  H65  1  0.66303000  0.71852000  0.38633000  1.0
  H  H66  1  0.01287000  0.71949000  0.46796000  1.0
  H  H67  1  0.87778000  0.96363000  0.46889000  1.0
  H  H68  1  0.44375000  0.34042000  0.68763000  1.0
  H  H69  1  0.43238000  0.18796000  0.69098000  1.0
  H  H70  1  0.52597000  0.40068000  0.49793000  1.0
  H  H71  1  0.43046000  0.45610000  0.59263000  1.0
  H  H72  1  0.50298000  0.04913000  0.61464000  1.0
  H  H73  1  0.58477000  0.01576000  0.52038000  1.0
  H  H74  1  0.19152000  0.45714000  0.66013000  1.0
  H  H75  1  0.17993000  0.30714000  0.65310000  1.0
  H  H76  1  0.16238000  0.47584000  0.85274000  1.0
  H  H77  1  0.24436000  0.49467000  0.75765000  1.0
  H  H78  1  0.06484000  0.22643000  0.72531000  1.0
  H  H79  1  0.99319000  0.21705000  0.82216000  1.0
  C  C80  1  0.59975000  0.05827000  0.07063000  1.0
  C  C81  1  0.51994000  0.98111000  0.07353000  1.0
  C  C82  1  0.59514000  0.84314000  0.07618000  1.0
  C  C83  1  0.75057000  0.78243000  0.07609000  1.0
  C  C84  1  0.83099000  0.85706000  0.07353000  1.0
  C  C85  1  0.75636000  0.99416000  0.07047000  1.0
  C  C86  1  0.31084000  0.41310000  0.09285000  1.0
  C  C87  1  0.37422000  0.27656000  0.09151000  1.0
  C  C88  1  0.52448000  0.20381000  0.06988000  1.0
  C  C89  1  0.60115000  0.27818000  0.04923000  1.0
  C  C90  1  0.53107000  0.41492000  0.05159000  1.0
  C  C91  1  0.51996000  0.75175000  0.07929000  1.0
  C  C92  1  0.99565000  0.78601000  0.07500000  1.0
  C  C93  1  0.31516000  0.77259000  0.83579000  1.0
  C  C94  1  0.27779000  0.81627000  0.98340000  1.0
  C  C95  1  0.28497000  0.84454000  0.93008000  1.0
  C  C96  1  0.31393000  0.74584000  0.89374000  1.0
  C  C97  1  0.33302000  0.62250000  0.91401000  1.0
  C  C98  1  0.32292000  0.60122000  0.96785000  1.0
  C  C99  1  0.15396000  0.85469000  0.82101000  1.0
  C  C100  1  0.23477000  0.90379000  0.67426000  1.0
  C  C101  1  0.22738000  0.91456000  0.72814000  1.0
  C  C102  1  0.15306000  0.85549000  0.76264000  1.0
  C  C103  1  0.08587000  0.78976000  0.73959000  1.0
  C  C104  1  0.09577000  0.78368000  0.68525000  1.0
  C  C105  1  0.90795000  0.44135000  0.57060000  1.0
  C  C106  1  0.75101000  0.51852000  0.57351000  1.0
  C  C107  1  0.68825000  0.65647000  0.57627000  1.0
  C  C108  1  0.78298000  0.71718000  0.57623000  1.0
  C  C109  1  0.93803000  0.64254000  0.57362000  1.0
  C  C110  1  0.00048000  0.50544000  0.57049000  1.0
  C  C111  1  0.97381000  0.08647000  0.59265000  1.0
  C  C112  1  0.90069000  0.22301000  0.59130000  1.0
  C  C113  1  0.97820000  0.29583000  0.56972000  1.0
  C  C114  1  0.12921000  0.22152000  0.54907000  1.0
  C  C115  1  0.19587000  0.08478000  0.55144000  1.0
  C  C116  1  0.52173000  0.74783000  0.57933000  1.0
  C  C117  1  0.03172000  0.71359000  0.57502000  1.0
  C  C118  1  0.33852000  0.72734000  0.33574000  1.0
  C  C119  1  0.34436000  0.68361000  0.48334000  1.0
  C  C120  1  0.38003000  0.65542000  0.43003000  1.0
  C  C121  1  0.31052000  0.75417000  0.39366000  1.0
  C  C122  1  0.20623000  0.87749000  0.41389000  1.0
  C  C123  1  0.17462000  0.89867000  0.46773000  1.0
  C  C124  1  0.25877000  0.64565000  0.32111000  1.0
  C  C125  1  0.38873000  0.59612000  0.17440000  1.0
  C  C126  1  0.39202000  0.58556000  0.22829000  1.0
  C  C127  1  0.25861000  0.64459000  0.26275000  1.0
  C  C128  1  0.12572000  0.71016000  0.23966000  1.0
  C  C129  1  0.12961000  0.71605000  0.18532000  1.0
  C  C130  1  0.72619000  0.94956000  0.92525000  1.0
  C  C131  1  0.57068000  0.02238000  0.92512000  1.0
  C  C132  1  0.50378000  0.16030000  0.92400000  1.0
  C  C133  1  0.59338000  0.22700000  0.92304000  1.0
  C  C134  1  0.74917000  0.15561000  0.92256000  1.0
  C  C135  1  0.81449000  0.01779000  0.92390000  1.0
  C  C136  1  0.80297000  0.59530000  0.90644000  1.0
  C  C137  1  0.73286000  0.73201000  0.90509000  1.0
  C  C138  1  0.79573000  0.80447000  0.92654000  1.0
  C  C139  1  0.92805000  0.73166000  0.94944000  1.0
  C  C140  1  0.99010000  0.59503000  0.95030000  1.0
  C  C141  1  0.33678000  0.23422000  0.92403000  1.0
  C  C142  1  0.84777000  0.22426000  0.92118000  1.0
  C  C143  1  0.93163000  0.21796000  0.16981000  1.0
  C  C144  1  0.09516000  0.17342000  0.02598000  1.0
  C  C145  1  0.07359000  0.14448000  0.07893000  1.0
  C  C146  1  0.96778000  0.24424000  0.11298000  1.0
  C  C147  1  0.88897000  0.36875000  0.09135000  1.0
  C  C148  1  0.91567000  0.38902000  0.03785000  1.0
  C  C149  1  0.83289000  0.14287000  0.17647000  1.0
  C  C150  1  0.81574000  0.07693000  0.32321000  1.0
  C  C151  1  0.87096000  0.06735000  0.27026000  1.0
  C  C152  1  0.77445000  0.13964000  0.23322000  1.0
  C  C153  1  0.62356000  0.21642000  0.25231000  1.0
  C  C154  1  0.57695000  0.22159000  0.30605000  1.0
  C  C155  1  0.92653000  0.55074000  0.42505000  1.0
  C  C156  1  0.84366000  0.47806000  0.42492000  1.0
  C  C157  1  0.91444000  0.34014000  0.42384000  1.0
  C  C158  1  0.07071000  0.27331000  0.42290000  1.0
  C  C159  1  0.15528000  0.34459000  0.42238000  1.0
  C  C160  1  0.08300000  0.48241000  0.42371000  1.0
  C  C161  1  0.64913000  0.90497000  0.40630000  1.0
  C  C162  1  0.71589000  0.76829000  0.40484000  1.0
  C  C163  1  0.85110000  0.69582000  0.42636000  1.0
  C  C164  1  0.91049000  0.76858000  0.44936000  1.0
  C  C165  1  0.83575000  0.90520000  0.45031000  1.0
  C  C166  1  0.82101000  0.26649000  0.42397000  1.0
  C  C167  1  0.32251000  0.27585000  0.42099000  1.0
  C  C168  1  0.39856000  0.28215000  0.66957000  1.0
  C  C169  1  0.51824000  0.32686000  0.52582000  1.0
  C  C170  1  0.46738000  0.35575000  0.57874000  1.0
  C  C171  1  0.46103000  0.25592000  0.61273000  1.0
  C  C172  1  0.50657000  0.13148000  0.59109000  1.0
  C  C173  1  0.55388000  0.11130000  0.53762000  1.0
  C  C174  1  0.22475000  0.35693000  0.67625000  1.0
  C  C175  1  0.14215000  0.42299000  0.82297000  1.0
  C  C176  1  0.18781000  0.43238000  0.77000000  1.0
  C  C177  1  0.16333000  0.36018000  0.73300000  1.0
  C  C178  1  0.08899000  0.28363000  0.75219000  1.0
  C  C179  1  0.04759000  0.27855000  0.80596000  1.0
  N  N180  1  0.38738000  0.48329000  0.07366000  1.0
  N  N181  1  0.29674000  0.69609000  0.00274000  1.0
  N  N182  1  0.17015000  0.83869000  0.65247000  1.0
  N  N183  1  0.12055000  0.01637000  0.57351000  1.0
  N  N184  1  0.24307000  0.80374000  0.50266000  1.0
  N  N185  1  0.25903000  0.66108000  0.15257000  1.0
  N  N186  1  0.93070000  0.52646000  0.92848000  1.0
  N  N187  1  0.01750000  0.29340000  0.00513000  1.0
  N  N188  1  0.67116000  0.15443000  0.34148000  1.0
  N  N189  1  0.70782000  0.97376000  0.42846000  1.0
  N  N190  1  0.56048000  0.20693000  0.50499000  1.0
  N  N191  1  0.07473000  0.34575000  0.84136000  1.0
  O  O192  1  0.37589000  0.80462000  0.08350000  1.0
  O  O193  1  0.60423000  0.62967000  0.07783000  1.0
  O  O194  1  0.07189000  0.85014000  0.08037000  1.0
  O  O195  1  0.05927000  0.66072000  0.07206000  1.0
  O  O196  1  0.43049000  0.69498000  0.58354000  1.0
  O  O197  1  0.48391000  0.86991000  0.57782000  1.0
  O  O198  1  0.17211000  0.64949000  0.58034000  1.0
  O  O199  1  0.97014000  0.83888000  0.57200000  1.0
  O  O200  1  0.26371000  0.16788000  0.91836000  1.0
  O  O201  1  0.27167000  0.35850000  0.92937000  1.0
  O  O202  1  0.99052000  0.15661000  0.91146000  1.0
  O  O203  1  0.79105000  0.34737000  0.92998000  1.0
  O  O204  1  0.68161000  0.33301000  0.41833000  1.0
  O  O205  1  0.87984000  0.14220000  0.42939000  1.0
  O  O206  1  0.39761000  0.34353000  0.41127000  1.0
  O  O207  1  0.38885000  0.15272000  0.42976000  1.0
