# generated using pymatgen
data_Zr3H10C26Cl5O18
_symmetry_space_group_name_H-M   'P 1'
_cell_length_a   14.77893498
_cell_length_b   14.78810000
_cell_length_c   14.79380000
_cell_angle_alpha   119.89320000
_cell_angle_beta   119.92201044
_cell_angle_gamma   89.90339769
_symmetry_Int_Tables_number   1
_chemical_formula_structural   Zr3H10C26Cl5O18
_chemical_formula_sum   'Zr6 H20 C52 Cl10 O36'
_cell_volume   2294.50645762
_cell_formula_units_Z   2
loop_
 _symmetry_equiv_pos_site_id
 _symmetry_equiv_pos_as_xyz
  1  'x, y, z'
loop_
 _atom_site_type_symbol
 _atom_site_label
 _atom_site_symmetry_multiplicity
 _atom_site_fract_x
 _atom_site_fract_y
 _atom_site_fract_z
 _atom_site_occupancy
  Zr  Zr0  1  0.61659000  0.11714000  0.49491000  1.0
  Zr  Zr1  1  0.38221000  0.88339000  0.50499000  1.0
  Zr  Zr2  1  0.62075000  0.12040000  0.73798000  1.0
  Zr  Zr3  1  0.37805000  0.87891000  0.26146000  1.0
  Zr  Zr4  1  0.37984000  0.11949000  0.49958000  1.0
  Zr  Zr5  1  0.61911000  0.88016000  0.49929000  1.0
  H  H6  1  0.59315000  0.28175000  0.68401000  1.0
  H  H7  1  0.21742000  0.90783000  0.31642000  1.0
  H  H8  1  0.59782000  0.90906000  0.69123000  1.0
  H  H9  1  0.58993000  0.90126000  0.30771000  1.0
  H  H10  1  0.43638000  0.45839000  0.60335000  1.0
  H  H11  1  0.54574000  0.52979000  0.37223000  1.0
  H  H12  1  0.95613000  0.92984000  0.60042000  1.0
  H  H13  1  0.05235000  0.08316000  0.41738000  1.0
  H  H14  1  0.11336000  0.88219000  0.95644000  1.0
  H  H15  1  0.90579000  0.13756000  0.04258000  1.0
  H  H16  1  0.36131000  0.59289000  0.95600000  1.0
  H  H17  1  0.61322000  0.38248000  0.04230000  1.0
  H  H18  1  0.97060000  0.36398000  0.70801000  1.0
  H  H19  1  0.88513000  0.44887000  0.70605000  1.0
  H  H20  1  0.05490000  0.61959000  0.87735000  1.0
  H  H21  1  0.14075000  0.53487000  0.88028000  1.0
  H  H22  1  0.63111000  0.13802000  0.23054000  1.0
  H  H23  1  0.36031000  0.86832000  0.76830000  1.0
  H  H24  1  0.18185000  0.53265000  0.30650000  1.0
  H  H25  1  0.83928000  0.49408000  0.10911000  1.0
  C  C26  1  0.49339000  0.29549000  0.48361000  1.0
  C  C27  1  0.20420000  0.00615000  0.51575000  1.0
  C  C28  1  0.49605000  0.69634000  0.49967000  1.0
  C  C29  1  0.80199000  0.00259000  0.49730000  1.0
  C  C30  1  0.80792000  0.29722000  0.80087000  1.0
  C  C31  1  0.48802000  0.99481000  0.18837000  1.0
  C  C32  1  0.19903000  0.69496000  0.19931000  1.0
  C  C33  1  0.50414000  0.01076000  0.81061000  1.0
  C  C34  1  0.49173000  0.29911000  0.79888000  1.0
  C  C35  1  0.81049000  0.00275000  0.79746000  1.0
  C  C36  1  0.49377000  0.68682000  0.20047000  1.0
  C  C37  1  0.19925000  0.00678000  0.19996000  1.0
  C  C38  1  0.49323000  0.59398000  0.49738000  1.0
  C  C39  1  0.49057000  0.39485000  0.47973000  1.0
  C  C40  1  0.46216000  0.57347000  0.56305000  1.0
  C  C41  1  0.52016000  0.41486000  0.41284000  1.0
  C  C42  1  0.46051000  0.47449000  0.55280000  1.0
  C  C43  1  0.52183000  0.51374000  0.42297000  1.0
  C  C44  1  0.10409000  0.00692000  0.51797000  1.0
  C  C45  1  0.90422000  0.00559000  0.49946000  1.0
  C  C46  1  0.07680000  0.96400000  0.57083000  1.0
  C  C47  1  0.93199000  0.04945000  0.44757000  1.0
  C  C48  1  0.97768000  0.96337000  0.56017000  1.0
  C  C49  1  0.03093000  0.04984000  0.45790000  1.0
  C  C50  1  0.91410000  0.00358000  0.89713000  1.0
  C  C51  1  0.10160000  0.01236000  0.10106000  1.0
  C  C52  1  0.97475000  0.93154000  0.87309000  1.0
  C  C53  1  0.04212000  0.08565000  0.12525000  1.0
  C  C54  1  0.06648000  0.93746000  0.97453000  1.0
  C  C55  1  0.95065000  0.08018000  0.02379000  1.0
  C  C56  1  0.48424000  0.39512000  0.89752000  1.0
  C  C57  1  0.49177000  0.58186000  0.10098000  1.0
  C  C58  1  0.41066000  0.45429000  0.87294000  1.0
  C  C59  1  0.56274000  0.52038000  0.12504000  1.0
  C  C60  1  0.41608000  0.54562000  0.97422000  1.0
  C  C61  1  0.55780000  0.42925000  0.02386000  1.0
  C  C62  1  0.91101000  0.39459000  0.90366000  1.0
  C  C63  1  0.10097000  0.59286000  0.09949000  1.0
  C  C64  1  0.96307000  0.44471000  0.87577000  1.0
  C  C65  1  0.04805000  0.54460000  0.13042000  1.0
  C  C66  1  0.05626000  0.53969000  0.97067000  1.0
  C  C67  1  0.95760000  0.44553000  0.03503000  1.0
  C  C68  1  0.95917000  0.43838000  0.76835000  1.0
  C  C69  1  0.06533000  0.54535000  0.87579000  1.0
  C  C70  1  0.50381000  0.01232000  0.91246000  1.0
  C  C71  1  0.48669000  0.99508000  0.08655000  1.0
  C  C72  1  0.58133000  0.08995000  0.04505000  1.0
  C  C73  1  0.40894000  0.91789000  0.95394000  1.0
  C  C74  1  0.57133000  0.07926000  0.12829000  1.0
  C  C75  1  0.41937000  0.92786000  0.87059000  1.0
  C  C76  1  0.07571000  0.60536000  0.26393000  1.0
  C  C77  1  0.91829000  0.39138000  0.07892000  1.0
  Cl  Cl78  1  0.43140000  0.66912000  0.66321000  1.0
  Cl  Cl79  1  0.55016000  0.31884000  0.31234000  1.0
  Cl  Cl80  1  0.16247000  0.91553000  0.65439000  1.0
  Cl  Cl81  1  0.84647000  0.09889000  0.36433000  1.0
  Cl  Cl82  1  0.94383000  0.83400000  0.72377000  1.0
  Cl  Cl83  1  0.07288000  0.18309000  0.27429000  1.0
  Cl  Cl84  1  0.31328000  0.42375000  0.72375000  1.0
  Cl  Cl85  1  0.65798000  0.54994000  0.27407000  1.0
  Cl  Cl86  1  0.69023000  0.19945000  0.11397000  1.0
  Cl  Cl87  1  0.29894000  0.80897000  0.88442000  1.0
  O  O88  1  0.57236000  0.25838000  0.48775000  1.0
  O  O89  1  0.24341000  0.92887000  0.51361000  1.0
  O  O90  1  0.41972000  0.73669000  0.49962000  1.0
  O  O91  1  0.76075000  0.07839000  0.49700000  1.0
  O  O92  1  0.76428000  0.26097000  0.83749000  1.0
  O  O93  1  0.41445000  0.91766000  0.15452000  1.0
  O  O94  1  0.23526000  0.73480000  0.15977000  1.0
  O  O95  1  0.58067000  0.08474000  0.84420000  1.0
  O  O96  1  0.41900000  0.26094000  0.68258000  1.0
  O  O97  1  0.76729000  0.92490000  0.68100000  1.0
  O  O98  1  0.57319000  0.73124000  0.31644000  1.0
  O  O99  1  0.23894000  0.08045000  0.31646000  1.0
  O  O100  1  0.77038000  0.07836000  0.83599000  1.0
  O  O101  1  0.41735000  0.72609000  0.16131000  1.0
  O  O102  1  0.23562000  0.92748000  0.16066000  1.0
  O  O103  1  0.57148000  0.26353000  0.83860000  1.0
  O  O104  1  0.76928000  0.26010000  0.68591000  1.0
  O  O105  1  0.42741000  0.93322000  0.69579000  1.0
  O  O106  1  0.23907000  0.73442000  0.31527000  1.0
  O  O107  1  0.56486000  0.07215000  0.30322000  1.0
  O  O108  1  0.76467000  0.92540000  0.49793000  1.0
  O  O109  1  0.41915000  0.25958000  0.48893000  1.0
  O  O110  1  0.23998000  0.08079000  0.51061000  1.0
  O  O111  1  0.57324000  0.73336000  0.49895000  1.0
  O  O112  1  0.56394000  0.92922000  0.36201000  1.0
  O  O113  1  0.56933000  0.93424000  0.63611000  1.0
  O  O114  1  0.29756000  0.93332000  0.36809000  1.0
  O  O115  1  0.56685000  0.20171000  0.63146000  1.0
  O  O116  1  0.45192000  0.05133000  0.60075000  1.0
  O  O117  1  0.44839000  0.04780000  0.39873000  1.0
  O  O118  1  0.44973000  0.85136000  0.40262000  1.0
  O  O119  1  0.64789000  0.04911000  0.59617000  1.0
  O  O120  1  0.14768000  0.58099000  0.34386000  1.0
  O  O121  1  0.02634000  0.66727000  0.29396000  1.0
  O  O122  1  0.84982000  0.43073000  0.11353000  1.0
  O  O123  1  0.95285000  0.32114000  0.09198000  1.0
