# generated using pymatgen
data_CdH16C20(N3O2)2
_symmetry_space_group_name_H-M   'P 1'
_cell_length_a   7.08616000
_cell_length_b   9.97030000
_cell_length_c   15.50924928
_cell_angle_alpha   85.38458354
_cell_angle_beta   76.79877031
_cell_angle_gamma   69.21930000
_symmetry_Int_Tables_number   1
_chemical_formula_structural   CdH16C20(N3O2)2
_chemical_formula_sum   'Cd2 H32 C40 N12 O8'
_cell_volume   997.39002035
_cell_formula_units_Z   2
loop_
 _symmetry_equiv_pos_site_id
 _symmetry_equiv_pos_as_xyz
  1  'x, y, z'
loop_
 _atom_site_type_symbol
 _atom_site_label
 _atom_site_symmetry_multiplicity
 _atom_site_fract_x
 _atom_site_fract_y
 _atom_site_fract_z
 _atom_site_occupancy
  Cd  Cd0  1  0.95382000  0.99992000  0.00001000  1.0
  Cd  Cd1  1  0.70419000  0.49979000  0.50015000  1.0
  H  H2  1  0.85494000  0.10157000  0.69991000  1.0
  H  H3  1  0.65632000  0.89811000  0.30028000  1.0
  H  H4  1  0.70654000  0.39838000  0.20008000  1.0
  H  H5  1  0.30469000  0.60174000  0.79975000  1.0
  H  H6  1  0.63437000  0.15723000  0.58649000  1.0
  H  H7  1  0.37787000  0.84222000  0.41359000  1.0
  H  H8  1  0.54160000  0.34289000  0.08662000  1.0
  H  H9  1  0.97080000  0.65748000  0.91335000  1.0
  H  H10  1  0.08933000  0.30388000  0.79550000  1.0
  H  H11  1  0.18853000  0.69597000  0.20436000  1.0
  H  H12  1  0.14291000  0.19618000  0.29547000  1.0
  H  H13  1  0.63429000  0.80402000  0.70457000  1.0
  H  H14  1  0.31213000  0.26233000  0.90568000  1.0
  H  H15  1  0.48001000  0.73768000  0.09429000  1.0
  H  H16  1  0.32433000  0.23753000  0.40565000  1.0
  H  H17  1  0.96708000  0.76238000  0.59424000  1.0
  H  H18  1  0.22575000  0.91996000  0.57274000  1.0
  H  H19  1  0.71901000  0.07992000  0.42737000  1.0
  H  H20  1  0.89628000  0.58013000  0.07260000  1.0
  H  H21  1  0.54867000  0.42012000  0.92735000  1.0
  H  H22  1  0.28035000  0.96012000  0.67217000  1.0
  H  H23  1  0.91315000  0.03974000  0.32797000  1.0
  H  H24  1  0.99092000  0.54020000  0.17200000  1.0
  H  H25  1  0.70300000  0.45997000  0.82796000  1.0
  H  H26  1  0.46383000  0.94300000  0.56911000  1.0
  H  H27  1  0.97650000  0.05670000  0.43105000  1.0
  H  H28  1  0.15741000  0.55704000  0.06890000  1.0
  H  H29  1  0.78294000  0.44338000  0.93109000  1.0
  H  H30  1  0.07567000  0.47616000  0.61533000  1.0
  H  H31  1  0.16614000  0.52363000  0.38455000  1.0
  H  H32  1  0.30084000  0.02395000  0.11530000  1.0
  H  H33  1  0.44045000  0.97634000  0.88492000  1.0
  C  C34  1  0.72761000  0.13183000  0.87714000  1.0
  C  C35  1  0.73646000  0.86815000  0.12295000  1.0
  C  C36  1  0.60951000  0.36804000  0.37731000  1.0
  C  C37  1  0.35406000  0.63198000  0.62244000  1.0
  C  C38  1  0.59679000  0.17799000  0.80911000  1.0
  C  C39  1  0.58371000  0.82194000  0.19097000  1.0
  C  C40  1  0.52459000  0.32209000  0.30923000  1.0
  C  C41  1  0.15541000  0.67801000  0.69066000  1.0
  C  C42  1  0.68761000  0.14908000  0.71928000  1.0
  C  C43  1  0.55580000  0.85066000  0.28083000  1.0
  C  C44  1  0.58645000  0.35105000  0.21942000  1.0
  C  C45  1  0.15662000  0.64915000  0.78047000  1.0
  C  C46  1  0.56556000  0.17671000  0.65672000  1.0
  C  C47  1  0.39870000  0.82299000  0.34333000  1.0
  C  C48  1  0.49195000  0.32350000  0.15683000  1.0
  C  C49  1  0.97209000  0.67681000  0.84313000  1.0
  C  C50  1  0.35086000  0.23065000  0.68560000  1.0
  C  C51  1  0.26681000  0.76910000  0.31437000  1.0
  C  C52  1  0.33117000  0.26953000  0.18558000  1.0
  C  C53  1  0.78615000  0.73078000  0.81438000  1.0
  C  C54  1  0.25716000  0.26413000  0.77446000  1.0
  C  C55  1  0.29552000  0.73574000  0.22548000  1.0
  C  C56  1  0.27102000  0.23598000  0.27442000  1.0
  C  C57  1  0.78115000  0.76418000  0.72555000  1.0
  C  C58  1  0.38148000  0.23929000  0.83589000  1.0
  C  C59  1  0.45646000  0.76067000  0.16410000  1.0
  C  C60  1  0.37058000  0.26072000  0.33590000  1.0
  C  C61  1  0.96677000  0.73932000  0.66401000  1.0
  C  C62  1  0.29827000  0.98163000  0.60062000  1.0
  C  C63  1  0.88096000  0.01816000  0.39951000  1.0
  C  C64  1  0.03037000  0.51849000  0.10047000  1.0
  C  C65  1  0.64903000  0.48180000  0.89948000  1.0
  C  C66  1  0.19477000  0.13598000  0.58506000  1.0
  C  C67  1  0.91579000  0.86382000  0.41499000  1.0
  C  C68  1  0.08078000  0.36411000  0.08496000  1.0
  C  C69  1  0.52973000  0.63615000  0.91499000  1.0
  C  C70  1  0.09087000  0.36967000  0.59670000  1.0
  C  C71  1  0.05651000  0.63013000  0.40323000  1.0
  C  C72  1  0.20992000  0.13042000  0.09662000  1.0
  C  C73  1  0.43721000  0.86983000  0.90350000  1.0
  N  N74  1  0.98985000  0.33843000  0.54413000  1.0
  N  N75  1  0.87186000  0.66145000  0.45592000  1.0
  N  N76  1  0.07778000  0.16164000  0.04404000  1.0
  N  N77  1  0.28372000  0.83854000  0.95608000  1.0
  N  N78  1  0.05394000  0.19127000  0.53653000  1.0
  N  N79  1  0.78162000  0.80860000  0.46358000  1.0
  N  N80  1  0.99515000  0.30879000  0.03641000  1.0
  N  N81  1  0.34038000  0.69138000  0.96359000  1.0
  N  N82  1  0.22200000  0.24585000  0.62400000  1.0
  N  N83  1  0.09144000  0.75390000  0.37593000  1.0
  N  N84  1  0.21757000  0.25426000  0.12393000  1.0
  N  N85  1  0.59572000  0.74603000  0.87608000  1.0
  O  O86  1  0.92078000  0.06342000  0.85114000  1.0
  O  O87  1  0.83529000  0.93657000  0.14896000  1.0
  O  O88  1  0.73453000  0.43630000  0.35136000  1.0
  O  O89  1  0.52135000  0.56336000  0.64833000  1.0
  O  O90  1  0.63897000  0.15663000  0.95865000  1.0
  O  O91  1  0.75407000  0.84335000  0.04144000  1.0
  O  O92  1  0.54565000  0.34321000  0.45880000  1.0
  O  O93  1  0.34675000  0.65711000  0.54102000  1.0
