# generated using pymatgen
data_ZnH9C16NO5
_symmetry_space_group_name_H-M   'P 1'
_cell_length_a   8.98900000
_cell_length_b   16.50410000
_cell_length_c   17.95640000
_cell_angle_alpha   89.13210000
_cell_angle_beta   89.20320000
_cell_angle_gamma   79.96460000
_symmetry_Int_Tables_number   1
_chemical_formula_structural   ZnH9C16NO5
_chemical_formula_sum   'Zn2 H18 C32 N2 O10'
_cell_volume   2622.69805701
_cell_formula_units_Z   2
loop_
 _symmetry_equiv_pos_site_id
 _symmetry_equiv_pos_as_xyz
  1  'x, y, z'
loop_
 _atom_site_type_symbol
 _atom_site_label
 _atom_site_symmetry_multiplicity
 _atom_site_fract_x
 _atom_site_fract_y
 _atom_site_fract_z
 _atom_site_occupancy
  Zn  Zn0  1  0.48841000  0.58479000  0.49865000  1.0
  Zn  Zn1  1  0.51160000  0.41521000  0.50135000  1.0
  H  H2  1  0.02732000  0.40530000  0.49707000  1.0
  H  H3  1  0.97268000  0.59471000  0.50291000  1.0
  H  H4  1  0.50093000  0.62910000  0.87653000  1.0
  H  H5  1  0.49952000  0.37085000  0.12346000  1.0
  H  H6  1  0.49916000  0.62998000  0.73682000  1.0
  H  H7  1  0.50136000  0.36995000  0.26319000  1.0
  H  H8  1  0.50008000  0.36997000  0.73950000  1.0
  H  H9  1  0.49989000  0.63001000  0.26051000  1.0
  H  H10  1  0.67522000  0.84850000  0.41573000  1.0
  H  H11  1  0.32484000  0.15149000  0.58427000  1.0
  H  H12  1  0.66222000  0.69723000  0.41899000  1.0
  H  H13  1  0.33781000  0.30276000  0.58101000  1.0
  H  H14  1  0.32918000  0.72845000  0.58212000  1.0
  H  H15  1  0.67083000  0.27156000  0.41787000  1.0
  H  H16  1  0.32661000  0.88115000  0.58684000  1.0
  H  H17  1  0.67342000  0.11886000  0.41314000  1.0
  H  H18  1  0.49810000  0.30998000  0.85460000  1.0
  H  H19  1  0.50189000  0.69002000  0.14542000  1.0
  C  C20  1  0.50226000  0.50056000  0.35325000  1.0
  C  C21  1  0.49785000  0.49941000  0.64676000  1.0
  C  C22  1  0.50008000  0.49930000  0.96601000  1.0
  C  C23  1  0.50007000  0.50070000  0.03400000  1.0
  C  C24  1  0.59669000  0.82435000  0.45315000  1.0
  C  C25  1  0.40335000  0.17564000  0.54684000  1.0
  C  C26  1  0.58987000  0.74096000  0.45453000  1.0
  C  C27  1  0.41015000  0.25904000  0.54547000  1.0
  C  C28  1  0.40279000  0.75846000  0.54631000  1.0
  C  C29  1  0.59722000  0.24155000  0.45368000  1.0
  C  C30  1  0.40206000  0.84255000  0.54869000  1.0
  C  C31  1  0.59797000  0.15746000  0.45130000  1.0
  C  C32  1  0.50010000  0.87733000  0.50079000  1.0
  C  C33  1  0.49995000  0.12267000  0.49920000  1.0
  C  C34  1  0.50064000  0.96300000  0.50033000  1.0
  C  C35  1  0.49942000  0.03700000  0.49966000  1.0
  C  C36  1  0.79619000  0.47729000  0.49838000  1.0
  C  C37  1  0.20382000  0.52272000  0.50161000  1.0
  C  C38  1  0.96377000  0.46785000  0.49867000  1.0
  C  C39  1  0.03623000  0.53217000  0.50132000  1.0
  C  C40  1  0.50001000  0.57270000  0.84591000  1.0
  C  C41  1  0.50033000  0.42726000  0.15408000  1.0
  C  C42  1  0.49897000  0.57335000  0.76865000  1.0
  C  C43  1  0.50140000  0.42660000  0.23135000  1.0
  C  C44  1  0.49859000  0.49999000  0.73022000  1.0
  C  C45  1  0.50160000  0.49998000  0.26979000  1.0
  C  C46  1  0.49933000  0.42658000  0.77034000  1.0
  C  C47  1  0.50074000  0.57340000  0.22967000  1.0
  C  C48  1  0.49942000  0.42571000  0.84788000  1.0
  C  C49  1  0.50067000  0.57428000  0.15213000  1.0
  C  C50  1  0.49986000  0.49935000  0.88751000  1.0
  C  C51  1  0.50033000  0.50063000  0.11250000  1.0
  N  N52  1  0.49406000  0.70886000  0.49980000  1.0
  N  N53  1  0.50596000  0.29114000  0.50019000  1.0
  O  O54  1  0.49197000  0.57036000  0.38442000  1.0
  O  O55  1  0.50804000  0.42962000  0.61559000  1.0
  O  O56  1  0.51289000  0.43124000  0.38687000  1.0
  O  O57  1  0.48727000  0.56873000  0.61313000  1.0
  O  O58  1  0.71992000  0.54998000  0.49717000  1.0
  O  O59  1  0.28009000  0.45003000  0.50279000  1.0
  O  O60  1  0.74207000  0.41063000  0.49970000  1.0
  O  O61  1  0.25794000  0.58938000  0.50033000  1.0
  O  O62  1  0.49920000  0.35503000  0.88887000  1.0
  O  O63  1  0.50078000  0.64496000  0.11115000  1.0
