# generated using pymatgen
data_LaH30C24N3O13
_symmetry_space_group_name_H-M   'P 1'
_cell_length_a   9.32256000
_cell_length_b   11.83500000
_cell_length_c   15.25784702
_cell_angle_alpha   67.17633316
_cell_angle_beta   75.17399544
_cell_angle_gamma   90.00530000
_symmetry_Int_Tables_number   1
_chemical_formula_structural   LaH30C24N3O13
_chemical_formula_sum   'La2 H60 C48 N6 O26'
_cell_volume   1490.61722923
_cell_formula_units_Z   2
loop_
 _symmetry_equiv_pos_site_id
 _symmetry_equiv_pos_as_xyz
  1  'x, y, z'
loop_
 _atom_site_type_symbol
 _atom_site_label
 _atom_site_symmetry_multiplicity
 _atom_site_fract_x
 _atom_site_fract_y
 _atom_site_fract_z
 _atom_site_occupancy
  La  La0  1  0.92130000  0.52632000  0.78637000  1.0
  La  La1  1  0.42098000  0.68738000  0.78627000  1.0
  H  H2  1  0.54723000  0.74965000  0.46779000  1.0
  H  H3  1  0.04726000  0.78204000  0.46799000  1.0
  H  H4  1  0.13142000  0.53220000  0.54299000  1.0
  H  H5  1  0.63176000  0.92463000  0.54319000  1.0
  H  H6  1  0.74904000  0.47247000  0.11738000  1.0
  H  H7  1  0.24942000  0.41017000  0.11780000  1.0
  H  H8  1  0.41313000  0.68782000  0.01052000  1.0
  H  H9  1  0.91340000  0.30204000  0.01083000  1.0
  H  H10  1  0.49282000  0.37832000  0.94255000  1.0
  H  H11  1  0.99278000  0.67920000  0.94238000  1.0
  H  H12  1  0.82347000  0.39320000  0.35379000  1.0
  H  H13  1  0.32366000  0.25321000  0.35408000  1.0
  H  H14  1  0.88258000  0.50621000  0.22840000  1.0
  H  H15  1  0.38307000  0.26585000  0.22864000  1.0
  H  H16  1  0.79471000  0.35586000  0.25678000  1.0
  H  H17  1  0.29427000  0.38737000  0.25717000  1.0
  H  H18  1  0.86464000  0.81223000  0.25184000  1.0
  H  H19  1  0.36470000  0.93529000  0.25201000  1.0
  H  H20  1  0.79243000  0.71038000  0.37991000  1.0
  H  H21  1  0.29243000  0.90921000  0.38006000  1.0
  H  H22  1  0.73411000  0.86204000  0.33357000  1.0
  H  H23  1  0.23401000  0.80382000  0.33381000  1.0
  H  H24  1  0.02145000  0.36781000  0.41204000  1.0
  H  H25  1  0.52200000  0.22008000  0.41188000  1.0
  H  H26  1  0.98410000  0.48621000  0.45900000  1.0
  H  H27  1  0.48462000  0.05474000  0.45884000  1.0
  H  H28  1  0.08274000  0.36162000  0.51591000  1.0
  H  H29  1  0.58274000  0.12242000  0.51600000  1.0
  H  H30  1  0.13279000  0.82237000  0.13720000  1.0
  H  H31  1  0.63275000  0.04099000  0.13736000  1.0
  H  H32  1  0.16338000  0.69937000  0.09533000  1.0
  H  H33  1  0.66373000  0.20581000  0.09574000  1.0
  H  H34  1  0.29249000  0.83668000  0.03671000  1.0
  H  H35  1  0.79231000  0.12717000  0.03677000  1.0
  H  H36  1  0.70556000  0.16042000  0.86723000  1.0
  H  H37  1  0.20518000  0.97256000  0.86701000  1.0
  H  H38  1  0.54248000  0.10298000  0.84962000  1.0
  H  H39  1  0.04202000  0.04745000  0.84945000  1.0
  H  H40  1  0.58193000  0.03318000  0.96643000  1.0
  H  H41  1  0.08157000  0.00059000  0.96621000  1.0
  H  H42  1  0.30276000  0.23940000  0.01690000  1.0
  H  H43  1  0.80261000  0.74357000  0.01694000  1.0
  H  H44  1  0.33829000  0.08186000  0.05716000  1.0
  H  H45  1  0.83811000  0.86094000  0.05711000  1.0
  H  H46  1  0.28616000  0.15474000  0.94467000  1.0
  H  H47  1  0.78579000  0.90042000  0.94470000  1.0
  H  H48  1  0.15657000  0.82962000  0.65488000  1.0
  H  H49  1  0.65595000  0.51531000  0.65522000  1.0
  H  H50  1  0.78833000  0.90402000  0.74591000  1.0
  H  H51  1  0.28777000  0.34978000  0.74606000  1.0
  H  H52  1  0.80358000  0.01736000  0.62441000  1.0
  H  H53  1  0.30315000  0.35805000  0.62452000  1.0
  H  H54  1  0.86244000  0.06106000  0.71047000  1.0
  H  H55  1  0.36194000  0.22825000  0.71060000  1.0
  H  H56  1  0.21992000  0.01713000  0.55526000  1.0
  H  H57  1  0.71952000  0.42741000  0.55560000  1.0
  H  H58  1  0.12549000  0.13065000  0.59086000  1.0
  H  H59  1  0.62507000  0.27825000  0.59120000  1.0
  H  H60  1  0.07280000  0.08489000  0.50323000  1.0
  H  H61  1  0.57250000  0.41165000  0.50348000  1.0
  C  C62  1  0.47653000  0.69625000  0.44760000  1.0
  C  C63  1  0.97666000  0.85570000  0.44779000  1.0
  C  C64  1  0.42583000  0.61295000  0.33342000  1.0
  C  C65  1  0.92621000  0.05330000  0.33361000  1.0
  C  C66  1  0.28564000  0.55805000  0.40092000  1.0
  C  C67  1  0.78610000  0.04080000  0.40116000  1.0
  C  C68  1  0.28468000  0.65549000  0.60889000  1.0
  C  C69  1  0.78466000  0.73515000  0.60902000  1.0
  C  C70  1  0.33586000  0.64146000  0.51272000  1.0
  C  C71  1  0.83604000  0.84543000  0.51290000  1.0
  C  C72  1  0.52029000  0.68219000  0.35787000  1.0
  C  C73  1  0.02049000  0.95947000  0.35802000  1.0
  C  C74  1  0.23980000  0.57262000  0.49021000  1.0
  C  C75  1  0.74012000  0.93690000  0.49041000  1.0
  C  C76  1  0.40930000  0.65369000  0.16202000  1.0
  C  C77  1  0.90972000  0.18428000  0.16221000  1.0
  C  C78  1  0.47629000  0.59754000  0.23917000  1.0
  C  C79  1  0.97674000  0.16306000  0.23936000  1.0
  C  C80  1  0.59745000  0.52980000  0.22340000  1.0
  C  C81  1  0.09792000  0.24656000  0.22364000  1.0
  C  C82  1  0.65334000  0.52148000  0.13228000  1.0
  C  C83  1  0.15372000  0.34627000  0.13265000  1.0
  C  C84  1  0.58563000  0.57940000  0.05664000  1.0
  C  C85  1  0.08584000  0.36429000  0.05703000  1.0
  C  C86  1  0.46218000  0.64367000  0.07116000  1.0
  C  C87  1  0.96245000  0.28540000  0.07148000  1.0
  C  C88  1  0.65431000  0.57758000  0.95722000  1.0
  C  C89  1  0.15438000  0.46568000  0.95762000  1.0
  C  C90  1  0.56839000  0.32110000  0.91390000  1.0
  C  C91  1  0.06819000  0.76517000  0.91368000  1.0
  C  C92  1  0.79719000  0.43020000  0.28266000  1.0
  C  C93  1  0.29734000  0.28721000  0.28296000  1.0
  C  C94  1  0.76615000  0.78228000  0.31613000  1.0
  C  C95  1  0.26619000  0.90102000  0.31630000  1.0
  C  C96  1  0.06468000  0.42294000  0.44500000  1.0
  C  C97  1  0.56512000  0.13198000  0.44500000  1.0
  C  C98  1  0.21756000  0.77238000  0.10772000  1.0
  C  C99  1  0.71770000  0.12035000  0.10789000  1.0
  C  C100  1  0.58884000  0.12106000  0.90293000  1.0
  C  C101  1  0.08845000  0.97615000  0.90275000  1.0
  C  C102  1  0.34979000  0.16874000  0.99191000  1.0
  C  C103  1  0.84953000  0.83926000  0.99190000  1.0
  C  C104  1  0.04064000  0.84071000  0.68828000  1.0
  C  C105  1  0.54002000  0.47080000  0.68856000  1.0
  C  C106  1  0.85553000  0.98625000  0.68569000  1.0
  C  C107  1  0.35501000  0.32784000  0.68584000  1.0
  C  C108  1  0.11201000  0.05297000  0.57021000  1.0
  C  C109  1  0.61161000  0.37659000  0.57050000  1.0
  N  N110  1  0.50617000  0.20751000  0.93715000  1.0
  N  N111  1  0.00588000  0.85540000  0.93704000  1.0
  N  N112  1  0.98450000  0.30098000  0.73566000  1.0
  N  N113  1  0.48460000  0.96339000  0.73561000  1.0
  N  N114  1  0.00483000  0.95548000  0.65136000  1.0
  N  N115  1  0.50431000  0.39297000  0.65160000  1.0
  O  O116  1  0.16314000  0.59338000  0.66950000  1.0
  O  O117  1  0.66296000  0.73658000  0.66951000  1.0
  O  O118  1  0.70082000  0.36070000  0.86360000  1.0
  O  O119  1  0.20053000  0.77614000  0.86318000  1.0
  O  O120  1  0.65294000  0.73455000  0.28752000  1.0
  O  O121  1  0.15305000  0.97737000  0.28763000  1.0
  O  O122  1  0.36365000  0.72834000  0.62601000  1.0
  O  O123  1  0.86357000  0.64514000  0.62621000  1.0
  O  O124  1  0.20146000  0.48943000  0.37407000  1.0
  O  O125  1  0.70217000  0.13645000  0.37429000  1.0
  O  O126  1  0.29522000  0.72106000  0.18124000  1.0
  O  O127  1  0.79572000  0.09768000  0.18129000  1.0
  O  O128  1  0.58741000  0.61894000  0.89002000  1.0
  O  O129  1  0.08761000  0.49137000  0.89035000  1.0
  O  O130  1  0.78020000  0.53552000  0.94453000  1.0
  O  O131  1  0.28014000  0.52060000  0.94498000  1.0
  O  O132  1  0.65423000  0.47427000  0.30217000  1.0
  O  O133  1  0.15478000  0.22309000  0.30241000  1.0
  O  O134  1  0.01047000  0.30696000  0.81243000  1.0
  O  O135  1  0.51026000  0.88061000  0.81249000  1.0
  O  O136  1  0.95259000  0.75092000  0.75618000  1.0
  O  O137  1  0.45191000  0.49264000  0.75646000  1.0
  O  O138  1  0.92995000  0.39185000  0.68101000  1.0
  O  O139  1  0.43020000  0.92719000  0.68087000  1.0
  O  O140  1  0.01277000  0.20996000  0.71473000  1.0
  O  O141  1  0.51298000  0.07535000  0.71465000  1.0
