# generated using pymatgen
data_Cd3H38C28(O4F3)4
_symmetry_space_group_name_H-M   'P 1'
_cell_length_a   9.53824000
_cell_length_b   9.64838000
_cell_length_c   12.38630000
_cell_angle_alpha   69.52180000
_cell_angle_beta   70.78040000
_cell_angle_gamma   87.54250000
_symmetry_Int_Tables_number   1
_chemical_formula_structural   Cd3H38C28(O4F3)4
_chemical_formula_sum   'Cd3 H38 C28 O16 F12'
_cell_volume   1004.96732824
_cell_formula_units_Z   1
loop_
 _symmetry_equiv_pos_site_id
 _symmetry_equiv_pos_as_xyz
  1  'x, y, z'
loop_
 _atom_site_type_symbol
 _atom_site_label
 _atom_site_symmetry_multiplicity
 _atom_site_fract_x
 _atom_site_fract_y
 _atom_site_fract_z
 _atom_site_occupancy
  Cd  Cd0  1  0.19413000  0.55497000  0.34247000  1.0
  Cd  Cd1  1  0.80586000  0.44503000  0.65753000  1.0
  Cd  Cd2  1  0.50000000  0.50000000  0.50000000  1.0
  H  H3  1  0.27380000  0.60082000  0.69577000  1.0
  H  H4  1  0.72620000  0.39918000  0.30423000  1.0
  H  H5  1  0.08391000  0.52040000  0.77383000  1.0
  H  H6  1  0.91609000  0.47960000  0.22617000  1.0
  H  H7  1  0.12029000  0.71378000  0.69633000  1.0
  H  H8  1  0.87971000  0.28622000  0.30367000  1.0
  H  H9  1  0.26555000  0.94215000  0.21317000  1.0
  H  H10  1  0.73445000  0.05785000  0.78683000  1.0
  H  H11  1  0.20054000  0.86858000  0.37649000  1.0
  H  H12  1  0.79946000  0.13142000  0.62351000  1.0
  H  H13  1  0.01970000  0.03992000  0.38927000  1.0
  H  H14  1  0.98030000  0.96008000  0.61073000  1.0
  H  H15  1  0.10400000  0.13539000  0.22989000  1.0
  H  H16  1  0.89600000  0.86461000  0.77011000  1.0
  H  H17  1  0.93790000  0.00372000  0.18096000  1.0
  H  H18  1  0.06210000  0.99628000  0.81904000  1.0
  H  H19  1  0.81552000  0.00179000  0.32551000  1.0
  H  H20  1  0.18448000  0.99821000  0.67449000  1.0
  H  H21  1  0.88403000  0.75541000  0.43082000  1.0
  H  H22  1  0.11597000  0.24459000  0.56918000  1.0
  H  H23  1  0.87736000  0.73810000  0.29263000  1.0
  H  H24  1  0.12264000  0.26190000  0.70737000  1.0
  H  H25  1  0.23277000  0.36494000  0.14267000  1.0
  H  H26  1  0.76723000  0.63506000  0.85733000  1.0
  H  H27  1  0.38644000  0.49992000  0.08515000  1.0
  H  H28  1  0.61355000  0.50008000  0.91485000  1.0
  H  H29  1  0.19796000  0.45162000  0.94660000  1.0
  H  H30  1  0.80204000  0.54838000  0.05340000  1.0
  H  H31  1  0.37452000  0.55071000  0.88919000  1.0
  H  H32  1  0.62548000  0.44929000  0.11081000  1.0
  H  H33  1  0.24260000  0.76997000  0.85779000  1.0
  H  H34  1  0.75740000  0.23002000  0.14221000  1.0
  H  H35  1  0.07010000  0.66381000  0.94992000  1.0
  H  H36  1  0.92990000  0.33619000  0.05008000  1.0
  H  H37  1  0.29493000  0.77596000  0.03573000  1.0
  H  H38  1  0.70507000  0.22404000  0.96427000  1.0
  H  H39  1  0.09621000  0.77674000  0.08913000  1.0
  H  H40  1  0.90379000  0.22326000  0.91087000  1.0
  C  C41  1  0.39950000  0.27376000  0.37988000  1.0
  C  C42  1  0.60049000  0.72623000  0.62012000  1.0
  C  C43  1  0.43709000  0.12965000  0.34955000  1.0
  C  C44  1  0.56291000  0.87035000  0.65045000  1.0
  C  C45  1  0.55042000  0.70914000  0.21517000  1.0
  C  C46  1  0.44958000  0.29086000  0.78483000  1.0
  C  C47  1  0.65684000  0.82831000  0.09653000  1.0
  C  C48  1  0.34316000  0.17169000  0.90347000  1.0
  C  C49  1  0.14936000  0.58924000  0.58054000  1.0
  C  C50  1  0.85064000  0.41076000  0.41946000  1.0
  C  C51  1  0.16035000  0.60623000  0.69345000  1.0
  C  C52  1  0.83965000  0.39378000  0.30655000  1.0
  C  C53  1  0.16605000  0.90741000  0.29528000  1.0
  C  C54  1  0.83395000  0.09259000  0.70472000  1.0
  C  C55  1  0.05472000  0.02704000  0.29967000  1.0
  C  C56  1  0.94528000  0.97295000  0.70033000  1.0
  C  C57  1  0.92230000  0.96725000  0.27906000  1.0
  C  C58  1  0.07770000  0.03275000  0.72094000  1.0
  C  C59  1  0.92980000  0.80036000  0.33021000  1.0
  C  C60  1  0.07020000  0.19964000  0.66979000  1.0
  C  C61  1  0.27232000  0.48113000  0.08723000  1.0
  C  C62  1  0.72768000  0.51887000  0.91277000  1.0
  C  C63  1  0.26275000  0.53362000  0.95770000  1.0
  C  C64  1  0.73725000  0.46638000  0.04230000  1.0
  C  C65  1  0.18590000  0.68035000  0.94435000  1.0
  C  C66  1  0.81410000  0.31965000  0.05565000  1.0
  C  C67  1  0.18919000  0.71625000  0.05382000  1.0
  C  C68  1  0.81081000  0.28375000  0.94618000  1.0
  O  O69  1  0.29256000  0.33380000  0.34807000  1.0
  O  O70  1  0.70744000  0.66620000  0.65193000  1.0
  O  O71  1  0.47654000  0.30733000  0.43328000  1.0
  O  O72  1  0.52346000  0.69267000  0.56672000  1.0
  O  O73  1  0.42553000  0.68393000  0.20930000  1.0
  O  O74  1  0.57447000  0.31608000  0.79070000  1.0
  O  O75  1  0.60409000  0.65943000  0.30029000  1.0
  O  O76  1  0.39591000  0.34057000  0.69971000  1.0
  O  O77  1  0.26738000  0.57286000  0.49826000  1.0
  O  O78  1  0.73263000  0.42714000  0.50174000  1.0
  O  O79  1  0.02520000  0.59459000  0.56390000  1.0
  O  O80  1  0.97480000  0.40541000  0.43610000  1.0
  O  O81  1  0.08886000  0.78286000  0.29078000  1.0
  O  O82  1  0.91114000  0.21714000  0.70922000  1.0
  O  O83  1  0.17573000  0.57123000  0.14854000  1.0
  O  O84  1  0.82427000  0.42876000  0.85146000  1.0
  F  F85  1  0.33666000  0.01454000  0.43481000  1.0
  F  F86  1  0.66334000  0.98546000  0.56519000  1.0
  F  F87  1  0.57508000  0.08837000  0.34884000  1.0
  F  F88  1  0.42492000  0.91163000  0.65117000  1.0
  F  F89  1  0.42951000  0.14594000  0.23772000  1.0
  F  F90  1  0.57049000  0.85406000  0.76228000  1.0
  F  F91  1  0.80439000  0.80770000  0.07906000  1.0
  F  F92  1  0.19562000  0.19231000  0.92094000  1.0
  F  F93  1  0.63459000  0.96568000  0.10458000  1.0
  F  F94  1  0.36541000  0.03432000  0.89542000  1.0
  F  F95  1  0.63268000  0.83138000  0.99343000  1.0
  F  F96  1  0.36732000  0.16862000  0.00657000  1.0
