# generated using pymatgen
data_BaVH10C4O11
_symmetry_space_group_name_H-M   'P 1'
_cell_length_a   7.75021000
_cell_length_b   8.44744000
_cell_length_c   8.98773000
_cell_angle_alpha   78.46290000
_cell_angle_beta   68.49930000
_cell_angle_gamma   83.14770000
_symmetry_Int_Tables_number   1
_chemical_formula_structural   BaVH10C4O11
_chemical_formula_sum   'Ba2 V2 H20 C8 O22'
_cell_volume   535.73009163
_cell_formula_units_Z   2
loop_
 _symmetry_equiv_pos_site_id
 _symmetry_equiv_pos_as_xyz
  1  'x, y, z'
loop_
 _atom_site_type_symbol
 _atom_site_label
 _atom_site_symmetry_multiplicity
 _atom_site_fract_x
 _atom_site_fract_y
 _atom_site_fract_z
 _atom_site_occupancy
  Ba  Ba0  1  0.40418000  0.85380000  0.27783000  1.0
  Ba  Ba1  1  0.59582000  0.14620000  0.72217000  1.0
  V  V2  1  0.96470000  0.30820000  0.88238000  1.0
  V  V3  1  0.03530000  0.69180000  0.11762000  1.0
  H  H4  1  0.78187000  0.69830000  0.71067000  1.0
  H  H5  1  0.21813000  0.30169000  0.28933000  1.0
  H  H6  1  0.98637000  0.87453000  0.72932000  1.0
  H  H7  1  0.01363000  0.12547000  0.27068000  1.0
  H  H8  1  0.24260000  0.02423000  0.58819000  1.0
  H  H9  1  0.75740000  0.97577000  0.41182000  1.0
  H  H10  1  0.08628000  0.13413000  0.53274000  1.0
  H  H11  1  0.91372000  0.86587000  0.46726000  1.0
  H  H12  1  0.50761000  0.59086000  0.62712000  1.0
  H  H13  1  0.49239000  0.40914000  0.37288000  1.0
  H  H14  1  0.66922000  0.63637000  0.46156000  1.0
  H  H15  1  0.33078000  0.36363000  0.53843000  1.0
  H  H16  1  0.72453000  0.15597000  0.21563000  1.0
  H  H17  1  0.27547000  0.84403000  0.78437000  1.0
  H  H18  1  0.54009000  0.16523000  0.36487000  1.0
  H  H19  1  0.45991000  0.83477000  0.63513000  1.0
  H  H20  1  0.39441000  0.51950000  0.15136000  1.0
  H  H21  1  0.60559000  0.48050000  0.84864000  1.0
  H  H22  1  0.61429000  0.52517000  0.09010000  1.0
  H  H23  1  0.38571000  0.47483000  0.90990000  1.0
  C  C24  1  0.05354000  0.58146000  0.63147000  1.0
  C  C25  1  0.94646000  0.41854000  0.36853000  1.0
  C  C26  1  0.88498000  0.63829000  0.76436000  1.0
  C  C27  1  0.11502000  0.36171000  0.23564000  1.0
  C  C28  1  0.94691000  0.77066000  0.82949000  1.0
  C  C29  1  0.05309000  0.22934000  0.17051000  1.0
  C  C30  1  0.77714000  0.81915000  0.96508000  1.0
  C  C31  1  0.22285000  0.18085000  0.03492000  1.0
  O  O32  1  0.12339000  0.67111000  0.49911000  1.0
  O  O33  1  0.87661000  0.32889000  0.50089000  1.0
  O  O34  1  0.62952000  0.87297000  0.94361000  1.0
  O  O35  1  0.37049000  0.12703000  0.05639000  1.0
  O  O36  1  0.11801000  0.43542000  0.67038000  1.0
  O  O37  1  0.88199000  0.56458000  0.32962000  1.0
  O  O38  1  0.79194000  0.78933000  0.10805000  1.0
  O  O39  1  0.20806000  0.21067000  0.89195000  1.0
  O  O40  1  0.80751000  0.50691000  0.88864000  1.0
  O  O41  1  0.19249000  0.49309000  0.11136000  1.0
  O  O42  1  0.09373000  0.71569000  0.88692000  1.0
  O  O43  1  0.90627000  0.28431000  0.11308000  1.0
  O  O44  1  0.13532000  0.82945000  0.15809000  1.0
  O  O45  1  0.86468000  0.17055000  0.84191000  1.0
  O  O46  1  0.18967000  0.05467000  0.50030000  1.0
  O  O47  1  0.81033000  0.94533000  0.49970000  1.0
  O  O48  1  0.54127000  0.67245000  0.52588000  1.0
  O  O49  1  0.45873000  0.32754000  0.47412000  1.0
  O  O50  1  0.62472000  0.08685000  0.29842000  1.0
  O  O51  1  0.37529000  0.91314000  0.70158000  1.0
  O  O52  1  0.49934000  0.53708000  0.18434000  1.0
  O  O53  1  0.50067000  0.46292000  0.81566000  1.0
