# generated using pymatgen
data_CoP2H20(C6O)4
_symmetry_space_group_name_H-M   'P 1'
_cell_length_a   8.96681000
_cell_length_b   12.81510000
_cell_length_c   23.45820000
_cell_angle_alpha   89.99950000
_cell_angle_beta   89.99910000
_cell_angle_gamma   105.22000000
_symmetry_Int_Tables_number   1
_chemical_formula_structural   CoP2H20(C6O)4
_chemical_formula_sum   'Co4 P8 H80 C96 O16'
_cell_volume   2601.04683083
_cell_formula_units_Z   4
loop_
 _symmetry_equiv_pos_site_id
 _symmetry_equiv_pos_as_xyz
  1  'x, y, z'
loop_
 _atom_site_type_symbol
 _atom_site_label
 _atom_site_symmetry_multiplicity
 _atom_site_fract_x
 _atom_site_fract_y
 _atom_site_fract_z
 _atom_site_occupancy
  Co  Co0  1  0.90985000  0.13710000  0.74821000  1.0
  Co  Co1  1  0.59015000  0.86298000  0.24824000  1.0
  Co  Co2  1  0.09019000  0.86291000  0.25178000  1.0
  Co  Co3  1  0.40984000  0.13707000  0.75179000  1.0
  P  P4  1  0.61757000  0.02138000  0.83096000  1.0
  P  P5  1  0.88244000  0.97862000  0.33094000  1.0
  P  P6  1  0.38240000  0.97862000  0.16905000  1.0
  P  P7  1  0.11760000  0.02138000  0.66904000  1.0
  P  P8  1  0.22164000  0.29510000  0.80491000  1.0
  P  P9  1  0.27839000  0.70490000  0.30491000  1.0
  P  P10  1  0.77839000  0.70484000  0.19509000  1.0
  P  P11  1  0.72162000  0.29511000  0.69509000  1.0
  H  H12  1  0.34291000  0.84346000  0.81704000  1.0
  H  H13  1  0.15712000  0.15656000  0.31703000  1.0
  H  H14  1  0.65709000  0.15655000  0.18295000  1.0
  H  H15  1  0.84290000  0.84346000  0.68297000  1.0
  H  H16  1  0.28470000  0.64720000  0.84317000  1.0
  H  H17  1  0.21532000  0.35283000  0.34317000  1.0
  H  H18  1  0.71531000  0.35283000  0.15682000  1.0
  H  H19  1  0.78470000  0.64720000  0.65683000  1.0
  H  H20  1  0.48119000  0.57752000  0.89402000  1.0
  H  H21  1  0.01878000  0.42248000  0.39402000  1.0
  H  H22  1  0.51877000  0.42248000  0.10598000  1.0
  H  H23  1  0.98119000  0.57752000  0.60598000  1.0
  H  H24  1  0.73818000  0.70182000  0.91741000  1.0
  H  H25  1  0.76178000  0.29818000  0.41741000  1.0
  H  H26  1  0.26177000  0.29819000  0.08258000  1.0
  H  H27  1  0.23818000  0.70182000  0.58259000  1.0
  H  H28  1  0.79791000  0.89556000  0.88928000  1.0
  H  H29  1  0.70209000  0.10443000  0.38927000  1.0
  H  H30  1  0.20207000  0.10444000  0.11072000  1.0
  H  H31  1  0.29792000  0.89556000  0.61072000  1.0
  H  H32  1  0.40402000  0.02734000  0.92384000  1.0
  H  H33  1  0.09600000  0.97266000  0.42383000  1.0
  H  H34  1  0.59597000  0.97266000  0.07616000  1.0
  H  H35  1  0.90403000  0.02732000  0.57617000  1.0
  H  H36  1  0.42745000  0.14083000  0.01102000  1.0
  H  H37  1  0.07261000  0.85919000  0.51104000  1.0
  H  H38  1  0.57258000  0.85918000  0.98896000  1.0
  H  H39  1  0.92742000  0.14079000  0.48898000  1.0
  H  H40  1  0.66991000  0.28190000  0.03061000  1.0
  H  H41  1  0.83010000  0.71812000  0.53062000  1.0
  H  H42  1  0.33009000  0.71811000  0.96939000  1.0
  H  H43  1  0.16988000  0.28188000  0.46938000  1.0
  H  H44  1  0.89173000  0.31044000  0.96256000  1.0
  H  H45  1  0.60827000  0.68954000  0.46257000  1.0
  H  H46  1  0.10824000  0.68953000  0.03743000  1.0
  H  H47  1  0.39170000  0.31045000  0.53742000  1.0
  H  H48  1  0.87006000  0.19606000  0.87588000  1.0
  H  H49  1  0.62997000  0.80393000  0.37589000  1.0
  H  H50  1  0.12993000  0.80392000  0.12412000  1.0
  H  H51  1  0.37005000  0.19608000  0.62411000  1.0
  H  H52  1  0.10860000  0.31337000  0.68856000  1.0
  H  H53  1  0.39140000  0.68662000  0.18855000  1.0
  H  H54  1  0.89142000  0.68663000  0.31145000  1.0
  H  H55  1  0.60859000  0.31337000  0.81145000  1.0
  H  H56  1  0.18807000  0.45249000  0.61410000  1.0
  H  H57  1  0.31192000  0.54750000  0.11409000  1.0
  H  H58  1  0.81186000  0.54750000  0.38589000  1.0
  H  H59  1  0.68808000  0.45250000  0.88591000  1.0
  H  H60  1  0.39910000  0.61999000  0.63328000  1.0
  H  H61  1  0.10088000  0.38001000  0.13328000  1.0
  H  H62  1  0.60086000  0.38002000  0.36673000  1.0
  H  H63  1  0.89911000  0.61999000  0.86673000  1.0
  H  H64  1  0.53407000  0.64335000  0.72719000  1.0
  H  H65  1  0.96591000  0.35665000  0.22720000  1.0
  H  H66  1  0.46597000  0.35671000  0.27282000  1.0
  H  H67  1  0.03408000  0.64335000  0.77281000  1.0
  H  H68  1  0.46016000  0.50103000  0.80059000  1.0
  H  H69  1  0.03984000  0.49897000  0.30059000  1.0
  H  H70  1  0.53988000  0.49898000  0.19941000  1.0
  H  H71  1  0.96015000  0.50102000  0.69941000  1.0
  H  H72  1  0.05873000  0.44145000  0.85424000  1.0
  H  H73  1  0.44127000  0.55853000  0.35425000  1.0
  H  H74  1  0.94129000  0.55853000  0.14575000  1.0
  H  H75  1  0.55872000  0.44146000  0.64576000  1.0
  H  H76  1  0.07536000  0.53207000  0.94853000  1.0
  H  H77  1  0.42463000  0.46792000  0.44853000  1.0
  H  H78  1  0.92461000  0.46793000  0.05146000  1.0
  H  H79  1  0.57536000  0.53207000  0.55147000  1.0
  H  H80  1  0.26348000  0.50365000  0.02107000  1.0
  H  H81  1  0.23649000  0.49636000  0.52107000  1.0
  H  H82  1  0.73649000  0.49635000  0.97893000  1.0
  H  H83  1  0.76350000  0.50366000  0.47893000  1.0
  H  H84  1  0.43438000  0.38322000  0.99894000  1.0
  H  H85  1  0.06560000  0.61680000  0.49894000  1.0
  H  H86  1  0.56562000  0.61679000  0.00108000  1.0
  H  H87  1  0.93439000  0.38321000  0.50107000  1.0
  H  H88  1  0.41873000  0.29392000  0.90423000  1.0
  H  H89  1  0.08127000  0.70609000  0.40423000  1.0
  H  H90  1  0.58129000  0.70609000  0.09578000  1.0
  H  H91  1  0.91872000  0.29391000  0.59577000  1.0
  C  C92  1  0.42795000  0.81134000  0.83936000  1.0
  C  C93  1  0.07206000  0.18867000  0.33935000  1.0
  C  C94  1  0.57201000  0.18866000  0.16063000  1.0
  C  C95  1  0.92795000  0.81134000  0.66065000  1.0
  C  C96  1  0.39619000  0.70210000  0.85391000  1.0
  C  C97  1  0.10380000  0.29792000  0.35390000  1.0
  C  C98  1  0.60380000  0.29791000  0.14609000  1.0
  C  C99  1  0.89619000  0.70210000  0.64610000  1.0
  C  C100  1  0.50742000  0.66268000  0.88212000  1.0
  C  C101  1  0.99258000  0.33732000  0.38213000  1.0
  C  C102  1  0.49258000  0.33733000  0.11787000  1.0
  C  C103  1  0.00742000  0.66268000  0.61788000  1.0
  C  C104  1  0.65155000  0.73234000  0.89518000  1.0
  C  C105  1  0.84842000  0.26766000  0.39516000  1.0
  C  C106  1  0.34843000  0.26768000  0.10483000  1.0
  C  C107  1  0.15155000  0.73234000  0.60483000  1.0
  C  C108  1  0.68463000  0.84127000  0.88011000  1.0
  C  C109  1  0.81538000  0.15872000  0.38009000  1.0
  C  C110  1  0.31536000  0.15873000  0.11990000  1.0
  C  C111  1  0.18463000  0.84127000  0.61990000  1.0
  C  C112  1  0.57237000  0.88126000  0.85246000  1.0
  C  C113  1  0.92765000  0.11871000  0.35246000  1.0
  C  C114  1  0.42761000  0.11869000  0.14753000  1.0
  C  C115  1  0.07237000  0.88127000  0.64754000  1.0
  C  C116  1  0.51098000  0.08933000  0.93239000  1.0
  C  C117  1  0.98902000  0.91067000  0.43239000  1.0
  C  C118  1  0.48899000  0.91067000  0.06761000  1.0
  C  C119  1  0.01098000  0.08932000  0.56761000  1.0
  C  C120  1  0.52363000  0.15315000  0.98118000  1.0
  C  C121  1  0.97639000  0.84686000  0.48119000  1.0
  C  C122  1  0.47637000  0.84685000  0.01881000  1.0
  C  C123  1  0.02362000  0.15312000  0.51882000  1.0
  C  C124  1  0.66058000  0.23284000  0.99215000  1.0
  C  C125  1  0.83943000  0.76717000  0.49216000  1.0
  C  C126  1  0.33942000  0.76717000  0.00784000  1.0
  C  C127  1  0.16055000  0.23282000  0.50784000  1.0
  C  C128  1  0.78465000  0.24845000  0.95425000  1.0
  C  C129  1  0.71537000  0.75154000  0.45425000  1.0
  C  C130  1  0.21534000  0.75153000  0.04575000  1.0
  C  C131  1  0.28462000  0.24846000  0.54574000  1.0
  C  C132  1  0.77317000  0.18415000  0.90549000  1.0
  C  C133  1  0.72688000  0.81586000  0.40549000  1.0
  C  C134  1  0.22685000  0.81584000  0.09452000  1.0
  C  C135  1  0.27315000  0.18416000  0.59451000  1.0
  C  C136  1  0.63586000  0.10422000  0.89440000  1.0
  C  C137  1  0.86416000  0.89580000  0.39438000  1.0
  C  C138  1  0.36411000  0.89580000  0.10561000  1.0
  C  C139  1  0.13587000  0.10423000  0.60561000  1.0
  C  C140  1  0.20425000  0.38417000  0.69684000  1.0
  C  C141  1  0.29574000  0.61583000  0.19684000  1.0
  C  C142  1  0.79577000  0.61583000  0.30317000  1.0
  C  C143  1  0.70425000  0.38417000  0.80317000  1.0
  C  C144  1  0.24824000  0.46370000  0.65496000  1.0
  C  C145  1  0.25176000  0.53631000  0.15496000  1.0
  C  C146  1  0.75175000  0.53629000  0.34504000  1.0
  C  C147  1  0.74825000  0.46370000  0.84505000  1.0
  C  C148  1  0.36624000  0.55719000  0.66570000  1.0
  C  C149  1  0.13376000  0.44281000  0.16569000  1.0
  C  C150  1  0.63372000  0.44282000  0.33432000  1.0
  C  C151  1  0.86626000  0.55720000  0.83431000  1.0
  C  C152  1  0.44237000  0.57042000  0.71824000  1.0
  C  C153  1  0.05762000  0.42957000  0.21824000  1.0
  C  C154  1  0.55766000  0.42959000  0.28177000  1.0
  C  C155  1  0.94238000  0.57042000  0.78176000  1.0
  C  C156  1  0.40000000  0.49027000  0.75983000  1.0
  C  C157  1  0.09999000  0.50973000  0.25983000  1.0
  C  C158  1  0.60001000  0.50972000  0.24017000  1.0
  C  C159  1  0.89999000  0.49025000  0.74017000  1.0
  C  C160  1  0.27979000  0.39714000  0.74978000  1.0
  C  C161  1  0.22021000  0.60286000  0.24979000  1.0
  C  C162  1  0.72020000  0.60284000  0.25024000  1.0
  C  C163  1  0.77976000  0.39714000  0.75022000  1.0
  C  C164  1  0.14230000  0.43000000  0.88575000  1.0
  C  C165  1  0.35768000  0.57000000  0.38575000  1.0
  C  C166  1  0.85771000  0.56999000  0.11424000  1.0
  C  C167  1  0.64231000  0.43002000  0.61425000  1.0
  C  C168  1  0.15084000  0.47998000  0.93893000  1.0
  C  C169  1  0.34915000  0.52002000  0.43894000  1.0
  C  C170  1  0.84915000  0.52001000  0.06106000  1.0
  C  C171  1  0.65085000  0.47998000  0.56106000  1.0
  C  C172  1  0.25614000  0.46354000  0.97973000  1.0
  C  C173  1  0.24383000  0.53645000  0.47973000  1.0
  C  C174  1  0.74387000  0.53646000  0.02027000  1.0
  C  C175  1  0.75615000  0.46353000  0.52027000  1.0
  C  C176  1  0.35269000  0.39682000  0.96724000  1.0
  C  C177  1  0.14731000  0.60318000  0.46725000  1.0
  C  C178  1  0.64731000  0.60316000  0.03276000  1.0
  C  C179  1  0.85269000  0.39682000  0.53276000  1.0
  C  C180  1  0.34530000  0.34725000  0.91393000  1.0
  C  C181  1  0.15472000  0.65276000  0.41393000  1.0
  C  C182  1  0.65470000  0.65274000  0.08607000  1.0
  C  C183  1  0.84529000  0.34725000  0.58608000  1.0
  C  C184  1  0.24008000  0.36387000  0.87293000  1.0
  C  C185  1  0.25992000  0.63613000  0.37291000  1.0
  C  C186  1  0.75996000  0.63612000  0.12706000  1.0
  C  C187  1  0.74006000  0.36387000  0.62708000  1.0
  O  O188  1  0.77465000  0.04601000  0.80194000  1.0
  O  O189  1  0.72536000  0.95398000  0.30193000  1.0
  O  O190  1  0.22532000  0.95400000  0.19805000  1.0
  O  O191  1  0.27468000  0.04601000  0.69805000  1.0
  O  O192  1  0.05047000  0.23951000  0.79700000  1.0
  O  O193  1  0.44955000  0.76050000  0.29699000  1.0
  O  O194  1  0.94957000  0.76049000  0.20301000  1.0
  O  O195  1  0.55045000  0.23952000  0.70301000  1.0
  O  O196  1  0.97900000  0.03251000  0.70392000  1.0
  O  O197  1  0.52105000  0.96749000  0.20391000  1.0
  O  O198  1  0.02110000  0.96752000  0.29611000  1.0
  O  O199  1  0.47896000  0.03250000  0.79609000  1.0
  O  O200  1  0.83215000  0.22238000  0.69292000  1.0
  O  O201  1  0.66794000  0.77760000  0.19291000  1.0
  O  O202  1  0.16783000  0.77760000  0.30708000  1.0
  O  O203  1  0.33216000  0.22238000  0.80708000  1.0
