# generated using pymatgen
data_Zn6H51C80BrO24
_symmetry_space_group_name_H-M   'P 1'
_cell_length_a   18.22030000
_cell_length_b   18.58140000
_cell_length_c   18.67742832
_cell_angle_alpha   109.35328733
_cell_angle_beta   109.05764826
_cell_angle_gamma   108.66800000
_symmetry_Int_Tables_number   1
_chemical_formula_structural   Zn6H51C80BrO24
_chemical_formula_sum   'Zn6 H51 C80 Br1 O24'
_cell_volume   4946.18383640
_cell_formula_units_Z   1
loop_
 _symmetry_equiv_pos_site_id
 _symmetry_equiv_pos_as_xyz
  1  'x, y, z'
loop_
 _atom_site_type_symbol
 _atom_site_label
 _atom_site_symmetry_multiplicity
 _atom_site_fract_x
 _atom_site_fract_y
 _atom_site_fract_z
 _atom_site_occupancy
  Zn  Zn0  1  0.00406000  0.07211000  0.56977000  1.0
  Zn  Zn1  1  0.00781000  0.94774000  0.44602000  1.0
  Zn  Zn2  1  0.44274000  0.94423000  0.01192000  1.0
  Zn  Zn3  1  0.56826000  0.06025000  0.00267000  1.0
  Zn  Zn4  1  0.55220000  0.50275000  0.55751000  1.0
  Zn  Zn5  1  0.43076000  0.50723000  0.43139000  1.0
  H  H6  1  0.66784000  0.86792000  0.09185000  1.0
  H  H7  1  0.12943000  0.98690000  0.74363000  1.0
  H  H8  1  0.15297000  0.11242000  0.39611000  1.0
  H  H9  1  0.27935000  0.43060000  0.57362000  1.0
  H  H10  1  0.18261000  0.32900000  0.60423000  1.0
  H  H11  1  0.48799000  0.24436000  0.13175000  1.0
  H  H12  1  0.49158000  0.36460000  0.24759000  1.0
  H  H13  1  0.53209000  0.24763000  0.41061000  1.0
  H  H14  1  0.51387000  0.12013000  0.28948000  1.0
  H  H15  1  0.61087000  0.82931000  0.90889000  1.0
  H  H16  1  0.66704000  0.04618000  0.26041000  1.0
  H  H17  1  0.89952000  0.98938000  0.22346000  1.0
  H  H18  1  0.62063000  0.71771000  0.79850000  1.0
  H  H19  1  0.76120000  0.13198000  0.27803000  1.0
  H  H20  1  0.93444000  0.09668000  0.29809000  1.0
  H  H21  1  0.83410000  0.10943000  0.19706000  1.0
  H  H22  1  0.77619000  0.86433000  0.19888000  1.0
  H  H23  1  0.71901000  0.87556000  0.25856000  1.0
  H  H24  1  0.61986000  0.89227000  0.15821000  1.0
  H  H25  1  0.91691000  0.20463000  0.35716000  1.0
  H  H26  1  0.01758000  0.34608000  0.49035000  1.0
  H  H27  1  0.01330000  0.36850000  0.62780000  1.0
  H  H28  1  0.81637000  0.74409000  0.42853000  1.0
  H  H29  1  0.90670000  0.24593000  0.62975000  1.0
  H  H30  1  0.80866000  0.10226000  0.49665000  1.0
  H  H31  1  0.82504000  0.10857000  0.07299000  1.0
  H  H32  1  0.82617000  0.04481000  0.93423000  1.0
  H  H33  1  0.80750000  0.89448000  0.87130000  1.0
  H  H34  1  0.79297000  0.81197000  0.95180000  1.0
  H  H35  1  0.79621000  0.87744000  0.09174000  1.0
  H  H36  1  0.51210000  0.74069000  0.48997000  1.0
  H  H37  1  0.43424000  0.77995000  0.57022000  1.0
  H  H38  1  0.52054000  0.88466000  0.72972000  1.0
  H  H39  1  0.68796000  0.62431000  0.41092000  1.0
  H  H40  1  0.68365000  0.94782000  0.80620000  1.0
  H  H41  1  0.76185000  0.90768000  0.72572000  1.0
  H  H42  1  0.28909000  0.11835000  0.38681000  1.0
  H  H43  1  0.31566000  0.05223000  0.26483000  1.0
  H  H44  1  0.29238000  0.09680000  0.15105000  1.0
  H  H45  1  0.24053000  0.20687000  0.15896000  1.0
  H  H46  1  0.21387000  0.27260000  0.28057000  1.0
  H  H47  1  0.25674000  0.62358000  0.75033000  1.0
  H  H48  1  0.11338000  0.62546000  0.71222000  1.0
  H  H49  1  0.08841000  0.72921000  0.66297000  1.0
  H  H50  1  0.78466000  0.93177000  0.60714000  1.0
  H  H51  1  0.20799000  0.83147000  0.65352000  1.0
  H  H52  1  0.35089000  0.82921000  0.69193000  1.0
  H  H53  1  0.28850000  0.00567000  0.61657000  1.0
  H  H54  1  0.41458000  0.03054000  0.74598000  1.0
  H  H55  1  0.25022000  0.99681000  0.86585000  1.0
  H  H56  1  0.74990000  0.01522000  0.35516000  1.0
  C  C57  1  0.88517000  0.91509000  0.52809000  1.0
  C  C58  1  0.80863000  0.84508000  0.51968000  1.0
  C  C59  1  0.28122000  0.00571000  0.67222000  1.0
  C  C60  1  0.89280000  0.98556000  0.36380000  1.0
  C  C61  1  0.35122000  0.01903000  0.74394000  1.0
  C  C62  1  0.33970000  0.01579000  0.81360000  1.0
  C  C63  1  0.25870000  0.00132000  0.81217000  1.0
  C  C64  1  0.19115000  0.99407000  0.74356000  1.0
  C  C65  1  0.20179000  0.99517000  0.67280000  1.0
  C  C66  1  0.18090000  0.18247000  0.43446000  1.0
  C  C67  1  0.23261000  0.23785000  0.41439000  1.0
  C  C68  1  0.71906000  0.00600000  0.17391000  1.0
  C  C69  1  0.26862000  0.32815000  0.46658000  1.0
  C  C70  1  0.25001000  0.36050000  0.53389000  1.0
  C  C71  1  0.19700000  0.30416000  0.55180000  1.0
  C  C72  1  0.11055000  0.15047000  0.52092000  1.0
  C  C73  1  0.16375000  0.21453000  0.50289000  1.0
  C  C74  1  0.49407000  0.10284000  0.13215000  1.0
  C  C75  1  0.65018000  0.01473000  0.10979000  1.0
  C  C76  1  0.47121000  0.85427000  0.89142000  1.0
  C  C77  1  0.41085000  0.02358000  0.88835000  1.0
  C  C78  1  0.50141000  0.60628000  0.63478000  1.0
  C  C79  1  0.81106000  0.04021000  0.17796000  1.0
  C  C80  1  0.59131000  0.63381000  0.48753000  1.0
  C  C81  1  0.51685000  0.38702000  0.40399000  1.0
  C  C82  1  0.33936000  0.39156000  0.46125000  1.0
  C  C83  1  0.49541000  0.24461000  0.19217000  1.0
  C  C84  1  0.12898000  0.99066000  0.60193000  1.0
  C  C85  1  0.49888000  0.31193000  0.25688000  1.0
  C  C86  1  0.51330000  0.31356000  0.33607000  1.0
  C  C87  1  0.52099000  0.24560000  0.34884000  1.0
  C  C88  1  0.51138000  0.17504000  0.28167000  1.0
  C  C89  1  0.50001000  0.17508000  0.20380000  1.0
  C  C90  1  0.68281000  0.91167000  0.15718000  1.0
  C  C91  1  0.55300000  0.78139000  0.84569000  1.0
  C  C92  1  0.55880000  0.72004000  0.78420000  1.0
  C  C93  1  0.48655000  0.66237000  0.70052000  1.0
  C  C94  1  0.40618000  0.66463000  0.68131000  1.0
  C  C95  1  0.39732000  0.72325000  0.74397000  1.0
  C  C96  1  0.79205000  0.05381000  0.33655000  1.0
  C  C97  1  0.47259000  0.78269000  0.82564000  1.0
  C  C98  1  0.73206000  0.06385000  0.26363000  1.0
  C  C99  1  0.87567000  0.03300000  0.25085000  1.0
  C  C100  1  0.75031000  0.90534000  0.22705000  1.0
  C  C101  1  0.78083000  0.75835000  0.46337000  1.0
  C  C102  1  0.82976000  0.99656000  0.29662000  1.0
  C  C103  1  0.85640000  0.14186000  0.41738000  1.0
  C  C104  1  0.91525000  0.21203000  0.41697000  1.0
  C  C105  1  0.97181000  0.29276000  0.49219000  1.0
  C  C106  1  0.96951000  0.30543000  0.56917000  1.0
  C  C107  1  0.90993000  0.23668000  0.57024000  1.0
  C  C108  1  0.85428000  0.15609000  0.49517000  1.0
  C  C109  1  0.80921000  0.99775000  0.09213000  1.0
  C  C110  1  0.81803000  0.04344000  0.04623000  1.0
  C  C111  1  0.81798000  0.00712000  0.96779000  1.0
  C  C112  1  0.70888000  0.69197000  0.45317000  1.0
  C  C113  1  0.80816000  0.92339000  0.93285000  1.0
  C  C114  1  0.79963000  0.87705000  0.97781000  1.0
  C  C115  1  0.80075000  0.91415000  0.05686000  1.0
  C  C116  1  0.64224000  0.82087000  0.60209000  1.0
  C  C117  1  0.54978000  0.78589000  0.55935000  1.0
  C  C118  1  0.50616000  0.80879000  0.60470000  1.0
  C  C119  1  0.55416000  0.86733000  0.69350000  1.0
  C  C120  1  0.64619000  0.90309000  0.73665000  1.0
  C  C121  1  0.68999000  0.88032000  0.69150000  1.0
  C  C122  1  0.25020000  0.20046000  0.34234000  1.0
  C  C123  1  0.66316000  0.71085000  0.49783000  1.0
  C  C124  1  0.27804000  0.13732000  0.33643000  1.0
  C  C125  1  0.29296000  0.10028000  0.26800000  1.0
  C  C126  1  0.27993000  0.12532000  0.20406000  1.0
  C  C127  1  0.25167000  0.18748000  0.20897000  1.0
  C  C128  1  0.23693000  0.22486000  0.27750000  1.0
  C  C129  1  0.31249000  0.72599000  0.72324000  1.0
  C  C130  1  0.24542000  0.66891000  0.72901000  1.0
  C  C131  1  0.16524000  0.67025000  0.70762000  1.0
  C  C132  1  0.15134000  0.72850000  0.68019000  1.0
  C  C133  1  0.21822000  0.78585000  0.67484000  1.0
  C  C134  1  0.68928000  0.79777000  0.55408000  1.0
  C  C135  1  0.29869000  0.78481000  0.69659000  1.0
  C  C136  1  0.76315000  0.86400000  0.56451000  1.0
  Br  Br137  1  0.30356000  0.58800000  0.56991000  1.0
  O  O138  1  0.91104000  0.99490000  0.58037000  1.0
  O  O139  1  0.46223000  0.59112000  0.55760000  1.0
  O  O140  1  0.61600000  0.60210000  0.53540000  1.0
  O  O141  1  0.91973000  0.89079000  0.48200000  1.0
  O  O142  1  0.51162000  0.60350000  0.42878000  1.0
  O  O143  1  0.56439000  0.41020000  0.48418000  1.0
  O  O144  1  0.47269000  0.42257000  0.37804000  1.0
  O  O145  1  0.41759000  0.41094000  0.51024000  1.0
  O  O146  1  0.31849000  0.42329000  0.41071000  1.0
  O  O147  1  0.91134000  0.02636000  0.44188000  1.0
  O  O148  1  0.92361000  0.93425000  0.33807000  1.0
  O  O149  1  0.53908000  0.12419000  0.09613000  1.0
  O  O150  1  0.08450000  0.17621000  0.57645000  1.0
  O  O151  1  0.09347000  0.07229000  0.47927000  1.0
  O  O152  1  0.09535000  0.03769000  0.62669000  1.0
  O  O153  1  0.10567000  0.94066000  0.52281000  1.0
  O  O154  1  0.44298000  0.02421000  0.11111000  1.0
  O  O155  1  0.57018000  0.96908000  0.08859000  1.0
  O  O156  1  0.67519000  0.06996000  0.08403000  1.0
  O  O157  1  0.41894000  0.83505000  0.92252000  1.0
  O  O158  1  0.52479000  0.93046000  0.91254000  1.0
  O  O159  1  0.38641000  0.98345000  0.92669000  1.0
  O  O160  1  0.49202000  0.06988000  0.90928000  1.0
  O  O161  1  0.55562000  0.57823000  0.66121000  1.0
