# generated using pymatgen
data_CdH12C14IN4ClO4
_symmetry_space_group_name_H-M   'P 1'
_cell_length_a   9.22535000
_cell_length_b   14.00920000
_cell_length_c   16.48280000
_cell_angle_alpha   92.12850000
_cell_angle_beta   90.03530000
_cell_angle_gamma   109.15700000
_symmetry_Int_Tables_number   1
_chemical_formula_structural   CdH12C14IN4ClO4
_chemical_formula_sum   'Cd4 H48 C56 I4 N16 Cl4 O16'
_cell_volume   2010.69385074
_cell_formula_units_Z   4
loop_
 _symmetry_equiv_pos_site_id
 _symmetry_equiv_pos_as_xyz
  1  'x, y, z'
loop_
 _atom_site_type_symbol
 _atom_site_label
 _atom_site_symmetry_multiplicity
 _atom_site_fract_x
 _atom_site_fract_y
 _atom_site_fract_z
 _atom_site_occupancy
  Cd  Cd0  1  0.55627000  0.37849000  0.01031000  1.0
  Cd  Cd1  1  0.17777000  0.62152000  0.49031000  1.0
  Cd  Cd2  1  0.44372000  0.62151000  0.98968000  1.0
  Cd  Cd3  1  0.82222000  0.37848000  0.50969000  1.0
  H  H4  1  0.07128000  0.38019000  0.85400000  1.0
  H  H5  1  0.69214000  0.61963000  0.64570000  1.0
  H  H6  1  0.92871000  0.61981000  0.14601000  1.0
  H  H7  1  0.30784000  0.38037000  0.35430000  1.0
  H  H8  1  0.61485000  0.12164000  0.79045000  1.0
  H  H9  1  0.49368000  0.87821000  0.70999000  1.0
  H  H10  1  0.38517000  0.87836000  0.20954000  1.0
  H  H11  1  0.50633000  0.12180000  0.29000000  1.0
  H  H12  1  0.08559000  0.22698000  0.81289000  1.0
  H  H13  1  0.85884000  0.77212000  0.68702000  1.0
  H  H14  1  0.91442000  0.77304000  0.18711000  1.0
  H  H15  1  0.14115000  0.22788000  0.31297000  1.0
  H  H16  1  0.90354000  0.55718000  0.95979000  1.0
  H  H17  1  0.34684000  0.44282000  0.54040000  1.0
  H  H18  1  0.09647000  0.44281000  0.04021000  1.0
  H  H19  1  0.65314000  0.55718000  0.45960000  1.0
  H  H20  1  0.08013000  0.54882000  0.92201000  1.0
  H  H21  1  0.53200000  0.45091000  0.57779000  1.0
  H  H22  1  0.91988000  0.45118000  0.07800000  1.0
  H  H23  1  0.46799000  0.54909000  0.42221000  1.0
  H  H24  1  0.24698000  0.13742000  0.90855000  1.0
  H  H25  1  0.10961000  0.86298000  0.59102000  1.0
  H  H26  1  0.75302000  0.86258000  0.09145000  1.0
  H  H27  1  0.89039000  0.13702000  0.40898000  1.0
  H  H28  1  0.63466000  0.96494000  0.92954000  1.0
  H  H29  1  0.66843000  0.03511000  0.57125000  1.0
  H  H30  1  0.36534000  0.03507000  0.07045000  1.0
  H  H31  1  0.33157000  0.96490000  0.42875000  1.0
  H  H32  1  0.62078000  0.09438000  0.03688000  1.0
  H  H33  1  0.52448000  0.90552000  0.46416000  1.0
  H  H34  1  0.37922000  0.90562000  0.96312000  1.0
  H  H35  1  0.47553000  0.09449000  0.53584000  1.0
  H  H36  1  0.85326000  0.23011000  0.08418000  1.0
  H  H37  1  0.62179000  0.77012000  0.41624000  1.0
  H  H38  1  0.14674000  0.76989000  0.91583000  1.0
  H  H39  1  0.37820000  0.22988000  0.58376000  1.0
  H  H40  1  0.11072000  0.24523000  0.02704000  1.0
  H  H41  1  0.86518000  0.75541000  0.47255000  1.0
  H  H42  1  0.88929000  0.75476000  0.97297000  1.0
  H  H43  1  0.13481000  0.24459000  0.52746000  1.0
  H  H44  1  0.10531000  0.89332000  0.78348000  1.0
  H  H45  1  0.21227000  0.10715000  0.71599000  1.0
  H  H46  1  0.89468000  0.10668000  0.21652000  1.0
  H  H47  1  0.78774000  0.89285000  0.28401000  1.0
  H  H48  1  0.27514000  0.98768000  0.81911000  1.0
  H  H49  1  0.28758000  0.01260000  0.68040000  1.0
  H  H50  1  0.72485000  0.01231000  0.18088000  1.0
  H  H51  1  0.71243000  0.98740000  0.31960000  1.0
  C  C52  1  0.55414000  0.19930000  0.87665000  1.0
  C  C53  1  0.35476000  0.80043000  0.62410000  1.0
  C  C54  1  0.44587000  0.80070000  0.12334000  1.0
  C  C55  1  0.64524000  0.19958000  0.37589000  1.0
  C  C56  1  0.71209000  0.27116000  0.87880000  1.0
  C  C57  1  0.44126000  0.72865000  0.62166000  1.0
  C  C58  1  0.28792000  0.72885000  0.12120000  1.0
  C  C59  1  0.55873000  0.27135000  0.37834000  1.0
  C  C60  1  0.84688000  0.26707000  0.84306000  1.0
  C  C61  1  0.58047000  0.73275000  0.65707000  1.0
  C  C62  1  0.15315000  0.73294000  0.15694000  1.0
  C  C63  1  0.41952000  0.26725000  0.34293000  1.0
  C  C64  1  0.87082000  0.19148000  0.78572000  1.0
  C  C65  1  0.68019000  0.80837000  0.71423000  1.0
  C  C66  1  0.12917000  0.80851000  0.21427000  1.0
  C  C67  1  0.31982000  0.19162000  0.28576000  1.0
  C  C68  1  0.89164000  0.41187000  0.91505000  1.0
  C  C69  1  0.48025000  0.58795000  0.58517000  1.0
  C  C70  1  0.10837000  0.58812000  0.08495000  1.0
  C  C71  1  0.51973000  0.41205000  0.41483000  1.0
  C  C72  1  0.97707000  0.50940000  0.95653000  1.0
  C  C73  1  0.46806000  0.49050000  0.54352000  1.0
  C  C74  1  0.02293000  0.49060000  0.04347000  1.0
  C  C75  1  0.53192000  0.50950000  0.45648000  1.0
  C  C76  1  0.87985000  0.03440000  0.91741000  1.0
  C  C77  1  0.84506000  0.96607000  0.58254000  1.0
  C  C78  1  0.12016000  0.96560000  0.08259000  1.0
  C  C79  1  0.15494000  0.03393000  0.41746000  1.0
  C  C80  1  0.73653000  0.02631000  0.95041000  1.0
  C  C81  1  0.70918000  0.97389000  0.55005000  1.0
  C  C82  1  0.26347000  0.97369000  0.04959000  1.0
  C  C83  1  0.29082000  0.02611000  0.44995000  1.0
  C  C84  1  0.73034000  0.09841000  0.00973000  1.0
  C  C85  1  0.63052000  0.90170000  0.49092000  1.0
  C  C86  1  0.26967000  0.90159000  0.99027000  1.0
  C  C87  1  0.36948000  0.09830000  0.50908000  1.0
  C  C88  1  0.86381000  0.17657000  0.03671000  1.0
  C  C89  1  0.68611000  0.82367000  0.46362000  1.0
  C  C90  1  0.13619000  0.82343000  0.96329000  1.0
  C  C91  1  0.31389000  0.17632000  0.53638000  1.0
  C  C92  1  0.00767000  0.18594000  0.00492000  1.0
  C  C93  1  0.82121000  0.81457000  0.49492000  1.0
  C  C94  1  0.99234000  0.81405000  0.99509000  1.0
  C  C95  1  0.17879000  0.18543000  0.50508000  1.0
  C  C96  1  0.01343000  0.11474000  0.94435000  1.0
  C  C97  1  0.89858000  0.88587000  0.55533000  1.0
  C  C98  1  0.98658000  0.88526000  0.05566000  1.0
  C  C99  1  0.10142000  0.11413000  0.44467000  1.0
  C  C100  1  0.06794000  0.01406000  0.84952000  1.0
  C  C101  1  0.05407000  0.98653000  0.64998000  1.0
  C  C102  1  0.93206000  0.98594000  0.15048000  1.0
  C  C103  1  0.94594000  0.01347000  0.35002000  1.0
  C  C104  1  0.16175000  0.97524000  0.79171000  1.0
  C  C105  1  0.18674000  0.02523000  0.70775000  1.0
  C  C106  1  0.83825000  0.02476000  0.20830000  1.0
  C  C107  1  0.81326000  0.97478000  0.29224000  1.0
  I  I108  1  0.64001000  0.34228000  0.16130000  1.0
  I  I109  1  0.29722000  0.65805000  0.33932000  1.0
  I  I110  1  0.35999000  0.65772000  0.83870000  1.0
  I  I111  1  0.70277000  0.34195000  0.66067000  1.0
  N  N112  1  0.95736000  0.35674000  0.86750000  1.0
  N  N113  1  0.60137000  0.64306000  0.63250000  1.0
  N  N114  1  0.04265000  0.64326000  0.13250000  1.0
  N  N115  1  0.39861000  0.35694000  0.36750000  1.0
  N  N116  1  0.74255000  0.36083000  0.92275000  1.0
  N  N117  1  0.38198000  0.63900000  0.57774000  1.0
  N  N118  1  0.25746000  0.63918000  0.07724000  1.0
  N  N119  1  0.61801000  0.36100000  0.42226000  1.0
  N  N120  1  0.13167000  0.10077000  0.89888000  1.0
  N  N121  1  0.03125000  0.89999000  0.60045000  1.0
  N  N122  1  0.86834000  0.89923000  0.10113000  1.0
  N  N123  1  0.96875000  0.10001000  0.39956000  1.0
  N  N124  1  0.91864000  0.97343000  0.85938000  1.0
  N  N125  1  0.94506000  0.02709000  0.64042000  1.0
  N  N126  1  0.08136000  0.02658000  0.14062000  1.0
  N  N127  1  0.05494000  0.97291000  0.35958000  1.0
  Cl  Cl128  1  0.32469000  0.41217000  0.95658000  1.0
  Cl  Cl129  1  0.91226000  0.58784000  0.54335000  1.0
  Cl  Cl130  1  0.67530000  0.58782000  0.04341000  1.0
  Cl  Cl131  1  0.08772000  0.41216000  0.45664000  1.0
  O  O132  1  0.45660000  0.21452000  0.92319000  1.0
  O  O133  1  0.24152000  0.78506000  0.57784000  1.0
  O  O134  1  0.54341000  0.78548000  0.07681000  1.0
  O  O135  1  0.75848000  0.21494000  0.42216000  1.0
  O  O136  1  0.51925000  0.12196000  0.82451000  1.0
  O  O137  1  0.39733000  0.87780000  0.67621000  1.0
  O  O138  1  0.48075000  0.87804000  0.17549000  1.0
  O  O139  1  0.60269000  0.12221000  0.32379000  1.0
  O  O140  1  0.01588000  0.20005000  0.76639000  1.0
  O  O141  1  0.81692000  0.79994000  0.73333000  1.0
  O  O142  1  0.98412000  0.79995000  0.23360000  1.0
  O  O143  1  0.18307000  0.20006000  0.26667000  1.0
  O  O144  1  0.76167000  0.12611000  0.75190000  1.0
  O  O145  1  0.63638000  0.87377000  0.74817000  1.0
  O  O146  1  0.23835000  0.87390000  0.24810000  1.0
  O  O147  1  0.36361000  0.12623000  0.25183000  1.0
