# generated using pymatgen
data_CoH6(C3N2)2
_symmetry_space_group_name_H-M   'P 1'
_cell_length_a   15.64900000
_cell_length_b   15.78310000
_cell_length_c   18.35020000
_cell_angle_alpha   90.00030000
_cell_angle_beta   89.99970000
_cell_angle_gamma   90.00000000
_symmetry_Int_Tables_number   1
_chemical_formula_structural   CoH6(C3N2)2
_chemical_formula_sum   'Co16 H96 C96 N64'
_cell_volume   4532.31097819
_cell_formula_units_Z   16
loop_
 _symmetry_equiv_pos_site_id
 _symmetry_equiv_pos_as_xyz
  1  'x, y, z'
loop_
 _atom_site_type_symbol
 _atom_site_label
 _atom_site_symmetry_multiplicity
 _atom_site_fract_x
 _atom_site_fract_y
 _atom_site_fract_z
 _atom_site_occupancy
  Co  Co0  1  0.86530000  0.68895000  0.40103000  1.0
  Co  Co1  1  0.67929000  0.99634000  0.32292000  1.0
  Co  Co2  1  0.13470000  0.81105000  0.90104000  1.0
  Co  Co3  1  0.32071000  0.50367000  0.82292000  1.0
  Co  Co4  1  0.36530000  0.31105000  0.09896000  1.0
  Co  Co5  1  0.17929000  0.00366000  0.17708000  1.0
  Co  Co6  1  0.63470000  0.18895000  0.59897000  1.0
  Co  Co7  1  0.82071000  0.49634000  0.67708000  1.0
  Co  Co8  1  0.13470000  0.31105000  0.59897000  1.0
  Co  Co9  1  0.32071000  0.00366000  0.67708000  1.0
  Co  Co10  1  0.86530000  0.18895000  0.09897000  1.0
  Co  Co11  1  0.67929000  0.49633000  0.17708000  1.0
  Co  Co12  1  0.63470000  0.68895000  0.90104000  1.0
  Co  Co13  1  0.82071000  0.99634000  0.82292000  1.0
  Co  Co14  1  0.36530000  0.81105000  0.40103000  1.0
  Co  Co15  1  0.17929000  0.50366000  0.32292000  1.0
  H  H16  1  0.96470000  0.87085000  0.42122000  1.0
  H  H17  1  0.87535000  0.01785000  0.38702000  1.0
  H  H18  1  0.71801000  0.80568000  0.34793000  1.0
  H  H19  1  0.92453000  0.77100000  0.55271000  1.0
  H  H20  1  0.90227000  0.67964000  0.68122000  1.0
  H  H21  1  0.81172000  0.53495000  0.50422000  1.0
  H  H22  1  0.97550000  0.75384000  0.26431000  1.0
  H  H23  1  0.11872000  0.66160000  0.22092000  1.0
  H  H24  1  0.00979000  0.54663000  0.40630000  1.0
  H  H25  1  0.57832000  0.54879000  0.32311000  1.0
  H  H26  1  0.66375000  0.64329000  0.42861000  1.0
  H  H27  1  0.83556000  0.58029000  0.26027000  1.0
  H  H28  1  0.03530000  0.62915000  0.92122000  1.0
  H  H29  1  0.12465000  0.48215000  0.88702000  1.0
  H  H30  1  0.28199000  0.69432000  0.84793000  1.0
  H  H31  1  0.07546000  0.72900000  0.05271000  1.0
  H  H32  1  0.09772000  0.82036000  0.18122000  1.0
  H  H33  1  0.18828000  0.96505000  0.00422000  1.0
  H  H34  1  0.02450000  0.74615000  0.76432000  1.0
  H  H35  1  0.88128000  0.83839000  0.72093000  1.0
  H  H36  1  0.99021000  0.95337000  0.90630000  1.0
  H  H37  1  0.42168000  0.95121000  0.82310000  1.0
  H  H38  1  0.33625000  0.85671000  0.92861000  1.0
  H  H39  1  0.16444000  0.91971000  0.76027000  1.0
  H  H40  1  0.46470000  0.12914000  0.07878000  1.0
  H  H41  1  0.37535000  0.98215000  0.11299000  1.0
  H  H42  1  0.21801000  0.19432000  0.15207000  1.0
  H  H43  1  0.42454000  0.22900000  0.94729000  1.0
  H  H44  1  0.40228000  0.32036000  0.81878000  1.0
  H  H45  1  0.31172000  0.46505000  0.99578000  1.0
  H  H46  1  0.47549000  0.24615000  0.23568000  1.0
  H  H47  1  0.61871000  0.33840000  0.27907000  1.0
  H  H48  1  0.50979000  0.45337000  0.09369000  1.0
  H  H49  1  0.07832000  0.45121000  0.17690000  1.0
  H  H50  1  0.16375000  0.35670000  0.07140000  1.0
  H  H51  1  0.33556000  0.41970000  0.23973000  1.0
  H  H52  1  0.53530000  0.37086000  0.57879000  1.0
  H  H53  1  0.62464000  0.51785000  0.61299000  1.0
  H  H54  1  0.78198000  0.30568000  0.65207000  1.0
  H  H55  1  0.57546000  0.27101000  0.44729000  1.0
  H  H56  1  0.59772000  0.17964000  0.31878000  1.0
  H  H57  1  0.68828000  0.03495000  0.49578000  1.0
  H  H58  1  0.52449000  0.25385000  0.73568000  1.0
  H  H59  1  0.38128000  0.16160000  0.77908000  1.0
  H  H60  1  0.49021000  0.04663000  0.59370000  1.0
  H  H61  1  0.92168000  0.04879000  0.67690000  1.0
  H  H62  1  0.83625000  0.14329000  0.57139000  1.0
  H  H63  1  0.66444000  0.08029000  0.73974000  1.0
  H  H64  1  0.03530000  0.12915000  0.57878000  1.0
  H  H65  1  0.12465000  0.98215000  0.61298000  1.0
  H  H66  1  0.28199000  0.19432000  0.65207000  1.0
  H  H67  1  0.07547000  0.22900000  0.44729000  1.0
  H  H68  1  0.09772000  0.32036000  0.31878000  1.0
  H  H69  1  0.18828000  0.46505000  0.49578000  1.0
  H  H70  1  0.02450000  0.24616000  0.73568000  1.0
  H  H71  1  0.88128000  0.33840000  0.77907000  1.0
  H  H72  1  0.99021000  0.45337000  0.59370000  1.0
  H  H73  1  0.42169000  0.45121000  0.67690000  1.0
  H  H74  1  0.33625000  0.35671000  0.57140000  1.0
  H  H75  1  0.16444000  0.41971000  0.73974000  1.0
  H  H76  1  0.96470000  0.37085000  0.07878000  1.0
  H  H77  1  0.87535000  0.51785000  0.11298000  1.0
  H  H78  1  0.71802000  0.30568000  0.15207000  1.0
  H  H79  1  0.92453000  0.27100000  0.94729000  1.0
  H  H80  1  0.90228000  0.17964000  0.81878000  1.0
  H  H81  1  0.81172000  0.03495000  0.99578000  1.0
  H  H82  1  0.97550000  0.25385000  0.23568000  1.0
  H  H83  1  0.11872000  0.16160000  0.27908000  1.0
  H  H84  1  0.00979000  0.04663000  0.09370000  1.0
  H  H85  1  0.57832000  0.04879000  0.17690000  1.0
  H  H86  1  0.66375000  0.14330000  0.07140000  1.0
  H  H87  1  0.83556000  0.08029000  0.23973000  1.0
  H  H88  1  0.53530000  0.87085000  0.92122000  1.0
  H  H89  1  0.62465000  0.01785000  0.88702000  1.0
  H  H90  1  0.78199000  0.80568000  0.84793000  1.0
  H  H91  1  0.57546000  0.77100000  0.05271000  1.0
  H  H92  1  0.59772000  0.67964000  0.18122000  1.0
  H  H93  1  0.68828000  0.53495000  0.00422000  1.0
  H  H94  1  0.52450000  0.75385000  0.76432000  1.0
  H  H95  1  0.38128000  0.66160000  0.72093000  1.0
  H  H96  1  0.49021000  0.54663000  0.90631000  1.0
  H  H97  1  0.92168000  0.54879000  0.82310000  1.0
  H  H98  1  0.83625000  0.64329000  0.92860000  1.0
  H  H99  1  0.66444000  0.58029000  0.76027000  1.0
  H  H100  1  0.46470000  0.62914000  0.42122000  1.0
  H  H101  1  0.37536000  0.48215000  0.38702000  1.0
  H  H102  1  0.21802000  0.69432000  0.34793000  1.0
  H  H103  1  0.42453000  0.72900000  0.55271000  1.0
  H  H104  1  0.40228000  0.82036000  0.68122000  1.0
  H  H105  1  0.31172000  0.96505000  0.50422000  1.0
  H  H106  1  0.47550000  0.74616000  0.26431000  1.0
  H  H107  1  0.61872000  0.83840000  0.22092000  1.0
  H  H108  1  0.50979000  0.95337000  0.40630000  1.0
  H  H109  1  0.07832000  0.95121000  0.32310000  1.0
  H  H110  1  0.16375000  0.85671000  0.42860000  1.0
  H  H111  1  0.33556000  0.91971000  0.26027000  1.0
  C  C112  1  0.90000000  0.87912000  0.40108000  1.0
  C  C113  1  0.85582000  0.95199000  0.38375000  1.0
  C  C114  1  0.77302000  0.84363000  0.36328000  1.0
  C  C115  1  0.89883000  0.70800000  0.56158000  1.0
  C  C116  1  0.88781000  0.66296000  0.62518000  1.0
  C  C117  1  0.84038000  0.58651000  0.53487000  1.0
  C  C118  1  0.00376000  0.69691000  0.28708000  1.0
  C  C119  1  0.07448000  0.65116000  0.26559000  1.0
  C  C120  1  0.01976000  0.59059000  0.36157000  1.0
  C  C121  1  0.64438000  0.56959000  0.32567000  1.0
  C  C122  1  0.68665000  0.61650000  0.37780000  1.0
  C  C123  1  0.77692000  0.58481000  0.29165000  1.0
  C  C124  1  0.10000000  0.62088000  0.90108000  1.0
  C  C125  1  0.14418000  0.54801000  0.88376000  1.0
  C  C126  1  0.22698000  0.65637000  0.86328000  1.0
  C  C127  1  0.10117000  0.79200000  0.06158000  1.0
  C  C128  1  0.11219000  0.83704000  0.12519000  1.0
  C  C129  1  0.15962000  0.91349000  0.03487000  1.0
  C  C130  1  0.99624000  0.80308000  0.78708000  1.0
  C  C131  1  0.92552000  0.84883000  0.76559000  1.0
  C  C132  1  0.98024000  0.90941000  0.86157000  1.0
  C  C133  1  0.35562000  0.93040000  0.82567000  1.0
  C  C134  1  0.31335000  0.88350000  0.87780000  1.0
  C  C135  1  0.22308000  0.91519000  0.79165000  1.0
  C  C136  1  0.40000000  0.12087000  0.09892000  1.0
  C  C137  1  0.35582000  0.04801000  0.11625000  1.0
  C  C138  1  0.27302000  0.15636000  0.13672000  1.0
  C  C139  1  0.39883000  0.29200000  0.93842000  1.0
  C  C140  1  0.38781000  0.33704000  0.87481000  1.0
  C  C141  1  0.34038000  0.41349000  0.96513000  1.0
  C  C142  1  0.50376000  0.30309000  0.21291000  1.0
  C  C143  1  0.57447000  0.34883000  0.23440000  1.0
  C  C144  1  0.51976000  0.40941000  0.13843000  1.0
  C  C145  1  0.14439000  0.43040000  0.17433000  1.0
  C  C146  1  0.18665000  0.38349000  0.12221000  1.0
  C  C147  1  0.27692000  0.41518000  0.20835000  1.0
  C  C148  1  0.59999000  0.37913000  0.59893000  1.0
  C  C149  1  0.64417000  0.45199000  0.61625000  1.0
  C  C150  1  0.72698000  0.34364000  0.63672000  1.0
  C  C151  1  0.60117000  0.20800000  0.43842000  1.0
  C  C152  1  0.61219000  0.16296000  0.37482000  1.0
  C  C153  1  0.65961000  0.08651000  0.46513000  1.0
  C  C154  1  0.49623000  0.19691000  0.71292000  1.0
  C  C155  1  0.42552000  0.15117000  0.73441000  1.0
  C  C156  1  0.48023000  0.09059000  0.63843000  1.0
  C  C157  1  0.85561000  0.06960000  0.67433000  1.0
  C  C158  1  0.81335000  0.11651000  0.62221000  1.0
  C  C159  1  0.72308000  0.08482000  0.70835000  1.0
  C  C160  1  0.10000000  0.12088000  0.59892000  1.0
  C  C161  1  0.14418000  0.04801000  0.61625000  1.0
  C  C162  1  0.22698000  0.15636000  0.63672000  1.0
  C  C163  1  0.10118000  0.29200000  0.43842000  1.0
  C  C164  1  0.11219000  0.33704000  0.37481000  1.0
  C  C165  1  0.15962000  0.41349000  0.46513000  1.0
  C  C166  1  0.99624000  0.30309000  0.71292000  1.0
  C  C167  1  0.92552000  0.34884000  0.73440000  1.0
  C  C168  1  0.98023000  0.40941000  0.63843000  1.0
  C  C169  1  0.35562000  0.43040000  0.67433000  1.0
  C  C170  1  0.31336000  0.38350000  0.62221000  1.0
  C  C171  1  0.22309000  0.41519000  0.70835000  1.0
  C  C172  1  0.90001000  0.37913000  0.09892000  1.0
  C  C173  1  0.85582000  0.45199000  0.11624000  1.0
  C  C174  1  0.77303000  0.34363000  0.13672000  1.0
  C  C175  1  0.89882000  0.20800000  0.93842000  1.0
  C  C176  1  0.88781000  0.16296000  0.87482000  1.0
  C  C177  1  0.84038000  0.08651000  0.96513000  1.0
  C  C178  1  0.00376000  0.19691000  0.21292000  1.0
  C  C179  1  0.07448000  0.15117000  0.23441000  1.0
  C  C180  1  0.01977000  0.09059000  0.13843000  1.0
  C  C181  1  0.64438000  0.06960000  0.17433000  1.0
  C  C182  1  0.68665000  0.11651000  0.12221000  1.0
  C  C183  1  0.77692000  0.08482000  0.20835000  1.0
  C  C184  1  0.60000000  0.87913000  0.90108000  1.0
  C  C185  1  0.64418000  0.95199000  0.88375000  1.0
  C  C186  1  0.72698000  0.84364000  0.86328000  1.0
  C  C187  1  0.60117000  0.70800000  0.06158000  1.0
  C  C188  1  0.61219000  0.66296000  0.12519000  1.0
  C  C189  1  0.65962000  0.58651000  0.03487000  1.0
  C  C190  1  0.49624000  0.69691000  0.78709000  1.0
  C  C191  1  0.42553000  0.65117000  0.76560000  1.0
  C  C192  1  0.48024000  0.59059000  0.86157000  1.0
  C  C193  1  0.85562000  0.56960000  0.82567000  1.0
  C  C194  1  0.81335000  0.61650000  0.87779000  1.0
  C  C195  1  0.72308000  0.58482000  0.79165000  1.0
  C  C196  1  0.40001000  0.62087000  0.40108000  1.0
  C  C197  1  0.35583000  0.54801000  0.38376000  1.0
  C  C198  1  0.27302000  0.65636000  0.36328000  1.0
  C  C199  1  0.39882000  0.79200000  0.56158000  1.0
  C  C200  1  0.38781000  0.83704000  0.62519000  1.0
  C  C201  1  0.34038000  0.91349000  0.53487000  1.0
  C  C202  1  0.50376000  0.80309000  0.28708000  1.0
  C  C203  1  0.57448000  0.84884000  0.26559000  1.0
  C  C204  1  0.51976000  0.90941000  0.36157000  1.0
  C  C205  1  0.14439000  0.93040000  0.32567000  1.0
  C  C206  1  0.18665000  0.88350000  0.37779000  1.0
  C  C207  1  0.27692000  0.91518000  0.29165000  1.0
  N  N208  1  0.84697000  0.81067000  0.38798000  1.0
  N  N209  1  0.77529000  0.92899000  0.35972000  1.0
  N  N210  1  0.86873000  0.65914000  0.50448000  1.0
  N  N211  1  0.85069000  0.58600000  0.60783000  1.0
  N  N212  1  0.96947000  0.65813000  0.34806000  1.0
  N  N213  1  0.08421000  0.58382000  0.31317000  1.0
  N  N214  1  0.70217000  0.54974000  0.27122000  1.0
  N  N215  1  0.77073000  0.62601000  0.35586000  1.0
  N  N216  1  0.15303000  0.68933000  0.88798000  1.0
  N  N217  1  0.22471000  0.57101000  0.85972000  1.0
  N  N218  1  0.13127000  0.84086000  0.00448000  1.0
  N  N219  1  0.14931000  0.91400000  0.10784000  1.0
  N  N220  1  0.03053000  0.84188000  0.84806000  1.0
  N  N221  1  0.91579000  0.91618000  0.81317000  1.0
  N  N222  1  0.29783000  0.95026000  0.77122000  1.0
  N  N223  1  0.22927000  0.87399000  0.85586000  1.0
  N  N224  1  0.34697000  0.18932000  0.11202000  1.0
  N  N225  1  0.27529000  0.07101000  0.14028000  1.0
  N  N226  1  0.36873000  0.34086000  0.99551000  1.0
  N  N227  1  0.35069000  0.41400000  0.89216000  1.0
  N  N228  1  0.46947000  0.34188000  0.15193000  1.0
  N  N229  1  0.58421000  0.41618000  0.18682000  1.0
  N  N230  1  0.20217000  0.45025000  0.22878000  1.0
  N  N231  1  0.27073000  0.37398000  0.14414000  1.0
  N  N232  1  0.65303000  0.31068000  0.61202000  1.0
  N  N233  1  0.72471000  0.42899000  0.64028000  1.0
  N  N234  1  0.63127000  0.15915000  0.49552000  1.0
  N  N235  1  0.64931000  0.08600000  0.39217000  1.0
  N  N236  1  0.53053000  0.15813000  0.65194000  1.0
  N  N237  1  0.41578000  0.08382000  0.68683000  1.0
  N  N238  1  0.79783000  0.04974000  0.72878000  1.0
  N  N239  1  0.72927000  0.12601000  0.64415000  1.0
  N  N240  1  0.15303000  0.18933000  0.61202000  1.0
  N  N241  1  0.22471000  0.07101000  0.64028000  1.0
  N  N242  1  0.13128000  0.34086000  0.49551000  1.0
  N  N243  1  0.14931000  0.41400000  0.39217000  1.0
  N  N244  1  0.03053000  0.34188000  0.65193000  1.0
  N  N245  1  0.91579000  0.41618000  0.68682000  1.0
  N  N246  1  0.29784000  0.45026000  0.72878000  1.0
  N  N247  1  0.22927000  0.37399000  0.64415000  1.0
  N  N248  1  0.84697000  0.31067000  0.11202000  1.0
  N  N249  1  0.77529000  0.42899000  0.14028000  1.0
  N  N250  1  0.86873000  0.15914000  0.99552000  1.0
  N  N251  1  0.85069000  0.08600000  0.89217000  1.0
  N  N252  1  0.96947000  0.15812000  0.15194000  1.0
  N  N253  1  0.08421000  0.08382000  0.18683000  1.0
  N  N254  1  0.70217000  0.04974000  0.22878000  1.0
  N  N255  1  0.77073000  0.12601000  0.14414000  1.0
  N  N256  1  0.65303000  0.81068000  0.88798000  1.0
  N  N257  1  0.72471000  0.92899000  0.85972000  1.0
  N  N258  1  0.63128000  0.65914000  0.00449000  1.0
  N  N259  1  0.64931000  0.58600000  0.10784000  1.0
  N  N260  1  0.53053000  0.65812000  0.84807000  1.0
  N  N261  1  0.41579000  0.58382000  0.81318000  1.0
  N  N262  1  0.79783000  0.54974000  0.77122000  1.0
  N  N263  1  0.72927000  0.62601000  0.85586000  1.0
  N  N264  1  0.34697000  0.68932000  0.38798000  1.0
  N  N265  1  0.27529000  0.57101000  0.35972000  1.0
  N  N266  1  0.36872000  0.84085000  0.50449000  1.0
  N  N267  1  0.35069000  0.91400000  0.60784000  1.0
  N  N268  1  0.46947000  0.84187000  0.34806000  1.0
  N  N269  1  0.58421000  0.91618000  0.31317000  1.0
  N  N270  1  0.20217000  0.95026000  0.27122000  1.0
  N  N271  1  0.27073000  0.87399000  0.35586000  1.0
