# generated using pymatgen
data_ErAgH8C14(NO4)2
_symmetry_space_group_name_H-M   'P 1'
_cell_length_a   9.47737000
_cell_length_b   9.60223000
_cell_length_c   11.46080000
_cell_angle_alpha   102.23500000
_cell_angle_beta   95.87230000
_cell_angle_gamma   119.35900000
_symmetry_Int_Tables_number   1
_chemical_formula_structural   ErAgH8C14(NO4)2
_chemical_formula_sum   'Er2 Ag2 H16 C28 N4 O16'
_cell_volume   861.94755933
_cell_formula_units_Z   2
loop_
 _symmetry_equiv_pos_site_id
 _symmetry_equiv_pos_as_xyz
  1  'x, y, z'
loop_
 _atom_site_type_symbol
 _atom_site_label
 _atom_site_symmetry_multiplicity
 _atom_site_fract_x
 _atom_site_fract_y
 _atom_site_fract_z
 _atom_site_occupancy
  Er  Er0  1  0.72652000  0.35949000  0.49232000  1.0
  Er  Er1  1  0.27349000  0.64052000  0.50768000  1.0
  Ag  Ag2  1  0.51809000  0.81981000  0.17797000  1.0
  Ag  Ag3  1  0.48190000  0.18016000  0.82203000  1.0
  H  H4  1  0.19187000  0.77949000  0.22401000  1.0
  H  H5  1  0.91297000  0.69818000  0.10378000  1.0
  H  H6  1  0.85305000  0.60910000  0.86992000  1.0
  H  H7  1  0.35810000  0.72793000  0.90478000  1.0
  H  H8  1  0.68756000  0.68205000  0.32705000  1.0
  H  H9  1  0.21755000  0.02744000  0.40164000  1.0
  H  H10  1  0.15876000  0.18277000  0.27207000  1.0
  H  H11  1  0.86124000  0.07028000  0.17056000  1.0
  H  H12  1  0.80810000  0.22047000  0.77599000  1.0
  H  H13  1  0.08701000  0.30178000  0.89622000  1.0
  H  H14  1  0.14695000  0.39089000  0.13008000  1.0
  H  H15  1  0.64190000  0.27206000  0.09523000  1.0
  H  H16  1  0.31244000  0.31795000  0.67295000  1.0
  H  H17  1  0.78245000  0.97258000  0.59836000  1.0
  H  H18  1  0.84123000  0.81722000  0.72791000  1.0
  H  H19  1  0.13873000  0.92970000  0.82942000  1.0
  C  C20  1  0.16310000  0.74905000  0.12412000  1.0
  C  C21  1  0.00752000  0.70123000  0.05596000  1.0
  C  C22  1  0.97463000  0.65375000  0.92801000  1.0
  C  C23  1  0.10264000  0.66360000  0.87242000  1.0
  C  C24  1  0.25687000  0.71816000  0.94682000  1.0
  C  C25  1  0.07763000  0.61295000  0.73483000  1.0
  C  C26  1  0.79437000  0.79119000  0.31549000  1.0
  C  C27  1  0.95666000  0.84206000  0.37258000  1.0
  C  C28  1  0.09015000  0.98442000  0.35685000  1.0
  C  C29  1  0.05785000  0.06952000  0.28412000  1.0
  C  C30  1  0.89297000  0.00913000  0.22900000  1.0
  C  C31  1  0.98578000  0.74210000  0.44690000  1.0
  C  C32  1  0.48695000  0.96572000  0.43017000  1.0
  C  C33  1  0.53970000  0.54740000  0.56973000  1.0
  C  C34  1  0.83688000  0.25092000  0.87588000  1.0
  C  C35  1  0.99247000  0.29875000  0.94405000  1.0
  C  C36  1  0.02536000  0.34623000  0.07199000  1.0
  C  C37  1  0.89736000  0.33639000  0.12758000  1.0
  C  C38  1  0.74312000  0.28184000  0.05318000  1.0
  C  C39  1  0.92238000  0.38707000  0.26517000  1.0
  C  C40  1  0.20562000  0.20882000  0.68451000  1.0
  C  C41  1  0.04333000  0.15795000  0.62741000  1.0
  C  C42  1  0.90984000  0.01559000  0.64314000  1.0
  C  C43  1  0.94214000  0.93048000  0.71586000  1.0
  C  C44  1  0.10702000  0.99087000  0.77099000  1.0
  C  C45  1  0.01422000  0.25791000  0.55309000  1.0
  C  C46  1  0.51310000  0.03432000  0.56984000  1.0
  C  C47  1  0.46029000  0.45259000  0.43029000  1.0
  N  N48  1  0.28592000  0.75668000  0.07037000  1.0
  N  N49  1  0.76268000  0.87293000  0.24457000  1.0
  N  N50  1  0.71407000  0.24329000  0.92963000  1.0
  N  N51  1  0.23731000  0.12706000  0.75542000  1.0
  O  O52  1  0.41538000  0.80738000  0.38519000  1.0
  O  O53  1  0.20796000  0.67649000  0.69508000  1.0
  O  O54  1  0.92935000  0.51066000  0.67215000  1.0
  O  O55  1  0.13609000  0.78646000  0.48613000  1.0
  O  O56  1  0.85768000  0.62097000  0.46214000  1.0
  O  O57  1  0.49940000  0.65007000  0.61858000  1.0
  O  O58  1  0.63828000  0.51477000  0.62315000  1.0
  O  O59  1  0.53821000  0.07018000  0.37072000  1.0
  O  O60  1  0.58466000  0.19264000  0.61482000  1.0
  O  O61  1  0.79207000  0.32354000  0.30493000  1.0
  O  O62  1  0.07068000  0.48938000  0.32785000  1.0
  O  O63  1  0.86392000  0.21357000  0.51388000  1.0
  O  O64  1  0.14233000  0.37904000  0.53784000  1.0
  O  O65  1  0.50057000  0.34991000  0.38144000  1.0
  O  O66  1  0.36173000  0.48525000  0.37686000  1.0
  O  O67  1  0.46183000  0.92983000  0.62929000  1.0
