# generated using pymatgen
data_MnH8C13NO5
_symmetry_space_group_name_H-M   'P 1'
_cell_length_a   12.56280000
_cell_length_b   12.57310000
_cell_length_c   13.72685730
_cell_angle_alpha   115.06702503
_cell_angle_beta   113.05120856
_cell_angle_gamma   96.20420000
_symmetry_Int_Tables_number   1
_chemical_formula_structural   MnH8C13NO5
_chemical_formula_sum   'Mn4 H32 C52 N4 O20'
_cell_volume   1706.75741524
_cell_formula_units_Z   4
loop_
 _symmetry_equiv_pos_site_id
 _symmetry_equiv_pos_as_xyz
  1  'x, y, z'
loop_
 _atom_site_type_symbol
 _atom_site_label
 _atom_site_symmetry_multiplicity
 _atom_site_fract_x
 _atom_site_fract_y
 _atom_site_fract_z
 _atom_site_occupancy
  Mn  Mn0  1  0.50000000  0.00000000  0.50000000  1.0
  Mn  Mn1  1  0.50000000  0.50000000  0.00000000  1.0
  Mn  Mn2  1  0.43769000  0.68866000  0.24980000  1.0
  Mn  Mn3  1  0.56231000  0.31134000  0.75020000  1.0
  H  H4  1  0.47231000  0.85487000  0.73073000  1.0
  H  H5  1  0.12235000  0.24045000  0.76686000  1.0
  H  H6  1  0.52771000  0.14514000  0.26928000  1.0
  H  H7  1  0.87765000  0.75955000  0.23314000  1.0
  H  H8  1  0.46910000  0.73737000  0.83941000  1.0
  H  H9  1  0.89673000  0.12771000  0.66005000  1.0
  H  H10  1  0.53091000  0.26263000  0.16059000  1.0
  H  H11  1  0.10327000  0.87230000  0.33995000  1.0
  H  H12  1  0.36081000  0.39445000  0.50890000  1.0
  H  H13  1  0.88527000  0.35174000  0.99090000  1.0
  H  H14  1  0.63919000  0.60555000  0.49110000  1.0
  H  H15  1  0.11474000  0.64826000  0.00911000  1.0
  H  H16  1  0.35478000  0.51016000  0.39734000  1.0
  H  H17  1  0.11210000  0.45812000  0.10080000  1.0
  H  H18  1  0.64521000  0.48985000  0.60266000  1.0
  H  H19  1  0.88790000  0.54187000  0.89920000  1.0
  H  H20  1  0.28159000  0.20964000  0.51562000  1.0
  H  H21  1  0.69433000  0.26660000  0.98541000  1.0
  H  H22  1  0.71842000  0.79037000  0.48439000  1.0
  H  H23  1  0.30567000  0.73340000  0.01459000  1.0
  H  H24  1  0.06126000  0.15475000  0.45701000  1.0
  H  H25  1  0.69781000  0.10453000  0.04355000  1.0
  H  H26  1  0.93875000  0.84526000  0.54300000  1.0
  H  H27  1  0.30219000  0.89547000  0.95645000  1.0
  H  H28  1  0.11648000  0.89510000  0.58853000  1.0
  H  H29  1  0.30663000  0.02797000  0.91140000  1.0
  H  H30  1  0.88352000  0.10488000  0.41146000  1.0
  H  H31  1  0.69336000  0.97204000  0.08860000  1.0
  H  H32  1  0.33452000  0.96147000  0.63871000  1.0
  H  H33  1  0.32282000  0.19598000  0.86137000  1.0
  H  H34  1  0.66548000  0.03853000  0.36129000  1.0
  H  H35  1  0.67717000  0.80402000  0.13863000  1.0
  C  C36  1  0.42116000  0.75712000  0.49187000  1.0
  C  C37  1  0.26374000  0.42988000  0.00523000  1.0
  C  C38  1  0.57884000  0.24288000  0.50813000  1.0
  C  C39  1  0.73626000  0.57012000  0.99477000  1.0
  C  C40  1  0.41250000  0.68893000  0.55700000  1.0
  C  C41  1  0.13076000  0.35536000  0.94084000  1.0
  C  C42  1  0.58749000  0.31107000  0.44300000  1.0
  C  C43  1  0.86924000  0.64463000  0.05916000  1.0
  C  C44  1  0.44407000  0.75360000  0.68180000  1.0
  C  C45  1  0.07044000  0.26151000  0.81638000  1.0
  C  C46  1  0.55593000  0.24641000  0.31820000  1.0
  C  C47  1  0.92956000  0.73849000  0.18362000  1.0
  C  C48  1  0.44325000  0.68887000  0.74247000  1.0
  C  C49  1  0.94532000  0.19945000  0.75669000  1.0
  C  C50  1  0.55675000  0.31113000  0.25753000  1.0
  C  C51  1  0.05468000  0.80055000  0.24331000  1.0
  C  C52  1  0.41387000  0.55928000  0.68086000  1.0
  C  C53  1  0.87772000  0.23177000  0.81888000  1.0
  C  C54  1  0.58613000  0.44073000  0.31914000  1.0
  C  C55  1  0.12228000  0.76822000  0.18112000  1.0
  C  C56  1  0.38073000  0.49479000  0.55580000  1.0
  C  C57  1  0.93845000  0.32454000  0.94359000  1.0
  C  C58  1  0.61927000  0.50522000  0.44420000  1.0
  C  C59  1  0.06155000  0.67545000  0.05641000  1.0
  C  C60  1  0.37844000  0.55879000  0.49398000  1.0
  C  C61  1  0.06403000  0.38459000  0.00445000  1.0
  C  C62  1  0.62155000  0.44120000  0.50601000  1.0
  C  C63  1  0.93597000  0.61540000  0.99555000  1.0
  C  C64  1  0.42644000  0.49200000  0.75030000  1.0
  C  C65  1  0.74127000  0.17380000  0.75027000  1.0
  C  C66  1  0.57355000  0.50799000  0.24969000  1.0
  C  C67  1  0.25874000  0.82620000  0.24974000  1.0
  C  C68  1  0.23736000  0.14105000  0.52795000  1.0
  C  C69  1  0.61333000  0.20983000  0.97283000  1.0
  C  C70  1  0.76265000  0.85896000  0.47206000  1.0
  C  C71  1  0.38667000  0.79017000  0.02717000  1.0
  C  C72  1  0.11607000  0.10872000  0.49789000  1.0
  C  C73  1  0.61094000  0.11846000  0.00269000  1.0
  C  C74  1  0.88393000  0.89128000  0.50211000  1.0
  C  C75  1  0.38906000  0.88155000  0.99731000  1.0
  C  C76  1  0.06458000  0.01888000  0.51756000  1.0
  C  C77  1  0.50137000  0.04718000  0.98258000  1.0
  C  C78  1  0.93541000  0.98111000  0.48243000  1.0
  C  C79  1  0.49864000  0.95283000  0.01743000  1.0
  C  C80  1  0.14682000  0.96646000  0.57124000  1.0
  C  C81  1  0.39532000  0.07573000  0.92895000  1.0
  C  C82  1  0.85318000  0.03354000  0.42876000  1.0
  C  C83  1  0.60469000  0.92428000  0.07105000  1.0
  C  C84  1  0.26819000  0.00134000  0.60146000  1.0
  C  C85  1  0.39998000  0.16698000  0.89889000  1.0
  C  C86  1  0.73187333  0.99866000  0.39854000  1.0
  C  C87  1  0.60002000  0.83302000  0.10111000  1.0
  N  N88  1  0.31278000  0.08877000  0.58076000  1.0
  N  N89  1  0.50822000  0.23232000  0.91986000  1.0
  N  N90  1  0.68722000  0.91122000  0.41924000  1.0
  N  N91  1  0.49177000  0.76768000  0.08014000  1.0
  O  O92  1  0.46402000  0.87585000  0.55613000  1.0
  O  O93  1  0.31809000  0.40853000  0.94062000  1.0
  O  O94  1  0.53598000  0.12415000  0.44387000  1.0
  O  O95  1  0.68191000  0.59148000  0.05938000  1.0
  O  O96  1  0.38635000  0.69189000  0.37770000  1.0
  O  O97  1  0.31230000  0.50979000  0.11905000  1.0
  O  O98  1  0.61365000  0.30811000  0.62230000  1.0
  O  O99  1  0.68771000  0.49022000  0.88095000  1.0
  O  O100  1  0.44214000  0.54973000  0.85885000  1.0
  O  O101  1  0.69061000  0.07988000  0.64255000  1.0
  O  O102  1  0.55785000  0.45026000  0.14114000  1.0
  O  O103  1  0.30939000  0.92012000  0.35745000  1.0
  O  O104  1  0.42319000  0.37898000  0.69501000  1.0
  O  O105  1  0.68330000  0.22611000  0.80539000  1.0
  O  O106  1  0.57681000  0.62102000  0.30499000  1.0
  O  O107  1  0.31671000  0.77390000  0.19462000  1.0
  O  O108  1  0.43062000  0.12227000  0.61176000  1.0
  O  O109  1  0.51096000  0.31916000  0.88881000  1.0
  O  O110  1  0.56940000  0.87774000  0.38825000  1.0
  O  O111  1  0.48904000  0.68084000  0.11118000  1.0
