# generated using pymatgen
data_TbAgH15C25(N3O4)2
_symmetry_space_group_name_H-M   'P 1'
_cell_length_a   9.70196000
_cell_length_b   12.15670000
_cell_length_c   12.37230000
_cell_angle_alpha   60.88640000
_cell_angle_beta   76.88290000
_cell_angle_gamma   82.43620000
_symmetry_Int_Tables_number   1
_chemical_formula_structural   TbAgH15C25(N3O4)2
_chemical_formula_sum   'Tb2 Ag2 H30 C50 N12 O16'
_cell_volume   1241.22211830
_cell_formula_units_Z   2
loop_
 _symmetry_equiv_pos_site_id
 _symmetry_equiv_pos_as_xyz
  1  'x, y, z'
loop_
 _atom_site_type_symbol
 _atom_site_label
 _atom_site_symmetry_multiplicity
 _atom_site_fract_x
 _atom_site_fract_y
 _atom_site_fract_z
 _atom_site_occupancy
  Tb  Tb0  1  0.82733000  0.01885000  0.92869000  1.0
  Tb  Tb1  1  0.17267000  0.98115000  0.07131000  1.0
  Ag  Ag2  1  0.51507000  0.34237000  0.36919000  1.0
  Ag  Ag3  1  0.48493000  0.65763000  0.63081000  1.0
  H  H4  1  0.88751000  0.46960000  0.78917000  1.0
  H  H5  1  0.11249000  0.53040000  0.21083000  1.0
  H  H6  1  0.83441000  0.67383000  0.79717000  1.0
  H  H7  1  0.16559000  0.32617000  0.20283000  1.0
  H  H8  1  0.62153000  0.26642000  0.15315000  1.0
  H  H9  1  0.37847000  0.73358000  0.84685000  1.0
  H  H10  1  0.50177000  0.66977000  0.17668000  1.0
  H  H11  1  0.49823000  0.33023000  0.82332000  1.0
  H  H12  1  0.95078000  0.79132000  0.35512000  1.0
  H  H13  1  0.04922000  0.20867000  0.64488000  1.0
  H  H14  1  0.89029000  0.61541000  0.57407000  1.0
  H  H15  1  0.10971000  0.38459000  0.42593000  1.0
  H  H16  1  0.77245000  0.59944000  0.20576000  1.0
  H  H17  1  0.22755000  0.40056000  0.79424000  1.0
  H  H18  1  0.63828000  0.24280000  0.64516000  1.0
  H  H19  1  0.36172000  0.75720000  0.35484000  1.0
  H  H20  1  0.10301000  0.84396000  0.51230000  1.0
  H  H21  1  0.89699000  0.15604000  0.48770000  1.0
  H  H22  1  0.14438000  0.82869000  0.71261000  1.0
  H  H23  1  0.85562000  0.17131000  0.28739000  1.0
  H  H24  1  0.36171000  0.17188000  0.28623000  1.0
  H  H25  1  0.63829000  0.82812000  0.71377000  1.0
  H  H26  1  0.44333000  0.15346000  0.68270000  1.0
  H  H27  1  0.55667000  0.84654000  0.31730000  1.0
  H  H28  1  0.66490000  0.76752000  0.95731000  1.0
  H  H29  1  0.33510000  0.23248000  0.04269000  1.0
  H  H30  1  0.77131000  0.36007000  0.70538000  1.0
  H  H31  1  0.22869000  0.63993000  0.29462000  1.0
  H  H32  1  0.29239000  0.95874000  0.79326000  1.0
  H  H33  1  0.70761000  0.04126000  0.20674000  1.0
  C  C34  1  0.77855000  0.24459000  0.95259000  1.0
  C  C35  1  0.22146000  0.75541000  0.04741000  1.0
  C  C36  1  0.75448000  0.35922000  0.96805000  1.0
  C  C37  1  0.24552000  0.64078000  0.03194000  1.0
  C  C38  1  0.81556000  0.47315000  0.86903000  1.0
  C  C39  1  0.18444000  0.52685000  0.13097000  1.0
  C  C40  1  0.78730000  0.58611000  0.87295000  1.0
  C  C41  1  0.21270000  0.41388000  0.12705000  1.0
  C  C42  1  0.69451000  0.58180000  0.97947000  1.0
  C  C43  1  0.30549000  0.41820000  0.02053000  1.0
  C  C44  1  0.63786000  0.46739000  0.08198000  1.0
  C  C45  1  0.36214000  0.53261000  0.91802000  1.0
  C  C46  1  0.66755000  0.35454000  0.07692000  1.0
  C  C47  1  0.33245000  0.64546000  0.92308000  1.0
  C  C48  1  0.55638000  0.61715000  0.12878000  1.0
  C  C49  1  0.44362000  0.38285000  0.87122000  1.0
  C  C50  1  0.90198000  0.80866000  0.14093000  1.0
  C  C51  1  0.09802000  0.19134000  0.85907000  1.0
  C  C52  1  0.86366000  0.70399000  0.27015000  1.0
  C  C53  1  0.13634000  0.29601000  0.72985000  1.0
  C  C54  1  0.89594000  0.70976000  0.37322000  1.0
  C  C55  1  0.10406000  0.29024000  0.62678000  1.0
  C  C56  1  0.86212000  0.61240000  0.49520000  1.0
  C  C57  1  0.13788000  0.38760000  0.50480000  1.0
  C  C58  1  0.79046000  0.51094000  0.51205000  1.0
  C  C59  1  0.20954000  0.48906000  0.48795000  1.0
  C  C60  1  0.75176000  0.50652000  0.40985000  1.0
  C  C61  1  0.24824000  0.49348000  0.59015000  1.0
  C  C62  1  0.79267000  0.60217000  0.28722000  1.0
  C  C63  1  0.20733000  0.39783000  0.71278000  1.0
  C  C64  1  0.68057000  0.33510000  0.57831000  1.0
  C  C65  1  0.31943000  0.66489000  0.42169000  1.0
  C  C66  1  0.20133000  0.00972000  0.27599000  1.0
  C  C67  1  0.79868000  0.99028000  0.72401000  1.0
  C  C68  1  0.22909000  0.00786000  0.39008000  1.0
  C  C69  1  0.77091000  0.99215000  0.60991000  1.0
  C  C70  1  0.16843000  0.91168000  0.50975000  1.0
  C  C71  1  0.83157000  0.08832000  0.49025000  1.0
  C  C72  1  0.19129000  0.90254000  0.62056000  1.0
  C  C73  1  0.80871000  0.09746000  0.37944000  1.0
  C  C74  1  0.27666000  0.99363000  0.60829000  1.0
  C  C75  1  0.72334000  0.00638000  0.39170000  1.0
  C  C76  1  0.33760000  0.09143000  0.48914000  1.0
  C  C77  1  0.66240000  0.90857000  0.51086000  1.0
  C  C78  1  0.31465000  0.09863000  0.37860000  1.0
  C  C79  1  0.68535000  0.90137000  0.62140000  1.0
  C  C80  1  0.40049000  0.11681000  0.63320000  1.0
  C  C81  1  0.59950000  0.88319000  0.36680000  1.0
  C  C82  1  0.49300000  0.05891000  0.93633000  1.0
  C  C83  1  0.50700000  0.94109000  0.06368000  1.0
  N  N84  1  0.63907000  0.67390000  0.01231000  1.0
  N  N85  1  0.36093000  0.32610000  0.98769000  1.0
  N  N86  1  0.55335000  0.49287000  0.17485000  1.0
  N  N87  1  0.44665000  0.50712000  0.82515000  1.0
  N  N88  1  0.74359000  0.40016000  0.61714000  1.0
  N  N89  1  0.25641000  0.59984000  0.38286000  1.0
  N  N90  1  0.68035000  0.39534000  0.45562000  1.0
  N  N91  1  0.31965000  0.60466000  0.54438000  1.0
  N  N92  1  0.41472000  0.16718000  0.50878000  1.0
  N  N93  1  0.58528000  0.83282000  0.49122000  1.0
  N  N94  1  0.31999000  0.01275000  0.69622000  1.0
  N  N95  1  0.68001000  0.98725000  0.30378000  1.0
  O  O96  1  0.82507000  0.25419000  0.84308000  1.0
  O  O97  1  0.17493000  0.74581000  0.15692000  1.0
  O  O98  1  0.75136000  0.13505000  0.04679000  1.0
  O  O99  1  0.24864000  0.86495000  0.95321000  1.0
  O  O100  1  0.93518000  0.91664000  0.12559000  1.0
  O  O101  1  0.06482000  0.08336000  0.87441000  1.0
  O  O102  1  0.89461000  0.79890000  0.04484000  1.0
  O  O103  1  0.10540000  0.20110000  0.95516000  1.0
  O  O104  1  0.25529000  0.09365000  0.16507000  1.0
  O  O105  1  0.74471000  0.90635000  0.83493000  1.0
  O  O106  1  0.12494000  0.92468000  0.28817000  1.0
  O  O107  1  0.87506000  0.07532000  0.71183000  1.0
  O  O108  1  0.60587000  0.11370000  0.86535000  1.0
  O  O109  1  0.39413000  0.88630000  0.13465000  1.0
  O  O110  1  0.36955000  0.09248000  0.91282000  1.0
  O  O111  1  0.63045000  0.90752000  0.08718000  1.0
