# generated using pymatgen
data_CdH10C2S(N5O3)2
_symmetry_space_group_name_H-M   'P 1'
_cell_length_a   11.24710000
_cell_length_b   11.36280000
_cell_length_c   12.26430019
_cell_angle_alpha   103.05627990
_cell_angle_beta   109.24580896
_cell_angle_gamma   111.84500000
_symmetry_Int_Tables_number   1
_chemical_formula_structural   CdH10C2S(N5O3)2
_chemical_formula_sum   'Cd4 H40 C8 S4 N40 O24'
_cell_volume   1260.18380090
_cell_formula_units_Z   4
loop_
 _symmetry_equiv_pos_site_id
 _symmetry_equiv_pos_as_xyz
  1  'x, y, z'
loop_
 _atom_site_type_symbol
 _atom_site_label
 _atom_site_symmetry_multiplicity
 _atom_site_fract_x
 _atom_site_fract_y
 _atom_site_fract_z
 _atom_site_occupancy
  Cd  Cd0  1  0.38934000  0.26074000  0.58698000  1.0
  Cd  Cd1  1  0.17377000  0.80382000  0.91202000  1.0
  Cd  Cd2  1  0.61065000  0.73925000  0.41301000  1.0
  Cd  Cd3  1  0.82623000  0.19618000  0.08798000  1.0
  H  H4  1  0.15290000  0.05432000  0.57958000  1.0
  H  H5  1  0.97572000  0.57810000  0.92655000  1.0
  H  H6  1  0.84710000  0.94567000  0.42042000  1.0
  H  H7  1  0.02428000  0.42190000  0.07345000  1.0
  H  H8  1  0.50292000  0.38879000  0.43547000  1.0
  H  H9  1  0.44799000  0.06397000  0.06414000  1.0
  H  H10  1  0.49708000  0.61121000  0.56453000  1.0
  H  H11  1  0.55201000  0.93603000  0.93586000  1.0
  H  H12  1  0.11588000  0.17472000  0.56149000  1.0
  H  H13  1  0.11601000  0.56074000  0.94525000  1.0
  H  H14  1  0.88411000  0.82527000  0.43850000  1.0
  H  H15  1  0.88399000  0.43926000  0.05475000  1.0
  H  H16  1  0.64229000  0.45925000  0.56712000  1.0
  H  H17  1  0.39157000  0.08221000  0.93592000  1.0
  H  H18  1  0.35771000  0.54075000  0.43288000  1.0
  H  H19  1  0.60843000  0.91779000  0.06408000  1.0
  H  H20  1  0.52276000  0.69012000  0.97975000  1.0
  H  H21  1  0.21190000  0.54266000  0.51713000  1.0
  H  H22  1  0.47724000  0.30988000  0.02025000  1.0
  H  H23  1  0.78809000  0.45734000  0.48287000  1.0
  H  H24  1  0.30203000  0.44912000  0.91945000  1.0
  H  H25  1  0.03275000  0.38775000  0.58643000  1.0
  H  H26  1  0.69797000  0.55088000  0.08055000  1.0
  H  H27  1  0.96725000  0.61225000  0.41357000  1.0
  H  H28  1  0.26214000  0.30696000  0.79132000  1.0
  H  H29  1  0.01821000  0.47711000  0.71591000  1.0
  H  H30  1  0.73786000  0.69304000  0.20868000  1.0
  H  H31  1  0.98178000  0.52288000  0.28408000  1.0
  H  H32  1  0.27126000  0.75901000  0.29832000  1.0
  H  H33  1  0.96141000  0.97711000  0.20851000  1.0
  H  H34  1  0.72874000  0.24099000  0.70168000  1.0
  H  H35  1  0.03859000  0.02289000  0.79149000  1.0
  H  H36  1  0.49906000  0.13645000  0.38040000  1.0
  H  H37  1  0.25658000  0.11290000  0.11585000  1.0
  H  H38  1  0.50094000  0.86356000  0.61961000  1.0
  H  H39  1  0.74342000  0.88710000  0.88415000  1.0
  H  H40  1  0.43251000  0.97202000  0.26944000  1.0
  H  H41  1  0.20293000  0.16029000  0.22911000  1.0
  H  H42  1  0.56750000  0.02799000  0.73057000  1.0
  H  H43  1  0.79707000  0.83971000  0.77089000  1.0
  C  C44  1  0.41491000  0.49384000  0.82147000  1.0
  C  C45  1  0.17304000  0.59398000  0.67837000  1.0
  C  C46  1  0.58508000  0.50615000  0.17852000  1.0
  C  C47  1  0.82696000  0.40603000  0.32163000  1.0
  C  C48  1  0.34552000  0.97377000  0.38945000  1.0
  C  C49  1  0.08485000  0.95788000  0.11261000  1.0
  C  C50  1  0.65449000  0.02624000  0.61056000  1.0
  C  C51  1  0.91515000  0.04212000  0.88739000  1.0
  S  S52  1  0.60107000  0.26635000  0.87416000  1.0
  S  S53  1  0.89120000  0.72526000  0.62431000  1.0
  S  S54  1  0.39893000  0.73365000  0.12584000  1.0
  S  S55  1  0.10880000  0.27474000  0.37569000  1.0
  N  N56  1  0.43539000  0.46407000  0.71825000  1.0
  N  N57  1  0.24484000  0.71554000  0.77939000  1.0
  N  N58  1  0.56461000  0.53593000  0.28175000  1.0
  N  N59  1  0.75516000  0.28445000  0.22061000  1.0
  N  N60  1  0.53716000  0.58468000  0.72863000  1.0
  N  N61  1  0.35327000  0.80404000  0.76398000  1.0
  N  N62  1  0.46283000  0.41531000  0.27136000  1.0
  N  N63  1  0.64673000  0.19596000  0.23602000  1.0
  N  N64  1  0.57884000  0.68442000  0.83123000  1.0
  N  N65  1  0.35115000  0.74340000  0.66057000  1.0
  N  N66  1  0.42117000  0.31558000  0.16877000  1.0
  N  N67  1  0.64885000  0.25660000  0.33943000  1.0
  N  N68  1  0.50518000  0.63082000  0.89135000  1.0
  N  N69  1  0.23983000  0.61283000  0.60494000  1.0
  N  N70  1  0.49480000  0.36917000  0.10864000  1.0
  N  N71  1  0.76017000  0.38717000  0.39506000  1.0
  N  N72  1  0.32500000  0.40851000  0.85088000  1.0
  N  N73  1  0.06035000  0.47805000  0.65401000  1.0
  N  N74  1  0.67500000  0.59149000  0.14912000  1.0
  N  N75  1  0.93965000  0.52195000  0.34599000  1.0
  N  N76  1  0.31217000  0.03598000  0.47276000  1.0
  N  N77  1  0.06409000  0.84285000  0.02996000  1.0
  N  N78  1  0.68783000  0.96403000  0.52725000  1.0
  N  N79  1  0.93591000  0.15715000  0.97004000  1.0
  N  N80  1  0.20864000  0.93410000  0.48240000  1.0
  N  N81  1  0.95263000  0.73354000  0.02392000  1.0
  N  N82  1  0.79136000  0.06590000  0.51760000  1.0
  N  N83  1  0.04737000  0.26646000  0.97608000  1.0
  N  N84  1  0.17727000  0.81375000  0.41071000  1.0
  N  N85  1  0.90374000  0.77481000  0.09730000  1.0
  N  N86  1  0.82273000  0.18626000  0.58930000  1.0
  N  N87  1  0.09626000  0.22519000  0.90270000  1.0
  N  N88  1  0.26129000  0.83578000  0.35089000  1.0
  N  N89  1  0.98516000  0.91508000  0.15442000  1.0
  N  N90  1  0.73872000  0.16423000  0.64912000  1.0
  N  N91  1  0.01485000  0.08492000  0.84558000  1.0
  N  N92  1  0.44174000  0.03185000  0.35138000  1.0
  N  N93  1  0.18080000  0.08832000  0.14709000  1.0
  N  N94  1  0.55827000  0.96816000  0.64863000  1.0
  N  N95  1  0.81920000  0.91169000  0.85291000  1.0
  O  O96  1  0.46132000  0.21944000  0.88012000  1.0
  O  O97  1  0.83935000  0.58313000  0.62255000  1.0
  O  O98  1  0.53868000  0.78056000  0.11988000  1.0
  O  O99  1  0.16065000  0.41687000  0.37745000  1.0
  O  O100  1  0.58045000  0.26650000  0.74702000  1.0
  O  O101  1  0.01739000  0.82943000  0.74883000  1.0
  O  O102  1  0.41954000  0.73351000  0.25298000  1.0
  O  O103  1  0.98260000  0.17057000  0.25116000  1.0
  O  O104  1  0.70885000  0.40683000  0.97333000  1.0
  O  O105  1  0.93190000  0.73191000  0.52136000  1.0
  O  O106  1  0.29115000  0.59317000  0.02667000  1.0
  O  O107  1  0.06810000  0.26809000  0.47864000  1.0
  O  O108  1  0.65503000  0.16606000  0.89145000  1.0
  O  O109  1  0.77443000  0.76376000  0.60911000  1.0
  O  O110  1  0.34497000  0.83394000  0.10855000  1.0
  O  O111  1  0.22557000  0.23624000  0.39089000  1.0
  O  O112  1  0.54705000  0.37597000  0.51292000  1.0
  O  O113  1  0.36006000  0.03533000  0.98811000  1.0
  O  O114  1  0.45294000  0.62402000  0.48707000  1.0
  O  O115  1  0.63994000  0.96468000  0.01189000  1.0
  O  O116  1  0.17729000  0.15076000  0.62217000  1.0
  O  O117  1  0.03175000  0.56096000  0.88396000  1.0
  O  O118  1  0.82271000  0.84924000  0.37783000  1.0
  O  O119  1  0.96826000  0.43904000  0.11604000  1.0
