# generated using pymatgen
data_ScH4C8O5
_symmetry_space_group_name_H-M   'P 1'
_cell_length_a   12.51450000
_cell_length_b   12.58450068
_cell_length_c   12.59795746
_cell_angle_alpha   75.71852906
_cell_angle_beta   60.23864481
_cell_angle_gamma   60.19755125
_symmetry_Int_Tables_number   1
_chemical_formula_structural   ScH4C8O5
_chemical_formula_sum   'Sc4 H16 C32 O20'
_cell_volume   1494.55305885
_cell_formula_units_Z   4
loop_
 _symmetry_equiv_pos_site_id
 _symmetry_equiv_pos_as_xyz
  1  'x, y, z'
loop_
 _atom_site_type_symbol
 _atom_site_label
 _atom_site_symmetry_multiplicity
 _atom_site_fract_x
 _atom_site_fract_y
 _atom_site_fract_z
 _atom_site_occupancy
  Sc  Sc0  1  0.18374000  0.63127000  0.99998000  1.0
  Sc  Sc1  1  0.81757000  0.36376000  0.00002000  1.0
  Sc  Sc2  1  0.56663000  0.49760000  0.86751000  1.0
  Sc  Sc3  1  0.93413000  0.49780000  0.13293000  1.0
  H  H4  1  0.23619000  0.56307000  0.31214000  1.0
  H  H5  1  0.11139000  0.43972000  0.68784000  1.0
  H  H6  1  0.55122000  0.81014000  0.93687000  1.0
  H  H7  1  0.29993000  0.18518000  0.06437000  1.0
  H  H8  1  0.63695000  0.81072000  0.06492000  1.0
  H  H9  1  0.51531000  0.18460000  0.93416000  1.0
  H  H10  1  0.44852000  0.43770000  0.31266000  1.0
  H  H11  1  0.19943000  0.56436000  0.68724000  1.0
  H  H12  1  0.87679000  0.50071000  0.50113000  1.0
  H  H13  1  0.12884000  0.99730000  0.00109000  1.0
  H  H14  1  0.87360000  0.99741000  0.99827000  1.0
  H  H15  1  0.62205000  0.49915000  0.49926000  1.0
  H  H16  1  0.37555000  0.43623000  0.05435000  1.0
  H  H17  1  0.56039000  0.53737000  0.07125000  1.0
  H  H18  1  0.18366000  0.44010000  0.94209000  1.0
  H  H19  1  0.89307000  0.54262000  0.93278000  1.0
  C  C20  1  0.04381000  0.55763000  0.27859000  1.0
  C  C21  1  0.16793000  0.53421000  0.39513000  1.0
  C  C22  1  0.05778000  0.53145000  0.39453000  1.0
  C  C23  1  0.88044000  0.44315000  0.72272000  1.0
  C  C24  1  0.09620000  0.46881000  0.60537000  1.0
  C  C25  1  0.98262000  0.47093000  0.60678000  1.0
  C  C26  1  0.35397000  0.77608000  0.94089000  1.0
  C  C27  1  0.45358000  0.89276000  0.96641000  1.0
  C  C28  1  0.34104000  0.89172000  0.96888000  1.0
  C  C29  1  0.07198000  0.21872000  0.06197000  1.0
  C  C30  1  0.31462000  0.10265000  0.03441000  1.0
  C  C31  1  0.20327000  0.10346000  0.03256000  1.0
  C  C32  1  0.86864000  0.77659000  0.06018000  1.0
  C  C33  1  0.65252000  0.89308000  0.03456000  1.0
  C  C34  1  0.76624000  0.89207000  0.03177000  1.0
  C  C35  1  0.70991000  0.21837000  0.93611000  1.0
  C  C36  1  0.58276000  0.10239000  0.96474000  1.0
  C  C37  1  0.69339000  0.10329000  0.96635000  1.0
  C  C38  1  0.67648000  0.44069000  0.27783000  1.0
  C  C39  1  0.43459000  0.46741000  0.39485000  1.0
  C  C40  1  0.54620000  0.46908000  0.39358000  1.0
  C  C41  1  0.39745000  0.55803000  0.72128000  1.0
  C  C42  1  0.29689000  0.53451000  0.60462000  1.0
  C  C43  1  0.40988000  0.53126000  0.60545000  1.0
  C  C44  1  0.18955000  0.50166000  0.50009000  1.0
  C  C45  1  0.96379000  0.50106000  0.50085000  1.0
  C  C46  1  0.44158000  0.99781000  0.00024000  1.0
  C  C47  1  0.21586000  0.99752000  0.00082000  1.0
  C  C48  1  0.56002000  0.99782000  0.99995000  1.0
  C  C49  1  0.78624000  0.99761000  0.99880000  1.0
  C  C50  1  0.30803000  0.50138000  0.49982000  1.0
  C  C51  1  0.53461000  0.49985000  0.49939000  1.0
  O  O52  1  0.11211000  0.60963000  0.19232000  1.0
  O  O53  1  0.96698000  0.52340000  0.27219000  1.0
  O  O54  1  0.91542000  0.39205000  0.80868000  1.0
  O  O55  1  0.76346000  0.47481000  0.72963000  1.0
  O  O56  1  0.47430000  0.69000000  0.88850000  1.0
  O  O57  1  0.24316000  0.76961000  0.97401000  1.0
  O  O58  1  0.05533000  0.30494000  0.11317000  1.0
  O  O59  1  0.98614000  0.22459000  0.03142000  1.0
  O  O60  1  0.83423000  0.69061000  0.11290000  1.0
  O  O61  1  0.98594000  0.77019000  0.02684000  1.0
  O  O62  1  0.64013000  0.30446000  0.88502000  1.0
  O  O63  1  0.79033000  0.22427000  0.96603000  1.0
  O  O64  1  0.69285000  0.38928000  0.19192000  1.0
  O  O65  1  0.76172000  0.47241000  0.27101000  1.0
  O  O66  1  0.27700000  0.61025000  0.80736000  1.0
  O  O67  1  0.50838000  0.52402000  0.72776000  1.0
  O  O68  1  0.12005000  0.50355000  0.00416000  1.0
  O  O69  1  0.62883000  0.48841000  0.99767000  1.0
  O  O70  1  0.37532000  0.50228000  0.99515000  1.0
  O  O71  1  0.87848000  0.49029000  0.00423000  1.0
