# generated using pymatgen
data_K2NaH5C6O7
_symmetry_space_group_name_H-M   'P 1'
_cell_length_a   5.52829000
_cell_length_b   7.59924000
_cell_length_c   11.33120000
_cell_angle_alpha   82.57900000
_cell_angle_beta   88.85720000
_cell_angle_gamma   83.88680000
_symmetry_Int_Tables_number   1
_chemical_formula_structural   K2NaH5C6O7
_chemical_formula_sum   'K4 Na2 H10 C12 O14'
_cell_volume   469.35193635
_cell_formula_units_Z   2
loop_
 _symmetry_equiv_pos_site_id
 _symmetry_equiv_pos_as_xyz
  1  'x, y, z'
loop_
 _atom_site_type_symbol
 _atom_site_label
 _atom_site_symmetry_multiplicity
 _atom_site_fract_x
 _atom_site_fract_y
 _atom_site_fract_z
 _atom_site_occupancy
  K  K0  1  0.76141000  0.53580000  0.86463000  1.0
  K  K1  1  0.23858000  0.46421000  0.13536000  1.0
  K  K2  1  0.25528000  0.63988000  0.41326000  1.0
  K  K3  1  0.74470000  0.36012000  0.58674000  1.0
  Na  Na4  1  0.74280000  0.86774000  0.59780000  1.0
  Na  Na5  1  0.25721000  0.13227000  0.40220000  1.0
  H  H6  1  0.27034000  0.69311000  0.87869000  1.0
  H  H7  1  0.72965000  0.30689000  0.12131000  1.0
  H  H8  1  0.00567000  0.81500000  0.81294000  1.0
  H  H9  1  0.99434000  0.18498000  0.18706000  1.0
  H  H10  1  0.25541000  0.98669000  0.96544000  1.0
  H  H11  1  0.74458000  0.01331000  0.03456000  1.0
  H  H12  1  0.03610000  0.10834000  0.86621000  1.0
  H  H13  1  0.96391000  0.89166000  0.13379000  1.0
  H  H14  1  0.63834000  0.02172000  0.81185000  1.0
  H  H15  1  0.36166000  0.97828000  0.18815000  1.0
  C  C16  1  0.23034000  0.66678000  0.69323000  1.0
  C  C17  1  0.76967000  0.33323000  0.30677000  1.0
  C  C18  1  0.19933000  0.77716000  0.79793000  1.0
  C  C19  1  0.80067000  0.22284000  0.20207000  1.0
  C  C20  1  0.32546000  0.94870000  0.78204000  1.0
  C  C21  1  0.67455000  0.05130000  0.21796000  1.0
  C  C22  1  0.23139000  0.06745000  0.87748000  1.0
  C  C23  1  0.76861000  0.93255000  0.12252000  1.0
  C  C24  1  0.36563000  0.23259000  0.88140000  1.0
  C  C25  1  0.63437000  0.76740000  0.11860000  1.0
  C  C26  1  0.26051000  0.05301000  0.65736000  1.0
  C  C27  1  0.73949000  0.94700000  0.34264000  1.0
  O  O28  1  0.03939000  0.61365000  0.65348000  1.0
  O  O29  1  0.96062000  0.38637000  0.34652000  1.0
  O  O30  1  0.44288000  0.63607000  0.65061000  1.0
  O  O31  1  0.55714000  0.36393000  0.34938000  1.0
  O  O32  1  0.25100000  0.36818000  0.91864000  1.0
  O  O33  1  0.74901000  0.63182000  0.08135000  1.0
  O  O34  1  0.59109000  0.22291000  0.85031000  1.0
  O  O35  1  0.40890000  0.77709000  0.14969000  1.0
  O  O36  1  0.03949000  0.06456000  0.62596000  1.0
  O  O37  1  0.96051000  0.93544000  0.37405000  1.0
  O  O38  1  0.42853000  0.11976000  0.59455000  1.0
  O  O39  1  0.57146000  0.88024000  0.40544000  1.0
  O  O40  1  0.58318000  0.90459000  0.79539000  1.0
  O  O41  1  0.41682000  0.09540000  0.20461000  1.0
