# generated using pymatgen
data_MnH19C22N5O4
_symmetry_space_group_name_H-M   'P 1'
_cell_length_a   10.22270000
_cell_length_b   11.36530000
_cell_length_c   11.39489905
_cell_angle_alpha   104.34065144
_cell_angle_beta   109.17585857
_cell_angle_gamma   113.16800000
_symmetry_Int_Tables_number   1
_chemical_formula_structural   MnH19C22N5O4
_chemical_formula_sum   'Mn2 H38 C44 N10 O8'
_cell_volume   1035.66077708
_cell_formula_units_Z   2
loop_
 _symmetry_equiv_pos_site_id
 _symmetry_equiv_pos_as_xyz
  1  'x, y, z'
loop_
 _atom_site_type_symbol
 _atom_site_label
 _atom_site_symmetry_multiplicity
 _atom_site_fract_x
 _atom_site_fract_y
 _atom_site_fract_z
 _atom_site_occupancy
  Mn  Mn0  1  0.55726000  0.37054000  0.40234000  1.0
  Mn  Mn1  1  0.44275000  0.62947000  0.59767000  1.0
  H  H2  1  0.02873000  0.04979000  0.12950000  1.0
  H  H3  1  0.97128000  0.95022000  0.87051000  1.0
  H  H4  1  0.57873000  0.00179000  0.10457000  1.0
  H  H5  1  0.42127000  0.99821000  0.89543000  1.0
  H  H6  1  0.03073000  0.38599000  0.40821000  1.0
  H  H7  1  0.96928000  0.61402000  0.59180000  1.0
  H  H8  1  0.80803000  0.38302000  0.65456000  1.0
  H  H9  1  0.19197000  0.61698000  0.34544000  1.0
  H  H10  1  0.57454000  0.03828000  0.75120000  1.0
  H  H11  1  0.42547000  0.96173000  0.24881000  1.0
  H  H12  1  0.31053000  0.98710000  0.58178000  1.0
  H  H13  1  0.68946000  0.01290000  0.41822000  1.0
  H  H14  1  0.30725000  0.13326000  0.44822000  1.0
  H  H15  1  0.69275000  0.86674000  0.55178000  1.0
  H  H16  1  0.01262000  0.17245000  0.91221000  1.0
  H  H17  1  0.98738000  0.82755000  0.08779000  1.0
  H  H18  1  0.80458000  0.04020000  0.78747000  1.0
  H  H19  1  0.19541000  0.95979000  0.21252000  1.0
  H  H20  1  0.85598000  0.15151000  0.95448000  1.0
  H  H21  1  0.14401000  0.84848000  0.04551000  1.0
  H  H22  1  0.31344000  0.62951000  0.87339000  1.0
  H  H23  1  0.68656000  0.37049000  0.12661000  1.0
  H  H24  1  0.34789000  0.74838000  0.02893000  1.0
  H  H25  1  0.65211000  0.25162000  0.97107000  1.0
  H  H26  1  0.14451000  0.61705000  0.89374000  1.0
  H  H27  1  0.85548000  0.38294000  0.10625000  1.0
  H  H28  1  0.58234000  0.73910000  0.08608000  1.0
  H  H29  1  0.41766000  0.26090000  0.91392000  1.0
  H  H30  1  0.83239000  0.77357000  0.26086000  1.0
  H  H31  1  0.16760000  0.22641000  0.73913000  1.0
  H  H32  1  0.80989000  0.61287000  0.37960000  1.0
  H  H33  1  0.19011000  0.38713000  0.62040000  1.0
  H  H34  1  0.30811000  0.39774000  0.16633000  1.0
  H  H35  1  0.69189000  0.60226000  0.83367000  1.0
  H  H36  1  0.59779000  0.85201000  0.91416000  1.0
  H  H37  1  0.40221000  0.14799000  0.08584000  1.0
  H  H38  1  0.76994000  0.85599000  0.94220000  1.0
  H  H39  1  0.23005000  0.14401000  0.05780000  1.0
  C  C40  1  0.22750000  0.31016000  0.33598000  1.0
  C  C41  1  0.77249000  0.68983000  0.66402000  1.0
  C  C42  1  0.04759000  0.22384000  0.27620000  1.0
  C  C43  1  0.95241000  0.77616000  0.72380000  1.0
  C  C44  1  0.96163000  0.08915000  0.16635000  1.0
  C  C45  1  0.03837000  0.91085000  0.83365000  1.0
  C  C46  1  0.79164000  0.00716000  0.10017000  1.0
  C  C47  1  0.20836000  0.99283000  0.89982000  1.0
  C  C48  1  0.71052000  0.06251000  0.15213000  1.0
  C  C49  1  0.28948000  0.93749000  0.84787000  1.0
  C  C50  1  0.79655000  0.19699000  0.26295000  1.0
  C  C51  1  0.20345000  0.80301000  0.73705000  1.0
  C  C52  1  0.96571000  0.27962000  0.32516000  1.0
  C  C53  1  0.03429000  0.72039000  0.67485000  1.0
  C  C54  1  0.70597000  0.25545000  0.31107000  1.0
  C  C55  1  0.29403000  0.74455000  0.68893000  1.0
  C  C56  1  0.70030000  0.29503000  0.64160000  1.0
  C  C57  1  0.29970000  0.70497000  0.35840000  1.0
  C  C58  1  0.71514000  0.21929000  0.72077000  1.0
  C  C59  1  0.28486000  0.78071000  0.27923000  1.0
  C  C60  1  0.57192000  0.10451000  0.69666000  1.0
  C  C61  1  0.42808000  0.89549000  0.30334000  1.0
  C  C62  1  0.42319000  0.07382000  0.60024000  1.0
  C  C63  1  0.57680000  0.92617000  0.39976000  1.0
  C  C64  1  0.42044000  0.15455000  0.52658000  1.0
  C  C65  1  0.57956000  0.84545000  0.47342000  1.0
  C  C66  1  0.87521000  0.25712000  0.82369000  1.0
  C  C67  1  0.12478000  0.74288000  0.17631000  1.0
  C  C68  1  0.88766000  0.14826000  0.87074000  1.0
  C  C69  1  0.11234000  0.85174000  0.12926000  1.0
  C  C70  1  0.26746000  0.53474000  0.00665000  1.0
  C  C71  1  0.73254000  0.46526000  0.99335000  1.0
  C  C72  1  0.26761000  0.63882000  0.94805000  1.0
  C  C73  1  0.73239000  0.36117000  0.05194000  1.0
  C  C74  1  0.42204000  0.56459000  0.11204000  1.0
  C  C75  1  0.57796000  0.43541000  0.88796000  1.0
  C  C76  1  0.57270000  0.67284000  0.14127000  1.0
  C  C77  1  0.42729000  0.32715000  0.85872000  1.0
  C  C78  1  0.71405000  0.69193000  0.23852000  1.0
  C  C79  1  0.28596000  0.30807000  0.76148000  1.0
  C  C80  1  0.70273000  0.60343000  0.30451000  1.0
  C  C81  1  0.29727000  0.39657000  0.69549000  1.0
  C  C82  1  0.42275000  0.48152000  0.18517000  1.0
  C  C83  1  0.57725000  0.51848000  0.81483000  1.0
  N  N84  1  0.70620000  0.87550000  0.98861000  1.0
  N  N85  1  0.29380000  0.12450000  0.01139000  1.0
  N  N86  1  0.55689000  0.26243000  0.54568000  1.0
  N  N87  1  0.44311000  0.73757000  0.45432000  1.0
  N  N88  1  0.99628000  0.38513000  0.86898000  1.0
  N  N89  1  0.00372000  0.61487000  0.13102000  1.0
  N  N90  1  0.14007000  0.41377000  0.96883000  1.0
  N  N91  1  0.85993000  0.58624000  0.03117000  1.0
  N  N92  1  0.55825000  0.49929000  0.27825000  1.0
  N  N93  1  0.44175000  0.50071000  0.72175000  1.0
  O  O94  1  0.29808000  0.24907000  0.29715000  1.0
  O  O95  1  0.70193000  0.75093000  0.70286000  1.0
  O  O96  1  0.30235000  0.43980000  0.41951000  1.0
  O  O97  1  0.69764000  0.56019000  0.58048000  1.0
  O  O98  1  0.78290000  0.37936000  0.40930000  1.0
  O  O99  1  0.21709000  0.62064000  0.59070000  1.0
  O  O100  1  0.55057000  0.18021000  0.25164000  1.0
  O  O101  1  0.44943000  0.81980000  0.74836000  1.0
