# generated using pymatgen
data_CdH8Au2(C7N3)2
_symmetry_space_group_name_H-M   'P 1'
_cell_length_a   8.94148985
_cell_length_b   8.94169000
_cell_length_c   19.87100000
_cell_angle_alpha   89.99800000
_cell_angle_beta   90.00080004
_cell_angle_gamma   120.00022142
_symmetry_Int_Tables_number   1
_chemical_formula_structural   CdH8Au2(C7N3)2
_chemical_formula_sum   'Cd3 H24 Au6 C42 N18'
_cell_volume   1375.87469363
_cell_formula_units_Z   3
loop_
 _symmetry_equiv_pos_site_id
 _symmetry_equiv_pos_as_xyz
  1  'x, y, z'
loop_
 _atom_site_type_symbol
 _atom_site_label
 _atom_site_symmetry_multiplicity
 _atom_site_fract_x
 _atom_site_fract_y
 _atom_site_fract_z
 _atom_site_occupancy
  Cd  Cd0  1  0.36337000  0.63662000  0.83331000  1.0
  Cd  Cd1  1  0.27330000  0.63665000  0.50000000  1.0
  Cd  Cd2  1  0.36337000  0.72675000  0.16669000  1.0
  H  H3  1  0.61808000  0.99958000  0.90593000  1.0
  H  H4  1  0.38154000  0.38200000  0.57264000  1.0
  H  H5  1  0.00052000  0.61847000  0.23936000  1.0
  H  H6  1  0.38154000  0.99954000  0.42736000  1.0
  H  H7  1  0.61807000  0.61849000  0.09407000  1.0
  H  H8  1  0.00053000  0.38206000  0.76064000  1.0
  H  H9  1  0.63272000  0.27662000  0.94060000  1.0
  H  H10  1  0.64395000  0.36733000  0.60730000  1.0
  H  H11  1  0.72338000  0.35606000  0.27396000  1.0
  H  H12  1  0.64395000  0.27661000  0.39270000  1.0
  H  H13  1  0.63272000  0.35610000  0.05939000  1.0
  H  H14  1  0.72339000  0.36733000  0.72604000  1.0
  H  H15  1  0.36912000  0.30588000  0.92143000  1.0
  H  H16  1  0.93683000  0.63092000  0.58811000  1.0
  H  H17  1  0.69403000  0.06319000  0.25472000  1.0
  H  H18  1  0.93683000  0.30591000  0.41189000  1.0
  H  H19  1  0.36912000  0.06324000  0.07857000  1.0
  H  H20  1  0.69404000  0.63085000  0.74528000  1.0
  H  H21  1  0.11479000  0.06951000  0.86482000  1.0
  H  H22  1  0.95478000  0.88523000  0.53149000  1.0
  H  H23  1  0.93041000  0.04526000  0.19810000  1.0
  H  H24  1  0.95478000  0.06954000  0.46851000  1.0
  H  H25  1  0.11479000  0.04527000  0.13518000  1.0
  H  H26  1  0.93041000  0.88515000  0.80190000  1.0
  Au  Au27  1  0.90203000  0.17881000  0.01361000  1.0
  Au  Au28  1  0.27655000  0.09784000  0.68028000  1.0
  Au  Au29  1  0.82124000  0.72325000  0.34693000  1.0
  Au  Au30  1  0.27656000  0.17872000  0.31972000  1.0
  Au  Au31  1  0.90202000  0.72321000  0.98639000  1.0
  Au  Au32  1  0.82124000  0.09800000  0.65307000  1.0
  C  C33  1  0.08765000  0.35365000  0.95710000  1.0
  C  C34  1  0.26588000  0.91227000  0.62378000  1.0
  C  C35  1  0.64636000  0.73402000  0.29045000  1.0
  C  C36  1  0.26589000  0.35362000  0.37622000  1.0
  C  C37  1  0.08765000  0.73399000  0.04290000  1.0
  C  C38  1  0.64635000  0.91234000  0.70955000  1.0
  C  C39  1  0.71318000  0.70729000  0.93046000  1.0
  C  C40  1  0.99420000  0.28683000  0.59715000  1.0
  C  C41  1  0.29247000  0.00579000  0.26380000  1.0
  C  C42  1  0.99420000  0.70737000  0.40285000  1.0
  C  C43  1  0.71319000  0.00589000  0.06954000  1.0
  C  C44  1  0.29246000  0.28667000  0.73620000  1.0
  C  C45  1  0.51029000  0.02185000  0.89684000  1.0
  C  C46  1  0.51161000  0.48977000  0.56353000  1.0
  C  C47  1  0.97820000  0.48841000  0.23024000  1.0
  C  C48  1  0.51161000  0.02185000  0.43646000  1.0
  C  C49  1  0.51029000  0.48843000  0.10315000  1.0
  C  C50  1  0.97820000  0.48979000  0.76976000  1.0
  C  C51  1  0.51667000  0.17421000  0.91683000  1.0
  C  C52  1  0.65760000  0.48338000  0.58351000  1.0
  C  C53  1  0.82580000  0.34243000  0.25018000  1.0
  C  C54  1  0.65761000  0.17423000  0.41648000  1.0
  C  C55  1  0.51667000  0.34246000  0.08317000  1.0
  C  C56  1  0.82580000  0.48337000  0.74982000  1.0
  C  C57  1  0.37153000  0.19039000  0.90581000  1.0
  C  C58  1  0.81890000  0.62849000  0.57248000  1.0
  C  C59  1  0.80957000  0.18111000  0.23912000  1.0
  C  C60  1  0.81891000  0.19042000  0.42752000  1.0
  C  C61  1  0.37154000  0.18114000  0.09419000  1.0
  C  C62  1  0.80957000  0.62846000  0.76088000  1.0
  C  C63  1  0.22812000  0.05705000  0.87372000  1.0
  C  C64  1  0.82899000  0.77190000  0.54039000  1.0
  C  C65  1  0.94290000  0.17104000  0.20703000  1.0
  C  C66  1  0.82899000  0.05709000  0.45961000  1.0
  C  C67  1  0.22812000  0.17107000  0.12628000  1.0
  C  C68  1  0.94291000  0.77187000  0.79296000  1.0
  C  C69  1  0.23360000  0.91045000  0.85233000  1.0
  C  C70  1  0.67690000  0.76644000  0.51900000  1.0
  C  C71  1  0.08955000  0.32314000  0.18567000  1.0
  C  C72  1  0.67689000  0.91045000  0.48100000  1.0
  C  C73  1  0.23360000  0.32316000  0.14767000  1.0
  C  C74  1  0.08956000  0.76641000  0.81433000  1.0
  N  N75  1  0.19754000  0.45539000  0.92268000  1.0
  N  N76  1  0.25782000  0.80242000  0.58937000  1.0
  N  N77  1  0.54462000  0.74221000  0.25605000  1.0
  N  N78  1  0.25782000  0.45540000  0.41063000  1.0
  N  N79  1  0.19753000  0.74214000  0.07731000  1.0
  N  N80  1  0.54461000  0.80242000  0.74395000  1.0
  N  N81  1  0.60157000  0.69589000  0.89627000  1.0
  N  N82  1  0.09441000  0.39844000  0.56297000  1.0
  N  N83  1  0.30396000  0.90562000  0.22962000  1.0
  N  N84  1  0.09441000  0.69596000  0.43703000  1.0
  N  N85  1  0.60157000  0.90568000  0.10372000  1.0
  N  N86  1  0.30396000  0.39834000  0.77037000  1.0
  N  N87  1  0.37303000  0.89464000  0.86565000  1.0
  N  N88  1  0.52166000  0.62702000  0.53233000  1.0
  N  N89  1  0.10541000  0.47837000  0.19904000  1.0
  N  N90  1  0.52166000  0.89464000  0.46766000  1.0
  N  N91  1  0.37303000  0.47839000  0.13435000  1.0
  N  N92  1  0.10541000  0.62704000  0.80096000  1.0
