# generated using pymatgen
data_NdH13C16(NO4)4
_symmetry_space_group_name_H-M   'P 1'
_cell_length_a   8.75938000
_cell_length_b   8.93092000
_cell_length_c   16.61920000
_cell_angle_alpha   75.45860000
_cell_angle_beta   76.80660000
_cell_angle_gamma   62.18000000
_symmetry_Int_Tables_number   1
_chemical_formula_structural   NdH13C16(NO4)4
_chemical_formula_sum   'Nd2 H26 C32 N8 O32'
_cell_volume   1103.60054083
_cell_formula_units_Z   2
loop_
 _symmetry_equiv_pos_site_id
 _symmetry_equiv_pos_as_xyz
  1  'x, y, z'
loop_
 _atom_site_type_symbol
 _atom_site_label
 _atom_site_symmetry_multiplicity
 _atom_site_fract_x
 _atom_site_fract_y
 _atom_site_fract_z
 _atom_site_occupancy
  Nd  Nd0  1  0.83498000  0.75490000  0.98735000  1.0
  Nd  Nd1  1  0.16501000  0.24511000  0.01265000  1.0
  H  H2  1  0.44687000  0.88069000  0.41217000  1.0
  H  H3  1  0.55313000  0.11929000  0.58783000  1.0
  H  H4  1  0.90321000  0.96844000  0.30800000  1.0
  H  H5  1  0.09680000  0.03154000  0.69200000  1.0
  H  H6  1  0.82684000  0.02492000  0.16341000  1.0
  H  H7  1  0.17317000  0.97507000  0.83659000  1.0
  H  H8  1  0.41411000  0.65854000  0.56256000  1.0
  H  H9  1  0.58590000  0.34145000  0.43744000  1.0
  H  H10  1  0.96210000  0.58345000  0.56109000  1.0
  H  H11  1  0.03790000  0.41655000  0.43891000  1.0
  H  H12  1  0.91780000  0.53169000  0.71594000  1.0
  H  H13  1  0.08220000  0.46831000  0.28406000  1.0
  H  H14  1  0.35989000  0.39842000  0.11778000  1.0
  H  H15  1  0.64011000  0.60159000  0.88222000  1.0
  H  H16  1  0.41886000  0.57075000  0.07269000  1.0
  H  H17  1  0.58114000  0.42926000  0.92731000  1.0
  H  H18  1  0.26681000  0.58795000  0.16406000  1.0
  H  H19  1  0.73318000  0.41206000  0.83594000  1.0
  H  H20  1  0.51925000  0.74055000  0.11428000  1.0
  H  H21  1  0.48074000  0.25947000  0.88572000  1.0
  H  H22  1  0.44928000  0.84184000  0.02590000  1.0
  H  H23  1  0.55072000  0.15817000  0.97410000  1.0
  H  H24  1  0.89519000  0.08952000  0.92042000  1.0
  H  H25  1  0.10481000  0.91049000  0.07958000  1.0
  H  H26  1  0.82298000  0.06244000  0.84706000  1.0
  H  H27  1  0.17701000  0.93757000  0.15294000  1.0
  C  C28  1  0.54090000  0.04035000  0.11985000  1.0
  C  C29  1  0.45909000  0.95965000  0.88015000  1.0
  C  C30  1  0.59532000  0.98537000  0.20615000  1.0
  C  C31  1  0.40468000  0.01463000  0.79385000  1.0
  C  C32  1  0.49144000  0.94357000  0.27729000  1.0
  C  C33  1  0.50856000  0.05643000  0.72271000  1.0
  C  C34  1  0.52967000  0.91244000  0.35805000  1.0
  C  C35  1  0.47032000  0.08756000  0.64195000  1.0
  C  C36  1  0.67840000  0.92328000  0.36663000  1.0
  C  C37  1  0.32160000  0.07671000  0.63337000  1.0
  C  C38  1  0.78767000  0.96203000  0.29820000  1.0
  C  C39  1  0.21233000  0.03795000  0.70179000  1.0
  C  C40  1  0.74522000  0.99188000  0.21800000  1.0
  C  C41  1  0.25479000  0.00810000  0.78200000  1.0
  C  C42  1  0.10221000  0.53489000  0.82295000  1.0
  C  C43  1  0.89780000  0.46511000  0.17705000  1.0
  C  C44  1  0.14151000  0.56240000  0.72829000  1.0
  C  C45  1  0.85850000  0.43760000  0.27171000  1.0
  C  C46  1  0.27980000  0.59905000  0.68285000  1.0
  C  C47  1  0.72020000  0.40095000  0.31715000  1.0
  C  C48  1  0.30651000  0.62957000  0.59569000  1.0
  C  C49  1  0.69349000  0.37042000  0.40431000  1.0
  C  C50  1  0.19145000  0.62198000  0.55332000  1.0
  C  C51  1  0.80855000  0.37801000  0.44668000  1.0
  C  C52  1  0.05137000  0.58702000  0.59565000  1.0
  C  C53  1  0.94863000  0.41298000  0.40436000  1.0
  C  C54  1  0.02797000  0.55714000  0.68268000  1.0
  C  C55  1  0.97203000  0.44286000  0.31732000  1.0
  C  C56  1  0.31137000  0.53791000  0.10480000  1.0
  C  C57  1  0.68863000  0.46210000  0.89520000  1.0
  C  C58  1  0.16804000  0.61995000  0.05133000  1.0
  C  C59  1  0.83195000  0.38006000  0.94867000  1.0
  N  N60  1  0.33570000  0.92847000  0.26896000  1.0
  N  N61  1  0.66430000  0.07154000  0.73104000  1.0
  N  N62  1  0.71737000  0.89590000  0.45189000  1.0
  N  N63  1  0.28262000  0.10409000  0.54811000  1.0
  N  N64  1  0.40168000  0.60880000  0.72693000  1.0
  N  N65  1  0.59832000  0.39120000  0.27307000  1.0
  N  N66  1  0.21981000  0.65055000  0.46157000  1.0
  N  N67  1  0.78020000  0.34944000  0.53843000  1.0
  O  O68  1  0.66065000  0.01180000  0.05741000  1.0
  O  O69  1  0.33934000  0.98821000  0.94259000  1.0
  O  O70  1  0.37920000  0.11727000  0.11536000  1.0
  O  O71  1  0.62080000  0.88273000  0.88464000  1.0
  O  O72  1  0.54925000  0.74760000  0.05361000  1.0
  O  O73  1  0.45075000  0.25241000  0.94640000  1.0
  O  O74  1  0.35597000  0.82627000  0.22355000  1.0
  O  O75  1  0.64404000  0.17373000  0.77645000  1.0
  O  O76  1  0.88131000  0.00277000  0.89734000  1.0
  O  O77  1  0.11869000  0.99724000  0.10266000  1.0
  O  O78  1  0.19687000  0.01192000  0.30880000  1.0
  O  O79  1  0.80313000  0.98807000  0.69120000  1.0
  O  O80  1  0.66225000  0.80433000  0.50781000  1.0
  O  O81  1  0.33774000  0.19567000  0.49218000  1.0
  O  O82  1  0.80140000  0.96688000  0.46311000  1.0
  O  O83  1  0.19859000  0.03311000  0.53689000  1.0
  O  O84  1  0.16718000  0.38141000  0.86110000  1.0
  O  O85  1  0.83282000  0.61860000  0.13890000  1.0
  O  O86  1  0.99571000  0.66901000  0.85270000  1.0
  O  O87  1  0.00429000  0.33100000  0.14730000  1.0
  O  O88  1  0.37411000  0.58755000  0.80472000  1.0
  O  O89  1  0.62589000  0.41245000  0.19528000  1.0
  O  O90  1  0.52329000  0.63942000  0.68460000  1.0
  O  O91  1  0.47671000  0.36057000  0.31540000  1.0
  O  O92  1  0.34942000  0.67517000  0.42614000  1.0
  O  O93  1  0.65059000  0.32482000  0.57386000  1.0
  O  O94  1  0.11474000  0.64729000  0.42387000  1.0
  O  O95  1  0.88526000  0.35271000  0.57613000  1.0
  O  O96  1  0.13837000  0.52863000  0.01399000  1.0
  O  O97  1  0.86163000  0.47139000  0.98601000  1.0
  O  O98  1  0.07045000  0.78147000  0.04230000  1.0
  O  O99  1  0.92954000  0.21854000  0.95770000  1.0
