# generated using pymatgen
data_Mn3H48C64S2(N5O9)2
_symmetry_space_group_name_H-M   'P 1'
_cell_length_a   12.83210000
_cell_length_b   14.15652288
_cell_length_c   20.97570000
_cell_angle_alpha   89.99976830
_cell_angle_beta   89.99970000
_cell_angle_gamma   116.43509359
_symmetry_Int_Tables_number   1
_chemical_formula_structural   Mn3H48C64S2(N5O9)2
_chemical_formula_sum   'Mn6 H96 C128 S4 N20 O36'
_cell_volume   3411.98350173
_cell_formula_units_Z   2
loop_
 _symmetry_equiv_pos_site_id
 _symmetry_equiv_pos_as_xyz
  1  'x, y, z'
loop_
 _atom_site_type_symbol
 _atom_site_label
 _atom_site_symmetry_multiplicity
 _atom_site_fract_x
 _atom_site_fract_y
 _atom_site_fract_z
 _atom_site_occupancy
  Mn  Mn0  1  0.87907000  0.19884000  0.51592000  1.0
  Mn  Mn1  1  0.62085000  0.80091000  0.01593000  1.0
  Mn  Mn2  1  0.12086000  0.80093000  0.48407000  1.0
  Mn  Mn3  1  0.37907000  0.19882000  0.98408000  1.0
  Mn  Mn4  1  0.00005000  0.99997000  0.50000000  1.0
  Mn  Mn5  1  0.50005000  0.99997000  0.00000000  1.0
  H  H6  1  0.62263000  0.10790000  0.44104000  1.0
  H  H7  1  0.87737000  0.89213000  0.94102000  1.0
  H  H8  1  0.37738000  0.89213000  0.55898000  1.0
  H  H9  1  0.12263000  0.10790000  0.05896000  1.0
  H  H10  1  0.76660000  0.34119000  0.29747000  1.0
  H  H11  1  0.73343000  0.65882000  0.79745000  1.0
  H  H12  1  0.23343000  0.65883000  0.70255000  1.0
  H  H13  1  0.26660000  0.34119000  0.20253000  1.0
  H  H14  1  0.93760000  0.36044000  0.38320000  1.0
  H  H15  1  0.56242000  0.63953000  0.88320000  1.0
  H  H16  1  0.06244000  0.63955000  0.61680000  1.0
  H  H17  1  0.43761000  0.36044000  0.11680000  1.0
  H  H18  1  0.45569000  0.10012000  0.41695000  1.0
  H  H19  1  0.04430000  0.89988000  0.91695000  1.0
  H  H20  1  0.54432000  0.89989000  0.58305000  1.0
  H  H21  1  0.95570000  0.10013000  0.08304000  1.0
  H  H22  1  0.26738000  0.00864000  0.36438000  1.0
  H  H23  1  0.23263000  0.99136000  0.86437000  1.0
  H  H24  1  0.73264000  0.99137000  0.63563000  1.0
  H  H25  1  0.76739000  0.00865000  0.13562000  1.0
  H  H26  1  0.42376000  0.15074000  0.18518000  1.0
  H  H27  1  0.07628000  0.84928000  0.68517000  1.0
  H  H28  1  0.57628000  0.84929000  0.81483000  1.0
  H  H29  1  0.92375000  0.15073000  0.31481000  1.0
  H  H30  1  0.61564000  0.23206000  0.23606000  1.0
  H  H31  1  0.88438000  0.76795000  0.73604000  1.0
  H  H32  1  0.38438000  0.76796000  0.76396000  1.0
  H  H33  1  0.11564000  0.23206000  0.26394000  1.0
  H  H34  1  0.11599000  0.00948000  0.32666000  1.0
  H  H35  1  0.38404000  0.99054000  0.82666000  1.0
  H  H36  1  0.88404000  0.99055000  0.67335000  1.0
  H  H37  1  0.61600000  0.00948000  0.17333000  1.0
  H  H38  1  0.92457000  0.90754000  0.27879000  1.0
  H  H39  1  0.57545000  0.09248000  0.77877000  1.0
  H  H40  1  0.07545000  0.09248000  0.72123000  1.0
  H  H41  1  0.42457000  0.90753000  0.22121000  1.0
  H  H42  1  0.08629000  0.90363000  0.09926000  1.0
  H  H43  1  0.41371000  0.09637000  0.59926000  1.0
  H  H44  1  0.91371000  0.09637000  0.90075000  1.0
  H  H45  1  0.58630000  0.90364000  0.40073000  1.0
  H  H46  1  0.27956000  0.00648000  0.14688000  1.0
  H  H47  1  0.22045000  0.99352000  0.64687000  1.0
  H  H48  1  0.72045000  0.99352000  0.85313000  1.0
  H  H49  1  0.77956000  0.00648000  0.35312000  1.0
  H  H50  1  0.78383000  0.74786000  0.23927000  1.0
  H  H51  1  0.71621000  0.25217000  0.73925000  1.0
  H  H52  1  0.21622000  0.25214000  0.76075000  1.0
  H  H53  1  0.28382000  0.74786000  0.26073000  1.0
  H  H54  1  0.60107000  0.68764000  0.15313000  1.0
  H  H55  1  0.89894000  0.31236000  0.65309000  1.0
  H  H56  1  0.39896000  0.31234000  0.84690000  1.0
  H  H57  1  0.10107000  0.68764000  0.34687000  1.0
  H  H58  1  0.91029000  0.90126000  0.06276000  1.0
  H  H59  1  0.58971000  0.09872000  0.56275000  1.0
  H  H60  1  0.08971000  0.09873000  0.93726000  1.0
  H  H61  1  0.41029000  0.90126000  0.43724000  1.0
  H  H62  1  0.13997000  0.41416000  0.37845000  1.0
  H  H63  1  0.36004000  0.58591000  0.87845000  1.0
  H  H64  1  0.86002000  0.58589000  0.62156000  1.0
  H  H65  1  0.63996000  0.41415000  0.12154000  1.0
  H  H66  1  0.30591000  0.52681000  0.30864000  1.0
  H  H67  1  0.19412000  0.47322000  0.80865000  1.0
  H  H68  1  0.69410000  0.47321000  0.69136000  1.0
  H  H69  1  0.80588000  0.52680000  0.19135000  1.0
  H  H70  1  0.44755000  0.30275000  0.32607000  1.0
  H  H71  1  0.05238000  0.69722000  0.82605000  1.0
  H  H72  1  0.55240000  0.69724000  0.67394000  1.0
  H  H73  1  0.94756000  0.30276000  0.17391000  1.0
  H  H74  1  0.27936000  0.18990000  0.39617000  1.0
  H  H75  1  0.22057000  0.81011000  0.89614000  1.0
  H  H76  1  0.72059000  0.81011000  0.60385000  1.0
  H  H77  1  0.77936000  0.18990000  0.10383000  1.0
  H  H78  1  0.54399000  0.69539000  0.32249000  1.0
  H  H79  1  0.95598000  0.30457000  0.82248000  1.0
  H  H80  1  0.45599000  0.30459000  0.67752000  1.0
  H  H81  1  0.04399000  0.69541000  0.17752000  1.0
  H  H82  1  0.71800000  0.82254000  0.38399000  1.0
  H  H83  1  0.78197000  0.17743000  0.88399000  1.0
  H  H84  1  0.28199000  0.17745000  0.61601000  1.0
  H  H85  1  0.21801000  0.82256000  0.11602000  1.0
  H  H86  1  0.88178000  0.61845000  0.36193000  1.0
  H  H87  1  0.61823000  0.38157000  0.86193000  1.0
  H  H88  1  0.11823000  0.38156000  0.63807000  1.0
  H  H89  1  0.38177000  0.61844000  0.13807000  1.0
  H  H90  1  0.70720000  0.48814000  0.30317000  1.0
  H  H91  1  0.79283000  0.51186000  0.80317000  1.0
  H  H92  1  0.29281000  0.51186000  0.69683000  1.0
  H  H93  1  0.20717000  0.48814000  0.19683000  1.0
  H  H94  1  0.04285000  0.38179000  0.49630000  1.0
  H  H95  1  0.45715000  0.61821000  0.99627000  1.0
  H  H96  1  0.95716000  0.61821000  0.50373000  1.0
  H  H97  1  0.54286000  0.38178000  0.00371000  1.0
  H  H98  1  0.95133000  0.42581000  0.49259000  1.0
  H  H99  1  0.54823000  0.57361000  0.99281000  1.0
  H  H100  1  0.04826000  0.57364000  0.50720000  1.0
  H  H101  1  0.45132000  0.42578000  0.00743000  1.0
  C  C102  1  0.68473000  0.17616000  0.41559000  1.0
  C  C103  1  0.81528000  0.82386000  0.91557000  1.0
  C  C104  1  0.31529000  0.82387000  0.58443000  1.0
  C  C105  1  0.18473000  0.17616000  0.08441000  1.0
  C  C106  1  0.76245000  0.29677000  0.34009000  1.0
  C  C107  1  0.73756000  0.70324000  0.84008000  1.0
  C  C108  1  0.23757000  0.70325000  0.65993000  1.0
  C  C109  1  0.26246000  0.29677000  0.15991000  1.0
  C  C110  1  0.84593000  0.30594000  0.38377000  1.0
  C  C111  1  0.65408000  0.69406000  0.88375000  1.0
  C  C112  1  0.15409000  0.69407000  0.61625000  1.0
  C  C113  1  0.34594000  0.30594000  0.11623000  1.0
  C  C114  1  0.54956000  0.17024000  0.32990000  1.0
  C  C115  1  0.95045000  0.82978000  0.82989000  1.0
  C  C116  1  0.45045000  0.82978000  0.67011000  1.0
  C  C117  1  0.04956000  0.17024000  0.17010000  1.0
  C  C118  1  0.45035000  0.10919000  0.36573000  1.0
  C  C119  1  0.04966000  0.89082000  0.86572000  1.0
  C  C120  1  0.54966000  0.89082000  0.63428000  1.0
  C  C121  1  0.95035000  0.10919000  0.13426000  1.0
  C  C122  1  0.34283000  0.05926000  0.33604000  1.0
  C  C123  1  0.15719000  0.94075000  0.83603000  1.0
  C  C124  1  0.65720000  0.94076000  0.66397000  1.0
  C  C125  1  0.84282000  0.05926000  0.16396000  1.0
  C  C126  1  0.32982000  0.07177000  0.27054000  1.0
  C  C127  1  0.17020000  0.92824000  0.77054000  1.0
  C  C128  1  0.67021000  0.92825000  0.72946000  1.0
  C  C129  1  0.82983000  0.07177000  0.22945000  1.0
  C  C130  1  0.43013000  0.13686000  0.23580000  1.0
  C  C131  1  0.06990000  0.86315000  0.73579000  1.0
  C  C132  1  0.56990000  0.86316000  0.76422000  1.0
  C  C133  1  0.93012000  0.13686000  0.26420000  1.0
  C  C134  1  0.53925000  0.18478000  0.26468000  1.0
  C  C135  1  0.96077000  0.81523000  0.76467000  1.0
  C  C136  1  0.46077000  0.81524000  0.73533000  1.0
  C  C137  1  0.03925000  0.18478000  0.23532000  1.0
  C  C138  1  0.21398000  0.01536000  0.24076000  1.0
  C  C139  1  0.28604000  0.98465000  0.74076000  1.0
  C  C140  1  0.78605000  0.98466000  0.75925000  1.0
  C  C141  1  0.71397000  0.01535000  0.25923000  1.0
  C  C142  1  0.11168000  0.98523000  0.27703000  1.0
  C  C143  1  0.38834000  0.01479000  0.77703000  1.0
  C  C144  1  0.88834000  0.01479000  0.72298000  1.0
  C  C145  1  0.61169000  0.98523000  0.22296000  1.0
  C  C146  1  0.00243000  0.92690000  0.25034000  1.0
  C  C147  1  0.49760000  0.07313000  0.75032000  1.0
  C  C148  1  0.99759000  0.07312000  0.74967000  1.0
  C  C149  1  0.50243000  0.92689000  0.24966000  1.0
  C  C150  1  0.99313000  0.89717000  0.18624000  1.0
  C  C151  1  0.50688000  0.10284000  0.68623000  1.0
  C  C152  1  0.00689000  0.10284000  0.81377000  1.0
  C  C153  1  0.49313000  0.89717000  0.31376000  1.0
  C  C154  1  0.09319000  0.92724000  0.14909000  1.0
  C  C155  1  0.40683000  0.07278000  0.64908000  1.0
  C  C156  1  0.90684000  0.07278000  0.85092000  1.0
  C  C157  1  0.59319000  0.92724000  0.35091000  1.0
  C  C158  1  0.20225000  0.98615000  0.17615000  1.0
  C  C159  1  0.29776000  0.01386000  0.67615000  1.0
  C  C160  1  0.79776000  0.01386000  0.82386000  1.0
  C  C161  1  0.70226000  0.98615000  0.32384000  1.0
  C  C162  1  0.78155000  0.76968000  0.19008000  1.0
  C  C163  1  0.71848000  0.23034000  0.69006000  1.0
  C  C164  1  0.21849000  0.23033000  0.80994000  1.0
  C  C165  1  0.28154000  0.76968000  0.30992000  1.0
  C  C166  1  0.69257000  0.74023000  0.14682000  1.0
  C  C167  1  0.80745000  0.25977000  0.64680000  1.0
  C  C168  1  0.30746000  0.25975000  0.85320000  1.0
  C  C169  1  0.19256000  0.74023000  0.35317000  1.0
  C  C170  1  0.84995000  0.84902000  0.09760000  1.0
  C  C171  1  0.65006000  0.15098000  0.59758000  1.0
  C  C172  1  0.15007000  0.15098000  0.90242000  1.0
  C  C173  1  0.34994000  0.84901000  0.40240000  1.0
  C  C174  1  0.09677000  0.22256000  0.43018000  1.0
  C  C175  1  0.40320000  0.77751000  0.93016000  1.0
  C  C176  1  0.90321000  0.77750000  0.56984000  1.0
  C  C177  1  0.59676000  0.22255000  0.06981000  1.0
  C  C178  1  0.20007000  0.29505000  0.39157000  1.0
  C  C179  1  0.29989000  0.70499000  0.89155000  1.0
  C  C180  1  0.79989000  0.70498000  0.60845000  1.0
  C  C181  1  0.70006000  0.29504000  0.10843000  1.0
  C  C182  1  0.20827000  0.39081000  0.36808000  1.0
  C  C183  1  0.29173000  0.60924000  0.86808000  1.0
  C  C184  1  0.79173000  0.60923000  0.63192000  1.0
  C  C185  1  0.70826000  0.39080000  0.13191000  1.0
  C  C186  1  0.30093000  0.45414000  0.32904000  1.0
  C  C187  1  0.19906000  0.54587000  0.82904000  1.0
  C  C188  1  0.69905000  0.54587000  0.67097000  1.0
  C  C189  1  0.80090000  0.45412000  0.17096000  1.0
  C  C190  1  0.38608000  0.42121000  0.31457000  1.0
  C  C191  1  0.11391000  0.57879000  0.81456000  1.0
  C  C192  1  0.61390000  0.57879000  0.68543000  1.0
  C  C193  1  0.88607000  0.42121000  0.18542000  1.0
  C  C194  1  0.38089000  0.32716000  0.33881000  1.0
  C  C195  1  0.11905000  0.67282000  0.83878000  1.0
  C  C196  1  0.61906000  0.67283000  0.66121000  1.0
  C  C197  1  0.88089000  0.32716000  0.16118000  1.0
  C  C198  1  0.28717000  0.26426000  0.37719000  1.0
  C  C199  1  0.21278000  0.73576000  0.87716000  1.0
  C  C200  1  0.71279000  0.73576000  0.62283000  1.0
  C  C201  1  0.78717000  0.26426000  0.12280000  1.0
  C  C202  1  0.61673000  0.58471000  0.31008000  1.0
  C  C203  1  0.88327000  0.41527000  0.81008000  1.0
  C  C204  1  0.38328000  0.41529000  0.68992000  1.0
  C  C205  1  0.11671000  0.58471000  0.18992000  1.0
  C  C206  1  0.61685000  0.67783000  0.33269000  1.0
  C  C207  1  0.88314000  0.32215000  0.83269000  1.0
  C  C208  1  0.38315000  0.32217000  0.66731000  1.0
  C  C209  1  0.11685000  0.67784000  0.16732000  1.0
  C  C210  1  0.71392000  0.74907000  0.36592000  1.0
  C  C211  1  0.78608000  0.25092000  0.86591000  1.0
  C  C212  1  0.28609000  0.25093000  0.63409000  1.0
  C  C213  1  0.21391000  0.74908000  0.13409000  1.0
  C  C214  1  0.81033000  0.72878000  0.37530000  1.0
  C  C215  1  0.68967000  0.27122000  0.87530000  1.0
  C  C216  1  0.18968000  0.27123000  0.62470000  1.0
  C  C217  1  0.31033000  0.72878000  0.12471000  1.0
  C  C218  1  0.80696000  0.63373000  0.35412000  1.0
  C  C219  1  0.69305000  0.36627000  0.85412000  1.0
  C  C220  1  0.19305000  0.36628000  0.64588000  1.0
  C  C221  1  0.30694000  0.63372000  0.14588000  1.0
  C  C222  1  0.70979000  0.56101000  0.32156000  1.0
  C  C223  1  0.79021000  0.43898000  0.82155000  1.0
  C  C224  1  0.29021000  0.43898000  0.67844000  1.0
  C  C225  1  0.20978000  0.56102000  0.17845000  1.0
  C  C226  1  0.91894000  0.81061000  0.40611000  1.0
  C  C227  1  0.58106000  0.18939000  0.90613000  1.0
  C  C228  1  0.08108000  0.18940000  0.59387000  1.0
  C  C229  1  0.41894000  0.81061000  0.09389000  1.0
  S  S230  1  0.50032000  0.49790000  0.26135000  1.0
  S  S231  1  0.99970000  0.50208000  0.76135000  1.0
  S  S232  1  0.49969000  0.50210000  0.73865000  1.0
  S  S233  1  0.00028000  0.49789000  0.23864000  1.0
  N  N234  1  0.79640000  0.23006000  0.43082000  1.0
  N  N235  1  0.70361000  0.76995000  0.93079000  1.0
  N  N236  1  0.20362000  0.76996000  0.56921000  1.0
  N  N237  1  0.29641000  0.23007000  0.06918000  1.0
  N  N238  1  0.65974000  0.21396000  0.36074000  1.0
  N  N239  1  0.84027000  0.78606000  0.86072000  1.0
  N  N240  1  0.34027000  0.78606000  0.63928000  1.0
  N  N241  1  0.15974000  0.21396000  0.13926000  1.0
  N  N242  1  0.88157000  0.83881000  0.15842000  1.0
  N  N243  1  0.61845000  0.16120000  0.65840000  1.0
  N  N244  1  0.11846000  0.16120000  0.84160000  1.0
  N  N245  1  0.38156000  0.83881000  0.34158000  1.0
  N  N246  1  0.73613000  0.79087000  0.08931000  1.0
  N  N247  1  0.76388000  0.20911000  0.58929000  1.0
  N  N248  1  0.26389000  0.20911000  0.91071000  1.0
  N  N249  1  0.23613000  0.79087000  0.41068000  1.0
  N  N250  1  0.73638000  0.95686000  0.50077000  1.0
  N  N251  1  0.76358000  0.04307000  0.00079000  1.0
  N  N252  1  0.26359000  0.04307000  0.49921000  1.0
  N  N253  1  0.23636000  0.95684000  0.99923000  1.0
  O  O254  1  0.03767000  0.26373000  0.45759000  1.0
  O  O255  1  0.46225000  0.73632000  0.95760000  1.0
  O  O256  1  0.96227000  0.73631000  0.54242000  1.0
  O  O257  1  0.53768000  0.26372000  0.04240000  1.0
  O  O258  1  0.07457000  0.12608000  0.43195000  1.0
  O  O259  1  0.42537000  0.87398000  0.93192000  1.0
  O  O260  1  0.92538000  0.87397000  0.56808000  1.0
  O  O261  1  0.57456000  0.12607000  0.06805000  1.0
  O  O262  1  0.45953000  0.56138000  0.22403000  1.0
  O  O263  1  0.04049000  0.43859000  0.72403000  1.0
  O  O264  1  0.54046000  0.43860000  0.77597000  1.0
  O  O265  1  0.95950000  0.56138000  0.27597000  1.0
  O  O266  1  0.53846000  0.42768000  0.22938000  1.0
  O  O267  1  0.96153000  0.57227000  0.72935000  1.0
  O  O268  1  0.46152000  0.57230000  0.77063000  1.0
  O  O269  1  0.03844000  0.42768000  0.27062000  1.0
  O  O270  1  0.91565000  0.89438000  0.42552000  1.0
  O  O271  1  0.58435000  0.10563000  0.92553000  1.0
  O  O272  1  0.08435000  0.10562000  0.57447000  1.0
  O  O273  1  0.41565000  0.89438000  0.07448000  1.0
  O  O274  1  0.00632000  0.79094000  0.40937000  1.0
  O  O275  1  0.49369000  0.20909000  0.90941000  1.0
  O  O276  1  0.99371000  0.20910000  0.59059000  1.0
  O  O277  1  0.50632000  0.79094000  0.09063000  1.0
  O  O278  1  0.84189000  0.03401000  0.50430000  1.0
  O  O279  1  0.65808000  0.96586000  0.00427000  1.0
  O  O280  1  0.15810000  0.96588000  0.49573000  1.0
  O  O281  1  0.34189000  0.03400000  0.99571000  1.0
  O  O282  1  0.65859000  0.98689000  0.49939000  1.0
  O  O283  1  0.84141000  0.01310000  0.99940000  1.0
  O  O284  1  0.34142000  0.01310000  0.50060000  1.0
  O  O285  1  0.15858000  0.98688000  0.00061000  1.0
  O  O286  1  0.99250000  0.40200000  0.52290000  1.0
  O  O287  1  0.50779000  0.59848000  0.02296000  1.0
  O  O288  1  0.00778000  0.59845000  0.47704000  1.0
  O  O289  1  0.49253000  0.40203000  0.97711000  1.0
