# generated using pymatgen
data_LaH11C6O7
_symmetry_space_group_name_H-M   'P 1'
_cell_length_a   8.54635000
_cell_length_b   9.81707000
_cell_length_c   13.33760000
_cell_angle_alpha   87.02110000
_cell_angle_beta   75.46990000
_cell_angle_gamma   75.35470000
_symmetry_Int_Tables_number   1
_chemical_formula_structural   LaH11C6O7
_chemical_formula_sum   'La4 H44 C24 O28'
_cell_volume   1047.96191813
_cell_formula_units_Z   4
loop_
 _symmetry_equiv_pos_site_id
 _symmetry_equiv_pos_as_xyz
  1  'x, y, z'
loop_
 _atom_site_type_symbol
 _atom_site_label
 _atom_site_symmetry_multiplicity
 _atom_site_fract_x
 _atom_site_fract_y
 _atom_site_fract_z
 _atom_site_occupancy
  La  La0  1  0.25832000  0.99544000  0.98283000  1.0
  La  La1  1  0.74168000  0.00456000  0.01718000  1.0
  La  La2  1  0.42250000  0.87974000  0.64655000  1.0
  La  La3  1  0.57749000  0.12026000  0.35345000  1.0
  H  H4  1  0.67160000  0.65895000  0.14536000  1.0
  H  H5  1  0.32841000  0.34105000  0.85463000  1.0
  H  H6  1  0.52942000  0.75417000  0.25313000  1.0
  H  H7  1  0.47060000  0.24582000  0.74687000  1.0
  H  H8  1  0.48714000  0.60137000  0.20860000  1.0
  H  H9  1  0.51288000  0.39862000  0.79139000  1.0
  H  H10  1  0.78004000  0.37580000  0.14809000  1.0
  H  H11  1  0.21997000  0.62420000  0.85191000  1.0
  H  H12  1  0.73930000  0.38820000  0.02402000  1.0
  H  H13  1  0.26070000  0.61180000  0.97598000  1.0
  H  H14  1  0.87628000  0.48437000  0.05178000  1.0
  H  H15  1  0.12371000  0.51563000  0.94822000  1.0
  H  H16  1  0.06343000  0.35186000  0.82389000  1.0
  H  H17  1  0.93658000  0.64815000  0.17611000  1.0
  H  H18  1  0.91651000  0.25747000  0.81532000  1.0
  H  H19  1  0.08350000  0.74255000  0.18468000  1.0
  H  H20  1  0.00277000  0.34968000  0.70457000  1.0
  H  H21  1  0.99724000  0.65032000  0.29544000  1.0
  H  H22  1  0.94392000  0.70224000  0.61241000  1.0
  H  H23  1  0.05607000  0.29776000  0.38758000  1.0
  H  H24  1  0.96266000  0.64138000  0.73676000  1.0
  H  H25  1  0.03733000  0.35862000  0.26324000  1.0
  H  H26  1  0.08816000  0.53906000  0.62368000  1.0
  H  H27  1  0.91183000  0.46094000  0.37632000  1.0
  H  H28  1  0.91372000  0.10615000  0.52225000  1.0
  H  H29  1  0.08628000  0.89385000  0.47775000  1.0
  H  H30  1  0.88293000  0.11094000  0.66018000  1.0
  H  H31  1  0.11707000  0.88906000  0.33982000  1.0
  H  H32  1  0.76225000  0.24593000  0.59444000  1.0
  H  H33  1  0.23774000  0.75407000  0.40555000  1.0
  H  H34  1  0.71530000  0.66619000  0.90809000  1.0
  H  H35  1  0.28469000  0.33381000  0.09192000  1.0
  H  H36  1  0.70112000  0.50708000  0.85396000  1.0
  H  H37  1  0.29887000  0.49292000  0.14604000  1.0
  H  H38  1  0.54185000  0.59643000  0.96060000  1.0
  H  H39  1  0.45815000  0.40357000  0.03940000  1.0
  H  H40  1  0.24185000  0.04356000  0.21988000  1.0
  H  H41  1  0.75815000  0.95643000  0.78013000  1.0
  H  H42  1  0.05230000  0.10404000  0.21337000  1.0
  H  H43  1  0.94770000  0.89595000  0.78663000  1.0
  H  H44  1  0.72973000  0.76937000  0.45709000  1.0
  H  H45  1  0.27026000  0.23063000  0.54291000  1.0
  H  H46  1  0.68723000  0.63531000  0.52380000  1.0
  H  H47  1  0.31276000  0.36468000  0.47620000  1.0
  C  C48  1  0.45004000  0.78589000  0.11278000  1.0
  C  C49  1  0.54997000  0.21410000  0.88723000  1.0
  C  C50  1  0.53874000  0.69254000  0.18459000  1.0
  C  C51  1  0.46127000  0.30746000  0.81541000  1.0
  C  C52  1  0.97781000  0.26046000  0.02943000  1.0
  C  C53  1  0.02219000  0.73955000  0.97057000  1.0
  C  C54  1  0.83576000  0.38644000  0.06530000  1.0
  C  C55  1  0.16424000  0.61356000  0.93470000  1.0
  C  C56  1  0.16821000  0.15832000  0.73845000  1.0
  C  C57  1  0.83179000  0.84168000  0.26156000  1.0
  C  C58  1  0.02982000  0.28771000  0.77151000  1.0
  C  C59  1  0.97019000  0.71230000  0.22849000  1.0
  C  C60  1  0.16810000  0.72200000  0.64953000  1.0
  C  C61  1  0.83189000  0.27800000  0.35046000  1.0
  C  C62  1  0.03362000  0.64559000  0.65621000  1.0
  C  C63  1  0.96637000  0.35441000  0.34379000  1.0
  C  C64  1  0.68950000  0.05272000  0.60726000  1.0
  C  C65  1  0.31050000  0.94728000  0.39274000  1.0
  C  C66  1  0.82120000  0.13283000  0.59646000  1.0
  C  C67  1  0.17880000  0.86716000  0.40353000  1.0
  C  C68  1  0.53835000  0.69654000  0.81531000  1.0
  C  C69  1  0.46163000  0.30346000  0.18470000  1.0
  C  C70  1  0.63082000  0.61022000  0.88797000  1.0
  C  C71  1  0.36918000  0.38978000  0.11203000  1.0
  O  O72  1  0.50591000  0.89246000  0.07234000  1.0
  O  O73  1  0.49410000  0.10753000  0.92766000  1.0
  O  O74  1  0.32317000  0.76298000  0.09096000  1.0
  O  O75  1  0.67684000  0.23702000  0.90904000  1.0
  O  O76  1  0.94589000  0.13815000  0.03060000  1.0
  O  O77  1  0.05412000  0.86185000  0.96940000  1.0
  O  O78  1  0.12677000  0.27074000  0.99909000  1.0
  O  O79  1  0.87324000  0.72926000  0.00092000  1.0
  O  O80  1  0.21896000  0.07136000  0.80488000  1.0
  O  O81  1  0.78104000  0.92864000  0.19512000  1.0
  O  O82  1  0.23560000  0.13225000  0.64202000  1.0
  O  O83  1  0.76440000  0.86775000  0.35798000  1.0
  O  O84  1  0.13365000  0.83411000  0.70648000  1.0
  O  O85  1  0.86635000  0.16589000  0.29352000  1.0
  O  O86  1  0.31135000  0.67934000  0.58919000  1.0
  O  O87  1  0.68864000  0.32066000  0.41081000  1.0
  O  O88  1  0.61463000  0.05519000  0.53522000  1.0
  O  O89  1  0.38536000  0.94481000  0.46478000  1.0
  O  O90  1  0.64935000  0.98351000  0.68971000  1.0
  O  O91  1  0.35065000  0.01649000  0.31029000  1.0
  O  O92  1  0.44227000  0.81982000  0.84412000  1.0
  O  O93  1  0.55773000  0.18019000  0.15588000  1.0
  O  O94  1  0.55507000  0.65020000  0.72523000  1.0
  O  O95  1  0.44491000  0.34980000  0.27478000  1.0
  O  O96  1  0.16813000  0.06332000  0.17066000  1.0
  O  O97  1  0.83187000  0.93668000  0.82934000  1.0
  O  O98  1  0.69129000  0.73282000  0.52853000  1.0
  O  O99  1  0.30871000  0.26717000  0.47148000  1.0
