# generated using pymatgen
data_FeH8(C3N)4
_symmetry_space_group_name_H-M   'P 1'
_cell_length_a   13.12440000
_cell_length_b   13.53820000
_cell_length_c   26.96920000
_cell_angle_alpha   102.25600000
_cell_angle_beta   90.00060000
_cell_angle_gamma   89.99920000
_symmetry_Int_Tables_number   1
_chemical_formula_structural   FeH8(C3N)4
_chemical_formula_sum   'Fe8 H64 C96 N32'
_cell_volume   4682.69480325
_cell_formula_units_Z   8
loop_
 _symmetry_equiv_pos_site_id
 _symmetry_equiv_pos_as_xyz
  1  'x, y, z'
loop_
 _atom_site_type_symbol
 _atom_site_label
 _atom_site_symmetry_multiplicity
 _atom_site_fract_x
 _atom_site_fract_y
 _atom_site_fract_z
 _atom_site_occupancy
  Fe  Fe0  1  0.63329000  0.47916000  0.23033000  1.0
  Fe  Fe1  1  0.13328000  0.52084000  0.26967000  1.0
  Fe  Fe2  1  0.36671000  0.52084000  0.76967000  1.0
  Fe  Fe3  1  0.86672000  0.47917000  0.73033000  1.0
  Fe  Fe4  1  0.38667000  0.48975000  0.25842000  1.0
  Fe  Fe5  1  0.88666000  0.51025000  0.24158000  1.0
  Fe  Fe6  1  0.61333000  0.51025000  0.74158000  1.0
  Fe  Fe7  1  0.11335000  0.48975000  0.75842000  1.0
  H  H8  1  0.35973000  0.25707000  0.27137000  1.0
  H  H9  1  0.85971000  0.74292000  0.22862000  1.0
  H  H10  1  0.64025000  0.74294000  0.72863000  1.0
  H  H11  1  0.14029000  0.25708000  0.77138000  1.0
  H  H12  1  0.66009000  0.22865000  0.20279000  1.0
  H  H13  1  0.16007000  0.77134000  0.29719000  1.0
  H  H14  1  0.33991000  0.77134000  0.79721000  1.0
  H  H15  1  0.83994000  0.22866000  0.70280000  1.0
  H  H16  1  0.36890000  0.09169000  0.27980000  1.0
  H  H17  1  0.86886000  0.90832000  0.22020000  1.0
  H  H18  1  0.63108000  0.90831000  0.72020000  1.0
  H  H19  1  0.13114000  0.09168000  0.77980000  1.0
  H  H20  1  0.36725000  0.91176000  0.28049000  1.0
  H  H21  1  0.86721000  0.08825000  0.21951000  1.0
  H  H22  1  0.63274000  0.08823000  0.71951000  1.0
  H  H23  1  0.13278000  0.91175000  0.78049000  1.0
  H  H24  1  0.64549000  0.87102000  0.19334000  1.0
  H  H25  1  0.14546000  0.12897000  0.30666000  1.0
  H  H26  1  0.35450000  0.12899000  0.80667000  1.0
  H  H27  1  0.85454000  0.87103000  0.69334000  1.0
  H  H28  1  0.64733000  0.05129000  0.19271000  1.0
  H  H29  1  0.14729000  0.94869000  0.30727000  1.0
  H  H30  1  0.35266000  0.94871000  0.80729000  1.0
  H  H31  1  0.85271000  0.05131000  0.69272000  1.0
  H  H32  1  0.65672000  0.70459000  0.20560000  1.0
  H  H33  1  0.15669000  0.29540000  0.29441000  1.0
  H  H34  1  0.34328000  0.29541000  0.79440000  1.0
  H  H35  1  0.84330000  0.70460000  0.70560000  1.0
  H  H36  1  0.35599000  0.73806000  0.27385000  1.0
  H  H37  1  0.85597000  0.26195000  0.22615000  1.0
  H  H38  1  0.64400000  0.26194000  0.72615000  1.0
  H  H39  1  0.14404000  0.73805000  0.77384000  1.0
  H  H40  1  0.43432000  0.46915000  0.37703000  1.0
  H  H41  1  0.93431000  0.53082000  0.12297000  1.0
  H  H42  1  0.56568000  0.53085000  0.62297000  1.0
  H  H43  1  0.06569000  0.46916000  0.87703000  1.0
  H  H44  1  0.11037000  0.52897000  0.39035000  1.0
  H  H45  1  0.61036000  0.47102000  0.10965000  1.0
  H  H46  1  0.88964000  0.47104000  0.60965000  1.0
  H  H47  1  0.38964000  0.52898000  0.89035000  1.0
  H  H48  1  0.42675000  0.54332000  0.47637000  1.0
  H  H49  1  0.92675000  0.45666000  0.02363000  1.0
  H  H50  1  0.57325000  0.45668000  0.52363000  1.0
  H  H51  1  0.07325000  0.54333000  0.97637000  1.0
  H  H52  1  0.42136000  0.53569000  0.56621000  1.0
  H  H53  1  0.92135000  0.46431000  0.93378000  1.0
  H  H54  1  0.57865000  0.46431000  0.43378000  1.0
  H  H55  1  0.07865000  0.53569000  0.06621000  1.0
  H  H56  1  0.11598000  0.41571000  0.54686000  1.0
  H  H57  1  0.61595000  0.58428000  0.95315000  1.0
  H  H58  1  0.88404000  0.58428000  0.45314000  1.0
  H  H59  1  0.38405000  0.41572000  0.04686000  1.0
  H  H60  1  0.12171000  0.42303000  0.45683000  1.0
  H  H61  1  0.62170000  0.57695000  0.04317000  1.0
  H  H62  1  0.87829000  0.57696000  0.54317000  1.0
  H  H63  1  0.37831000  0.42305000  0.95683000  1.0
  H  H64  1  0.10016000  0.43359000  0.63389000  1.0
  H  H65  1  0.60013000  0.56637000  0.86611000  1.0
  H  H66  1  0.89985000  0.56638000  0.36611000  1.0
  H  H67  1  0.39986000  0.43363000  0.13389000  1.0
  H  H68  1  0.41619000  0.52806000  0.65203000  1.0
  H  H69  1  0.91619000  0.47198000  0.84798000  1.0
  H  H70  1  0.58381000  0.47197000  0.34797000  1.0
  H  H71  1  0.08381000  0.52802000  0.15202000  1.0
  C  C72  1  0.43389000  0.26686000  0.25521000  1.0
  C  C73  1  0.93387000  0.73314000  0.24479000  1.0
  C  C74  1  0.56610000  0.73314000  0.74479000  1.0
  C  C75  1  0.06614000  0.26687000  0.75521000  1.0
  C  C76  1  0.50989000  0.19481000  0.23690000  1.0
  C  C77  1  0.00987000  0.80519000  0.26309000  1.0
  C  C78  1  0.49009000  0.80519000  0.76310000  1.0
  C  C79  1  0.99013000  0.19482000  0.73691000  1.0
  C  C80  1  0.58655000  0.25212000  0.21973000  1.0
  C  C81  1  0.08653000  0.74787000  0.28025000  1.0
  C  C82  1  0.41344000  0.74787000  0.78027000  1.0
  C  C83  1  0.91347000  0.25213000  0.71974000  1.0
  C  C84  1  0.50868000  0.08681000  0.23652000  1.0
  C  C85  1  0.00865000  0.91318000  0.26348000  1.0
  C  C86  1  0.49130000  0.91319000  0.76349000  1.0
  C  C87  1  0.99135000  0.08682000  0.73652000  1.0
  C  C88  1  0.43010000  0.04389000  0.26059000  1.0
  C  C89  1  0.93006000  0.95612000  0.23941000  1.0
  C  C90  1  0.56989000  0.95611000  0.73942000  1.0
  C  C91  1  0.06994000  0.04389000  0.76059000  1.0
  C  C92  1  0.42913000  0.94153000  0.26097000  1.0
  C  C93  1  0.92908000  0.05848000  0.23903000  1.0
  C  C94  1  0.57087000  0.05846000  0.73904000  1.0
  C  C95  1  0.07092000  0.94153000  0.76097000  1.0
  C  C96  1  0.50661000  0.87627000  0.23736000  1.0
  C  C97  1  0.00658000  0.12373000  0.26265000  1.0
  C  C98  1  0.49338000  0.12373000  0.76265000  1.0
  C  C99  1  0.99342000  0.87627000  0.73735000  1.0
  C  C100  1  0.58465000  0.91898000  0.21283000  1.0
  C  C101  1  0.08462000  0.08101000  0.28717000  1.0
  C  C102  1  0.41534000  0.08102000  0.78718000  1.0
  C  C103  1  0.91538000  0.91899000  0.71283000  1.0
  C  C104  1  0.58570000  0.02148000  0.21244000  1.0
  C  C105  1  0.08567000  0.97852000  0.28756000  1.0
  C  C106  1  0.41429000  0.97853000  0.78756000  1.0
  C  C107  1  0.91433000  0.02149000  0.71244000  1.0
  C  C108  1  0.58314000  0.69677000  0.22278000  1.0
  C  C109  1  0.08312000  0.30323000  0.27722000  1.0
  C  C110  1  0.41686000  0.30323000  0.77722000  1.0
  C  C111  1  0.91688000  0.69678000  0.72278000  1.0
  C  C112  1  0.50632000  0.76915000  0.23897000  1.0
  C  C113  1  0.00630000  0.23085000  0.26104000  1.0
  C  C114  1  0.49367000  0.23085000  0.76104000  1.0
  C  C115  1  0.99371000  0.76915000  0.73896000  1.0
  C  C116  1  0.43025000  0.71393000  0.25805000  1.0
  C  C117  1  0.93023000  0.28608000  0.24196000  1.0
  C  C118  1  0.56975000  0.28607000  0.74196000  1.0
  C  C119  1  0.06978000  0.71392000  0.75804000  1.0
  C  C120  1  0.35473000  0.48639000  0.37189000  1.0
  C  C121  1  0.85472000  0.51359000  0.12811000  1.0
  C  C122  1  0.64527000  0.51361000  0.62811000  1.0
  C  C123  1  0.14528000  0.48640000  0.87189000  1.0
  C  C124  1  0.27362000  0.49460000  0.40664000  1.0
  C  C125  1  0.77361000  0.50538000  0.09336000  1.0
  C  C126  1  0.72639000  0.50540000  0.59336000  1.0
  C  C127  1  0.22639000  0.49462000  0.90664000  1.0
  C  C128  1  0.18916000  0.51547000  0.37852000  1.0
  C  C129  1  0.68914000  0.48452000  0.12148000  1.0
  C  C130  1  0.81085000  0.48454000  0.62148000  1.0
  C  C131  1  0.31086000  0.51548000  0.87853000  1.0
  C  C132  1  0.27410000  0.48496000  0.45960000  1.0
  C  C133  1  0.77409000  0.51503000  0.04040000  1.0
  C  C134  1  0.72590000  0.51504000  0.54040000  1.0
  C  C135  1  0.22591000  0.48497000  0.95960000  1.0
  C  C136  1  0.35868000  0.51385000  0.49139000  1.0
  C  C137  1  0.85867000  0.48614000  0.00860000  1.0
  C  C138  1  0.64132000  0.48615000  0.50860000  1.0
  C  C139  1  0.14133000  0.51386000  0.99139000  1.0
  C  C140  1  0.35535000  0.50961000  0.54245000  1.0
  C  C141  1  0.85533000  0.49039000  0.95755000  1.0
  C  C142  1  0.64466000  0.49039000  0.45755000  1.0
  C  C143  1  0.14467000  0.50961000  0.04245000  1.0
  C  C144  1  0.26773000  0.47620000  0.56420000  1.0
  C  C145  1  0.76771000  0.52380000  0.93581000  1.0
  C  C146  1  0.73228000  0.52379000  0.43580000  1.0
  C  C147  1  0.23229000  0.47621000  0.06419000  1.0
  C  C148  1  0.18444000  0.44439000  0.53183000  1.0
  C  C149  1  0.68442000  0.55560000  0.96817000  1.0
  C  C150  1  0.81557000  0.55560000  0.46817000  1.0
  C  C151  1  0.31558000  0.44440000  0.03183000  1.0
  C  C152  1  0.18745000  0.44883000  0.48088000  1.0
  C  C153  1  0.68743000  0.55116000  0.01912000  1.0
  C  C154  1  0.81256000  0.55117000  0.51912000  1.0
  C  C155  1  0.31257000  0.44884000  0.98088000  1.0
  C  C156  1  0.17665000  0.45718000  0.64648000  1.0
  C  C157  1  0.67663000  0.54280000  0.85351000  1.0
  C  C158  1  0.82336000  0.54281000  0.35352000  1.0
  C  C159  1  0.32337000  0.45720000  0.14649000  1.0
  C  C160  1  0.26165000  0.47785000  0.61844000  1.0
  C  C161  1  0.76163000  0.52215000  0.88156000  1.0
  C  C162  1  0.73836000  0.52215000  0.38156000  1.0
  C  C163  1  0.23837000  0.47785000  0.11843000  1.0
  C  C164  1  0.33764000  0.50564000  0.65565000  1.0
  C  C165  1  0.83763000  0.49438000  0.84435000  1.0
  C  C166  1  0.66237000  0.49437000  0.34435000  1.0
  C  C167  1  0.16237000  0.50562000  0.15565000  1.0
  N  N168  1  0.20063000  0.47221000  0.69614000  1.0
  N  N169  1  0.70061000  0.52778000  0.80386000  1.0
  N  N170  1  0.79938000  0.52778000  0.30386000  1.0
  N  N171  1  0.29939000  0.47222000  0.19614000  1.0
  N  N172  1  0.30018000  0.50202000  0.70171000  1.0
  N  N173  1  0.80018000  0.49799000  0.79829000  1.0
  N  N174  1  0.69982000  0.49798000  0.29829000  1.0
  N  N175  1  0.19982000  0.50201000  0.20171000  1.0
  N  N176  1  0.32063000  0.50045000  0.32663000  1.0
  N  N177  1  0.82061000  0.49952000  0.17337000  1.0
  N  N178  1  0.67938000  0.49955000  0.67337000  1.0
  N  N179  1  0.17938000  0.50046000  0.82663000  1.0
  N  N180  1  0.46003000  0.61706000  0.25365000  1.0
  N  N181  1  0.96003000  0.38294000  0.24635000  1.0
  N  N182  1  0.53996000  0.38293000  0.74635000  1.0
  N  N183  1  0.03998000  0.61706000  0.75365000  1.0
  N  N184  1  0.55455000  0.60664000  0.23179000  1.0
  N  N185  1  0.05455000  0.39336000  0.26821000  1.0
  N  N186  1  0.44544000  0.39336000  0.76820000  1.0
  N  N187  1  0.94546000  0.60664000  0.73179000  1.0
  N  N188  1  0.21799000  0.51922000  0.33094000  1.0
  N  N189  1  0.71797000  0.48076000  0.16906000  1.0
  N  N190  1  0.78202000  0.48079000  0.66906000  1.0
  N  N191  1  0.28202000  0.51923000  0.83094000  1.0
  N  N192  1  0.55813000  0.35003000  0.22736000  1.0
  N  N193  1  0.05813000  0.64996000  0.27263000  1.0
  N  N194  1  0.44186000  0.64997000  0.77264000  1.0
  N  N195  1  0.94187000  0.35004000  0.72737000  1.0
  N  N196  1  0.46349000  0.35901000  0.24944000  1.0
  N  N197  1  0.96349000  0.64099000  0.25056000  1.0
  N  N198  1  0.53650000  0.64099000  0.75056000  1.0
  N  N199  1  0.03652000  0.35901000  0.74944000  1.0
