# generated using pymatgen
data_Zn3H16C26(NO3)4
_symmetry_space_group_name_H-M   'P 1'
_cell_length_a   12.69160000
_cell_length_b   17.82760000
_cell_length_c   20.96590000
_cell_angle_alpha   90.00110000
_cell_angle_beta   90.00330000
_cell_angle_gamma   99.63440000
_symmetry_Int_Tables_number   1
_chemical_formula_structural   Zn3H16C26(NO3)4
_chemical_formula_sum   'Zn12 H64 C104 N16 O48'
_cell_volume   4676.85336055
_cell_formula_units_Z   4
loop_
 _symmetry_equiv_pos_site_id
 _symmetry_equiv_pos_as_xyz
  1  'x, y, z'
loop_
 _atom_site_type_symbol
 _atom_site_label
 _atom_site_symmetry_multiplicity
 _atom_site_fract_x
 _atom_site_fract_y
 _atom_site_fract_z
 _atom_site_occupancy
  Zn  Zn0  1  0.55029000  0.22178000  0.62932000  1.0
  Zn  Zn1  1  0.44973000  0.27820000  0.12931000  1.0
  Zn  Zn2  1  0.44968000  0.77819000  0.37068000  1.0
  Zn  Zn3  1  0.55031000  0.72180000  0.87067000  1.0
  Zn  Zn4  1  0.30617000  0.22242000  0.60024000  1.0
  Zn  Zn5  1  0.69385000  0.27759000  0.10025000  1.0
  Zn  Zn6  1  0.69379000  0.77756000  0.39976000  1.0
  Zn  Zn7  1  0.30620000  0.72244000  0.89976000  1.0
  Zn  Zn8  1  0.81551000  0.24691000  0.60975000  1.0
  Zn  Zn9  1  0.18451000  0.25309000  0.10973000  1.0
  Zn  Zn10  1  0.18447000  0.75309000  0.39025000  1.0
  Zn  Zn11  1  0.81551000  0.74691000  0.89027000  1.0
  H  H12  1  0.19774000  0.24691000  0.79063000  1.0
  H  H13  1  0.80226000  0.25303000  0.29065000  1.0
  H  H14  1  0.80221000  0.75304000  0.20937000  1.0
  H  H15  1  0.19774000  0.74694000  0.70935000  1.0
  H  H16  1  0.16684000  0.25389000  0.90866000  1.0
  H  H17  1  0.83316000  0.24606000  0.40867000  1.0
  H  H18  1  0.83313000  0.74609000  0.09134000  1.0
  H  H19  1  0.16683000  0.75392000  0.59133000  1.0
  H  H20  1  0.50544000  0.27809000  0.94117000  1.0
  H  H21  1  0.49456000  0.22198000  0.44116000  1.0
  H  H22  1  0.49454000  0.72204000  0.05881000  1.0
  H  H23  1  0.50542000  0.77804000  0.55883000  1.0
  H  H24  1  0.53517000  0.26696000  0.82347000  1.0
  H  H25  1  0.46484000  0.23312000  0.32346000  1.0
  H  H26  1  0.46480000  0.73316000  0.17652000  1.0
  H  H27  1  0.53516000  0.76689000  0.67653000  1.0
  H  H28  1  0.88750000  0.06941000  0.70650000  1.0
  H  H29  1  0.11251000  0.43054000  0.20651000  1.0
  H  H30  1  0.11250000  0.93063000  0.29356000  1.0
  H  H31  1  0.88749000  0.56941000  0.79352000  1.0
  H  H32  1  0.91728000  0.95795000  0.77215000  1.0
  H  H33  1  0.08273000  0.54201000  0.27218000  1.0
  H  H34  1  0.08273000  0.04209000  0.22788000  1.0
  H  H35  1  0.91726000  0.45795000  0.72785000  1.0
  H  H36  1  0.57779000  0.88499000  0.78654000  1.0
  H  H37  1  0.42222000  0.61500000  0.28654000  1.0
  H  H38  1  0.42222000  0.11498000  0.21344000  1.0
  H  H39  1  0.57776000  0.38502000  0.71344000  1.0
  H  H40  1  0.54754000  0.99917000  0.72293000  1.0
  H  H41  1  0.45247000  0.50082000  0.22293000  1.0
  H  H42  1  0.45246000  0.00081000  0.27705000  1.0
  H  H43  1  0.54753000  0.49919000  0.77705000  1.0
  H  H44  1  0.63697000  0.44265000  0.55902000  1.0
  H  H45  1  0.36307000  0.05736000  0.05900000  1.0
  H  H46  1  0.36300000  0.55732000  0.44097000  1.0
  H  H47  1  0.63704000  0.94271000  0.94094000  1.0
  H  H48  1  0.31433000  0.42899000  0.49272000  1.0
  H  H49  1  0.68570000  0.07103000  0.99271000  1.0
  H  H50  1  0.68565000  0.57097000  0.50726000  1.0
  H  H51  1  0.31441000  0.92902000  0.00724000  1.0
  H  H52  1  0.49496000  0.03368000  0.61489000  1.0
  H  H53  1  0.50502000  0.46632000  0.11488000  1.0
  H  H54  1  0.50501000  0.96631000  0.38513000  1.0
  H  H55  1  0.49502000  0.53368000  0.88512000  1.0
  H  H56  1  0.40443000  0.06863000  0.42104000  1.0
  H  H57  1  0.59563000  0.43138000  0.92105000  1.0
  H  H58  1  0.59555000  0.93136000  0.57898000  1.0
  H  H59  1  0.40442000  0.56863000  0.07895000  1.0
  H  H60  1  0.13442000  0.34648000  0.66629000  1.0
  H  H61  1  0.86559000  0.15353000  0.16626000  1.0
  H  H62  1  0.86552000  0.65349000  0.33375000  1.0
  H  H63  1  0.13442000  0.84647000  0.83374000  1.0
  H  H64  1  0.05242000  0.37102000  0.60351000  1.0
  H  H65  1  0.94759000  0.12899000  0.10348000  1.0
  H  H66  1  0.94751000  0.62896000  0.39655000  1.0
  H  H67  1  0.05245000  0.87101000  0.89654000  1.0
  H  H68  1  0.18858000  0.35783000  0.58822000  1.0
  H  H69  1  0.81143000  0.14218000  0.08819000  1.0
  H  H70  1  0.81136000  0.64216000  0.41182000  1.0
  H  H71  1  0.18861000  0.85782000  0.91181000  1.0
  H  H72  1  0.91386000  0.10903000  0.59652000  1.0
  H  H73  1  0.08616000  0.39098000  0.09651000  1.0
  H  H74  1  0.08610000  0.89095000  0.40347000  1.0
  H  H75  1  0.91387000  0.60902000  0.90349000  1.0
  C  C76  1  0.38613000  0.24694000  0.73042000  1.0
  C  C77  1  0.61389000  0.25305000  0.23043000  1.0
  C  C78  1  0.61385000  0.75305000  0.26957000  1.0
  C  C79  1  0.38612000  0.74695000  0.76957000  1.0
  C  C80  1  0.36821000  0.25633000  0.80041000  1.0
  C  C81  1  0.63180000  0.24366000  0.30041000  1.0
  C  C82  1  0.63176000  0.74369000  0.19959000  1.0
  C  C83  1  0.36820000  0.75633000  0.69958000  1.0
  C  C84  1  0.26432000  0.25359000  0.82410000  1.0
  C  C85  1  0.73567000  0.24638000  0.32412000  1.0
  C  C86  1  0.73564000  0.74641000  0.17589000  1.0
  C  C87  1  0.26432000  0.75360000  0.67588000  1.0
  C  C88  1  0.24727000  0.25773000  0.88939000  1.0
  C  C89  1  0.75272000  0.24225000  0.38940000  1.0
  C  C90  1  0.75269000  0.74228000  0.11060000  1.0
  C  C91  1  0.24726000  0.75774000  0.61060000  1.0
  C  C92  1  0.33414000  0.26636000  0.93170000  1.0
  C  C93  1  0.66586000  0.23364000  0.43172000  1.0
  C  C94  1  0.66584000  0.73370000  0.06828000  1.0
  C  C95  1  0.33412000  0.76635000  0.56828000  1.0
  C  C96  1  0.43839000  0.27113000  0.90800000  1.0
  C  C97  1  0.56162000  0.22892000  0.40800000  1.0
  C  C98  1  0.56160000  0.72898000  0.09199000  1.0
  C  C99  1  0.43836000  0.77108000  0.59200000  1.0
  C  C100  1  0.45508000  0.26534000  0.84269000  1.0
  C  C101  1  0.54493000  0.23471000  0.34269000  1.0
  C  C102  1  0.54489000  0.73475000  0.15730000  1.0
  C  C103  1  0.45507000  0.76530000  0.65731000  1.0
  C  C104  1  0.31492000  0.26850000  0.00186000  1.0
  C  C105  1  0.68508000  0.23150000  0.50187000  1.0
  C  C106  1  0.68507000  0.73152000  0.99813000  1.0
  C  C107  1  0.31489000  0.76850000  0.49814000  1.0
  C  C108  1  0.70014000  0.10824000  0.67088000  1.0
  C  C109  1  0.29988000  0.39174000  0.17089000  1.0
  C  C110  1  0.29983000  0.89175000  0.32912000  1.0
  C  C111  1  0.70014000  0.60825000  0.82912000  1.0
  C  C112  1  0.71560000  0.04011000  0.70948000  1.0
  C  C113  1  0.28441000  0.45987000  0.20949000  1.0
  C  C114  1  0.28440000  0.95990000  0.29053000  1.0
  C  C115  1  0.71559000  0.54012000  0.79052000  1.0
  C  C116  1  0.81986000  0.02854000  0.72345000  1.0
  C  C117  1  0.18016000  0.47142000  0.22347000  1.0
  C  C118  1  0.18014000  0.97149000  0.27658000  1.0
  C  C119  1  0.81985000  0.52854000  0.77655000  1.0
  C  C120  1  0.83684000  0.96696000  0.76016000  1.0
  C  C121  1  0.16318000  0.53300000  0.26019000  1.0
  C  C122  1  0.16317000  0.03306000  0.23987000  1.0
  C  C123  1  0.83682000  0.46697000  0.73984000  1.0
  C  C124  1  0.74937000  0.91495000  0.78246000  1.0
  C  C125  1  0.25064000  0.58501000  0.28249000  1.0
  C  C126  1  0.25065000  0.08504000  0.21754000  1.0
  C  C127  1  0.74934000  0.41497000  0.71752000  1.0
  C  C128  1  0.64478000  0.92585000  0.76858000  1.0
  C  C129  1  0.35523000  0.57412000  0.26860000  1.0
  C  C130  1  0.35523000  0.07413000  0.23140000  1.0
  C  C131  1  0.64476000  0.42588000  0.73139000  1.0
  C  C132  1  0.62820000  0.98887000  0.73292000  1.0
  C  C133  1  0.37181000  0.51111000  0.23293000  1.0
  C  C134  1  0.37181000  0.01112000  0.26707000  1.0
  C  C135  1  0.62819000  0.48889000  0.76706000  1.0
  C  C136  1  0.77030000  0.84952000  0.82122000  1.0
  C  C137  1  0.22972000  0.65045000  0.32124000  1.0
  C  C138  1  0.22973000  0.15047000  0.17877000  1.0
  C  C139  1  0.77027000  0.34953000  0.67877000  1.0
  C  C140  1  0.44463000  0.35251000  0.56044000  1.0
  C  C141  1  0.55538000  0.14751000  0.06042000  1.0
  C  C142  1  0.55534000  0.64747000  0.43956000  1.0
  C  C143  1  0.44470000  0.85254000  0.93954000  1.0
  C  C144  1  0.47289000  0.42863000  0.52904000  1.0
  C  C145  1  0.52714000  0.07138000  0.02901000  1.0
  C  C146  1  0.52708000  0.57134000  0.47096000  1.0
  C  C147  1  0.47297000  0.92867000  0.97094000  1.0
  C  C148  1  0.57779000  0.46839000  0.53301000  1.0
  C  C149  1  0.42224000  0.03161000  0.03300000  1.0
  C  C150  1  0.42218000  0.53158000  0.46698000  1.0
  C  C151  1  0.57786000  0.96843000  0.96696000  1.0
  C  C152  1  0.39535000  0.46067000  0.49577000  1.0
  C  C153  1  0.60468000  0.03935000  0.99576000  1.0
  C  C154  1  0.60462000  0.53930000  0.50422000  1.0
  C  C155  1  0.39543000  0.96070000  0.00420000  1.0
  C  C156  1  0.38567000  0.11799000  0.54079000  1.0
  C  C157  1  0.61433000  0.38201000  0.04079000  1.0
  C  C158  1  0.61430000  0.88200000  0.45922000  1.0
  C  C159  1  0.38570000  0.61799000  0.95920000  1.0
  C  C160  1  0.44418000  0.05683000  0.52005000  1.0
  C  C161  1  0.55581000  0.44317000  0.02004000  1.0
  C  C162  1  0.55578000  0.94315000  0.47997000  1.0
  C  C163  1  0.44422000  0.55684000  0.97995000  1.0
  C  C164  1  0.49761000  0.01828000  0.56477000  1.0
  C  C165  1  0.50237000  0.48172000  0.06477000  1.0
  C  C166  1  0.50236000  0.98171000  0.43524000  1.0
  C  C167  1  0.49766000  0.51829000  0.93523000  1.0
  C  C168  1  0.44640000  0.03813000  0.45515000  1.0
  C  C169  1  0.55363000  0.46187000  0.95515000  1.0
  C  C170  1  0.55358000  0.96185000  0.54487000  1.0
  C  C171  1  0.44641000  0.53814000  0.04485000  1.0
  C  C172  1  0.07783000  0.25627000  0.60353000  1.0
  C  C173  1  0.92219000  0.24374000  0.10351000  1.0
  C  C174  1  0.92213000  0.74372000  0.39649000  1.0
  C  C175  1  0.07784000  0.75626000  0.89650000  1.0
  C  C176  1  0.11529000  0.33814000  0.61533000  1.0
  C  C177  1  0.88473000  0.16186000  0.11529000  1.0
  C  C178  1  0.88466000  0.66183000  0.38472000  1.0
  C  C179  1  0.11530000  0.83814000  0.88472000  1.0
  N  N180  1  0.14159000  0.20256000  0.59511000  1.0
  N  N181  1  0.85842000  0.29745000  0.09512000  1.0
  N  N182  1  0.85837000  0.79743000  0.40489000  1.0
  N  N183  1  0.14161000  0.70255000  0.90489000  1.0
  N  N184  1  0.08037000  0.13503000  0.58931000  1.0
  N  N185  1  0.91964000  0.36498000  0.08933000  1.0
  N  N186  1  0.91959000  0.86496000  0.41068000  1.0
  N  N187  1  0.08039000  0.63502000  0.91068000  1.0
  N  N188  1  0.98253000  0.14889000  0.59340000  1.0
  N  N189  1  0.01749000  0.35112000  0.09340000  1.0
  N  N190  1  0.01743000  0.85109000  0.40659000  1.0
  N  N191  1  0.98254000  0.64888000  0.90661000  1.0
  N  N192  1  0.97590000  0.22201000  0.60213000  1.0
  N  N193  1  0.02412000  0.27800000  0.10211000  1.0
  N  N194  1  0.02406000  0.77797000  0.39788000  1.0
  N  N195  1  0.97591000  0.72200000  0.89790000  1.0
  O  O196  1  0.30486000  0.24565000  0.69375000  1.0
  O  O197  1  0.69517000  0.25435000  0.19376000  1.0
  O  O198  1  0.69511000  0.75433000  0.30625000  1.0
  O  O199  1  0.30485000  0.74565000  0.80624000  1.0
  O  O200  1  0.47987000  0.24039000  0.71326000  1.0
  O  O201  1  0.52014000  0.25959000  0.21325000  1.0
  O  O202  1  0.52011000  0.75961000  0.28675000  1.0
  O  O203  1  0.47986000  0.74040000  0.78674000  1.0
  O  O204  1  0.21783000  0.24493000  0.02006000  1.0
  O  O205  1  0.78216000  0.25504000  0.52008000  1.0
  O  O206  1  0.78216000  0.75508000  0.97994000  1.0
  O  O207  1  0.21781000  0.74495000  0.47992000  1.0
  O  O208  1  0.39245000  0.29284000  0.03825000  1.0
  O  O209  1  0.60754000  0.20718000  0.53825000  1.0
  O  O210  1  0.60757000  0.70716000  0.96174000  1.0
  O  O211  1  0.39242000  0.79284000  0.46174000  1.0
  O  O212  1  0.78313000  0.13924000  0.63853000  1.0
  O  O213  1  0.21689000  0.36074000  0.13854000  1.0
  O  O214  1  0.21684000  0.86075000  0.36146000  1.0
  O  O215  1  0.78313000  0.63923000  0.86149000  1.0
  O  O216  1  0.61173000  0.13101000  0.67269000  1.0
  O  O217  1  0.38830000  0.36898000  0.17270000  1.0
  O  O218  1  0.38825000  0.86898000  0.32732000  1.0
  O  O219  1  0.61174000  0.63102000  0.82731000  1.0
  O  O220  1  0.86550000  0.84739000  0.84107000  1.0
  O  O221  1  0.13453000  0.65259000  0.34109000  1.0
  O  O222  1  0.13453000  0.15262000  0.15892000  1.0
  O  O223  1  0.86547000  0.34740000  0.65893000  1.0
  O  O224  1  0.69560000  0.79442000  0.83504000  1.0
  O  O225  1  0.30441000  0.70556000  0.33504000  1.0
  O  O226  1  0.30444000  0.20555000  0.16493000  1.0
  O  O227  1  0.69558000  0.29442000  0.66496000  1.0
  O  O228  1  0.51699000  0.32587000  0.58983000  1.0
  O  O229  1  0.48301000  0.17414000  0.08978000  1.0
  O  O230  1  0.48297000  0.67412000  0.41019000  1.0
  O  O231  1  0.51704000  0.82588000  0.91017000  1.0
  O  O232  1  0.34642000  0.31954000  0.55537000  1.0
  O  O233  1  0.65359000  0.18049000  0.05537000  1.0
  O  O234  1  0.65355000  0.68045000  0.44463000  1.0
  O  O235  1  0.34647000  0.81956000  0.94461000  1.0
  O  O236  1  0.40553000  0.14599000  0.59887000  1.0
  O  O237  1  0.59448000  0.35401000  0.09888000  1.0
  O  O238  1  0.59444000  0.85400000  0.40113000  1.0
  O  O239  1  0.40556000  0.64600000  0.90112000  1.0
  O  O240  1  0.31843000  0.14219000  0.50628000  1.0
  O  O241  1  0.68157000  0.35781000  0.00629000  1.0
  O  O242  1  0.68153000  0.85778000  0.49372000  1.0
  O  O243  1  0.31847000  0.64220000  0.99371000  1.0
