# generated using pymatgen
data_CdH22C28(NO)4
_symmetry_space_group_name_H-M   'P 1'
_cell_length_a   10.46820000
_cell_length_b   10.48140000
_cell_length_c   10.93300000
_cell_angle_alpha   99.45860000
_cell_angle_beta   92.17860000
_cell_angle_gamma   93.19770000
_symmetry_Int_Tables_number   1
_chemical_formula_structural   CdH22C28(NO)4
_chemical_formula_sum   'Cd2 H44 C56 N8 O8'
_cell_volume   1180.07631618
_cell_formula_units_Z   2
loop_
 _symmetry_equiv_pos_site_id
 _symmetry_equiv_pos_as_xyz
  1  'x, y, z'
loop_
 _atom_site_type_symbol
 _atom_site_label
 _atom_site_symmetry_multiplicity
 _atom_site_fract_x
 _atom_site_fract_y
 _atom_site_fract_z
 _atom_site_occupancy
  Cd  Cd0  1  0.37828000  0.34034000  0.45484000  1.0
  Cd  Cd1  1  0.62172000  0.65965000  0.54517000  1.0
  H  H2  1  0.58594000  0.13485000  0.33128000  1.0
  H  H3  1  0.41406000  0.86515000  0.66872000  1.0
  H  H4  1  0.58994000  0.28028000  0.99150000  1.0
  H  H5  1  0.41006000  0.71972000  0.00850000  1.0
  H  H6  1  0.81756000  0.10338000  0.26801000  1.0
  H  H7  1  0.18244000  0.89662000  0.73199000  1.0
  H  H8  1  0.95747000  0.93309000  0.18416000  1.0
  H  H9  1  0.04253000  0.06691000  0.81584000  1.0
  H  H10  1  0.73786000  0.87296000  0.83482000  1.0
  H  H11  1  0.26215000  0.12704000  0.16518000  1.0
  H  H12  1  0.59869000  0.04302000  0.91904000  1.0
  H  H13  1  0.40131000  0.95698000  0.08096000  1.0
  H  H14  1  0.03666000  0.76205000  0.12829000  1.0
  H  H15  1  0.96334000  0.23795000  0.87171000  1.0
  H  H16  1  0.17461000  0.59371000  0.03948000  1.0
  H  H17  1  0.82539000  0.40629000  0.96051000  1.0
  H  H18  1  0.00461000  0.60279000  0.67458000  1.0
  H  H19  1  0.99539000  0.39722000  0.32542000  1.0
  H  H20  1  0.87482000  0.77444000  0.75968000  1.0
  H  H21  1  0.12518000  0.22557000  0.24031000  1.0
  H  H22  1  0.19852000  0.54979000  0.61597000  1.0
  H  H23  1  0.80148000  0.45021000  0.38403000  1.0
  H  H24  1  0.21599000  0.37678000  0.93934000  1.0
  H  H25  1  0.78400000  0.62323000  0.06066000  1.0
  H  H26  1  0.40788000  0.46554000  0.04889000  1.0
  H  H27  1  0.59212000  0.53446000  0.95111000  1.0
  H  H28  1  0.44287000  0.54068000  0.20649000  1.0
  H  H29  1  0.55713000  0.45932000  0.79351000  1.0
  H  H30  1  0.30692000  0.43150000  0.16914000  1.0
  H  H31  1  0.69308000  0.56850000  0.83086000  1.0
  H  H32  1  0.49128000  0.24297000  0.74325000  1.0
  H  H33  1  0.50872000  0.75703000  0.25675000  1.0
  H  H34  1  0.35871000  0.13473000  0.69357000  1.0
  H  H35  1  0.64128000  0.86527000  0.30643000  1.0
  H  H36  1  0.38988000  0.18993000  0.85603000  1.0
  H  H37  1  0.61011000  0.81007000  0.14397000  1.0
  H  H38  1  0.39435000  0.85545000  0.43729000  1.0
  H  H39  1  0.60565000  0.14455000  0.56271000  1.0
  H  H40  1  0.04822000  0.60652000  0.38677000  1.0
  H  H41  1  0.95178000  0.39348000  0.61323000  1.0
  H  H42  1  0.91910000  0.79709000  0.37190000  1.0
  H  H43  1  0.08090000  0.20290000  0.62809000  1.0
  H  H44  1  0.03330000  0.01679000  0.38236000  1.0
  H  H45  1  0.96670000  0.98320000  0.61764000  1.0
  C  C46  1  0.56724000  0.19659000  0.26300000  1.0
  C  C47  1  0.43276000  0.80342000  0.73700000  1.0
  C  C48  1  0.48552000  0.34172000  0.16526000  1.0
  C  C49  1  0.51448000  0.65828000  0.83474000  1.0
  C  C50  1  0.56428000  0.27205000  0.08499000  1.0
  C  C51  1  0.43572000  0.72795000  0.91501000  1.0
  C  C52  1  0.69844000  0.08332000  0.09931000  1.0
  C  C53  1  0.30156000  0.91668000  0.90069000  1.0
  C  C54  1  0.79902000  0.05088000  0.17375000  1.0
  C  C55  1  0.20098000  0.94912000  0.82625000  1.0
  C  C56  1  0.87769000  0.95414000  0.12554000  1.0
  C  C57  1  0.12231000  0.04586000  0.87446000  1.0
  C  C58  1  0.85892000  0.88694000  0.00316000  1.0
  C  C59  1  0.14109000  0.11306000  0.99684000  1.0
  C  C60  1  0.75709000  0.92214000  0.92999000  1.0
  C  C61  1  0.24291000  0.07786000  0.07001000  1.0
  C  C62  1  0.67797000  0.01898000  0.97693000  1.0
  C  C63  1  0.32203000  0.98102000  0.02307000  1.0
  C  C64  1  0.94287000  0.78385000  0.95233000  1.0
  C  C65  1  0.05713000  0.21615000  0.04767000  1.0
  C  C66  1  0.02944000  0.72961000  0.02820000  1.0
  C  C67  1  0.97056000  0.27039000  0.97180000  1.0
  C  C68  1  0.10804000  0.63304000  0.97846000  1.0
  C  C69  1  0.89196000  0.36696000  0.02154000  1.0
  C  C70  1  0.10146000  0.58749000  0.85055000  1.0
  C  C71  1  0.89854000  0.41251000  0.14945000  1.0
  C  C72  1  0.01481000  0.63867000  0.77394000  1.0
  C  C73  1  0.98519000  0.36133000  0.22606000  1.0
  C  C74  1  0.93785000  0.73561000  0.82417000  1.0
  C  C75  1  0.06215000  0.26439000  0.17583000  1.0
  C  C76  1  0.22500000  0.48484000  0.67856000  1.0
  C  C77  1  0.77500000  0.51516000  0.32144000  1.0
  C  C78  1  0.23808000  0.39483000  0.84767000  1.0
  C  C79  1  0.76192000  0.60517000  0.15233000  1.0
  C  C80  1  0.31162000  0.33039000  0.75831000  1.0
  C  C81  1  0.68838000  0.66961000  0.24169000  1.0
  C  C82  1  0.40667000  0.45095000  0.14579000  1.0
  C  C83  1  0.59333000  0.54905000  0.85421000  1.0
  C  C84  1  0.39178000  0.21841000  0.76400000  1.0
  C  C85  1  0.60822000  0.78158000  0.23600000  1.0
  C  C86  1  0.28288000  0.08223000  0.42292000  1.0
  C  C87  1  0.71712000  0.91777000  0.57708000  1.0
  C  C88  1  0.30256000  0.60044000  0.41794000  1.0
  C  C89  1  0.69744000  0.39955000  0.58207000  1.0
  C  C90  1  0.21927000  0.94821000  0.40941000  1.0
  C  C91  1  0.78073000  0.05179000  0.59059000  1.0
  C  C92  1  0.29077000  0.84122000  0.42001000  1.0
  C  C93  1  0.70923000  0.15878000  0.57999000  1.0
  C  C94  1  0.22853000  0.71767000  0.40938000  1.0
  C  C95  1  0.77146000  0.28233000  0.59062000  1.0
  C  C96  1  0.09460000  0.70287000  0.39222000  1.0
  C  C97  1  0.90540000  0.29713000  0.60778000  1.0
  C  C98  1  0.02318000  0.80932000  0.38278000  1.0
  C  C99  1  0.97682000  0.19068000  0.61722000  1.0
  C  C100  1  0.08589000  0.93137000  0.38937000  1.0
  C  C101  1  0.91411000  0.06862000  0.61063000  1.0
  N  N102  1  0.48874000  0.29279000  0.27572000  1.0
  N  N103  1  0.51126000  0.70721000  0.72428000  1.0
  N  N104  1  0.61605000  0.18066000  0.14796000  1.0
  N  N105  1  0.38395000  0.81934000  0.85204000  1.0
  N  N106  1  0.18328000  0.49272000  0.79593000  1.0
  N  N107  1  0.81672000  0.50728000  0.20407000  1.0
  N  N108  1  0.30173000  0.38862000  0.65324000  1.0
  N  N109  1  0.69828000  0.61138000  0.34676000  1.0
  O  O110  1  0.39828000  0.10236000  0.46438000  1.0
  O  O111  1  0.60172000  0.89764000  0.53562000  1.0
  O  O112  1  0.21516000  0.17186000  0.39348000  1.0
  O  O113  1  0.78484000  0.82814000  0.60652000  1.0
  O  O114  1  0.42340000  0.61322000  0.43492000  1.0
  O  O115  1  0.57660000  0.38679000  0.56509000  1.0
  O  O116  1  0.23836000  0.49126000  0.40661000  1.0
  O  O117  1  0.76164000  0.50874000  0.59339000  1.0
