# generated using pymatgen
data_ZnH11C11N5O3
_symmetry_space_group_name_H-M   'P 1'
_cell_length_a   9.62378000
_cell_length_b   9.76864000
_cell_length_c   14.43710000
_cell_angle_alpha   99.28880000
_cell_angle_beta   89.99950000
_cell_angle_gamma   89.99990000
_symmetry_Int_Tables_number   1
_chemical_formula_structural   ZnH11C11N5O3
_chemical_formula_sum   'Zn4 H44 C44 N20 O12'
_cell_volume   1339.45248020
_cell_formula_units_Z   4
loop_
 _symmetry_equiv_pos_site_id
 _symmetry_equiv_pos_as_xyz
  1  'x, y, z'
loop_
 _atom_site_type_symbol
 _atom_site_label
 _atom_site_symmetry_multiplicity
 _atom_site_fract_x
 _atom_site_fract_y
 _atom_site_fract_z
 _atom_site_occupancy
  Zn  Zn0  1  0.07212000  0.63455000  0.08801000  1.0
  Zn  Zn1  1  0.57212000  0.86546000  0.91198000  1.0
  Zn  Zn2  1  0.92788000  0.36546000  0.91198000  1.0
  Zn  Zn3  1  0.42788000  0.13455000  0.08802000  1.0
  H  H4  1  0.94285000  0.95277000  0.30808000  1.0
  H  H5  1  0.44285000  0.54723000  0.69193000  1.0
  H  H6  1  0.05715000  0.04723000  0.69192000  1.0
  H  H7  1  0.55715000  0.45276000  0.30808000  1.0
  H  H8  1  0.21250000  0.69323000  0.44218000  1.0
  H  H9  1  0.71251000  0.80676000  0.55781000  1.0
  H  H10  1  0.78749000  0.30677000  0.55782000  1.0
  H  H11  1  0.28749000  0.19323000  0.44219000  1.0
  H  H12  1  0.84248000  0.86671000  0.05777000  1.0
  H  H13  1  0.34248000  0.63331000  0.94222000  1.0
  H  H14  1  0.15752000  0.13330000  0.94222000  1.0
  H  H15  1  0.65753000  0.36670000  0.05778000  1.0
  H  H16  1  0.68227000  0.55588000  0.84752000  1.0
  H  H17  1  0.18228000  0.94412000  0.15249000  1.0
  H  H18  1  0.31772000  0.44412000  0.15248000  1.0
  H  H19  1  0.81772000  0.05589000  0.84752000  1.0
  H  H20  1  0.17191000  0.84195000  0.59753000  1.0
  H  H21  1  0.67191000  0.65803000  0.40246000  1.0
  H  H22  1  0.82809000  0.15804000  0.40247000  1.0
  H  H23  1  0.32809000  0.34196000  0.59754000  1.0
  H  H24  1  0.07539000  0.44292000  0.28840000  1.0
  H  H25  1  0.57539000  0.05708000  0.71160000  1.0
  H  H26  1  0.92460000  0.55709000  0.71160000  1.0
  H  H27  1  0.42461000  0.94292000  0.28840000  1.0
  H  H28  1  0.03489000  0.32567000  0.36740000  1.0
  H  H29  1  0.53489000  0.17433000  0.63260000  1.0
  H  H30  1  0.96511000  0.67434000  0.63260000  1.0
  H  H31  1  0.46512000  0.82567000  0.36740000  1.0
  H  H32  1  0.80849000  0.42717000  0.36326000  1.0
  H  H33  1  0.30849000  0.07283000  0.63674000  1.0
  H  H34  1  0.19151000  0.57283000  0.63674000  1.0
  H  H35  1  0.69152000  0.92716000  0.36326000  1.0
  H  H36  1  0.83261000  0.46794000  0.24819000  1.0
  H  H37  1  0.33260000  0.03206000  0.75182000  1.0
  H  H38  1  0.16739000  0.53206000  0.75182000  1.0
  H  H39  1  0.66740000  0.96793000  0.24819000  1.0
  H  H40  1  0.69371000  0.24399000  0.23279000  1.0
  H  H41  1  0.19370000  0.25601000  0.76721000  1.0
  H  H42  1  0.30629000  0.75601000  0.76721000  1.0
  H  H43  1  0.80630000  0.74398000  0.23278000  1.0
  H  H44  1  0.11142000  0.18098000  0.22152000  1.0
  H  H45  1  0.61142000  0.31902000  0.77848000  1.0
  H  H46  1  0.88857000  0.81902000  0.77848000  1.0
  H  H47  1  0.38858000  0.68098000  0.22152000  1.0
  C  C48  1  0.09991000  0.72187000  0.27538000  1.0
  C  C49  1  0.59991000  0.77813000  0.72462000  1.0
  C  C50  1  0.90009000  0.27813000  0.72462000  1.0
  C  C51  1  0.40009000  0.22187000  0.27538000  1.0
  C  C52  1  0.07638000  0.81345000  0.36706000  1.0
  C  C53  1  0.57638000  0.68655000  0.63294000  1.0
  C  C54  1  0.92363000  0.18655000  0.63294000  1.0
  C  C55  1  0.42362000  0.31345000  0.36706000  1.0
  C  C56  1  0.99098000  0.92866000  0.37193000  1.0
  C  C57  1  0.49098000  0.57134000  0.62807000  1.0
  C  C58  1  0.00902000  0.07134000  0.62807000  1.0
  C  C59  1  0.50902000  0.42865000  0.37193000  1.0
  C  C60  1  0.96711000  0.01639000  0.45848000  1.0
  C  C61  1  0.46711000  0.48360000  0.54152000  1.0
  C  C62  1  0.03290000  0.98360000  0.54152000  1.0
  C  C63  1  0.53289000  0.51639000  0.45848000  1.0
  C  C64  1  0.14387000  0.78312000  0.44883000  1.0
  C  C65  1  0.64388000  0.71687000  0.55116000  1.0
  C  C66  1  0.85613000  0.21688000  0.55116000  1.0
  C  C67  1  0.35612000  0.28312000  0.44884000  1.0
  C  C68  1  0.82673000  0.76911000  0.01028000  1.0
  C  C69  1  0.32673000  0.73090000  0.98971000  1.0
  C  C70  1  0.17327000  0.23090000  0.98972000  1.0
  C  C71  1  0.67327000  0.26910000  0.01029000  1.0
  C  C72  1  0.74551000  0.61131000  0.90346000  1.0
  C  C73  1  0.24552000  0.88870000  0.09654000  1.0
  C  C74  1  0.25448000  0.38870000  0.09654000  1.0
  C  C75  1  0.75448000  0.11131000  0.90346000  1.0
  C  C76  1  0.12166000  0.86572000  0.53419000  1.0
  C  C77  1  0.62165000  0.63427000  0.46580000  1.0
  C  C78  1  0.87835000  0.13428000  0.46581000  1.0
  C  C79  1  0.37835000  0.36572000  0.53420000  1.0
  C  C80  1  0.89666000  0.17207000  0.20462000  1.0
  C  C81  1  0.39665000  0.32793000  0.79537000  1.0
  C  C82  1  0.10334000  0.82793000  0.79537000  1.0
  C  C83  1  0.60334000  0.67208000  0.20463000  1.0
  C  C84  1  0.00843000  0.35607000  0.29915000  1.0
  C  C85  1  0.50843000  0.14392000  0.70085000  1.0
  C  C86  1  0.99157000  0.64393000  0.70085000  1.0
  C  C87  1  0.49158000  0.85607000  0.29915000  1.0
  C  C88  1  0.85275000  0.38970000  0.29374000  1.0
  C  C89  1  0.35275000  0.11030000  0.70626000  1.0
  C  C90  1  0.14725000  0.61030000  0.70626000  1.0
  C  C91  1  0.64726000  0.88970000  0.29374000  1.0
  N  N92  1  0.90776000  0.65820000  0.00768000  1.0
  N  N93  1  0.40776000  0.84180000  0.99231000  1.0
  N  N94  1  0.09224000  0.34180000  0.99231000  1.0
  N  N95  1  0.59224000  0.15820000  0.00769000  1.0
  N  N96  1  0.85629000  0.55766000  0.93915000  1.0
  N  N97  1  0.35630000  0.94234000  0.06085000  1.0
  N  N98  1  0.14370000  0.44234000  0.06085000  1.0
  N  N99  1  0.64370000  0.05767000  0.93915000  1.0
  N  N100  1  0.72381000  0.74302000  0.94596000  1.0
  N  N101  1  0.22381000  0.75698000  0.05404000  1.0
  N  N102  1  0.27619000  0.25698000  0.05404000  1.0
  N  N103  1  0.77619000  0.24302000  0.94597000  1.0
  N  N104  1  0.79568000  0.25476000  0.25279000  1.0
  N  N105  1  0.29567000  0.24524000  0.74721000  1.0
  N  N106  1  0.20432000  0.74524000  0.74722000  1.0
  N  N107  1  0.70433000  0.75475000  0.25278000  1.0
  N  N108  1  0.02263000  0.23840000  0.22309000  1.0
  N  N109  1  0.52262000  0.26160000  0.77692000  1.0
  N  N110  1  0.97737000  0.76160000  0.77692000  1.0
  N  N111  1  0.47737000  0.73840000  0.22309000  1.0
  O  O112  1  0.00675000  0.72925000  0.21056000  1.0
  O  O113  1  0.50676000  0.77076000  0.78943000  1.0
  O  O114  1  0.99325000  0.27076000  0.78943000  1.0
  O  O115  1  0.49324000  0.22924000  0.21057000  1.0
  O  O116  1  0.20383000  0.64357000  0.26234000  1.0
  O  O117  1  0.70383000  0.85642000  0.73765000  1.0
  O  O118  1  0.79617000  0.35642000  0.73765000  1.0
  O  O119  1  0.29617000  0.14357000  0.26235000  1.0
  O  O120  1  0.87805000  0.05723000  0.15429000  1.0
  O  O121  1  0.37804000  0.44278000  0.84571000  1.0
  O  O122  1  0.12195000  0.94278000  0.84571000  1.0
  O  O123  1  0.62195000  0.55721000  0.15429000  1.0
