# generated using pymatgen
data_CdH12C14(SN4)2
_symmetry_space_group_name_H-M   'P 1'
_cell_length_a   8.31123000
_cell_length_b   8.63829000
_cell_length_c   12.39620000
_cell_angle_alpha   110.36000000
_cell_angle_beta   97.88160000
_cell_angle_gamma   90.02400000
_symmetry_Int_Tables_number   1
_chemical_formula_structural   CdH12C14(SN4)2
_chemical_formula_sum   'Cd2 H24 C28 S4 N16'
_cell_volume   825.38872907
_cell_formula_units_Z   2
loop_
 _symmetry_equiv_pos_site_id
 _symmetry_equiv_pos_as_xyz
  1  'x, y, z'
loop_
 _atom_site_type_symbol
 _atom_site_label
 _atom_site_symmetry_multiplicity
 _atom_site_fract_x
 _atom_site_fract_y
 _atom_site_fract_z
 _atom_site_occupancy
  Cd  Cd0  1  0.50000000  0.00000000  0.50000000  1.0
  Cd  Cd1  1  0.99999000  0.50000000  0.50000000  1.0
  H  H2  1  0.95689000  0.53262000  0.17745000  1.0
  H  H3  1  0.54388000  0.35509000  0.82315000  1.0
  H  H4  1  0.04311000  0.46738000  0.82256000  1.0
  H  H5  1  0.45613000  0.64491000  0.17685000  1.0
  H  H6  1  0.85208000  0.23839000  0.08982000  1.0
  H  H7  1  0.64906000  0.14878000  0.91100000  1.0
  H  H8  1  0.14791000  0.76161000  0.91018000  1.0
  H  H9  1  0.35095000  0.85123000  0.08899000  1.0
  H  H10  1  0.99542000  0.79289000  0.15776000  1.0
  H  H11  1  0.50496000  0.63504000  0.84275000  1.0
  H  H12  1  0.00459000  0.20711000  0.84225000  1.0
  H  H13  1  0.49505000  0.36497000  0.15726000  1.0
  H  H14  1  0.88037000  0.85274000  0.04819000  1.0
  H  H15  1  0.62012000  0.80449000  0.95209000  1.0
  H  H16  1  0.11963000  0.14726000  0.95181000  1.0
  H  H17  1  0.37989000  0.19552000  0.04791000  1.0
  H  H18  1  0.50903000  0.14999000  0.27557000  1.0
  H  H19  1  0.99068000  0.87472000  0.72406000  1.0
  H  H20  1  0.49097000  0.85000000  0.72443000  1.0
  H  H21  1  0.00932000  0.12527000  0.27594000  1.0
  H  H22  1  0.79652000  0.77392000  0.32563000  1.0
  H  H23  1  0.70346000  0.44852000  0.67465000  1.0
  H  H24  1  0.20348000  0.22608000  0.67437000  1.0
  H  H25  1  0.29653000  0.55148000  0.32535000  1.0
  C  C26  1  0.80931000  0.60978000  0.05030000  1.0
  C  C27  1  0.69136000  0.55965000  0.95014000  1.0
  C  C28  1  0.19069000  0.39021000  0.94970000  1.0
  C  C29  1  0.30864000  0.44035000  0.04986000  1.0
  C  C30  1  0.86580000  0.49311000  0.09961000  1.0
  C  C31  1  0.63499000  0.39361000  0.90099000  1.0
  C  C32  1  0.13420000  0.50690000  0.90040000  1.0
  C  C33  1  0.36501000  0.60639000  0.09901000  1.0
  C  C34  1  0.80798000  0.32814000  0.05049000  1.0
  C  C35  1  0.69295000  0.27794000  0.95026000  1.0
  C  C36  1  0.19202000  0.67186000  0.94952000  1.0
  C  C37  1  0.30705000  0.72206000  0.04975000  1.0
  C  C38  1  0.87335000  0.78750000  0.10917000  1.0
  C  C39  1  0.62708000  0.67833000  0.89118000  1.0
  C  C40  1  0.12665000  0.21250000  0.89084000  1.0
  C  C41  1  0.37292000  0.32167000  0.10883000  1.0
  C  C42  1  0.59320000  0.05155000  0.26142000  1.0
  C  C43  1  0.90662000  0.79039000  0.73838000  1.0
  C  C44  1  0.40680000  0.94845000  0.73858000  1.0
  C  C45  1  0.09338000  0.20961000  0.26162000  1.0
  C  C46  1  0.73861000  0.86242000  0.29058000  1.0
  C  C47  1  0.76138000  0.57206000  0.70956000  1.0
  C  C48  1  0.26139000  0.13757000  0.70942000  1.0
  C  C49  1  0.23861000  0.42794000  0.29044000  1.0
  C  C50  1  0.12062000  0.81324000  0.43356000  1.0
  C  C51  1  0.37950000  0.37963000  0.56618000  1.0
  C  C52  1  0.87938000  0.18676000  0.56643000  1.0
  C  C53  1  0.62049000  0.62036000  0.43382000  1.0
  S  S54  1  0.21062000  0.88724000  0.35190000  1.0
  S  S55  1  0.28968000  0.53533000  0.64780000  1.0
  S  S56  1  0.78939000  0.11277000  0.64809000  1.0
  S  S57  1  0.71030000  0.46467000  0.35220000  1.0
  N  N58  1  0.76831000  0.88298000  0.19225000  1.0
  N  N59  1  0.73184000  0.69087000  0.80789000  1.0
  N  N60  1  0.23169000  0.11702000  0.80775000  1.0
  N  N61  1  0.26817000  0.30914000  0.19211000  1.0
  N  N62  1  0.67593000  0.00341000  0.17180000  1.0
  N  N63  1  0.82409000  0.83181000  0.82811000  1.0
  N  N64  1  0.32407000  0.99659000  0.82820000  1.0
  N  N65  1  0.17591000  0.16819000  0.17189000  1.0
  N  N66  1  0.62717000  0.96741000  0.33608000  1.0
  N  N67  1  0.87264000  0.63159000  0.66385000  1.0
  N  N68  1  0.37283000  0.03259000  0.66391000  1.0
  N  N69  1  0.12736000  0.36841000  0.33615000  1.0
  N  N70  1  0.05252000  0.75804000  0.49121000  1.0
  N  N71  1  0.44744000  0.26675000  0.50855000  1.0
  N  N72  1  0.94748000  0.24196000  0.50878000  1.0
  N  N73  1  0.55255000  0.73325000  0.49145000  1.0
