# generated using pymatgen
data_Zn2H6C4N8O7
_symmetry_space_group_name_H-M   'P 1'
_cell_length_a   8.06011000
_cell_length_b   9.05157000
_cell_length_c   9.80628000
_cell_angle_alpha   77.45500000
_cell_angle_beta   68.46300000
_cell_angle_gamma   66.68990000
_symmetry_Int_Tables_number   1
_chemical_formula_structural   Zn2H6C4N8O7
_chemical_formula_sum   'Zn4 H12 C8 N16 O14'
_cell_volume   608.99227858
_cell_formula_units_Z   2
loop_
 _symmetry_equiv_pos_site_id
 _symmetry_equiv_pos_as_xyz
  1  'x, y, z'
loop_
 _atom_site_type_symbol
 _atom_site_label
 _atom_site_symmetry_multiplicity
 _atom_site_fract_x
 _atom_site_fract_y
 _atom_site_fract_z
 _atom_site_occupancy
  Zn  Zn0  1  0.17200000  0.98803000  0.08235000  1.0
  Zn  Zn1  1  0.82800000  0.01197000  0.91765000  1.0
  Zn  Zn2  1  0.60451000  0.62924000  0.52337000  1.0
  Zn  Zn3  1  0.39549000  0.37076000  0.47663000  1.0
  H  H4  1  0.13721000  0.82554000  0.63419000  1.0
  H  H5  1  0.86279000  0.17446000  0.36581000  1.0
  H  H6  1  0.53747000  0.76107000  0.84267000  1.0
  H  H7  1  0.46253000  0.23893000  0.15733000  1.0
  H  H8  1  0.21940000  0.61737000  0.21264000  1.0
  H  H9  1  0.78059000  0.38263000  0.78736000  1.0
  H  H10  1  0.42590000  0.93650000  0.29885000  1.0
  H  H11  1  0.57410000  0.06350000  0.70115000  1.0
  H  H12  1  0.85282000  0.57223000  0.24630000  1.0
  H  H13  1  0.14718000  0.42777000  0.75370000  1.0
  H  H14  1  0.95823000  0.44468000  0.35700000  1.0
  H  H15  1  0.04177000  0.55532000  0.64300000  1.0
  C  C16  1  0.20394000  0.83045000  0.71037000  1.0
  C  C17  1  0.79606000  0.16955000  0.28963000  1.0
  C  C18  1  0.40656000  0.79835000  0.81582000  1.0
  C  C19  1  0.59344000  0.20165000  0.18418000  1.0
  C  C20  1  0.28556000  0.66960000  0.25859000  1.0
  C  C21  1  0.71444000  0.33040000  0.74141000  1.0
  C  C22  1  0.39009000  0.83209000  0.30203000  1.0
  C  C23  1  0.60991000  0.16791000  0.69797000  1.0
  N  N24  1  0.39109000  0.76093000  0.69615000  1.0
  N  N25  1  0.60891000  0.23908000  0.30385000  1.0
  N  N26  1  0.10777000  0.90797000  0.83205000  1.0
  N  N27  1  0.89223000  0.09203000  0.16795000  1.0
  N  N28  1  0.23799000  0.88773000  0.89993000  1.0
  N  N29  1  0.76201000  0.11227000  0.10007000  1.0
  N  N30  1  0.29523000  0.81987000  0.21848000  1.0
  N  N31  1  0.70477000  0.18013000  0.78152000  1.0
  N  N32  1  0.36921000  0.59369000  0.36082000  1.0
  N  N33  1  0.63079000  0.40631000  0.63918000  1.0
  N  N34  1  0.43645000  0.69758000  0.38847000  1.0
  N  N35  1  0.56355000  0.30243000  0.61153000  1.0
  N  N36  1  0.22903000  0.28602000  0.98921000  1.0
  N  N37  1  0.77096000  0.71398000  0.01079000  1.0
  N  N38  1  0.82665000  0.79086000  0.51684000  1.0
  N  N39  1  0.17335000  0.20914000  0.48316000  1.0
  O  O40  1  0.28090000  0.15668000  0.07719000  1.0
  O  O41  1  0.71910000  0.84332000  0.92281000  1.0
  O  O42  1  0.14080000  0.28141000  0.90795000  1.0
  O  O43  1  0.85920000  0.71859000  0.09205000  1.0
  O  O44  1  0.27069000  0.40361000  0.98939000  1.0
  O  O45  1  0.72931000  0.59639000  0.01061000  1.0
  O  O46  1  0.83128000  0.65578000  0.59780000  1.0
  O  O47  1  0.16872000  0.34423000  0.40220000  1.0
  O  O48  1  0.71202000  0.84232000  0.44194000  1.0
  O  O49  1  0.28798000  0.15768000  0.55806000  1.0
  O  O50  1  0.92903000  0.86440000  0.51435000  1.0
  O  O51  1  0.07097000  0.13560000  0.48565000  1.0
  O  O52  1  0.83272000  0.50652000  0.34191000  1.0
  O  O53  1  0.16729000  0.49348000  0.65809000  1.0
