# generated using pymatgen
data_CuH5C7NCl
_symmetry_space_group_name_H-M   'P 1'
_cell_length_a   3.75925000
_cell_length_b   10.84330000
_cell_length_c   16.93170000
_cell_angle_alpha   89.99650000
_cell_angle_beta   89.99910000
_cell_angle_gamma   98.59640000
_symmetry_Int_Tables_number   1
_chemical_formula_structural   CuH5C7NCl
_chemical_formula_sum   'Cu4 H20 C28 N4 Cl4'
_cell_volume   682.42773841
_cell_formula_units_Z   4
loop_
 _symmetry_equiv_pos_site_id
 _symmetry_equiv_pos_as_xyz
  1  'x, y, z'
loop_
 _atom_site_type_symbol
 _atom_site_label
 _atom_site_symmetry_multiplicity
 _atom_site_fract_x
 _atom_site_fract_y
 _atom_site_fract_z
 _atom_site_occupancy
  Cu  Cu0  1  0.68992000  0.90179000  0.95248000  1.0
  Cu  Cu1  1  0.81004000  0.59822000  0.45247000  1.0
  Cu  Cu2  1  0.31009000  0.09824000  0.04753000  1.0
  Cu  Cu3  1  0.18987000  0.40174000  0.54752000  1.0
  H  H4  1  0.69100000  0.42795000  0.97498000  1.0
  H  H5  1  0.80901000  0.07204000  0.47498000  1.0
  H  H6  1  0.30916000  0.57207000  0.02502000  1.0
  H  H7  1  0.19087000  0.92790000  0.52503000  1.0
  H  H8  1  0.85842000  0.22897000  0.92583000  1.0
  H  H9  1  0.64147000  0.27102000  0.42585000  1.0
  H  H10  1  0.14157000  0.77102000  0.07415000  1.0
  H  H11  1  0.35850000  0.72896000  0.57418000  1.0
  H  H12  1  0.13506000  0.21935000  0.79388000  1.0
  H  H13  1  0.36489000  0.28069000  0.29390000  1.0
  H  H14  1  0.86493000  0.78066000  0.20609000  1.0
  H  H15  1  0.63513000  0.71931000  0.70612000  1.0
  H  H16  1  0.23542000  0.40932000  0.70780000  1.0
  H  H17  1  0.26460000  0.09078000  0.20780000  1.0
  H  H18  1  0.76460000  0.59073000  0.29219000  1.0
  H  H19  1  0.73539000  0.90924000  0.79220000  1.0
  H  H20  1  0.06982000  0.60842000  0.75625000  1.0
  H  H21  1  0.43019000  0.89165000  0.25624000  1.0
  H  H22  1  0.93032000  0.39162000  0.24375000  1.0
  H  H23  1  0.56973000  0.10834000  0.74375000  1.0
  C  C24  1  0.87418000  0.53127000  0.86906000  1.0
  C  C25  1  0.62580000  0.96875000  0.36905000  1.0
  C  C26  1  0.12595000  0.46875000  0.13095000  1.0
  C  C27  1  0.37412000  0.03120000  0.63095000  1.0
  C  C28  1  0.81222000  0.42371000  0.91687000  1.0
  C  C29  1  0.68779000  0.07630000  0.41687000  1.0
  C  C30  1  0.18787000  0.57631000  0.08313000  1.0
  C  C31  1  0.31219000  0.92366000  0.58313000  1.0
  C  C32  1  0.90480000  0.31223000  0.88907000  1.0
  C  C33  1  0.59518000  0.18779000  0.38908000  1.0
  C  C34  1  0.09525000  0.68779000  0.11092000  1.0
  C  C35  1  0.40476000  0.81219000  0.61093000  1.0
  C  C36  1  0.05792000  0.30697000  0.81413000  1.0
  C  C37  1  0.44202000  0.19307000  0.31415000  1.0
  C  C38  1  0.94210000  0.69306000  0.18585000  1.0
  C  C39  1  0.55789000  0.80692000  0.68586000  1.0
  C  C40  1  0.11612000  0.41301000  0.76627000  1.0
  C  C41  1  0.38385000  0.08705000  0.26628000  1.0
  C  C42  1  0.88392000  0.58703000  0.23372000  1.0
  C  C43  1  0.61609000  0.91294000  0.73373000  1.0
  C  C44  1  0.02481000  0.52534000  0.79320000  1.0
  C  C45  1  0.47515000  0.97472000  0.29319000  1.0
  C  C46  1  0.97530000  0.47470000  0.20680000  1.0
  C  C47  1  0.52476000  0.02526000  0.70681000  1.0
  C  C48  1  0.78473000  0.64567000  0.89714000  1.0
  C  C49  1  0.71524000  0.85435000  0.39712000  1.0
  C  C50  1  0.21538000  0.35435000  0.10289000  1.0
  C  C51  1  0.28465000  0.14564000  0.60289000  1.0
  N  N52  1  0.71392000  0.74072000  0.92062000  1.0
  N  N53  1  0.78605000  0.75928000  0.42060000  1.0
  N  N54  1  0.28617000  0.25930000  0.07940000  1.0
  N  N55  1  0.21388000  0.24069000  0.57939000  1.0
  Cl  Cl56  1  0.26653000  0.02660000  0.91355000  1.0
  Cl  Cl57  1  0.23344000  0.47342000  0.41354000  1.0
  Cl  Cl58  1  0.73351000  0.97342000  0.08646000  1.0
  Cl  Cl59  1  0.76647000  0.52655000  0.58645000  1.0
