# generated using pymatgen
data_Co2H18C28N8O9
_symmetry_space_group_name_H-M   'P 1'
_cell_length_a   12.56470000
_cell_length_b   12.58970000
_cell_length_c   13.65430000
_cell_angle_alpha   66.70930000
_cell_angle_beta   66.70640000
_cell_angle_gamma   63.93660000
_symmetry_Int_Tables_number   1
_chemical_formula_structural   Co2H18C28N8O9
_chemical_formula_sum   'Co4 H36 C56 N16 O18'
_cell_volume   1716.61056054
_cell_formula_units_Z   2
loop_
 _symmetry_equiv_pos_site_id
 _symmetry_equiv_pos_as_xyz
  1  'x, y, z'
loop_
 _atom_site_type_symbol
 _atom_site_label
 _atom_site_symmetry_multiplicity
 _atom_site_fract_x
 _atom_site_fract_y
 _atom_site_fract_z
 _atom_site_occupancy
  Co  Co0  1  0.74497000  0.28871000  0.10482000  1.0
  Co  Co1  1  0.70955000  0.25606000  0.39327000  1.0
  Co  Co2  1  0.25595000  0.71169000  0.89574000  1.0
  Co  Co3  1  0.28813000  0.74387000  0.60468000  1.0
  H  H4  1  0.89986000  0.19068000  0.21796000  1.0
  H  H5  1  0.81030000  0.10001000  0.28119000  1.0
  H  H6  1  0.10072000  0.80890000  0.78238000  1.0
  H  H7  1  0.19011000  0.89908000  0.71852000  1.0
  H  H8  1  0.90146000  0.55724000  0.04063000  1.0
  H  H9  1  0.44423000  0.09838000  0.45818000  1.0
  H  H10  1  0.09866000  0.44318000  0.95873000  1.0
  H  H11  1  0.55572000  0.90121000  0.54129000  1.0
  H  H12  1  0.60896000  0.89364000  0.21499000  1.0
  H  H13  1  0.10584000  0.39083000  0.28581000  1.0
  H  H14  1  0.39121000  0.10648000  0.78485000  1.0
  H  H15  1  0.89371000  0.60910000  0.71452000  1.0
  H  H16  1  0.49547000  0.60756000  0.23263000  1.0
  H  H17  1  0.39325000  0.50412000  0.26734000  1.0
  H  H18  1  0.50496000  0.39250000  0.76714000  1.0
  H  H19  1  0.60677000  0.49534000  0.73304000  1.0
  H  H20  1  0.54668000  0.76198000  0.42825000  1.0
  H  H21  1  0.23725000  0.45381000  0.07217000  1.0
  H  H22  1  0.45425000  0.23777000  0.57154000  1.0
  H  H23  1  0.76222000  0.54649000  0.92804000  1.0
  H  H24  1  0.30717000  0.60868000  0.43093000  1.0
  H  H25  1  0.39225000  0.69178000  0.06918000  1.0
  H  H26  1  0.69354000  0.39114000  0.56890000  1.0
  H  H27  1  0.60765000  0.30790000  0.93156000  1.0
  H  H28  1  0.88445000  0.96809000  0.88107000  1.0
  H  H29  1  0.03192000  0.11501000  0.61887000  1.0
  H  H30  1  0.11628000  0.03174000  0.11898000  1.0
  H  H31  1  0.96797000  0.88393000  0.38113000  1.0
  H  H32  1  0.72364000  0.00335000  0.20962000  1.0
  H  H33  1  0.99595000  0.27617000  0.29049000  1.0
  H  H34  1  0.27525000  0.99737000  0.79008000  1.0
  H  H35  1  0.00209000  0.72561000  0.71010000  1.0
  H  H36  1  0.88095000  0.18776000  0.88733000  1.0
  H  H37  1  0.81138000  0.11916000  0.61249000  1.0
  H  H38  1  0.11799000  0.81292000  0.11241000  1.0
  H  H39  1  0.18730000  0.88212000  0.38782000  1.0
  C  C40  1  0.72652000  0.48472000  0.20736000  1.0
  C  C41  1  0.51559000  0.27434000  0.29222000  1.0
  C  C42  1  0.27455000  0.51497000  0.79338000  1.0
  C  C43  1  0.48465000  0.72485000  0.70666000  1.0
  C  C44  1  0.73951000  0.60965000  0.16946000  1.0
  C  C45  1  0.39117000  0.26013000  0.32978000  1.0
  C  C46  1  0.26072000  0.39060000  0.83009000  1.0
  C  C47  1  0.60888000  0.73938000  0.66967000  1.0
  C  C48  1  0.83904000  0.63065000  0.08054000  1.0
  C  C49  1  0.37037000  0.16052000  0.41859000  1.0
  C  C50  1  0.16104000  0.36967000  0.91892000  1.0
  C  C51  1  0.62957000  0.83907000  0.58092000  1.0
  C  C52  1  0.65879000  0.70536000  0.21930000  1.0
  C  C53  1  0.29489000  0.34099000  0.28047000  1.0
  C  C54  1  0.34149000  0.29479000  0.78033000  1.0
  C  C55  1  0.70483000  0.65868000  0.71941000  1.0
  C  C56  1  0.86346000  0.74006000  0.04357000  1.0
  C  C57  1  0.26061000  0.13618000  0.45608000  1.0
  C  C58  1  0.13662000  0.26023000  0.95617000  1.0
  C  C59  1  0.73927000  0.86342000  0.54366000  1.0
  C  C60  1  0.67757000  0.81804000  0.18019000  1.0
  C  C61  1  0.18201000  0.32210000  0.31990000  1.0
  C  C62  1  0.32256000  0.18216000  0.81955000  1.0
  C  C63  1  0.81767000  0.67758000  0.68013000  1.0
  C  C64  1  0.98144000  0.74570000  0.95497000  1.0
  C  C65  1  0.25466000  0.01858000  0.54524000  1.0
  C  C66  1  0.01910000  0.25432000  0.04558000  1.0
  C  C67  1  0.74606000  0.98085000  0.45464000  1.0
  C  C68  1  0.78077000  0.83544000  0.09346000  1.0
  C  C69  1  0.16479000  0.21887000  0.40642000  1.0
  C  C70  1  0.21933000  0.16481000  0.90629000  1.0
  C  C71  1  0.83481000  0.78074000  0.59358000  1.0
  C  C72  1  0.47579000  0.63878000  0.30313000  1.0
  C  C73  1  0.36152000  0.52382000  0.19709000  1.0
  C  C74  1  0.52494000  0.36097000  0.69674000  1.0
  C  C75  1  0.63815000  0.47582000  0.80343000  1.0
  C  C76  1  0.50500000  0.72171000  0.40259000  1.0
  C  C77  1  0.27798000  0.49511000  0.09772000  1.0
  C  C78  1  0.49586000  0.27796000  0.59734000  1.0
  C  C79  1  0.72147000  0.50511000  0.90260000  1.0
  C  C80  1  0.38479000  0.64038000  0.40061000  1.0
  C  C81  1  0.36009000  0.61460000  0.09961000  1.0
  C  C82  1  0.61595000  0.35939000  0.59932000  1.0
  C  C83  1  0.63959000  0.38524000  0.90102000  1.0
  C  C84  1  0.85195000  0.00846000  0.94878000  1.0
  C  C85  1  0.99121000  0.14787000  0.55124000  1.0
  C  C86  1  0.14804000  0.99173000  0.05117000  1.0
  C  C87  1  0.00821000  0.85200000  0.44891000  1.0
  C  C88  1  0.76317000  0.02706000  0.12076000  1.0
  C  C89  1  0.97234000  0.23687000  0.37937000  1.0
  C  C90  1  0.23588000  0.97365000  0.87897000  1.0
  C  C91  1  0.02598000  0.76471000  0.62119000  1.0
  C  C92  1  0.84795000  0.11689000  0.95325000  1.0
  C  C93  1  0.88247000  0.15215000  0.54676000  1.0
  C  C94  1  0.15114000  0.88376000  0.04657000  1.0
  C  C95  1  0.11621000  0.84914000  0.45362000  1.0
  N  N96  1  0.79192000  0.12789000  0.06051000  1.0
  N  N97  1  0.87120000  0.20844000  0.43969000  1.0
  N  N98  1  0.20657000  0.87308000  0.93919000  1.0
  N  N99  1  0.12672000  0.79406000  0.56104000  1.0
  N  N100  1  0.69200000  0.40441000  0.96181000  1.0
  N  N101  1  0.59700000  0.30713000  0.53839000  1.0
  N  N102  1  0.30753000  0.59576000  0.03872000  1.0
  N  N103  1  0.40396000  0.69251000  0.46155000  1.0
  N  N104  1  0.55172000  0.69060000  0.30503000  1.0
  N  N105  1  0.30924000  0.44830000  0.19526000  1.0
  N  N106  1  0.44897000  0.30912000  0.69483000  1.0
  N  N107  1  0.69031000  0.55159000  0.80508000  1.0
  N  N108  1  0.79819000  0.95083000  0.05624000  1.0
  N  N109  1  0.04900000  0.20162000  0.44371000  1.0
  N  N110  1  0.20173000  0.04941000  0.94359000  1.0
  N  N111  1  0.95035000  0.79845000  0.55644000  1.0
  O  O112  1  0.92598000  0.28890000  0.01120000  1.0
  O  O113  1  0.71398000  0.07245000  0.48991000  1.0
  O  O114  1  0.07370000  0.71139000  0.99035000  1.0
  O  O115  1  0.28921000  0.92615000  0.51026000  1.0
  O  O116  1  0.81265000  0.18744000  0.24936000  1.0
  O  O117  1  0.18824000  0.81160000  0.75013000  1.0
  O  O118  1  0.71956000  0.45223000  0.13406000  1.0
  O  O119  1  0.54873000  0.27827000  0.36694000  1.0
  O  O120  1  0.27831000  0.54746000  0.86838000  1.0
  O  O121  1  0.45233000  0.72002000  0.63208000  1.0
  O  O122  1  0.57488000  0.27888000  0.19174000  1.0
  O  O123  1  0.72679000  0.42530000  0.30736000  1.0
  O  O124  1  0.42520000  0.72094000  0.80716000  1.0
  O  O125  1  0.27869000  0.57439000  0.69290000  1.0
  O  O126  1  0.97890000  0.78046000  0.85458000  1.0
  O  O127  1  0.21923000  0.02158000  0.64552000  1.0
  O  O128  1  0.02252000  0.21902000  0.14566000  1.0
  O  O129  1  0.78064000  0.97828000  0.35433000  1.0
