# generated using pymatgen
data_KCu2H19C21(N3O2)2
_symmetry_space_group_name_H-M   'P 1'
_cell_length_a   9.88813000
_cell_length_b   10.76790000
_cell_length_c   11.88853303
_cell_angle_alpha   84.69981216
_cell_angle_beta   65.47229253
_cell_angle_gamma   77.28030000
_symmetry_Int_Tables_number   1
_chemical_formula_structural   KCu2H19C21(N3O2)2
_chemical_formula_sum   'K2 Cu4 H38 C42 N12 O8'
_cell_volume   1123.33502718
_cell_formula_units_Z   2
loop_
 _symmetry_equiv_pos_site_id
 _symmetry_equiv_pos_as_xyz
  1  'x, y, z'
loop_
 _atom_site_type_symbol
 _atom_site_label
 _atom_site_symmetry_multiplicity
 _atom_site_fract_x
 _atom_site_fract_y
 _atom_site_fract_z
 _atom_site_occupancy
  K  K0  1  0.50000000  0.50000000  0.50000000  1.0
  K  K1  1  0.99999000  0.00000000  0.50000000  1.0
  Cu  Cu2  1  0.46231000  0.19636000  0.52678000  1.0
  Cu  Cu3  1  0.01101000  0.30360000  0.52677000  1.0
  Cu  Cu4  1  0.53769000  0.80364000  0.47322000  1.0
  Cu  Cu5  1  0.98899000  0.69640000  0.47323000  1.0
  H  H6  1  0.46603000  0.23524000  0.79421000  1.0
  H  H7  1  0.73947000  0.26519000  0.79444000  1.0
  H  H8  1  0.53397000  0.76477000  0.20579000  1.0
  H  H9  1  0.26052000  0.73481000  0.20556000  1.0
  H  H10  1  0.78624000  0.25021000  0.42727000  1.0
  H  H11  1  0.21376000  0.74979000  0.57273000  1.0
  H  H12  1  0.07496000  0.15769000  0.16302000  1.0
  H  H13  1  0.76212000  0.34228000  0.16319000  1.0
  H  H14  1  0.92505000  0.84231000  0.83698000  1.0
  H  H15  1  0.23788000  0.65772000  0.83681000  1.0
  H  H16  1  0.21880000  0.23728000  0.95555000  1.0
  H  H17  1  0.82703000  0.26163000  0.95600000  1.0
  H  H18  1  0.78120000  0.76272000  0.04445000  1.0
  H  H19  1  0.17297000  0.73837000  0.04400000  1.0
  H  H20  1  0.36860000  0.40710000  0.93109000  1.0
  H  H21  1  0.70082000  0.09254000  0.93147000  1.0
  H  H22  1  0.63141000  0.59290000  0.06890000  1.0
  H  H23  1  0.29917000  0.90746000  0.06854000  1.0
  H  H24  1  0.37928000  0.48394000  0.11687000  1.0
  H  H25  1  0.50363000  0.01618000  0.11719000  1.0
  H  H26  1  0.62073000  0.51606000  0.88312000  1.0
  H  H27  1  0.49636000  0.98382000  0.88282000  1.0
  H  H28  1  0.33190000  0.47839000  0.32258000  1.0
  H  H29  1  0.34514000  0.02184000  0.32272000  1.0
  H  H30  1  0.66810000  0.52160000  0.67742000  1.0
  H  H31  1  0.65486000  0.97816000  0.67728000  1.0
  H  H32  1  0.02231000  0.50464000  0.83865000  1.0
  H  H33  1  0.13866000  0.99576000  0.83923000  1.0
  H  H34  1  0.97769000  0.49536000  0.16135000  1.0
  H  H35  1  0.86134000  0.00424000  0.16077000  1.0
  H  H36  1  0.21592000  0.51217000  0.74437000  1.0
  H  H37  1  0.03959000  0.98806000  0.74458000  1.0
  H  H38  1  0.78408000  0.48783000  0.25563000  1.0
  H  H39  1  0.96041000  0.01194000  0.25542000  1.0
  H  H40  1  0.16702000  0.36641000  0.81880000  1.0
  H  H41  1  0.01471000  0.13406000  0.81804000  1.0
  H  H42  1  0.83299000  0.63359000  0.18119000  1.0
  H  H43  1  0.98529000  0.86594000  0.18196000  1.0
  C  C44  1  0.57262000  0.24436000  0.71858000  1.0
  C  C45  1  0.70871000  0.25598000  0.71867000  1.0
  C  C46  1  0.42738000  0.75564000  0.28142000  1.0
  C  C47  1  0.29129000  0.74402000  0.28133000  1.0
  C  C48  1  0.73629000  0.25011000  0.52734000  1.0
  C  C49  1  0.26372000  0.74989000  0.47266000  1.0
  C  C50  1  0.14316000  0.27330000  0.26065000  1.0
  C  C51  1  0.59566000  0.22715000  0.26078000  1.0
  C  C52  1  0.85684000  0.72670000  0.73935000  1.0
  C  C53  1  0.40432000  0.77285000  0.73923000  1.0
  C  C54  1  0.14250000  0.22891000  0.15233000  1.0
  C  C55  1  0.70506000  0.27124000  0.15250000  1.0
  C  C56  1  0.85750000  0.77109000  0.84767000  1.0
  C  C57  1  0.29494000  0.72875000  0.84751000  1.0
  C  C58  1  0.22263000  0.27515000  0.03606000  1.0
  C  C59  1  0.74175000  0.22448000  0.03640000  1.0
  C  C60  1  0.77737000  0.72485000  0.96394000  1.0
  C  C61  1  0.25825000  0.77552000  0.96360000  1.0
  C  C62  1  0.30713000  0.36918000  0.02203000  1.0
  C  C63  1  0.67099000  0.13072000  0.02233000  1.0
  C  C64  1  0.69287000  0.63082000  0.97797000  1.0
  C  C65  1  0.32900000  0.86928000  0.97768000  1.0
  C  C66  1  0.31229000  0.41249000  0.12597000  1.0
  C  C67  1  0.56140000  0.08780000  0.12618000  1.0
  C  C68  1  0.68771000  0.58751000  0.87403000  1.0
  C  C69  1  0.43860000  0.91220000  0.87382000  1.0
  C  C70  1  0.23292000  0.36687000  0.24583000  1.0
  C  C71  1  0.52073000  0.13365000  0.24592000  1.0
  C  C72  1  0.76709000  0.63313000  0.75416000  1.0
  C  C73  1  0.47928000  0.86635000  0.75408000  1.0
  C  C74  1  0.24998000  0.41601000  0.34625000  1.0
  C  C75  1  0.40352000  0.08415000  0.34635000  1.0
  C  C76  1  0.75002000  0.58399000  0.65375000  1.0
  C  C77  1  0.59649000  0.91585000  0.65365000  1.0
  C  C78  1  0.11224000  0.41212000  0.66366000  1.0
  C  C79  1  0.22442000  0.08770000  0.66369000  1.0
  C  C80  1  0.88776000  0.58789000  0.33634000  1.0
  C  C81  1  0.77557000  0.91229000  0.33632000  1.0
  C  C82  1  0.13103000  0.45221000  0.77256000  1.0
  C  C83  1  0.09636000  0.04803000  0.77269000  1.0
  C  C84  1  0.86898000  0.54779000  0.22743000  1.0
  C  C85  1  0.90364000  0.95197000  0.22731000  1.0
  N  N86  1  0.59101000  0.24169000  0.59684000  1.0
  N  N87  1  0.81208000  0.25852000  0.59694000  1.0
  N  N88  1  0.40899000  0.75831000  0.40316000  1.0
  N  N89  1  0.18792000  0.74149000  0.40306000  1.0
  N  N90  1  0.17518000  0.39251000  0.46268000  1.0
  N  N91  1  0.36254000  0.10708000  0.46274000  1.0
  N  N92  1  0.82482000  0.60750000  0.53732000  1.0
  N  N93  1  0.63746000  0.89292000  0.53726000  1.0
  N  N94  1  0.20855000  0.43895000  0.55083000  1.0
  N  N95  1  0.24122000  0.06032000  0.55097000  1.0
  N  N96  1  0.79145000  0.56105000  0.44917000  1.0
  N  N97  1  0.75878000  0.93968000  0.44904000  1.0
  O  O98  1  0.06323000  0.22538000  0.36841000  1.0
  O  O99  1  0.56778000  0.27508000  0.36848000  1.0
  O  O100  1  0.93676000  0.77462000  0.63159000  1.0
  O  O101  1  0.43223000  0.72491000  0.63152000  1.0
  O  O102  1  0.00502000  0.35069000  0.68551000  1.0
  O  O103  1  0.30966000  0.14920000  0.68559000  1.0
  O  O104  1  0.99498000  0.64931000  0.31449000  1.0
  O  O105  1  0.69034000  0.85080000  0.31441000  1.0
