# generated using pymatgen
data_La2H15C21(NO5)3
_symmetry_space_group_name_H-M   'P 1'
_cell_length_a   8.97200000
_cell_length_b   9.43434000
_cell_length_c   14.51260000
_cell_angle_alpha   99.04670000
_cell_angle_beta   95.37720000
_cell_angle_gamma   105.03800000
_symmetry_Int_Tables_number   1
_chemical_formula_structural   La2H15C21(NO5)3
_chemical_formula_sum   'La4 H30 C42 N6 O30'
_cell_volume   1159.88125950
_cell_formula_units_Z   2
loop_
 _symmetry_equiv_pos_site_id
 _symmetry_equiv_pos_as_xyz
  1  'x, y, z'
loop_
 _atom_site_type_symbol
 _atom_site_label
 _atom_site_symmetry_multiplicity
 _atom_site_fract_x
 _atom_site_fract_y
 _atom_site_fract_z
 _atom_site_occupancy
  La  La0  1  0.85288000  0.73251000  0.72464000  1.0
  La  La1  1  0.14712000  0.26749000  0.27536000  1.0
  La  La2  1  0.54719000  0.14209000  0.15622000  1.0
  La  La3  1  0.45281000  0.85791000  0.84378000  1.0
  H  H4  1  0.96423000  0.42354000  0.64282000  1.0
  H  H5  1  0.03577000  0.57646000  0.35718000  1.0
  H  H6  1  0.83549000  0.45723000  0.57114000  1.0
  H  H7  1  0.16451000  0.54277000  0.42886000  1.0
  H  H8  1  0.64707000  0.68444000  0.51180000  1.0
  H  H9  1  0.35293000  0.31556000  0.48820000  1.0
  H  H10  1  0.82936000  0.70068000  0.52138000  1.0
  H  H11  1  0.17064000  0.29932000  0.47862000  1.0
  H  H12  1  0.46033000  0.82821000  0.04579000  1.0
  H  H13  1  0.53967000  0.17179000  0.95421000  1.0
  H  H14  1  0.28421000  0.84600000  0.05169000  1.0
  H  H15  1  0.71579000  0.15400000  0.94831000  1.0
  H  H16  1  0.96871000  0.10644000  0.02610000  1.0
  H  H17  1  0.03129000  0.89356000  0.97390000  1.0
  H  H18  1  0.31707000  0.47423000  0.96184000  1.0
  H  H19  1  0.68293000  0.52576000  0.03815000  1.0
  H  H20  1  0.82972000  0.37532000  0.85422000  1.0
  H  H21  1  0.17028000  0.62467000  0.14578000  1.0
  H  H22  1  0.25181000  0.53225000  0.65763000  1.0
  H  H23  1  0.74819000  0.46776000  0.34237000  1.0
  H  H24  1  0.45923000  0.26602000  0.81649000  1.0
  H  H25  1  0.54077000  0.73397000  0.18351000  1.0
  H  H26  1  0.97257000  0.13054000  0.70274000  1.0
  H  H27  1  0.02743000  0.86946000  0.29725000  1.0
  H  H28  1  0.57784000  0.30943000  0.40058000  1.0
  H  H29  1  0.42215000  0.69057000  0.59942000  1.0
  H  H30  1  0.84443000  0.05713000  0.53298000  1.0
  H  H31  1  0.15557000  0.94287000  0.46702000  1.0
  H  H32  1  0.45288000  0.16634000  0.64529000  1.0
  H  H33  1  0.54712000  0.83366000  0.35471000  1.0
  C  C34  1  0.00366000  0.19908000  0.98907000  1.0
  C  C35  1  0.99634000  0.80092000  0.01093000  1.0
  C  C36  1  0.16022000  0.28139000  0.99839000  1.0
  C  C37  1  0.83978000  0.71861000  0.00161000  1.0
  C  C38  1  0.19710000  0.40499000  0.95467000  1.0
  C  C39  1  0.80290000  0.59501000  0.04533000  1.0
  C  C40  1  0.07737000  0.44176000  0.90351000  1.0
  C  C41  1  0.92264000  0.55824000  0.09649000  1.0
  C  C42  1  0.92513000  0.35003000  0.89491000  1.0
  C  C43  1  0.07487000  0.64997000  0.10509000  1.0
  C  C44  1  0.28381000  0.24028000  0.05608000  1.0
  C  C45  1  0.71619000  0.75972000  0.94392000  1.0
  C  C46  1  0.11056000  0.58099000  0.86271000  1.0
  C  C47  1  0.88944000  0.41901000  0.13729000  1.0
  C  C48  1  0.24401000  0.43150000  0.68681000  1.0
  C  C49  1  0.75599000  0.56850000  0.31319000  1.0
  C  C50  1  0.37633000  0.41170000  0.73621000  1.0
  C  C51  1  0.62367000  0.58830000  0.26379000  1.0
  C  C52  1  0.35926000  0.28452000  0.77660000  1.0
  C  C53  1  0.64073000  0.71548000  0.22340000  1.0
  C  C54  1  0.21178000  0.18247000  0.76593000  1.0
  C  C55  1  0.78822000  0.81753000  0.23407000  1.0
  C  C56  1  0.08769000  0.21011000  0.71270000  1.0
  C  C57  1  0.91230000  0.78989000  0.28730000  1.0
  C  C58  1  0.53068000  0.52543000  0.74438000  1.0
  C  C59  1  0.46931000  0.47457000  0.25562000  1.0
  C  C60  1  0.18254000  0.04960000  0.81381000  1.0
  C  C61  1  0.81745000  0.95040000  0.18619000  1.0
  C  C62  1  0.60320000  0.25334000  0.45788000  1.0
  C  C63  1  0.39680000  0.74666000  0.54212000  1.0
  C  C64  1  0.72590000  0.18708000  0.45798000  1.0
  C  C65  1  0.27410000  0.81292000  0.54202000  1.0
  C  C66  1  0.75130000  0.11180000  0.53090000  1.0
  C  C67  1  0.24870000  0.88821000  0.46910000  1.0
  C  C68  1  0.65148000  0.10318000  0.59937000  1.0
  C  C69  1  0.34852000  0.89682000  0.40063000  1.0
  C  C70  1  0.53262000  0.17376000  0.59311000  1.0
  C  C71  1  0.46738000  0.82624000  0.40689000  1.0
  C  C72  1  0.82190000  0.19502000  0.37859000  1.0
  C  C73  1  0.17810000  0.80498000  0.62141000  1.0
  C  C74  1  0.66203000  0.01217000  0.67472000  1.0
  C  C75  1  0.33797000  0.98783000  0.32528000  1.0
  N  N76  1  0.88941000  0.23130000  0.93726000  1.0
  N  N77  1  0.11059000  0.76869000  0.06274000  1.0
  N  N78  1  0.10261000  0.33265000  0.67406000  1.0
  N  N79  1  0.89739000  0.66735000  0.32594000  1.0
  N  N80  1  0.50890000  0.24883000  0.52457000  1.0
  N  N81  1  0.49110000  0.75117000  0.47543000  1.0
  O  O82  1  0.90672000  0.49843000  0.62963000  1.0
  O  O83  1  0.09328000  0.50157000  0.37037000  1.0
  O  O84  1  0.73260000  0.64709000  0.54146000  1.0
  O  O85  1  0.26740000  0.35291000  0.45854000  1.0
  O  O86  1  0.39660000  0.89750000  0.03987000  1.0
  O  O87  1  0.60340000  0.10250000  0.96013000  1.0
  O  O88  1  0.24412000  0.16355000  0.12000000  1.0
  O  O89  1  0.75588000  0.83645000  0.88000000  1.0
  O  O90  1  0.42430000  0.28173000  0.04081000  1.0
  O  O91  1  0.57570000  0.71827000  0.95919000  1.0
  O  O92  1  0.99657000  0.61851000  0.82620000  1.0
  O  O93  1  0.00343000  0.38149000  0.17380000  1.0
  O  O94  1  0.25276000  0.65395000  0.87031000  1.0
  O  O95  1  0.74724000  0.34605000  0.12969000  1.0
  O  O96  1  0.53122000  0.65698000  0.72877000  1.0
  O  O97  1  0.46878000  0.34301000  0.27123000  1.0
  O  O98  1  0.65518000  0.49114000  0.76370000  1.0
  O  O99  1  0.34482000  0.50886000  0.23630000  1.0
  O  O100  1  0.04507000  0.96534000  0.80408000  1.0
  O  O101  1  0.95493000  0.03466000  0.19592000  1.0
  O  O102  1  0.29870000  0.03258000  0.86398000  1.0
  O  O103  1  0.70129000  0.96742000  0.13602000  1.0
  O  O104  1  0.75918000  0.21276000  0.30060000  1.0
  O  O105  1  0.24082000  0.78724000  0.69940000  1.0
  O  O106  1  0.96055000  0.18504000  0.39442000  1.0
  O  O107  1  0.03946000  0.81496000  0.60559000  1.0
  O  O108  1  0.57111000  0.01643000  0.73672000  1.0
  O  O109  1  0.42889000  0.98357000  0.26328000  1.0
  O  O110  1  0.75847000  0.93504000  0.67027000  1.0
  O  O111  1  0.24153000  0.06496000  0.32973000  1.0
