# generated using pymatgen
data_NdH7(C3O4)2
_symmetry_space_group_name_H-M   'P 1'
_cell_length_a   8.68610000
_cell_length_b   9.32374955
_cell_length_c   12.81190000
_cell_angle_alpha   86.37504741
_cell_angle_beta   70.21820000
_cell_angle_gamma   62.26480057
_symmetry_Int_Tables_number   1
_chemical_formula_structural   NdH7(C3O4)2
_chemical_formula_sum   'Nd4 H28 C24 O32'
_cell_volume   858.63575137
_cell_formula_units_Z   4
loop_
 _symmetry_equiv_pos_site_id
 _symmetry_equiv_pos_as_xyz
  1  'x, y, z'
loop_
 _atom_site_type_symbol
 _atom_site_label
 _atom_site_symmetry_multiplicity
 _atom_site_fract_x
 _atom_site_fract_y
 _atom_site_fract_z
 _atom_site_occupancy
  Nd  Nd0  1  0.99776000  0.00090000  0.17009000  1.0
  Nd  Nd1  1  0.66868000  0.49896000  0.33005000  1.0
  Nd  Nd2  1  0.00224000  0.99910000  0.82991000  1.0
  Nd  Nd3  1  0.33131000  0.50104000  0.66995000  1.0
  H  H4  1  0.30104000  0.02535000  0.54201000  1.0
  H  H5  1  0.36781000  0.47462000  0.95797000  1.0
  H  H6  1  0.69896000  0.97465000  0.45799000  1.0
  H  H7  1  0.63220000  0.52538000  0.04203000  1.0
  H  H8  1  0.13236000  0.03070000  0.49338000  1.0
  H  H9  1  0.15589000  0.46934000  0.00636000  1.0
  H  H10  1  0.86764000  0.96931000  0.50662000  1.0
  H  H11  1  0.84411000  0.53066000  0.99364000  1.0
  H  H12  1  0.45497000  0.12565000  0.38472000  1.0
  H  H13  1  0.46513000  0.37436000  0.11509000  1.0
  H  H14  1  0.54503000  0.87435000  0.61528000  1.0
  H  H15  1  0.53487000  0.62564000  0.88491000  1.0
  H  H16  1  0.28225000  0.15949000  0.32801000  1.0
  H  H17  1  0.26984000  0.34010000  0.17173000  1.0
  H  H18  1  0.71776000  0.84051000  0.67199000  1.0
  H  H19  1  0.73016000  0.65990000  0.82827000  1.0
  H  H20  1  0.69750000  0.81156000  0.32171000  1.0
  H  H21  1  0.33070000  0.68815000  0.17828000  1.0
  H  H22  1  0.30250000  0.18844000  0.67829000  1.0
  H  H23  1  0.66930000  0.31185000  0.82172000  1.0
  H  H24  1  0.31620000  0.04844000  0.99300000  1.0
  H  H25  1  0.85762000  0.45163000  0.50719000  1.0
  H  H26  1  0.68380000  0.95156000  0.00700000  1.0
  H  H27  1  0.14238000  0.54837000  0.49281000  1.0
  H  H28  1  0.35909000  0.01364000  0.10649000  1.0
  H  H29  1  0.97922000  0.48622000  0.39359000  1.0
  H  H30  1  0.64091000  0.98636000  0.89351000  1.0
  H  H31  1  0.02078000  0.51378000  0.60641000  1.0
  C  C32  1  0.28420000  0.80422000  0.54827000  1.0
  C  C33  1  0.13660000  0.69587000  0.95161000  1.0
  C  C34  1  0.71580000  0.19578000  0.45173000  1.0
  C  C35  1  0.86340000  0.30413000  0.04839000  1.0
  C  C36  1  0.27559000  0.95377000  0.49115000  1.0
  C  C37  1  0.22001000  0.54622000  0.00873000  1.0
  C  C38  1  0.72441000  0.04623000  0.50885000  1.0
  C  C39  1  0.77998000  0.45378000  0.99127000  1.0
  C  C40  1  0.41249000  0.91683000  0.37055000  1.0
  C  C41  1  0.19960000  0.58295000  0.12939000  1.0
  C  C42  1  0.58751000  0.08317000  0.62945000  1.0
  C  C43  1  0.80040000  0.41705000  0.87061000  1.0
  C  C44  1  0.42164000  0.07133000  0.32768000  1.0
  C  C45  1  0.32058000  0.42842000  0.17212000  1.0
  C  C46  1  0.57836000  0.92867000  0.67233000  1.0
  C  C47  1  0.67942000  0.57158000  0.82788000  1.0
  C  C48  1  0.56167000  0.03840000  0.20874000  1.0
  C  C49  1  0.30888000  0.46134000  0.29107000  1.0
  C  C50  1  0.43833000  0.96160000  0.79126000  1.0
  C  C51  1  0.69112000  0.53866000  0.70893000  1.0
  C  C52  1  0.34439000  0.85315000  0.29575000  1.0
  C  C53  1  0.99325000  0.64648000  0.20425000  1.0
  C  C54  1  0.65561000  0.14685000  0.70425000  1.0
  C  C55  1  0.00675000  0.35352000  0.79575000  1.0
  O  O56  1  0.38414000  0.66079000  0.49593000  1.0
  O  O57  1  0.04081000  0.83922000  0.00406000  1.0
  O  O58  1  0.61587000  0.33921000  0.50407000  1.0
  O  O59  1  0.95919000  0.16078000  0.99594000  1.0
  O  O60  1  0.18908000  0.82260000  0.65146000  1.0
  O  O61  1  0.16332000  0.67767000  0.84835000  1.0
  O  O62  1  0.81092000  0.17740000  0.34854000  1.0
  O  O63  1  0.83668000  0.32233000  0.15165000  1.0
  O  O64  1  0.44770000  0.70682000  0.24766000  1.0
  O  O65  1  0.90222000  0.79285000  0.25227000  1.0
  O  O66  1  0.55230000  0.29318000  0.75234000  1.0
  O  O67  1  0.09778000  0.20715000  0.74773000  1.0
  O  O68  1  0.18683000  0.94852000  0.29065000  1.0
  O  O69  1  0.92597000  0.55099000  0.20946000  1.0
  O  O70  1  0.81317000  0.05148000  0.70935000  1.0
  O  O71  1  0.07403000  0.44901000  0.79054000  1.0
  O  O72  1  0.54750000  0.96495000  0.13474000  1.0
  O  O73  1  0.14736000  0.53487000  0.36499000  1.0
  O  O74  1  0.45250000  0.03505000  0.86526000  1.0
  O  O75  1  0.85264000  0.46513000  0.63500000  1.0
  O  O76  1  0.68356000  0.08433000  0.18914000  1.0
  O  O77  1  0.45700000  0.41541000  0.31078000  1.0
  O  O78  1  0.31644000  0.91567000  0.81086000  1.0
  O  O79  1  0.54300000  0.58459000  0.68922000  1.0
  O  O80  1  0.59051000  0.79396000  0.37123000  1.0
  O  O81  1  0.25544000  0.70585000  0.12884000  1.0
  O  O82  1  0.40949000  0.20604000  0.62877000  1.0
  O  O83  1  0.74456000  0.29415000  0.87116000  1.0
  O  O84  1  0.25732000  0.04793000  0.07563000  1.0
  O  O85  1  0.88087000  0.45199000  0.42454000  1.0
  O  O86  1  0.74268000  0.95207000  0.92437000  1.0
  O  O87  1  0.11913000  0.54801000  0.57546000  1.0
