# generated using pymatgen
data_ZnH8C20(N3O7)2
_symmetry_space_group_name_H-M   'P 1'
_cell_length_a   13.96170000
_cell_length_b   15.33110000
_cell_length_c   17.17920000
_cell_angle_alpha   91.58740000
_cell_angle_beta   96.42010000
_cell_angle_gamma   90.81420000
_symmetry_Int_Tables_number   1
_chemical_formula_structural   ZnH8C20(N3O7)2
_chemical_formula_sum   'Zn2 H16 C40 N12 O28'
_cell_volume   3652.15985937
_cell_formula_units_Z   2
loop_
 _symmetry_equiv_pos_site_id
 _symmetry_equiv_pos_as_xyz
  1  'x, y, z'
loop_
 _atom_site_type_symbol
 _atom_site_label
 _atom_site_symmetry_multiplicity
 _atom_site_fract_x
 _atom_site_fract_y
 _atom_site_fract_z
 _atom_site_occupancy
  Zn  Zn0  1  0.60141000  0.50276000  0.50207000  1.0
  Zn  Zn1  1  0.39870000  0.50982000  0.50130000  1.0
  H  H2  1  0.31975000  0.47925000  0.24397000  1.0
  H  H3  1  0.66881000  0.44044000  0.74736000  1.0
  H  H4  1  0.67284000  0.41347000  0.88994000  1.0
  H  H5  1  0.31700000  0.45292000  0.10000000  1.0
  H  H6  1  0.07500000  0.57918000  0.60294000  1.0
  H  H7  1  0.92522000  0.57507000  0.40446000  1.0
  H  H8  1  0.38709000  0.55025000  0.74725000  1.0
  H  H9  1  0.61935000  0.41155000  0.27540000  1.0
  H  H10  1  0.25344000  0.59036000  0.59900000  1.0
  H  H11  1  0.74656000  0.57865000  0.40653000  1.0
  H  H12  1  0.23911000  0.42490000  0.40193000  1.0
  H  H13  1  0.75999000  0.41424000  0.59595000  1.0
  H  H14  1  0.39193000  0.41160000  0.98764000  1.0
  H  H15  1  0.60962000  0.45531000  0.01619000  1.0
  H  H16  1  0.62549000  0.06207000  0.55070000  1.0
  H  H17  1  0.38767000  0.94955000  0.54660000  1.0
  C  C18  1  0.48938000  0.33509000  0.50495000  1.0
  C  C19  1  0.50936000  0.67496000  0.49173000  1.0
  C  C20  1  0.52135000  0.50832000  0.65171000  1.0
  C  C21  1  0.47808000  0.47949000  0.35253000  1.0
  C  C22  1  0.52738000  0.49614000  0.73795000  1.0
  C  C23  1  0.47089000  0.45220000  0.26820000  1.0
  C  C24  1  0.44982000  0.52017000  0.77822000  1.0
  C  C25  1  0.55270000  0.42060000  0.23741000  1.0
  C  C26  1  0.45447000  0.50761000  0.85819000  1.0
  C  C27  1  0.54801000  0.39921000  0.15813000  1.0
  C  C28  1  0.53322000  0.46720000  0.90076000  1.0
  C  C29  1  0.46549000  0.41538000  0.10542000  1.0
  C  C30  1  0.61081000  0.44480000  0.85871000  1.0
  C  C31  1  0.38250000  0.44139000  0.13898000  1.0
  C  C32  1  0.60860000  0.45918000  0.77900000  1.0
  C  C33  1  0.38432000  0.45821000  0.21911000  1.0
  C  C34  1  0.53813000  0.44707000  0.98357000  1.0
  C  C35  1  0.46315000  0.42060000  0.02062000  1.0
  C  C36  1  0.56553000  0.09765000  0.52139000  1.0
  C  C37  1  0.43861000  0.91314000  0.51531000  1.0
  C  C38  1  0.56060000  0.18708000  0.53254000  1.0
  C  C39  1  0.44440000  0.82351000  0.52191000  1.0
  C  C40  1  0.48479000  0.23647000  0.49782000  1.0
  C  C41  1  0.50994000  0.77325000  0.48510000  1.0
  C  C42  1  0.41164000  0.19123000  0.45040000  1.0
  C  C43  1  0.57026000  0.81752000  0.43925000  1.0
  C  C44  1  0.41756000  0.10129000  0.43446000  1.0
  C  C45  1  0.56285000  0.90768000  0.42837000  1.0
  C  C46  1  0.49446000  0.05361000  0.47070000  1.0
  C  C47  1  0.49776000  0.95653000  0.46786000  1.0
  C  C48  1  0.10889000  0.54328000  0.55808000  1.0
  C  C49  1  0.89118000  0.53786000  0.44729000  1.0
  C  C50  1  0.20781000  0.55016000  0.55603000  1.0
  C  C51  1  0.79199000  0.54050000  0.44823000  1.0
  C  C52  1  0.20093000  0.45781000  0.44598000  1.0
  C  C53  1  0.79843000  0.44874000  0.55395000  1.0
  C  C54  1  0.10185000  0.44776000  0.44544000  1.0
  C  C55  1  0.89784000  0.44287000  0.55544000  1.0
  C  C56  1  0.05331000  0.48962000  0.50249000  1.0
  C  C57  1  0.94683000  0.48709000  0.50116000  1.0
  N  N58  1  0.25262000  0.50781000  0.50109000  1.0
  N  N59  1  0.74691000  0.49652000  0.50077000  1.0
  N  N60  1  0.05040000  0.38987000  0.38405000  1.0
  N  N61  1  0.94902000  0.38707000  0.61456000  1.0
  N  N62  1  0.63309000  0.35605000  0.13161000  1.0
  N  N63  1  0.37451000  0.54463000  0.89737000  1.0
  N  N64  1  0.63886000  0.23079000  0.58556000  1.0
  N  N65  1  0.38024000  0.78149000  0.57357000  1.0
  N  N66  1  0.32868000  0.24332000  0.41617000  1.0
  N  N67  1  0.64376000  0.76410000  0.40398000  1.0
  N  N68  1  0.34695000  0.05645000  0.37577000  1.0
  N  N69  1  0.61709000  0.95079000  0.37060000  1.0
  O  O70  1  0.57061000  0.36711000  0.49384000  1.0
  O  O71  1  0.42589000  0.64047000  0.48121000  1.0
  O  O72  1  0.41389000  0.37407000  0.51866000  1.0
  O  O73  1  0.58972000  0.63884000  0.50637000  1.0
  O  O74  1  0.59728000  0.49452000  0.61863000  1.0
  O  O75  1  0.40072000  0.48082000  0.38548000  1.0
  O  O76  1  0.44012000  0.53029000  0.61686000  1.0
  O  O77  1  0.56210000  0.50000000  0.38555000  1.0
  O  O78  1  0.97252000  0.35761000  0.39832000  1.0
  O  O79  1  0.08877000  0.37802000  0.32336000  1.0
  O  O80  1  0.02996000  0.36183000  0.60186000  1.0
  O  O81  1  0.90740000  0.36956000  0.67213000  1.0
  O  O82  1  0.71373000  0.38361000  0.16044000  1.0
  O  O83  1  0.61823000  0.29371000  0.08417000  1.0
  O  O84  1  0.39563000  0.59380000  0.95526000  1.0
  O  O85  1  0.29135000  0.52580000  0.86767000  1.0
  O  O86  1  0.72221000  0.21748000  0.57106000  1.0
  O  O87  1  0.61439000  0.27514000  0.64088000  1.0
  O  O88  1  0.41969000  0.74157000  0.62944000  1.0
  O  O89  1  0.29274000  0.79217000  0.55765000  1.0
  O  O90  1  0.25902000  0.24682000  0.45403000  1.0
  O  O91  1  0.33960000  0.28158000  0.35555000  1.0
  O  O92  1  0.72616000  0.76937000  0.43812000  1.0
  O  O93  1  0.61470000  0.71597000  0.34751000  1.0
  O  O94  1  0.36953000  0.98391000  0.35043000  1.0
  O  O95  1  0.27114000  0.09410000  0.35509000  1.0
  O  O96  1  0.60707000  0.03048000  0.36354000  1.0
  O  O97  1  0.66710000  0.90446000  0.33194000  1.0
