# generated using pymatgen
data_MnH36C48N4(ClO4)2
_symmetry_space_group_name_H-M   'P 1'
_cell_length_a   7.35659000
_cell_length_b   11.44630000
_cell_length_c   13.30500000
_cell_angle_alpha   106.95600000
_cell_angle_beta   99.22950000
_cell_angle_gamma   100.22200000
_symmetry_Int_Tables_number   1
_chemical_formula_structural   MnH36C48N4(ClO4)2
_chemical_formula_sum   'Mn1 H36 C48 N4 Cl2 O8'
_cell_volume   1027.51375032
_cell_formula_units_Z   1
loop_
 _symmetry_equiv_pos_site_id
 _symmetry_equiv_pos_as_xyz
  1  'x, y, z'
loop_
 _atom_site_type_symbol
 _atom_site_label
 _atom_site_symmetry_multiplicity
 _atom_site_fract_x
 _atom_site_fract_y
 _atom_site_fract_z
 _atom_site_occupancy
  Mn  Mn0  1  0.00043000  0.00004000  0.00010000  1.0
  H  H1  1  0.70264000  0.18686000  0.61615000  1.0
  H  H2  1  0.29737000  0.81314000  0.38384000  1.0
  H  H3  1  0.26597000  0.54749000  0.42907000  1.0
  H  H4  1  0.73402000  0.45251000  0.57094000  1.0
  H  H5  1  0.27535000  0.14104000  0.63665000  1.0
  H  H6  1  0.72466000  0.85896000  0.36334000  1.0
  H  H7  1  0.97997000  0.46767000  0.16720000  1.0
  H  H8  1  0.02021000  0.53236000  0.83282000  1.0
  H  H9  1  0.09001000  0.57168000  0.57704000  1.0
  H  H10  1  0.91001000  0.42835000  0.42299000  1.0
  H  H11  1  0.17138000  0.92798000  0.65569000  1.0
  H  H12  1  0.82862000  0.07201000  0.34430000  1.0
  H  H13  1  0.03188000  0.36297000  0.83425000  1.0
  H  H14  1  0.96830000  0.63706000  0.16579000  1.0
  H  H15  1  0.59863000  0.97178000  0.62720000  1.0
  H  H16  1  0.40138000  0.02822000  0.37280000  1.0
  H  H17  1  0.99479000  0.25238000  0.16104000  1.0
  H  H18  1  0.00477000  0.74752000  0.83889000  1.0
  H  H19  1  0.03444000  0.14966000  0.84116000  1.0
  H  H20  1  0.96505000  0.85024000  0.15876000  1.0
  H  H21  1  0.25468000  0.70722000  0.76303000  1.0
  H  H22  1  0.74535000  0.29282000  0.23699000  1.0
  H  H23  1  0.60163000  0.66628000  0.46889000  1.0
  H  H24  1  0.39837000  0.33370000  0.53110000  1.0
  H  H25  1  0.29968000  0.92485000  0.89568000  1.0
  H  H26  1  0.70053000  0.07515000  0.10435000  1.0
  H  H27  1  0.34347000  0.06024000  0.97817000  1.0
  H  H28  1  0.65684000  0.93980000  0.02183000  1.0
  H  H29  1  0.54699000  0.48510000  0.70015000  1.0
  H  H30  1  0.45298000  0.51490000  0.29985000  1.0
  H  H31  1  0.51764000  0.28815000  0.98050000  1.0
  H  H32  1  0.48241000  0.71187000  0.01951000  1.0
  H  H33  1  0.50692000  0.61243000  0.87509000  1.0
  H  H34  1  0.49309000  0.38757000  0.12491000  1.0
  H  H35  1  0.56013000  0.17616000  0.80143000  1.0
  H  H36  1  0.43989000  0.82384000  0.19858000  1.0
  C  C37  1  0.80316000  0.12824000  0.62166000  1.0
  C  C38  1  0.19684000  0.87176000  0.37833000  1.0
  C  C39  1  0.33633000  0.60818000  0.51095000  1.0
  C  C40  1  0.66368000  0.39181000  0.48906000  1.0
  C  C41  1  0.87963000  0.93745000  0.64339000  1.0
  C  C42  1  0.12037000  0.06254000  0.35661000  1.0
  C  C43  1  0.61625000  0.75280000  0.63792000  1.0
  C  C44  1  0.38376000  0.24720000  0.36208000  1.0
  C  C45  1  0.51811000  0.76457000  0.72146000  1.0
  C  C46  1  0.48192000  0.23545000  0.27854000  1.0
  C  C47  1  0.12835000  0.10271000  0.63559000  1.0
  C  C48  1  0.87165000  0.89728000  0.36440000  1.0
  C  C49  1  0.00293000  0.43594000  0.00018000  1.0
  C  C50  1  0.99724000  0.56408000  0.99985000  1.0
  C  C51  1  0.99139000  0.40135000  0.09228000  1.0
  C  C52  1  0.00875000  0.59867000  0.90775000  1.0
  C  C53  1  0.23856000  0.61974000  0.59356000  1.0
  C  C54  1  0.76147000  0.38027000  0.40646000  1.0
  C  C55  1  0.07032000  0.98504000  0.64552000  1.0
  C  C56  1  0.92968000  0.01495000  0.35448000  1.0
  C  C57  1  0.99434000  0.17381000  0.62565000  1.0
  C  C58  1  0.00567000  0.82618000  0.37434000  1.0
  C  C59  1  0.02061000  0.34364000  0.90860000  1.0
  C  C60  1  0.97949000  0.65637000  0.09142000  1.0
  C  C61  1  0.74707000  0.00910000  0.62974000  1.0
  C  C62  1  0.25293000  0.99090000  0.37025000  1.0
  C  C63  1  0.82335000  0.81317000  0.65732000  1.0
  C  C64  1  0.17665000  0.18683000  0.34268000  1.0
  C  C65  1  0.99694000  0.27999000  0.08924000  1.0
  C  C66  1  0.00272000  0.71994000  0.91071000  1.0
  C  C67  1  0.61268000  0.84796000  0.83433000  1.0
  C  C68  1  0.38743000  0.15212000  0.16566000  1.0
  C  C69  1  0.02215000  0.22356000  0.91134000  1.0
  C  C70  1  0.97748000  0.77636000  0.08862000  1.0
  C  C71  1  0.32962000  0.69694000  0.69805000  1.0
  C  C72  1  0.67041000  0.30308000  0.30197000  1.0
  C  C73  1  0.52449000  0.67470000  0.53308000  1.0
  C  C74  1  0.47552000  0.32529000  0.46692000  1.0
  C  C75  1  0.54098000  0.44388000  0.76435000  1.0
  C  C76  1  0.45902000  0.55612000  0.23565000  1.0
  C  C77  1  0.51027000  0.46316000  0.94622000  1.0
  C  C78  1  0.48975000  0.53684000  0.05379000  1.0
  C  C79  1  0.52394000  0.33742000  0.92190000  1.0
  C  C80  1  0.47608000  0.66259000  0.07811000  1.0
  C  C81  1  0.51759000  0.51586000  0.86347000  1.0
  C  C82  1  0.48242000  0.48414000  0.13653000  1.0
  C  C83  1  0.54749000  0.27358000  0.82027000  1.0
  C  C84  1  0.45252000  0.72642000  0.17972000  1.0
  N  N85  1  0.00987000  0.19167000  0.99997000  1.0
  N  N86  1  0.98923000  0.80816000  0.99989000  1.0
  N  N87  1  0.55715000  0.32443000  0.74152000  1.0
  N  N88  1  0.44285000  0.67557000  0.25847000  1.0
  Cl  Cl89  1  0.06925000  0.32406000  0.62039000  1.0
  Cl  Cl90  1  0.93076000  0.67594000  0.37961000  1.0
  O  O91  1  0.78007000  0.91444000  0.84957000  1.0
  O  O92  1  0.22003000  0.08560000  0.15038000  1.0
  O  O93  1  0.94019000  0.75161000  0.67406000  1.0
  O  O94  1  0.05981000  0.24838000  0.32592000  1.0
  O  O95  1  0.52110000  0.84687000  0.90814000  1.0
  O  O96  1  0.47900000  0.15327000  0.09187000  1.0
  O  O97  1  0.24315000  0.99778000  0.91460000  1.0
  O  O98  1  0.75703000  0.00222000  0.08549000  1.0
