# generated using pymatgen
data_NiH16C22(SN3)2
_symmetry_space_group_name_H-M   'P 1'
_cell_length_a   8.22302000
_cell_length_b   8.22297000
_cell_length_c   16.47480000
_cell_angle_alpha   82.45720000
_cell_angle_beta   82.45740000
_cell_angle_gamma   86.98440000
_symmetry_Int_Tables_number   1
_chemical_formula_structural   NiH16C22(SN3)2
_chemical_formula_sum   'Ni2 H32 C44 S4 N12'
_cell_volume   1094.08307874
_cell_formula_units_Z   2
loop_
 _symmetry_equiv_pos_site_id
 _symmetry_equiv_pos_as_xyz
  1  'x, y, z'
loop_
 _atom_site_type_symbol
 _atom_site_label
 _atom_site_symmetry_multiplicity
 _atom_site_fract_x
 _atom_site_fract_y
 _atom_site_fract_z
 _atom_site_occupancy
  Ni  Ni0  1  0.86827000  0.13172000  0.25000000  1.0
  Ni  Ni1  1  0.13172000  0.86828000  0.75000000  1.0
  H  H2  1  0.60157000  0.25575000  0.37453000  1.0
  H  H3  1  0.74425000  0.39843000  0.12547000  1.0
  H  H4  1  0.39843000  0.74425000  0.62547000  1.0
  H  H5  1  0.25574000  0.60157000  0.87453000  1.0
  H  H6  1  0.38368000  0.47738000  0.38095000  1.0
  H  H7  1  0.52263000  0.61632000  0.11905000  1.0
  H  H8  1  0.61633000  0.52262000  0.61905000  1.0
  H  H9  1  0.47737000  0.38368000  0.88095000  1.0
  H  H10  1  0.38223000  0.80988000  0.34965000  1.0
  H  H11  1  0.19013000  0.61777000  0.15034000  1.0
  H  H12  1  0.61777000  0.19012000  0.65034000  1.0
  H  H13  1  0.80988000  0.38223000  0.84966000  1.0
  H  H14  1  0.16748000  0.03573000  0.33937000  1.0
  H  H15  1  0.96427000  0.83251000  0.16062000  1.0
  H  H16  1  0.83252000  0.96427000  0.66063000  1.0
  H  H17  1  0.03573000  0.16748000  0.83937000  1.0
  H  H18  1  0.01625000  0.54265000  0.73936000  1.0
  H  H19  1  0.45735000  0.98375000  0.76064000  1.0
  H  H20  1  0.98375000  0.45735000  0.26063000  1.0
  H  H21  1  0.54265000  0.01624000  0.23937000  1.0
  H  H22  1  0.98761000  0.35780000  0.63578000  1.0
  H  H23  1  0.64220000  0.01239000  0.86422000  1.0
  H  H24  1  0.01239000  0.64220000  0.36422000  1.0
  H  H25  1  0.35781000  0.98761000  0.13578000  1.0
  H  H26  1  0.04845000  0.78048000  0.44974000  1.0
  H  H27  1  0.21952000  0.95156000  0.05026000  1.0
  H  H28  1  0.95156000  0.21952000  0.55026000  1.0
  H  H29  1  0.78048000  0.04844000  0.94974000  1.0
  H  H30  1  0.09347000  0.94158000  0.56065000  1.0
  H  H31  1  0.05842000  0.90654000  0.93935000  1.0
  H  H32  1  0.90654000  0.05842000  0.43935000  1.0
  H  H33  1  0.94158000  0.09346000  0.06065000  1.0
  C  C34  1  0.65944000  0.41808000  0.18024000  1.0
  C  C35  1  0.58192000  0.34055000  0.31976000  1.0
  C  C36  1  0.34055000  0.58192000  0.81976000  1.0
  C  C37  1  0.41809000  0.65945000  0.68024000  1.0
  C  C38  1  0.53638000  0.54034000  0.17725000  1.0
  C  C39  1  0.45966000  0.46362000  0.32275000  1.0
  C  C40  1  0.46362000  0.45966000  0.82275000  1.0
  C  C41  1  0.54035000  0.53638000  0.67725000  1.0
  C  C42  1  0.43465000  0.56535000  0.25000000  1.0
  C  C43  1  0.56535000  0.43465000  0.75000000  1.0
  C  C44  1  0.30435000  0.69565000  0.25000000  1.0
  C  C45  1  0.69565000  0.30435000  0.75000000  1.0
  C  C46  1  0.18690000  0.70574000  0.19491000  1.0
  C  C47  1  0.29426000  0.81310000  0.30509000  1.0
  C  C48  1  0.81310000  0.29426000  0.80509000  1.0
  C  C49  1  0.70574000  0.18690000  0.69491000  1.0
  C  C50  1  0.06286000  0.82723000  0.19915000  1.0
  C  C51  1  0.17276000  0.93714000  0.30085000  1.0
  C  C52  1  0.93714000  0.17276000  0.80085000  1.0
  C  C53  1  0.82724000  0.06286000  0.69915000  1.0
  C  C54  1  0.97686000  0.41083000  0.32589000  1.0
  C  C55  1  0.58917000  0.02314000  0.17411000  1.0
  C  C56  1  0.02314000  0.58917000  0.67411000  1.0
  C  C57  1  0.41083000  0.97686000  0.82589000  1.0
  C  C58  1  0.99460000  0.51265000  0.38462000  1.0
  C  C59  1  0.48735000  0.00541000  0.11538000  1.0
  C  C60  1  0.00540000  0.48735000  0.61538000  1.0
  C  C61  1  0.51265000  0.99459000  0.88462000  1.0
  C  C62  1  0.98870000  0.44812000  0.46802000  1.0
  C  C63  1  0.55189000  0.01130000  0.03198000  1.0
  C  C64  1  0.01130000  0.55189000  0.53198000  1.0
  C  C65  1  0.44811000  0.98870000  0.96802000  1.0
  C  C66  1  0.04072000  0.72004000  0.51282000  1.0
  C  C67  1  0.27997000  0.95930000  0.98718000  1.0
  C  C68  1  0.95929000  0.27997000  0.48718000  1.0
  C  C69  1  0.72004000  0.04071000  0.01282000  1.0
  C  C70  1  0.06326000  0.81268000  0.57481000  1.0
  C  C71  1  0.18732000  0.93675000  0.92519000  1.0
  C  C72  1  0.93675000  0.18732000  0.42519000  1.0
  C  C73  1  0.81268000  0.06325000  0.07481000  1.0
  C  C74  1  0.12076000  0.32143000  0.11092000  1.0
  C  C75  1  0.67856000  0.87924000  0.38908000  1.0
  C  C76  1  0.87924000  0.67857000  0.88908000  1.0
  C  C77  1  0.32143000  0.12077000  0.61092000  1.0
  S  S78  1  0.26007000  0.39845000  0.03969000  1.0
  S  S79  1  0.60154000  0.73991000  0.46032000  1.0
  S  S80  1  0.73991000  0.60155000  0.96032000  1.0
  S  S81  1  0.39845000  0.26010000  0.53969000  1.0
  N  N82  1  0.68103000  0.31897000  0.25000000  1.0
  N  N83  1  0.31897000  0.68103000  0.75000000  1.0
  N  N84  1  0.94751000  0.25010000  0.34508000  1.0
  N  N85  1  0.74990000  0.05248000  0.15493000  1.0
  N  N86  1  0.05249000  0.74991000  0.65493000  1.0
  N  N87  1  0.25010000  0.94751000  0.84507000  1.0
  N  N88  1  0.05640000  0.94360000  0.25000000  1.0
  N  N89  1  0.94360000  0.05640000  0.75000000  1.0
  N  N90  1  0.01761000  0.26710000  0.16358000  1.0
  N  N91  1  0.73290000  0.98238000  0.33643000  1.0
  N  N92  1  0.98238000  0.73290000  0.83643000  1.0
  N  N93  1  0.26710000  0.01762000  0.66357000  1.0
