# generated using pymatgen
data_CdH18C28(NO)4
_symmetry_space_group_name_H-M   'P 1'
_cell_length_a   12.21110000
_cell_length_b   12.21340000
_cell_length_c   13.67500000
_cell_angle_alpha   67.78310000
_cell_angle_beta   67.77870000
_cell_angle_gamma   83.33810000
_symmetry_Int_Tables_number   1
_chemical_formula_structural   CdH18C28(NO)4
_chemical_formula_sum   'Cd2 H36 C56 N8 O8'
_cell_volume   1746.97072474
_cell_formula_units_Z   2
loop_
 _symmetry_equiv_pos_site_id
 _symmetry_equiv_pos_as_xyz
  1  'x, y, z'
loop_
 _atom_site_type_symbol
 _atom_site_label
 _atom_site_symmetry_multiplicity
 _atom_site_fract_x
 _atom_site_fract_y
 _atom_site_fract_z
 _atom_site_occupancy
  Cd  Cd0  1  0.65344000  0.34652000  0.25001000  1.0
  Cd  Cd1  1  0.34656000  0.65348000  0.74999000  1.0
  H  H2  1  0.68916000  0.59580000  0.28444000  1.0
  H  H3  1  0.40422000  0.31089000  0.21553000  1.0
  H  H4  1  0.31083000  0.40420000  0.71556000  1.0
  H  H5  1  0.59578000  0.68911000  0.78447000  1.0
  H  H6  1  0.36432000  0.29128000  0.45692000  1.0
  H  H7  1  0.70878000  0.63570000  0.04307000  1.0
  H  H8  1  0.63568000  0.70872000  0.54308000  1.0
  H  H9  1  0.29122000  0.36430000  0.95693000  1.0
  H  H10  1  0.15342000  0.34627000  0.53983000  1.0
  H  H11  1  0.65376000  0.84656000  0.96018000  1.0
  H  H12  1  0.84658000  0.65373000  0.46017000  1.0
  H  H13  1  0.34624000  0.15344000  0.03982000  1.0
  H  H14  1  0.10511000  0.55051000  0.53309000  1.0
  H  H15  1  0.44947000  0.89483000  0.96694000  1.0
  H  H16  1  0.89488000  0.44948000  0.46691000  1.0
  H  H17  1  0.55053000  0.10517000  0.03306000  1.0
  H  H18  1  0.26164000  0.70712000  0.44744000  1.0
  H  H19  1  0.29286000  0.73833000  0.05258000  1.0
  H  H20  1  0.73836000  0.29288000  0.55256000  1.0
  H  H21  1  0.70714000  0.26167000  0.94742000  1.0
  H  H22  1  0.39635000  0.76809000  0.48839000  1.0
  H  H23  1  0.23192000  0.60364000  0.01162000  1.0
  H  H24  1  0.60365000  0.23191000  0.51161000  1.0
  H  H25  1  0.76808000  0.39636000  0.98837000  1.0
  H  H26  1  0.43753000  0.97858000  0.44818000  1.0
  H  H27  1  0.02139000  0.56245000  0.05184000  1.0
  H  H28  1  0.56247000  0.02142000  0.55182000  1.0
  H  H29  1  0.97861000  0.43755000  0.94816000  1.0
  H  H30  1  0.71657000  0.00284000  0.13332000  1.0
  H  H31  1  0.99714000  0.28343000  0.36666000  1.0
  H  H32  1  0.28342000  0.99716000  0.86668000  1.0
  H  H33  1  0.00286000  0.71657000  0.63334000  1.0
  H  H34  1  0.67092000  0.79342000  0.16796000  1.0
  H  H35  1  0.20660000  0.32909000  0.33202000  1.0
  H  H36  1  0.32908000  0.20658000  0.83204000  1.0
  H  H37  1  0.79340000  0.67091000  0.66798000  1.0
  C  C38  1  0.59569000  0.57069000  0.32493000  1.0
  C  C39  1  0.42934000  0.40434000  0.17505000  1.0
  C  C40  1  0.40430000  0.42931000  0.67507000  1.0
  C  C41  1  0.57066000  0.59566000  0.82495000  1.0
  C  C42  1  0.42976000  0.46946000  0.40577000  1.0
  C  C43  1  0.53057000  0.57025000  0.09423000  1.0
  C  C44  1  0.57024000  0.53054000  0.59423000  1.0
  C  C45  1  0.46943000  0.42975000  0.90577000  1.0
  C  C46  1  0.34132000  0.38106000  0.45440000  1.0
  C  C47  1  0.61899000  0.65868000  0.04559000  1.0
  C  C48  1  0.65868000  0.61894000  0.54560000  1.0
  C  C49  1  0.38101000  0.34132000  0.95441000  1.0
  C  C50  1  0.22495000  0.41278000  0.49994000  1.0
  C  C51  1  0.58725000  0.77504000  0.00006000  1.0
  C  C52  1  0.77505000  0.58721000  0.50006000  1.0
  C  C53  1  0.41276000  0.22496000  0.99994000  1.0
  C  C54  1  0.19717000  0.52931000  0.49601000  1.0
  C  C55  1  0.47069000  0.80279000  0.00401000  1.0
  C  C56  1  0.80282000  0.47069000  0.50399000  1.0
  C  C57  1  0.52931000  0.19721000  0.99599000  1.0
  C  C58  1  0.28438000  0.61821000  0.44783000  1.0
  C  C59  1  0.38179000  0.71559000  0.05219000  1.0
  C  C60  1  0.71562000  0.38179000  0.55217000  1.0
  C  C61  1  0.61822000  0.28441000  0.94781000  1.0
  C  C62  1  0.40113000  0.58594000  0.40376000  1.0
  C  C63  1  0.41407000  0.59886000  0.09625000  1.0
  C  C64  1  0.59887000  0.41405000  0.59625000  1.0
  C  C65  1  0.58594000  0.40114000  0.90375000  1.0
  C  C66  1  0.53082000  0.76881000  0.32985000  1.0
  C  C67  1  0.23118000  0.46918000  0.17015000  1.0
  C  C68  1  0.46918000  0.23119000  0.67015000  1.0
  C  C69  1  0.76882000  0.53082000  0.82984000  1.0
  C  C70  1  0.46388000  0.82013000  0.40900000  1.0
  C  C71  1  0.17987000  0.53612000  0.09101000  1.0
  C  C72  1  0.53612000  0.17987000  0.59100000  1.0
  C  C73  1  0.82013000  0.46388000  0.90899000  1.0
  C  C74  1  0.48749000  0.93767000  0.38687000  1.0
  C  C75  1  0.06230000  0.51251000  0.11315000  1.0
  C  C76  1  0.51251000  0.06233000  0.61314000  1.0
  C  C77  1  0.93770000  0.48749000  0.88685000  1.0
  C  C78  1  0.57834000  0.00369000  0.28768000  1.0
  C  C79  1  0.99630000  0.42165000  0.21232000  1.0
  C  C80  1  0.42166000  0.99631000  0.71232000  1.0
  C  C81  1  0.00370000  0.57835000  0.78768000  1.0
  C  C82  1  0.64551000  0.95073000  0.20965000  1.0
  C  C83  1  0.04925000  0.35449000  0.29034000  1.0
  C  C84  1  0.35449000  0.04926000  0.79035000  1.0
  C  C85  1  0.95075000  0.64551000  0.70966000  1.0
  C  C86  1  0.62140000  0.83405000  0.22976000  1.0
  C  C87  1  0.16596000  0.37861000  0.27023000  1.0
  C  C88  1  0.37860000  0.16595000  0.77025000  1.0
  C  C89  1  0.83404000  0.62139000  0.72976000  1.0
  C  C90  1  0.60557000  0.12851000  0.26690000  1.0
  C  C91  1  0.87146000  0.39443000  0.23310000  1.0
  C  C92  1  0.39443000  0.87149000  0.73310000  1.0
  C  C93  1  0.12854000  0.60558000  0.76690000  1.0
  N  N94  1  0.55197000  0.46353000  0.35600000  1.0
  N  N95  1  0.53652000  0.44806000  0.14398000  1.0
  N  N96  1  0.44802000  0.53647000  0.64400000  1.0
  N  N97  1  0.46348000  0.55194000  0.85602000  1.0
  N  N98  1  0.50969000  0.64854000  0.35142000  1.0
  N  N99  1  0.35147000  0.49032000  0.14858000  1.0
  N  N100  1  0.49031000  0.35146000  0.64859000  1.0
  N  N101  1  0.64853000  0.50968000  0.85142000  1.0
  O  O102  1  0.53965000  0.17347000  0.34019000  1.0
  O  O103  1  0.82649000  0.46034000  0.15982000  1.0
  O  O104  1  0.46036000  0.82653000  0.65981000  1.0
  O  O105  1  0.17351000  0.53966000  0.84018000  1.0
  O  O106  1  0.69235000  0.18531000  0.17960000  1.0
  O  O107  1  0.81465000  0.30766000  0.32039000  1.0
  O  O108  1  0.30765000  0.81469000  0.82040000  1.0
  O  O109  1  0.18535000  0.69234000  0.67961000  1.0
