# generated using pymatgen
data_AlH15(C8O3)3
_symmetry_space_group_name_H-M   'P 1'
_cell_length_a   3.98865000
_cell_length_b   28.63980000
_cell_length_c   28.63965000
_cell_angle_alpha   59.99948024
_cell_angle_beta   89.99910000
_cell_angle_gamma   89.99960000
_symmetry_Int_Tables_number   1
_chemical_formula_structural   AlH15(C8O3)3
_chemical_formula_sum   'Al2 H30 C48 O18'
_cell_volume   2833.29616107
_cell_formula_units_Z   2
loop_
 _symmetry_equiv_pos_site_id
 _symmetry_equiv_pos_as_xyz
  1  'x, y, z'
loop_
 _atom_site_type_symbol
 _atom_site_label
 _atom_site_symmetry_multiplicity
 _atom_site_fract_x
 _atom_site_fract_y
 _atom_site_fract_z
 _atom_site_occupancy
  Al  Al0  1  0.99376000  0.00000000  0.50000000  1.0
  Al  Al1  1  0.99374000  0.66666000  0.16667000  1.0
  H  H2  1  0.19127000  0.51276000  0.29865000  1.0
  H  H3  1  0.21068000  0.41279000  0.34482000  1.0
  H  H4  1  0.80368000  0.42364000  0.21348000  1.0
  H  H5  1  0.79962000  0.52330000  0.17004000  1.0
  H  H6  1  0.80364000  0.24302000  0.45319000  1.0
  H  H7  1  0.21072000  0.25386000  0.32184000  1.0
  H  H8  1  0.19130000  0.15389000  0.36802000  1.0
  H  H9  1  0.79956000  0.14337000  0.49663000  1.0
  H  H10  1  0.19127000  0.79865000  0.18859000  1.0
  H  H11  1  0.21069000  0.84483000  0.24238000  1.0
  H  H12  1  0.80368000  0.71348000  0.36288000  1.0
  H  H13  1  0.79960000  0.67004000  0.30666000  1.0
  H  H14  1  0.80367000  0.95319000  0.30378000  1.0
  H  H15  1  0.21071000  0.82184000  0.42429000  1.0
  H  H16  1  0.19130000  0.86802000  0.47808000  1.0
  H  H17  1  0.79958000  0.99663000  0.36000000  1.0
  H  H18  1  0.19129000  0.68857000  0.01277000  1.0
  H  H19  1  0.21069000  0.74238000  0.91280000  1.0
  H  H20  1  0.80368000  0.86288000  0.92364000  1.0
  H  H21  1  0.79962000  0.80666000  0.02330000  1.0
  H  H22  1  0.80367000  0.80379000  0.74302000  1.0
  H  H23  1  0.21071000  0.92429000  0.75387000  1.0
  H  H24  1  0.19132000  0.97809000  0.65390000  1.0
  H  H25  1  0.79960000  0.86000000  0.64337000  1.0
  H  H26  1  0.44881000  0.35896000  0.23677000  1.0
  H  H27  1  0.44890000  0.30771000  0.42988000  1.0
  H  H28  1  0.44884000  0.73677000  0.40427000  1.0
  H  H29  1  0.44890000  0.92988000  0.26240000  1.0
  H  H30  1  0.44882000  0.90427000  0.85896000  1.0
  H  H31  1  0.44889000  0.76240000  0.80772000  1.0
  C  C32  1  0.49342000  0.95523000  0.58284000  1.0
  C  C33  1  0.49342000  0.08284000  0.46193000  1.0
  C  C34  1  0.49343000  0.96193000  0.45523000  1.0
  C  C35  1  0.49340000  0.58382000  0.20474000  1.0
  C  C36  1  0.49340000  0.70473000  0.21144000  1.0
  C  C37  1  0.49340000  0.71143000  0.08383000  1.0
  C  C38  1  0.49555000  0.52409000  0.23165000  1.0
  C  C39  1  0.32969000  0.49259000  0.28096000  1.0
  C  C40  1  0.34017000  0.43672000  0.30664000  1.0
  C  C41  1  0.50772000  0.41062000  0.28259000  1.0
  C  C42  1  0.66506000  0.44282000  0.23222000  1.0
  C  C43  1  0.66527000  0.49865000  0.20767000  1.0
  C  C44  1  0.51237000  0.35198000  0.30643000  1.0
  C  C45  1  0.51239000  0.31468000  0.36023000  1.0
  C  C46  1  0.66503000  0.22385000  0.43444000  1.0
  C  C47  1  0.50769000  0.25605000  0.38407000  1.0
  C  C48  1  0.34017000  0.22995000  0.36002000  1.0
  C  C49  1  0.32974000  0.17408000  0.38570000  1.0
  C  C50  1  0.49557000  0.14257000  0.43502000  1.0
  C  C51  1  0.66525000  0.16802000  0.45899000  1.0
  C  C52  1  0.49556000  0.73164000  0.24426000  1.0
  C  C53  1  0.32971000  0.78097000  0.22645000  1.0
  C  C54  1  0.34019000  0.80664000  0.25664000  1.0
  C  C55  1  0.50774000  0.78260000  0.30678000  1.0
  C  C56  1  0.66508000  0.73222000  0.32496000  1.0
  C  C57  1  0.66527000  0.70767000  0.29368000  1.0
  C  C58  1  0.51239000  0.80644000  0.34158000  1.0
  C  C59  1  0.51241000  0.86023000  0.32508000  1.0
  C  C60  1  0.66506000  0.93444000  0.34171000  1.0
  C  C61  1  0.50773000  0.88407000  0.35988000  1.0
  C  C62  1  0.34019000  0.86002000  0.41003000  1.0
  C  C63  1  0.32974000  0.88570000  0.44022000  1.0
  C  C64  1  0.49558000  0.93502000  0.42241000  1.0
  C  C65  1  0.66526000  0.95899000  0.37299000  1.0
  C  C66  1  0.49555000  0.74426000  0.02410000  1.0
  C  C67  1  0.32974000  0.72644000  0.99259000  1.0
  C  C68  1  0.34020000  0.75664000  0.93672000  1.0
  C  C69  1  0.50774000  0.80678000  0.91063000  1.0
  C  C70  1  0.66509000  0.82496000  0.94282000  1.0
  C  C71  1  0.66529000  0.79368000  0.99865000  1.0
  C  C72  1  0.51238000  0.84159000  0.85198000  1.0
  C  C73  1  0.51242000  0.82508000  0.81469000  1.0
  C  C74  1  0.66505000  0.84171000  0.72385000  1.0
  C  C75  1  0.50772000  0.85988000  0.75605000  1.0
  C  C76  1  0.34019000  0.91003000  0.72995000  1.0
  C  C77  1  0.32975000  0.94021000  0.67409000  1.0
  C  C78  1  0.49557000  0.92241000  0.64257000  1.0
  C  C79  1  0.66524000  0.87299000  0.66802000  1.0
  O  O80  1  0.72786000  0.99575000  0.44663000  1.0
  O  O81  1  0.72785000  0.94663000  0.55762000  1.0
  O  O82  1  0.72784000  0.05762000  0.49575000  1.0
  O  O83  1  0.25829000  0.94984000  0.48973000  1.0
  O  O84  1  0.25827000  0.06043000  0.44984000  1.0
  O  O85  1  0.25827000  0.98973000  0.56043000  1.0
  O  O86  1  0.72784000  0.72003000  0.10905000  1.0
  O  O87  1  0.72786000  0.60904000  0.17092000  1.0
  O  O88  1  0.72785000  0.67092000  0.22004000  1.0
  O  O89  1  0.25826000  0.67693000  0.10624000  1.0
  O  O90  1  0.25826000  0.71682000  0.17694000  1.0
  O  O91  1  0.25826000  0.60624000  0.21683000  1.0
  O  O92  1  0.55258000  0.33288000  0.27078000  1.0
  O  O93  1  0.55263000  0.33380000  0.39587000  1.0
  O  O94  1  0.55259000  0.77079000  0.39634000  1.0
  O  O95  1  0.55262000  0.89587000  0.27033000  1.0
  O  O96  1  0.55258000  0.89633000  0.83288000  1.0
  O  O97  1  0.55262000  0.77033000  0.83380000  1.0
