# generated using pymatgen
data_FeH6C6(NO3)2
_symmetry_space_group_name_H-M   'P 1'
_cell_length_a   6.86726000
_cell_length_b   6.86724000
_cell_length_c   9.65609000
_cell_angle_alpha   77.92260000
_cell_angle_beta   77.92270000
_cell_angle_gamma   66.98190000
_symmetry_Int_Tables_number   1
_chemical_formula_structural   FeH6C6(NO3)2
_chemical_formula_sum   'Fe2 H12 C12 N4 O12'
_cell_volume   405.71184160
_cell_formula_units_Z   2
loop_
 _symmetry_equiv_pos_site_id
 _symmetry_equiv_pos_as_xyz
  1  'x, y, z'
loop_
 _atom_site_type_symbol
 _atom_site_label
 _atom_site_symmetry_multiplicity
 _atom_site_fract_x
 _atom_site_fract_y
 _atom_site_fract_z
 _atom_site_occupancy
  Fe  Fe0  1  0.00034000  0.49955000  0.49999000  1.0
  Fe  Fe1  1  0.49953000  0.00035000  0.99999000  1.0
  H  H2  1  0.45828000  0.36157000  0.35852000  1.0
  H  H3  1  0.63796000  0.54169000  0.14090000  1.0
  H  H4  1  0.54170000  0.63795000  0.64089000  1.0
  H  H5  1  0.36155000  0.45829000  0.85852000  1.0
  H  H6  1  0.80566000  0.56750000  0.29000000  1.0
  H  H7  1  0.43063000  0.19802000  0.20820000  1.0
  H  H8  1  0.19804000  0.43061000  0.70820000  1.0
  H  H9  1  0.56749000  0.80568000  0.78998000  1.0
  H  H10  1  0.86128000  0.31918000  0.35564000  1.0
  H  H11  1  0.67987000  0.13888000  0.14472000  1.0
  H  H12  1  0.13888000  0.67986000  0.64472000  1.0
  H  H13  1  0.31916000  0.86129000  0.85564000  1.0
  C  C14  1  0.86258000  0.93348000  0.40484000  1.0
  C  C15  1  0.06607000  0.13764000  0.09568000  1.0
  C  C16  1  0.13764000  0.06607000  0.59568000  1.0
  C  C17  1  0.93346000  0.86258000  0.90483000  1.0
  C  C18  1  0.07032000  0.83519000  0.31156000  1.0
  C  C19  1  0.16498000  0.93017000  0.18917000  1.0
  C  C20  1  0.93017000  0.16499000  0.68916000  1.0
  C  C21  1  0.83520000  0.07031000  0.81154000  1.0
  C  C22  1  0.37668000  0.52378000  0.30803000  1.0
  C  C23  1  0.47619000  0.62360000  0.19197000  1.0
  C  C24  1  0.62361000  0.47618000  0.69195000  1.0
  C  C25  1  0.52380000  0.37666000  0.80800000  1.0
  N  N26  1  0.17462000  0.62720000  0.36640000  1.0
  N  N27  1  0.37274000  0.82587000  0.13379000  1.0
  N  N28  1  0.82586000  0.37272000  0.63380000  1.0
  N  N29  1  0.62719000  0.17459000  0.86640000  1.0
  O  O30  1  0.79698000  0.79309000  0.49060000  1.0
  O  O31  1  0.20596000  0.20336000  0.00944000  1.0
  O  O32  1  0.20335000  0.20595000  0.50944000  1.0
  O  O33  1  0.79309000  0.79695000  0.99060000  1.0
  O  O34  1  0.77269000  0.13145000  0.40626000  1.0
  O  O35  1  0.86801000  0.22709000  0.09460000  1.0
  O  O36  1  0.22709000  0.86803000  0.59459000  1.0
  O  O37  1  0.13143000  0.77270000  0.90627000  1.0
  O  O38  1  0.91548000  0.44270000  0.33306000  1.0
  O  O39  1  0.55531000  0.08646000  0.16669000  1.0
  O  O40  1  0.08647000  0.55530000  0.66666667  1.0
  O  O41  1  0.44269000  0.91549000  0.83306000  1.0
