# generated using pymatgen
data_AlH8C16NO7
_symmetry_space_group_name_H-M   'P 1'
_cell_length_a   6.64425000
_cell_length_b   20.29050000
_cell_length_c   22.86440000
_cell_angle_alpha   86.45250000
_cell_angle_beta   89.39350000
_cell_angle_gamma   88.83100000
_symmetry_Int_Tables_number   1
_chemical_formula_structural   AlH8C16NO7
_chemical_formula_sum   'Al4 H32 C64 N4 O28'
_cell_volume   3075.78655727
_cell_formula_units_Z   4
loop_
 _symmetry_equiv_pos_site_id
 _symmetry_equiv_pos_as_xyz
  1  'x, y, z'
loop_
 _atom_site_type_symbol
 _atom_site_label
 _atom_site_symmetry_multiplicity
 _atom_site_fract_x
 _atom_site_fract_y
 _atom_site_fract_z
 _atom_site_occupancy
  Al  Al0  1  0.79426000  0.24860000  0.75058000  1.0
  Al  Al1  1  0.20574000  0.75141000  0.24942000  1.0
  Al  Al2  1  0.29459000  0.25012000  0.74903000  1.0
  Al  Al3  1  0.70541000  0.74989000  0.25098000  1.0
  H  H4  1  0.68915000  0.45544000  0.95872000  1.0
  H  H5  1  0.31084000  0.54456000  0.04128000  1.0
  H  H6  1  0.20037000  0.04922000  0.54839000  1.0
  H  H7  1  0.79963000  0.95078000  0.45162000  1.0
  H  H8  1  0.66418000  0.53582000  0.03720000  1.0
  H  H9  1  0.33581000  0.46418000  0.96280000  1.0
  H  H10  1  0.15557000  0.96981000  0.47040000  1.0
  H  H11  1  0.84443000  0.03020000  0.52961000  1.0
  H  H12  1  0.76249000  0.33920000  0.58353000  1.0
  H  H13  1  0.23751000  0.66080000  0.41647000  1.0
  H  H14  1  0.79951000  0.15291000  0.92275000  1.0
  H  H15  1  0.20048000  0.84709000  0.07726000  1.0
  H  H16  1  0.28767000  0.42971000  0.64541000  1.0
  H  H17  1  0.71232000  0.57029000  0.35458000  1.0
  H  H18  1  0.27675000  0.07540000  0.84698000  1.0
  H  H19  1  0.72325000  0.92460000  0.15302000  1.0
  H  H20  1  0.54799000  0.63354000  0.54500000  1.0
  H  H21  1  0.53189000  0.63144000  0.46803000  1.0
  H  H22  1  0.36342000  0.68285000  0.50584000  1.0
  H  H23  1  0.45208000  0.36643000  0.45499000  1.0
  H  H24  1  0.63665000  0.31714000  0.49415000  1.0
  H  H25  1  0.46813000  0.36855000  0.53196000  1.0
  H  H26  1  0.93246000  0.88319000  0.94150000  1.0
  H  H27  1  0.09347000  0.82832000  0.98408000  1.0
  H  H28  1  0.93128000  0.88445000  0.01874000  1.0
  H  H29  1  0.06755000  0.11680000  0.05850000  1.0
  H  H30  1  0.06872000  0.11555000  0.98126000  1.0
  H  H31  1  0.90654000  0.17168000  0.01592000  1.0
  H  H32  1  0.54217000  0.33538000  0.75966000  1.0
  H  H33  1  0.45782000  0.66463000  0.24034000  1.0
  H  H34  1  0.05069000  0.16340000  0.74005000  1.0
  H  H35  1  0.94930000  0.83660000  0.25995000  1.0
  C  C36  1  0.55153000  0.16769000  0.83050000  1.0
  C  C37  1  0.44847000  0.83231000  0.16950000  1.0
  C  C38  1  0.03160000  0.33074000  0.66881000  1.0
  C  C39  1  0.96840000  0.66926000  0.33119000  1.0
  C  C40  1  0.54489000  0.17347000  0.67305000  1.0
  C  C41  1  0.45510000  0.82654000  0.32696000  1.0
  C  C42  1  0.04508000  0.32536000  0.82661000  1.0
  C  C43  1  0.95491000  0.67465000  0.17339000  1.0
  C  C44  1  0.81033000  0.51988000  0.02058000  1.0
  C  C45  1  0.18966000  0.48013000  0.97941000  1.0
  C  C46  1  0.30559000  0.98328000  0.48359000  1.0
  C  C47  1  0.69441000  0.01672000  0.51642000  1.0
  C  C48  1  0.98604000  0.54534000  0.04417000  1.0
  C  C49  1  0.01395000  0.45466000  0.95582000  1.0
  C  C50  1  0.47516000  0.95527000  0.45607000  1.0
  C  C51  1  0.52483000  0.04474000  0.54394000  1.0
  C  C52  1  0.17586000  0.52475000  0.02287000  1.0
  C  C53  1  0.82412000  0.47526000  0.97713000  1.0
  C  C54  1  0.66975000  0.97267000  0.47320000  1.0
  C  C55  1  0.33025000  0.02734000  0.52681000  1.0
  C  C56  1  0.97296000  0.59074000  0.08867000  1.0
  C  C57  1  0.02702000  0.40927000  0.91133000  1.0
  C  C58  1  0.45476000  0.91041000  0.41166000  1.0
  C  C59  1  0.54524000  0.08960000  0.58835000  1.0
  C  C60  1  0.03597000  0.37032000  0.87287000  1.0
  C  C61  1  0.96404000  0.62969000  0.12711000  1.0
  C  C62  1  0.55094000  0.12835000  0.62690000  1.0
  C  C63  1  0.44906000  0.87166000  0.37310000  1.0
  C  C64  1  0.87336000  0.37769000  0.57677000  1.0
  C  C65  1  0.12663000  0.62230000  0.42322000  1.0
  C  C66  1  0.67907000  0.11733000  0.92636000  1.0
  C  C67  1  0.32093000  0.88267000  0.07364000  1.0
  C  C68  1  0.02722000  0.38015000  0.61769000  1.0
  C  C69  1  0.97278000  0.61984000  0.38230000  1.0
  C  C70  1  0.53795000  0.11836000  0.88153000  1.0
  C  C71  1  0.46205000  0.88164000  0.11847000  1.0
  C  C72  1  0.17097000  0.42935000  0.61237000  1.0
  C  C73  1  0.82904000  0.57064000  0.38762000  1.0
  C  C74  1  0.38311000  0.07285000  0.88296000  1.0
  C  C75  1  0.61689000  0.92715000  0.11704000  1.0
  C  C76  1  0.15882000  0.47842000  0.56651000  1.0
  C  C77  1  0.84119000  0.52157000  0.43348000  1.0
  C  C78  1  0.36952000  0.02434000  0.92903000  1.0
  C  C79  1  0.63049000  0.97566000  0.07097000  1.0
  C  C80  1  0.00546000  0.47545000  0.52348000  1.0
  C  C81  1  0.99456000  0.52454000  0.47652000  1.0
  C  C82  1  0.50874000  0.02404000  0.97621000  1.0
  C  C83  1  0.49126000  0.97596000  0.02379000  1.0
  C  C84  1  0.86197000  0.42374000  0.52864000  1.0
  C  C85  1  0.13805000  0.57625000  0.47135000  1.0
  C  C86  1  0.66542000  0.07155000  0.97469000  1.0
  C  C87  1  0.33459000  0.92845000  0.02531000  1.0
  C  C88  1  0.29681000  0.53208000  0.55978000  1.0
  C  C89  1  0.70319000  0.46792000  0.44022000  1.0
  C  C90  1  0.21680000  0.97502000  0.93224000  1.0
  C  C91  1  0.78320000  0.02498000  0.06776000  1.0
  C  C92  1  0.29466000  0.57961000  0.51452000  1.0
  C  C93  1  0.70537000  0.42038000  0.48547000  1.0
  C  C94  1  0.19178000  0.92883000  0.97791000  1.0
  C  C95  1  0.80822000  0.07117000  0.02209000  1.0
  C  C96  1  0.44248000  0.63465000  0.50858000  1.0
  C  C97  1  0.55756000  0.36533000  0.49141000  1.0
  C  C98  1  0.02861000  0.87865000  0.98009000  1.0
  C  C99  1  0.97139000  0.12134000  0.01991000  1.0
  N  N100  1  0.44703000  0.53606000  0.60656000  1.0
  N  N101  1  0.55297000  0.46393000  0.39344000  1.0
  N  N102  1  0.08319000  0.97413000  0.88101000  1.0
  N  N103  1  0.91681000  0.02587000  0.11899000  1.0
  O  O104  1  0.37347000  0.19978000  0.68353000  1.0
  O  O105  1  0.62652000  0.80023000  0.31647000  1.0
  O  O106  1  0.87959000  0.31452000  0.80154000  1.0
  O  O107  1  0.12043000  0.68549000  0.19845000  1.0
  O  O108  1  0.72166000  0.19349000  0.81913000  1.0
  O  O109  1  0.27834000  0.80651000  0.18087000  1.0
  O  O110  1  0.19826000  0.32056000  0.69537000  1.0
  O  O111  1  0.80173000  0.67944000  0.30464000  1.0
  O  O112  1  0.70870000  0.18252000  0.69966000  1.0
  O  O113  1  0.29128000  0.81748000  0.30035000  1.0
  O  O114  1  0.21759000  0.30100000  0.81444000  1.0
  O  O115  1  0.78241000  0.69900000  0.18556000  1.0
  O  O116  1  0.86554000  0.30341000  0.68238000  1.0
  O  O117  1  0.13446000  0.69659000  0.31762000  1.0
  O  O118  1  0.39037000  0.17920000  0.80161000  1.0
  O  O119  1  0.60963000  0.82080000  0.19839000  1.0
  O  O120  1  0.54272000  0.29002000  0.74872000  1.0
  O  O121  1  0.45727000  0.70998000  0.25128000  1.0
  O  O122  1  0.04761000  0.20872000  0.75114000  1.0
  O  O123  1  0.95238000  0.79128000  0.24887000  1.0
  O  O124  1  0.38226000  0.54603000  0.65630000  1.0
  O  O125  1  0.62712000  0.52910000  0.59312000  1.0
  O  O126  1  0.61773000  0.45397000  0.34369000  1.0
  O  O127  1  0.37287000  0.47087000  0.40689000  1.0
  O  O128  1  0.16267000  0.96053000  0.83390000  1.0
  O  O129  1  0.90198000  0.98708000  0.88839000  1.0
  O  O130  1  0.83732000  0.03946000  0.16610000  1.0
  O  O131  1  0.09801000  0.01291000  0.11161000  1.0
