# generated using pymatgen
data_H9PbC15NO6
_symmetry_space_group_name_H-M   'P 1'
_cell_length_a   7.60163000
_cell_length_b   8.66572000
_cell_length_c   24.53040000
_cell_angle_alpha   90.00030000
_cell_angle_beta   89.99990000
_cell_angle_gamma   89.99980000
_symmetry_Int_Tables_number   1
_chemical_formula_structural   H9PbC15NO6
_chemical_formula_sum   'H36 Pb4 C60 N4 O24'
_cell_volume   1615.90568685
_cell_formula_units_Z   4
loop_
 _symmetry_equiv_pos_site_id
 _symmetry_equiv_pos_as_xyz
  1  'x, y, z'
loop_
 _atom_site_type_symbol
 _atom_site_label
 _atom_site_symmetry_multiplicity
 _atom_site_fract_x
 _atom_site_fract_y
 _atom_site_fract_z
 _atom_site_occupancy
  H  H0  1  0.31941000  0.88451000  0.76109000  1.0
  H  H1  1  0.81941000  0.11549000  0.23891000  1.0
  H  H2  1  0.81942000  0.88452000  0.73891000  1.0
  H  H3  1  0.31940000  0.11548000  0.26109000  1.0
  H  H4  1  0.35290000  0.93849000  0.66114000  1.0
  H  H5  1  0.85290000  0.06150000  0.33887000  1.0
  H  H6  1  0.85291000  0.93849000  0.83886000  1.0
  H  H7  1  0.35289000  0.06151000  0.16114000  1.0
  H  H8  1  0.59486000  0.37517000  0.69967000  1.0
  H  H9  1  0.09486000  0.62483000  0.30033000  1.0
  H  H10  1  0.09484000  0.37518000  0.80033000  1.0
  H  H11  1  0.59486000  0.62483000  0.19967000  1.0
  H  H12  1  0.55455000  0.32222000  0.79838000  1.0
  H  H13  1  0.05454000  0.67778000  0.20161000  1.0
  H  H14  1  0.05453000  0.32223000  0.70161000  1.0
  H  H15  1  0.55454000  0.67778000  0.29838000  1.0
  H  H16  1  0.64914000  0.17623000  0.60426000  1.0
  H  H17  1  0.14914000  0.82376000  0.39574000  1.0
  H  H18  1  0.14913000  0.17624000  0.89574000  1.0
  H  H19  1  0.64912000  0.82376000  0.10426000  1.0
  H  H20  1  0.43902000  0.09592000  0.59016000  1.0
  H  H21  1  0.93902000  0.90408000  0.40984000  1.0
  H  H22  1  0.93902000  0.09593000  0.90984000  1.0
  H  H23  1  0.43900000  0.90408000  0.09016000  1.0
  H  H24  1  0.18626000  0.27681000  0.60713000  1.0
  H  H25  1  0.68626000  0.72319000  0.39287000  1.0
  H  H26  1  0.68625000  0.27682000  0.89288000  1.0
  H  H27  1  0.18625000  0.72319000  0.10713000  1.0
  H  H28  1  0.07575000  0.53459000  0.57610000  1.0
  H  H29  1  0.57574000  0.46540000  0.42390000  1.0
  H  H30  1  0.57574000  0.53460000  0.92391000  1.0
  H  H31  1  0.07574000  0.46540000  0.07610000  1.0
  H  H32  1  0.70839000  0.41089000  0.58142000  1.0
  H  H33  1  0.20838000  0.58910000  0.41858000  1.0
  H  H34  1  0.20838000  0.41090000  0.91858000  1.0
  H  H35  1  0.70837000  0.58910000  0.08142000  1.0
  Pb  Pb36  1  0.42064000  0.96776000  0.95754000  1.0
  Pb  Pb37  1  0.92063000  0.03225000  0.04246000  1.0
  Pb  Pb38  1  0.92065000  0.96774000  0.54246000  1.0
  Pb  Pb39  1  0.42064000  0.03224000  0.45754000  1.0
  C  C40  1  0.41662000  0.06627000  0.84503000  1.0
  C  C41  1  0.91661000  0.93374000  0.15497000  1.0
  C  C42  1  0.91663000  0.06626000  0.65497000  1.0
  C  C43  1  0.41662000  0.93374000  0.34504000  1.0
  C  C44  1  0.43616000  0.09934000  0.78562000  1.0
  C  C45  1  0.93615000  0.90067000  0.21438000  1.0
  C  C46  1  0.93616000  0.09933000  0.71438000  1.0
  C  C47  1  0.43616000  0.90067000  0.28562000  1.0
  C  C48  1  0.38008000  0.99113000  0.74698000  1.0
  C  C49  1  0.88007000  0.00887000  0.25302000  1.0
  C  C50  1  0.88008000  0.99114000  0.75302000  1.0
  C  C51  1  0.38007000  0.00887000  0.24698000  1.0
  C  C52  1  0.39918000  0.02112000  0.69152000  1.0
  C  C53  1  0.89917000  0.97888000  0.30849000  1.0
  C  C54  1  0.89918000  0.02112000  0.80848000  1.0
  C  C55  1  0.39917000  0.97888000  0.19152000  1.0
  C  C56  1  0.47720000  0.15895000  0.67412000  1.0
  C  C57  1  0.97720000  0.84104000  0.32588000  1.0
  C  C58  1  0.97720000  0.15896000  0.82588000  1.0
  C  C59  1  0.47719000  0.84105000  0.17412000  1.0
  C  C60  1  0.53248000  0.26788000  0.71274000  1.0
  C  C61  1  0.03247000  0.73212000  0.28726000  1.0
  C  C62  1  0.03246000  0.26789000  0.78726000  1.0
  C  C63  1  0.53247000  0.73212000  0.21274000  1.0
  C  C64  1  0.51119000  0.23862000  0.76808000  1.0
  C  C65  1  0.01118000  0.76139000  0.23192000  1.0
  C  C66  1  0.01119000  0.23862000  0.73192000  1.0
  C  C67  1  0.51119000  0.76139000  0.26808000  1.0
  C  C68  1  0.50896000  0.18348000  0.61411000  1.0
  C  C69  1  0.00896000  0.81652000  0.38589000  1.0
  C  C70  1  0.00896000  0.18348000  0.88589000  1.0
  C  C71  1  0.50895000  0.81652000  0.11411000  1.0
  C  C72  1  0.27578000  0.36861000  0.59411000  1.0
  C  C73  1  0.77579000  0.63139000  0.40589000  1.0
  C  C74  1  0.77577000  0.36861000  0.90589000  1.0
  C  C75  1  0.27577000  0.63139000  0.09411000  1.0
  C  C76  1  0.21672000  0.51111000  0.57734000  1.0
  C  C77  1  0.71671000  0.48888000  0.42265000  1.0
  C  C78  1  0.71672000  0.51113000  0.92266000  1.0
  C  C79  1  0.21671000  0.48888000  0.07735000  1.0
  C  C80  1  0.33802000  0.62490000  0.56162000  1.0
  C  C81  1  0.83801000  0.37509000  0.43837000  1.0
  C  C82  1  0.83801000  0.62491000  0.93838000  1.0
  C  C83  1  0.33800000  0.37509000  0.06162000  1.0
  C  C84  1  0.51861000  0.59091000  0.56336000  1.0
  C  C85  1  0.01860000  0.40907000  0.43664000  1.0
  C  C86  1  0.01860000  0.59093000  0.93664000  1.0
  C  C87  1  0.51860000  0.40908000  0.06336000  1.0
  C  C88  1  0.57064000  0.44472000  0.58024000  1.0
  C  C89  1  0.07063000  0.55526000  0.41976000  1.0
  C  C90  1  0.07063000  0.44473000  0.91976000  1.0
  C  C91  1  0.57063000  0.55527000  0.08024000  1.0
  C  C92  1  0.65850000  0.70733000  0.54840000  1.0
  C  C93  1  0.15849000  0.29265000  0.45160000  1.0
  C  C94  1  0.15850000  0.70735000  0.95160000  1.0
  C  C95  1  0.65849000  0.29266000  0.04840000  1.0
  C  C96  1  0.26439000  0.77698000  0.54287000  1.0
  C  C97  1  0.76437000  0.22301000  0.45713000  1.0
  C  C98  1  0.76439000  0.77700000  0.95713000  1.0
  C  C99  1  0.26437000  0.22301000  0.04287000  1.0
  N  N100  1  0.45091000  0.33777000  0.59518000  1.0
  N  N101  1  0.95091000  0.66222000  0.40482000  1.0
  N  N102  1  0.95091000  0.33778000  0.90482000  1.0
  N  N103  1  0.45090000  0.66223000  0.09518000  1.0
  O  O104  1  0.35500000  0.93578000  0.86002000  1.0
  O  O105  1  0.85501000  0.06424000  0.13998000  1.0
  O  O106  1  0.85501000  0.93577000  0.63998000  1.0
  O  O107  1  0.35501000  0.06424000  0.36002000  1.0
  O  O108  1  0.46131000  0.16984000  0.87981000  1.0
  O  O109  1  0.96128000  0.83016000  0.12019000  1.0
  O  O110  1  0.96131000  0.16985000  0.62019000  1.0
  O  O111  1  0.46131000  0.83016000  0.37981000  1.0
  O  O112  1  0.81794000  0.66589000  0.54978000  1.0
  O  O113  1  0.31793000  0.33409000  0.45022000  1.0
  O  O114  1  0.31793000  0.66590000  0.95022000  1.0
  O  O115  1  0.81793000  0.33410000  0.04978000  1.0
  O  O116  1  0.60550000  0.84298000  0.53599000  1.0
  O  O117  1  0.10549000  0.15700000  0.46400000  1.0
  O  O118  1  0.10550000  0.84300000  0.96401000  1.0
  O  O119  1  0.60550000  0.15701000  0.03600000  1.0
  O  O120  1  0.22421000  0.87422000  0.57935000  1.0
  O  O121  1  0.72418000  0.12577000  0.42065000  1.0
  O  O122  1  0.72421000  0.87425000  0.92065000  1.0
  O  O123  1  0.22419000  0.12577000  0.07935000  1.0
  O  O124  1  0.23353000  0.78921000  0.49215000  1.0
  O  O125  1  0.73353000  0.21078000  0.50785000  1.0
  O  O126  1  0.73353000  0.78921000  0.00785000  1.0
  O  O127  1  0.23353000  0.21079000  0.99215000  1.0
