# generated using pymatgen
data_Zn4H14C34O13F4
_symmetry_space_group_name_H-M   'P 1'
_cell_length_a   18.52800000
_cell_length_b   18.52790000
_cell_length_c   22.34700000
_cell_angle_alpha   114.43900000
_cell_angle_beta   114.44000000
_cell_angle_gamma   90.05740000
_symmetry_Int_Tables_number   1
_chemical_formula_structural   Zn4H14C34O13F4
_chemical_formula_sum   'Zn8 H28 C68 O26 F8'
_cell_volume   6219.53959780
_cell_formula_units_Z   2
loop_
 _symmetry_equiv_pos_site_id
 _symmetry_equiv_pos_as_xyz
  1  'x, y, z'
loop_
 _atom_site_type_symbol
 _atom_site_label
 _atom_site_symmetry_multiplicity
 _atom_site_fract_x
 _atom_site_fract_y
 _atom_site_fract_z
 _atom_site_occupancy
  Zn  Zn0  1  0.97020000  0.55338000  0.43652000  1.0
  Zn  Zn1  1  0.55338000  0.97020000  0.43652000  1.0
  Zn  Zn2  1  0.11839000  0.53108000  0.56186000  1.0
  Zn  Zn3  1  0.53109000  0.11839000  0.56186000  1.0
  Zn  Zn4  1  0.96805000  0.38156000  0.43720000  1.0
  Zn  Zn5  1  0.38157000  0.96805000  0.43719000  1.0
  Zn  Zn6  1  0.94324000  0.53029000  0.56172000  1.0
  Zn  Zn7  1  0.53030000  0.94323000  0.56172000  1.0
  H  H8  1  0.81978000  0.19616000  0.42126000  1.0
  H  H9  1  0.19616000  0.81979000  0.42126000  1.0
  H  H10  1  0.72489000  0.10127000  0.42133000  1.0
  H  H11  1  0.10127000  0.72489000  0.42133000  1.0
  H  H12  1  0.62806000  0.35163000  0.57665000  1.0
  H  H13  1  0.35163000  0.62805000  0.57664000  1.0
  H  H14  1  0.70995000  0.34421000  0.65070000  1.0
  H  H15  1  0.34422000  0.70994000  0.65070000  1.0
  H  H16  1  0.72439000  0.44794000  0.57633000  1.0
  H  H17  1  0.44795000  0.72438000  0.57632000  1.0
  H  H18  1  0.80613000  0.44071000  0.65058000  1.0
  H  H19  1  0.44072000  0.80612000  0.65058000  1.0
  H  H20  1  0.10144000  0.19634000  0.42100000  1.0
  H  H21  1  0.19635000  0.10144000  0.42099000  1.0
  H  H22  1  0.44137000  0.34366000  0.65033000  1.0
  H  H23  1  0.34366000  0.44136000  0.65033000  1.0
  H  H24  1  0.61968000  0.71732000  0.56352000  1.0
  H  H25  1  0.71732000  0.61968000  0.56352000  1.0
  H  H26  1  0.61692000  0.28556000  0.95381000  1.0
  H  H27  1  0.28643000  0.61740000  0.95384000  1.0
  H  H28  1  0.73121000  0.10199000  0.95479000  1.0
  H  H29  1  0.10196000  0.73024000  0.95478000  1.0
  H  H30  1  0.88243000  0.21386000  0.04516000  1.0
  H  H31  1  0.21300000  0.88199000  0.04514000  1.0
  H  H32  1  0.83260000  0.29176000  0.95298000  1.0
  H  H33  1  0.29094000  0.83309000  0.95296000  1.0
  H  H34  1  0.76849000  0.39704000  0.04403000  1.0
  H  H35  1  0.39706000  0.76948000  0.04405000  1.0
  C  C36  1  0.09952000  0.59897000  0.69848000  1.0
  C  C37  1  0.59897000  0.09951000  0.69848000  1.0
  C  C38  1  0.68417000  0.74487000  0.58853000  1.0
  C  C39  1  0.74487000  0.68417000  0.58853000  1.0
  C  C40  1  0.67640000  0.27038000  0.97443000  1.0
  C  C41  1  0.27086000  0.67668000  0.97444000  1.0
  C  C42  1  0.70432000  0.22608000  0.02352000  1.0
  C  C43  1  0.22652000  0.70407000  0.02352000  1.0
  C  C44  1  0.86090000  0.35962000  0.22072000  1.0
  C  C45  1  0.35961000  0.86090000  0.22072000  1.0
  C  C46  1  0.63850000  0.13899000  0.77798000  1.0
  C  C47  1  0.13900000  0.63850000  0.77798000  1.0
  C  C48  1  0.76005000  0.33138000  0.02347000  1.0
  C  C49  1  0.33139000  0.76060000  0.02347000  1.0
  C  C50  1  0.78872000  0.28890000  0.07564000  1.0
  C  C51  1  0.28889000  0.78876000  0.07564000  1.0
  C  C52  1  0.79626000  0.27358000  0.97434000  1.0
  C  C53  1  0.27313000  0.79656000  0.97433000  1.0
  C  C54  1  0.71178000  0.21098000  0.92334000  1.0
  C  C55  1  0.21099000  0.71177000  0.92334000  1.0
  C  C56  1  0.82323000  0.22933000  0.02387000  1.0
  C  C57  1  0.22885000  0.82300000  0.02385000  1.0
  C  C58  1  0.90042000  0.39922000  0.30006000  1.0
  C  C59  1  0.39922000  0.90041000  0.30006000  1.0
  C  C60  1  0.74007000  0.16758000  0.97482000  1.0
  C  C61  1  0.16757000  0.73955000  0.97481000  1.0
  C  C62  1  0.82765000  0.32695000  0.15349000  1.0
  C  C63  1  0.32694000  0.82767000  0.15348000  1.0
  C  C64  1  0.67227000  0.17236000  0.84526000  1.0
  C  C65  1  0.17237000  0.67227000  0.84526000  1.0
  C  C66  1  0.76468000  0.33137000  0.54294000  1.0
  C  C67  1  0.33137000  0.76468000  0.54294000  1.0
  C  C68  1  0.80506000  0.30413000  0.49971000  1.0
  C  C69  1  0.30414000  0.80506000  0.49971000  1.0
  C  C70  1  0.78928000  0.21946000  0.45581000  1.0
  C  C71  1  0.21946000  0.78928000  0.45581000  1.0
  C  C72  1  0.73607000  0.16630000  0.45583000  1.0
  C  C73  1  0.16630000  0.73608000  0.45584000  1.0
  C  C74  1  0.69528000  0.19449000  0.49976000  1.0
  C  C75  1  0.19449000  0.69528000  0.49976000  1.0
  C  C76  1  0.71133000  0.27805000  0.54300000  1.0
  C  C77  1  0.27806000  0.71132000  0.54300000  1.0
  C  C78  1  0.69159000  0.34545000  0.59775000  1.0
  C  C79  1  0.34545000  0.69158000  0.59774000  1.0
  C  C80  1  0.13753000  0.63802000  0.49897000  1.0
  C  C81  1  0.63802000  0.13753000  0.49897000  1.0
  C  C82  1  0.75200000  0.40579000  0.59771000  1.0
  C  C83  1  0.40580000  0.75199000  0.59770000  1.0
  C  C84  1  0.27809000  0.33125000  0.54131000  1.0
  C  C85  1  0.33125000  0.27808000  0.54131000  1.0
  C  C86  1  0.19415000  0.30416000  0.49923000  1.0
  C  C87  1  0.30416000  0.19415000  0.49923000  1.0
  C  C88  1  0.16645000  0.21985000  0.45562000  1.0
  C  C89  1  0.21985000  0.16645000  0.45562000  1.0
  C  C90  1  0.40573000  0.34502000  0.59751000  1.0
  C  C91  1  0.34502000  0.40573000  0.59751000  1.0
  C  C92  1  0.86149000  0.36044000  0.49903000  1.0
  C  C93  1  0.36044000  0.86149000  0.49903000  1.0
  C  C94  1  0.13681000  0.36065000  0.49918000  1.0
  C  C95  1  0.36065000  0.13681000  0.49918000  1.0
  C  C96  1  0.86299000  0.63709000  0.49920000  1.0
  C  C97  1  0.63710000  0.86299000  0.49920000  1.0
  C  C98  1  0.76471000  0.71170000  0.54102000  1.0
  C  C99  1  0.71171000  0.76471000  0.54102000  1.0
  C  C100  1  0.80861000  0.69667000  0.50039000  1.0
  C  C101  1  0.69667000  0.80860000  0.50039000  1.0
  C  C102  1  0.79637000  0.74241000  0.46149000  1.0
  C  C103  1  0.74241000  0.79637000  0.46149000  1.0
  O  O104  1  0.00010000  0.49936000  0.50014000  1.0
  O  O105  1  0.49936000  0.00010000  0.50014000  1.0
  O  O106  1  0.06245000  0.62485000  0.45487000  1.0
  O  O107  1  0.62485000  0.06244000  0.45487000  1.0
  O  O108  1  0.87298000  0.43577000  0.54198000  1.0
  O  O109  1  0.43578000  0.87297000  0.54198000  1.0
  O  O110  1  0.14604000  0.58329000  0.66753000  1.0
  O  O111  1  0.58329000  0.14604000  0.66753000  1.0
  O  O112  1  0.91634000  0.35328000  0.33154000  1.0
  O  O113  1  0.35328000  0.91633000  0.33154000  1.0
  O  O114  1  0.02211000  0.58366000  0.66706000  1.0
  O  O115  1  0.58366000  0.02211000  0.66706000  1.0
  O  O116  1  0.91570000  0.47666000  0.33111000  1.0
  O  O117  1  0.47666000  0.91569000  0.33111000  1.0
  O  O118  1  0.16885000  0.60650000  0.54270000  1.0
  O  O119  1  0.60650000  0.16884000  0.54270000  1.0
  O  O120  1  0.89364000  0.32934000  0.45590000  1.0
  O  O121  1  0.32934000  0.89364000  0.45590000  1.0
  O  O122  1  0.16823000  0.43524000  0.54452000  1.0
  O  O123  1  0.43524000  0.16823000  0.54452000  1.0
  O  O124  1  0.87197000  0.60566000  0.54229000  1.0
  O  O125  1  0.60566000  0.87196000  0.54229000  1.0
  O  O126  1  0.06216000  0.32946000  0.45431000  1.0
  O  O127  1  0.32946000  0.06216000  0.45431000  1.0
  O  O128  1  0.89413000  0.62276000  0.45546000  1.0
  O  O129  1  0.62277000  0.89413000  0.45546000  1.0
  F  F130  1  0.83585000  0.73812000  0.42178000  1.0
  F  F131  1  0.73811000  0.83585000  0.42177000  1.0
  F  F132  1  0.45971000  0.35667000  0.57189000  1.0
  F  F133  1  0.35668000  0.45971000  0.57189000  1.0
  F  F134  1  0.70505000  0.80765000  0.65841000  1.0
  F  F135  1  0.80766000  0.70505000  0.65841000  1.0
  F  F136  1  0.65773000  0.20248000  0.04901000  1.0
  F  F137  1  0.20336000  0.65721000  0.04901000  1.0
