# generated using pymatgen
data_ZnH25C37NO4
_symmetry_space_group_name_H-M   'P 1'
_cell_length_a   9.37028000
_cell_length_b   16.08840000
_cell_length_c   19.10450000
_cell_angle_alpha   90.00000000
_cell_angle_beta   101.22000000
_cell_angle_gamma   90.00000000
_symmetry_Int_Tables_number   1
_chemical_formula_structural   ZnH25C37NO4
_chemical_formula_sum   'Zn4 H100 C148 N4 O16'
_cell_volume   2825.01142929
_cell_formula_units_Z   4
loop_
 _symmetry_equiv_pos_site_id
 _symmetry_equiv_pos_as_xyz
  1  'x, y, z'
loop_
 _atom_site_type_symbol
 _atom_site_label
 _atom_site_symmetry_multiplicity
 _atom_site_fract_x
 _atom_site_fract_y
 _atom_site_fract_z
 _atom_site_occupancy
  Zn  Zn0  1  0.07851000  0.49712000  0.44247000  1.0
  Zn  Zn1  1  0.42149000  0.99712000  0.05753000  1.0
  Zn  Zn2  1  0.92149000  0.50288000  0.55753000  1.0
  Zn  Zn3  1  0.57851000  0.00288000  0.94247000  1.0
  H  H4  1  0.18471000  0.33935000  0.69818000  1.0
  H  H5  1  0.31529000  0.83935000  0.80182000  1.0
  H  H6  1  0.81529000  0.66065000  0.30182000  1.0
  H  H7  1  0.68471000  0.16065000  0.19818000  1.0
  H  H8  1  0.39504000  0.27423000  0.78084000  1.0
  H  H9  1  0.10496000  0.77423000  0.71916000  1.0
  H  H10  1  0.60496000  0.72577000  0.21916000  1.0
  H  H11  1  0.89504000  0.22577000  0.28084000  1.0
  H  H12  1  0.61879000  0.24754000  0.60482000  1.0
  H  H13  1  0.88121000  0.74754000  0.89518000  1.0
  H  H14  1  0.38121000  0.75246000  0.39518000  1.0
  H  H15  1  0.11879000  0.25246000  0.10482000  1.0
  H  H16  1  0.40861000  0.31254000  0.52425000  1.0
  H  H17  1  0.09139000  0.81254000  0.97575000  1.0
  H  H18  1  0.59139000  0.68746000  0.47575000  1.0
  H  H19  1  0.90861000  0.18746000  0.02425000  1.0
  H  H20  1  0.62745000  0.20674000  0.80122000  1.0
  H  H21  1  0.87255000  0.70674000  0.69878000  1.0
  H  H22  1  0.37255000  0.79326000  0.19878000  1.0
  H  H23  1  0.12745000  0.29326000  0.30122000  1.0
  H  H24  1  0.80934000  0.25379000  0.68898000  1.0
  H  H25  1  0.69066000  0.75379000  0.81102000  1.0
  H  H26  1  0.19066000  0.74621000  0.31102000  1.0
  H  H27  1  0.30934000  0.24621000  0.18898000  1.0
  H  H28  1  0.81824000  0.18903000  0.88292000  1.0
  H  H29  1  0.68176000  0.68903000  0.61708000  1.0
  H  H30  1  0.18176000  0.81097000  0.11708000  1.0
  H  H31  1  0.31824000  0.31097000  0.38292000  1.0
  H  H32  1  0.03864000  0.12916000  0.95872000  1.0
  H  H33  1  0.46136000  0.62916000  0.54128000  1.0
  H  H34  1  0.96136000  0.87084000  0.04128000  1.0
  H  H35  1  0.53864000  0.37084000  0.45872000  1.0
  H  H36  1  0.26669000  0.14225000  0.78505000  1.0
  H  H37  1  0.23331000  0.64225000  0.71495000  1.0
  H  H38  1  0.73330000  0.85775000  0.21495000  1.0
  H  H39  1  0.76669000  0.35775000  0.28505000  1.0
  H  H40  1  0.04648000  0.20206000  0.70711000  1.0
  H  H41  1  0.45352000  0.70206000  0.79289000  1.0
  H  H42  1  0.95352000  0.79794000  0.29289000  1.0
  H  H43  1  0.54648000  0.29794000  0.20711000  1.0
  H  H44  1  0.37856000  0.53903000  0.42353000  1.0
  H  H45  1  0.12144000  0.03903000  0.07647000  1.0
  H  H46  1  0.62144000  0.46097000  0.57647000  1.0
  H  H47  1  0.87856000  0.96097000  0.92353000  1.0
  H  H48  1  0.50976000  0.55170000  0.32193000  1.0
  H  H49  1  0.99024000  0.05170000  0.17807000  1.0
  H  H50  1  0.49024000  0.44830000  0.67807000  1.0
  H  H51  1  0.00976000  0.94830000  0.82193000  1.0
  H  H52  1  0.10652000  0.48338000  0.18116000  1.0
  H  H53  1  0.39348000  0.98338000  0.31884000  1.0
  H  H54  1  0.89348000  0.51662000  0.81884000  1.0
  H  H55  1  0.60652000  0.01662000  0.68116000  1.0
  H  H56  1  0.99465000  0.47295000  0.28823000  1.0
  H  H57  1  0.50535000  0.97295000  0.21177000  1.0
  H  H58  1  0.00535000  0.52705000  0.71177000  1.0
  H  H59  1  0.49464000  0.02705000  0.78823000  1.0
  H  H60  1  0.50233000  0.55442000  0.19471000  1.0
  H  H61  1  0.99767000  0.05441000  0.30529000  1.0
  H  H62  1  0.49767000  0.44559000  0.80529000  1.0
  H  H63  1  0.00233000  0.94559000  0.69471000  1.0
  H  H64  1  0.24429000  0.45834000  0.10719000  1.0
  H  H65  1  0.25571000  0.95834000  0.39281000  1.0
  H  H66  1  0.75571000  0.54166000  0.89281000  1.0
  H  H67  1  0.74429000  0.04166000  0.60719000  1.0
  H  H68  1  0.61461000  0.34767000  0.89025000  1.0
  H  H69  1  0.88539000  0.84767000  0.60975000  1.0
  H  H70  1  0.38539000  0.65233000  0.10975000  1.0
  H  H71  1  0.11461000  0.15233000  0.39025000  1.0
  H  H72  1  0.52109000  0.21565000  0.92900000  1.0
  H  H73  1  0.97890000  0.71565000  0.57100000  1.0
  H  H74  1  0.47890000  0.78435000  0.07100000  1.0
  H  H75  1  0.02109000  0.28435000  0.42900000  1.0
  H  H76  1  0.37912000  0.21427000  0.02650000  1.0
  H  H77  1  0.12089000  0.71427000  0.47350000  1.0
  H  H78  1  0.62088000  0.78573000  0.97350000  1.0
  H  H79  1  0.87912000  0.28573000  0.52650000  1.0
  H  H80  1  0.33744000  0.34457000  0.08715000  1.0
  H  H81  1  0.16257000  0.84457000  0.41286000  1.0
  H  H82  1  0.66256000  0.65543000  0.91285000  1.0
  H  H83  1  0.83744000  0.15543000  0.58715000  1.0
  H  H84  1  0.19205000  0.63225000  0.90419000  1.0
  H  H85  1  0.30795000  0.13225000  0.59581000  1.0
  H  H86  1  0.80795000  0.36775000  0.09581000  1.0
  H  H87  1  0.69205000  0.86775000  0.40419000  1.0
  H  H88  1  0.27928000  0.53926000  0.81834000  1.0
  H  H89  1  0.22072000  0.03926000  0.68166000  1.0
  H  H90  1  0.72072000  0.46074000  0.18166000  1.0
  H  H91  1  0.77929000  0.96074000  0.31834000  1.0
  H  H92  1  0.22053000  0.38760000  0.81547000  1.0
  H  H93  1  0.27947000  0.88760000  0.68453000  1.0
  H  H94  1  0.77947000  0.61240000  0.18453000  1.0
  H  H95  1  0.72054000  0.11240000  0.31547000  1.0
  H  H96  1  0.07571000  0.32857000  0.89845000  1.0
  H  H97  1  0.42429000  0.82856000  0.60155000  1.0
  H  H98  1  0.92429000  0.67143000  0.10155000  1.0
  H  H99  1  0.57571000  0.17143000  0.39845000  1.0
  H  H100  1  0.94143000  0.34838000  0.99710000  1.0
  H  H101  1  0.55857000  0.84838000  0.50290000  1.0
  H  H102  1  0.05857000  0.65162000  0.00290000  1.0
  H  H103  1  0.44144000  0.15162000  0.49710000  1.0
  C  C104  1  0.16892000  0.38068000  0.56013000  1.0
  C  C105  1  0.33108000  0.88068000  0.93987000  1.0
  C  C106  1  0.83108000  0.61932000  0.43987000  1.0
  C  C107  1  0.66892000  0.11932000  0.06013000  1.0
  C  C108  1  0.28575000  0.33161000  0.60673000  1.0
  C  C109  1  0.21425000  0.83161000  0.89327000  1.0
  C  C110  1  0.71425000  0.66840000  0.39327000  1.0
  C  C111  1  0.78575000  0.16839000  0.10673000  1.0
  C  C112  1  0.28070000  0.31860000  0.67877000  1.0
  C  C113  1  0.21930000  0.81860000  0.82123000  1.0
  C  C114  1  0.71930000  0.68140000  0.32123000  1.0
  C  C115  1  0.78070000  0.18140000  0.17877000  1.0
  C  C116  1  0.39790000  0.28235000  0.72438000  1.0
  C  C117  1  0.10210000  0.78235000  0.77562000  1.0
  C  C118  1  0.60210000  0.71765000  0.27562000  1.0
  C  C119  1  0.89790000  0.21765000  0.22438000  1.0
  C  C120  1  0.52446000  0.25921000  0.69958000  1.0
  C  C121  1  0.97554000  0.75921000  0.80042000  1.0
  C  C122  1  0.47554000  0.74079000  0.30042000  1.0
  C  C123  1  0.02446000  0.24079000  0.19958000  1.0
  C  C124  1  0.52508000  0.26837000  0.62618000  1.0
  C  C125  1  0.97492000  0.76837000  0.87382000  1.0
  C  C126  1  0.47492000  0.73163000  0.37382000  1.0
  C  C127  1  0.02508000  0.23163000  0.12618000  1.0
  C  C128  1  0.40765000  0.30404000  0.58070000  1.0
  C  C129  1  0.09235000  0.80404000  0.91930000  1.0
  C  C130  1  0.59235000  0.69597000  0.41930000  1.0
  C  C131  1  0.90765000  0.19596000  0.08070000  1.0
  C  C132  1  0.64991000  0.22928000  0.75043000  1.0
  C  C133  1  0.85010000  0.72928000  0.74957000  1.0
  C  C134  1  0.35009000  0.77072000  0.24957000  1.0
  C  C135  1  0.14990000  0.27072000  0.25043000  1.0
  C  C136  1  0.78821000  0.22963000  0.73954000  1.0
  C  C137  1  0.71179000  0.72963000  0.76046000  1.0
  C  C138  1  0.21179000  0.77037000  0.26046000  1.0
  C  C139  1  0.28821000  0.27037000  0.23954000  1.0
  C  C140  1  0.91567000  0.19914000  0.78863000  1.0
  C  C141  1  0.58433000  0.69914000  0.71137000  1.0
  C  C142  1  0.08433000  0.80086000  0.21138000  1.0
  C  C143  1  0.41567000  0.30086000  0.28863000  1.0
  C  C144  1  0.91567000  0.17939000  0.86060000  1.0
  C  C145  1  0.58432000  0.67939000  0.63939000  1.0
  C  C146  1  0.08432000  0.82061000  0.13940000  1.0
  C  C147  1  0.41567000  0.32061000  0.36060000  1.0
  C  C148  1  0.03886000  0.14617000  0.90358000  1.0
  C  C149  1  0.46114000  0.64617000  0.59642000  1.0
  C  C150  1  0.96113000  0.85384000  0.09642000  1.0
  C  C151  1  0.53887000  0.35383000  0.40358000  1.0
  C  C152  1  0.16587000  0.13175000  0.87670000  1.0
  C  C153  1  0.33413000  0.63175000  0.62330000  1.0
  C  C154  1  0.83414000  0.86825000  0.12330000  1.0
  C  C155  1  0.66586000  0.36824000  0.37670000  1.0
  C  C156  1  0.16796000  0.15305000  0.80580000  1.0
  C  C157  1  0.33204000  0.65305000  0.69420000  1.0
  C  C158  1  0.83203000  0.84695000  0.19420000  1.0
  C  C159  1  0.66796000  0.34695000  0.30580000  1.0
  C  C160  1  0.04498000  0.18667000  0.76263000  1.0
  C  C161  1  0.45502000  0.68667000  0.73737000  1.0
  C  C162  1  0.95501000  0.81333000  0.23737000  1.0
  C  C163  1  0.54498000  0.31333000  0.26263000  1.0
  C  C164  1  0.29448000  0.09100000  0.92243000  1.0
  C  C165  1  0.20551000  0.59100000  0.57757000  1.0
  C  C166  1  0.70552000  0.90900000  0.07757000  1.0
  C  C167  1  0.79448000  0.40900000  0.42243000  1.0
  C  C168  1  0.32388000  0.52696000  0.36873000  1.0
  C  C169  1  0.17612000  0.02696000  0.13128000  1.0
  C  C170  1  0.67612000  0.47304000  0.63127000  1.0
  C  C171  1  0.82388000  0.97303000  0.86873000  1.0
  C  C172  1  0.39537000  0.53409000  0.31204000  1.0
  C  C173  1  0.10463000  0.03408000  0.18796000  1.0
  C  C174  1  0.60463000  0.46592000  0.68796000  1.0
  C  C175  1  0.89537000  0.96591000  0.81204000  1.0
  C  C176  1  0.32034000  0.51769000  0.24226000  1.0
  C  C177  1  0.17966000  0.01769000  0.25774000  1.0
  C  C178  1  0.67966000  0.48231000  0.75774000  1.0
  C  C179  1  0.82034000  0.98231000  0.74226000  1.0
  C  C180  1  0.17264000  0.49531000  0.23363000  1.0
  C  C181  1  0.32736000  0.99531000  0.26637000  1.0
  C  C182  1  0.82736000  0.50469000  0.76637000  1.0
  C  C183  1  0.67264000  0.00469000  0.73363000  1.0
  C  C184  1  0.10875000  0.48977000  0.29278000  1.0
  C  C185  1  0.39125000  0.98977000  0.20722000  1.0
  C  C186  1  0.89125000  0.51024000  0.70722000  1.0
  C  C187  1  0.60875000  0.01023000  0.79278000  1.0
  C  C188  1  0.39573000  0.52443000  0.18293000  1.0
  C  C189  1  0.10428000  0.02443000  0.31708000  1.0
  C  C190  1  0.60427000  0.47557000  0.81707000  1.0
  C  C191  1  0.89572000  0.97557000  0.68293000  1.0
  C  C192  1  0.34636000  0.49332000  0.11699000  1.0
  C  C193  1  0.15365000  0.99332000  0.38301000  1.0
  C  C194  1  0.65365000  0.50668000  0.88301000  1.0
  C  C195  1  0.84635000  0.00668000  0.61699000  1.0
  C  C196  1  0.42344000  0.49826000  0.05774000  1.0
  C  C197  1  0.07656000  0.99826000  0.44226000  1.0
  C  C198  1  0.57656000  0.50174000  0.94226000  1.0
  C  C199  1  0.92344000  0.00174000  0.55774000  1.0
  C  C200  1  0.44372000  0.42397000  0.02092000  1.0
  C  C201  1  0.05628000  0.92397000  0.47908000  1.0
  C  C202  1  0.55628000  0.57603000  0.97908000  1.0
  C  C203  1  0.94372000  0.07603000  0.52092000  1.0
  C  C204  1  0.52198000  0.42523000  0.96301000  1.0
  C  C205  1  0.97802000  0.92523000  0.53699000  1.0
  C  C206  1  0.47802000  0.57476000  0.03699000  1.0
  C  C207  1  0.02198000  0.07477000  0.46301000  1.0
  C  C208  1  0.54902000  0.34787000  0.93143000  1.0
  C  C209  1  0.95098000  0.84787000  0.56857000  1.0
  C  C210  1  0.45098000  0.65213000  0.06857000  1.0
  C  C211  1  0.04902000  0.15213000  0.43143000  1.0
  C  C212  1  0.49767000  0.27414000  0.95312000  1.0
  C  C213  1  0.00234000  0.77414000  0.54688000  1.0
  C  C214  1  0.50234000  0.72586000  0.04688000  1.0
  C  C215  1  0.99766000  0.22586000  0.45312000  1.0
  C  C216  1  0.41759000  0.27318000  0.00899000  1.0
  C  C217  1  0.08242000  0.77318000  0.49101000  1.0
  C  C218  1  0.58241000  0.72682000  0.99101000  1.0
  C  C219  1  0.91759000  0.22682000  0.50899000  1.0
  C  C220  1  0.39384000  0.34602000  0.04238000  1.0
  C  C221  1  0.10617000  0.84602000  0.45762000  1.0
  C  C222  1  0.60616000  0.65398000  0.95762000  1.0
  C  C223  1  0.89384000  0.15398000  0.54238000  1.0
  C  C224  1  0.08209000  0.53440000  0.95166000  1.0
  C  C225  1  0.41792000  0.03440000  0.54834000  1.0
  C  C226  1  0.91791000  0.46560000  0.04834000  1.0
  C  C227  1  0.58208000  0.96560000  0.45166000  1.0
  C  C228  1  0.16579000  0.56615000  0.90254000  1.0
  C  C229  1  0.33422000  0.06615000  0.59746000  1.0
  C  C230  1  0.83421000  0.43386000  0.09746000  1.0
  C  C231  1  0.66579000  0.93386000  0.40254000  1.0
  C  C232  1  0.21385000  0.51434000  0.85485000  1.0
  C  C233  1  0.28615000  0.01434000  0.64515000  1.0
  C  C234  1  0.78614000  0.48566000  0.14514000  1.0
  C  C235  1  0.71386000  0.98566000  0.35485000  1.0
  C  C236  1  0.18070000  0.42791000  0.85333000  1.0
  C  C237  1  0.31930000  0.92791000  0.64667000  1.0
  C  C238  1  0.81930000  0.57209000  0.14667000  1.0
  C  C239  1  0.68071000  0.07209000  0.35333000  1.0
  C  C240  1  0.10028000  0.39488000  0.89945000  1.0
  C  C241  1  0.39972000  0.89488000  0.60055000  1.0
  C  C242  1  0.89972000  0.60512000  0.10055000  1.0
  C  C243  1  0.60028000  0.10512000  0.39945000  1.0
  C  C244  1  0.04856000  0.44644000  0.95005000  1.0
  C  C245  1  0.45144000  0.94644000  0.54995000  1.0
  C  C246  1  0.95144000  0.55356000  0.04995000  1.0
  C  C247  1  0.54856000  0.05356000  0.45005000  1.0
  C  C248  1  0.96744000  0.41459000  0.99846000  1.0
  C  C249  1  0.53255000  0.91459000  0.50154000  1.0
  C  C250  1  0.03256000  0.58541000  0.00154000  1.0
  C  C251  1  0.46745000  0.08541000  0.49846000  1.0
  N  N252  1  0.18276000  0.50503000  0.35955000  1.0
  N  N253  1  0.31724000  0.00503000  0.14045000  1.0
  N  N254  1  0.81724000  0.49498000  0.64045000  1.0
  N  N255  1  0.68276000  0.99497000  0.85955000  1.0
  O  O256  1  0.06307000  0.40472000  0.58796000  1.0
  O  O257  1  0.43693000  0.90471000  0.91204000  1.0
  O  O258  1  0.93693000  0.59528000  0.41204000  1.0
  O  O259  1  0.56307000  0.09529000  0.08796000  1.0
  O  O260  1  0.18709000  0.39779000  0.49725000  1.0
  O  O261  1  0.31290000  0.89779000  0.00275000  1.0
  O  O262  1  0.81290000  0.60221000  0.50274000  1.0
  O  O263  1  0.68709000  0.10221000  0.99725000  1.0
  O  O264  1  0.28215000  0.07094000  0.98556000  1.0
  O  O265  1  0.21785000  0.57094000  0.51445000  1.0
  O  O266  1  0.71785000  0.92906000  0.01445000  1.0
  O  O267  1  0.78215000  0.42906000  0.48556000  1.0
  O  O268  1  0.40609000  0.07824000  0.89490000  1.0
  O  O269  1  0.09391000  0.57824000  0.60510000  1.0
  O  O270  1  0.59391000  0.92176000  0.10510000  1.0
  O  O271  1  0.90609000  0.42176000  0.39490000  1.0
