# generated using pymatgen
data_ZnH13C15I(N3O2)2
_symmetry_space_group_name_H-M   'P 1'
_cell_length_a   10.21790000
_cell_length_b   12.33910000
_cell_length_c   16.62230000
_cell_angle_alpha   90.00000000
_cell_angle_beta   89.99990000
_cell_angle_gamma   108.15000000
_symmetry_Int_Tables_number   1
_chemical_formula_structural   ZnH13C15I(N3O2)2
_chemical_formula_sum   'Zn4 H52 C60 I4 N24 O16'
_cell_volume   1991.45959806
_cell_formula_units_Z   4
loop_
 _symmetry_equiv_pos_site_id
 _symmetry_equiv_pos_as_xyz
  1  'x, y, z'
loop_
 _atom_site_type_symbol
 _atom_site_label
 _atom_site_symmetry_multiplicity
 _atom_site_fract_x
 _atom_site_fract_y
 _atom_site_fract_z
 _atom_site_occupancy
  Zn  Zn0  1  0.89486000  0.32952000  0.43852000  1.0
  Zn  Zn1  1  0.10513000  0.17047000  0.93852000  1.0
  Zn  Zn2  1  0.10514000  0.67047000  0.56148000  1.0
  Zn  Zn3  1  0.89487000  0.82953000  0.06148000  1.0
  H  H4  1  0.28904000  0.59973000  0.38231000  1.0
  H  H5  1  0.71096000  0.90027000  0.88231000  1.0
  H  H6  1  0.71097000  0.40027000  0.61769000  1.0
  H  H7  1  0.28904000  0.09973000  0.11769000  1.0
  H  H8  1  0.70670000  0.58873000  0.35746000  1.0
  H  H9  1  0.29329000  0.91125000  0.85745000  1.0
  H  H10  1  0.29330000  0.41126000  0.64255000  1.0
  H  H11  1  0.70671000  0.08875000  0.14254000  1.0
  H  H12  1  0.38869000  0.29791000  0.44871000  1.0
  H  H13  1  0.61128000  0.20208000  0.94871000  1.0
  H  H14  1  0.61130000  0.70209000  0.55129000  1.0
  H  H15  1  0.38872000  0.79792000  0.05129000  1.0
  H  H16  1  0.70463000  0.13496000  0.56046000  1.0
  H  H17  1  0.29537000  0.36504000  0.06046000  1.0
  H  H18  1  0.29537000  0.86504000  0.43954000  1.0
  H  H19  1  0.70463000  0.63496000  0.93954000  1.0
  H  H20  1  0.06008000  0.41238000  0.60713000  1.0
  H  H21  1  0.93992000  0.08762000  0.10713000  1.0
  H  H22  1  0.93992000  0.58762000  0.39288000  1.0
  H  H23  1  0.06008000  0.91238000  0.89287000  1.0
  H  H24  1  0.68298000  0.04784000  0.71282000  1.0
  H  H25  1  0.31701000  0.45217000  0.21283000  1.0
  H  H26  1  0.31701000  0.95216000  0.28718000  1.0
  H  H27  1  0.68299000  0.54784000  0.78718000  1.0
  H  H28  1  0.81939000  0.11784000  0.77903000  1.0
  H  H29  1  0.18060000  0.38216000  0.27904000  1.0
  H  H30  1  0.18060000  0.88215000  0.22097000  1.0
  H  H31  1  0.81940000  0.61784000  0.72096000  1.0
  H  H32  1  0.81848000  0.91967000  0.73640000  1.0
  H  H33  1  0.18151000  0.58033000  0.23640000  1.0
  H  H34  1  0.18151000  0.08032000  0.26360000  1.0
  H  H35  1  0.81849000  0.41967000  0.76360000  1.0
  H  H36  1  0.84352000  0.96876000  0.63574000  1.0
  H  H37  1  0.15647000  0.53124000  0.13574000  1.0
  H  H38  1  0.15648000  0.03123000  0.36426000  1.0
  H  H39  1  0.84353000  0.46877000  0.86427000  1.0
  H  H40  1  0.06983000  0.12074000  0.68428000  1.0
  H  H41  1  0.93017000  0.37926000  0.18428000  1.0
  H  H42  1  0.93017000  0.87925000  0.31572000  1.0
  H  H43  1  0.06983000  0.62075000  0.81572000  1.0
  H  H44  1  0.04300000  0.05014000  0.77853000  1.0
  H  H45  1  0.95700000  0.44986000  0.27853000  1.0
  H  H46  1  0.95700000  0.94986000  0.22147000  1.0
  H  H47  1  0.04300000  0.55014000  0.72147000  1.0
  H  H48  1  0.93503000  0.83543000  0.61198000  1.0
  H  H49  1  0.06497000  0.66457000  0.11199000  1.0
  H  H50  1  0.06497000  0.16456000  0.38802000  1.0
  H  H51  1  0.93504000  0.33543000  0.88801000  1.0
  H  H52  1  0.34328000  0.86396000  0.67078000  1.0
  H  H53  1  0.65672000  0.63604000  0.17078000  1.0
  H  H54  1  0.65672000  0.13605000  0.32922000  1.0
  H  H55  1  0.34329000  0.36396000  0.82922000  1.0
  C  C56  1  0.17750000  0.38167000  0.43875000  1.0
  C  C57  1  0.82248000  0.11833000  0.93875000  1.0
  C  C58  1  0.82249000  0.61833000  0.56125000  1.0
  C  C59  1  0.17752000  0.88167000  0.06125000  1.0
  C  C60  1  0.32419000  0.44264000  0.41642000  1.0
  C  C61  1  0.67580000  0.05736000  0.91641000  1.0
  C  C62  1  0.67581000  0.55736000  0.58358000  1.0
  C  C63  1  0.32420000  0.94265000  0.08358000  1.0
  C  C64  1  0.36496000  0.55473000  0.38691000  1.0
  C  C65  1  0.63503000  0.94526000  0.88691000  1.0
  C  C66  1  0.63504000  0.44527000  0.61309000  1.0
  C  C67  1  0.36497000  0.05474000  0.11309000  1.0
  C  C68  1  0.50258000  0.60644000  0.36587000  1.0
  C  C69  1  0.49741000  0.89355000  0.86586000  1.0
  C  C70  1  0.49742000  0.39356000  0.63413000  1.0
  C  C71  1  0.50259000  0.10645000  0.13413000  1.0
  C  C72  1  0.59934000  0.54827000  0.37334000  1.0
  C  C73  1  0.40065000  0.95172000  0.87333000  1.0
  C  C74  1  0.40066000  0.45173000  0.62667000  1.0
  C  C75  1  0.59935000  0.04828000  0.12666000  1.0
  C  C76  1  0.55755000  0.43618000  0.40271000  1.0
  C  C77  1  0.44244000  0.06381000  0.90271000  1.0
  C  C78  1  0.44244000  0.56381000  0.59730000  1.0
  C  C79  1  0.55757000  0.93620000  0.09729000  1.0
  C  C80  1  0.42046000  0.38412000  0.42442000  1.0
  C  C81  1  0.57953000  0.11587000  0.92442000  1.0
  C  C82  1  0.57954000  0.61588000  0.57558000  1.0
  C  C83  1  0.42047000  0.88413000  0.07558000  1.0
  C  C84  1  0.65860000  0.37189000  0.41455000  1.0
  C  C85  1  0.34140000  0.12811000  0.91455000  1.0
  C  C86  1  0.34140000  0.62810000  0.58545000  1.0
  C  C87  1  0.65860000  0.87189000  0.08545000  1.0
  C  C88  1  0.79497000  0.19305000  0.58889000  1.0
  C  C89  1  0.20502000  0.30695000  0.08889000  1.0
  C  C90  1  0.20502000  0.80694000  0.41111000  1.0
  C  C91  1  0.79498000  0.69305000  0.91111000  1.0
  C  C92  1  0.97494000  0.33394000  0.61456000  1.0
  C  C93  1  0.02506000  0.16606000  0.11456000  1.0
  C  C94  1  0.02506000  0.66606000  0.38544000  1.0
  C  C95  1  0.97494000  0.83394000  0.88544000  1.0
  C  C96  1  0.79520000  0.08471000  0.71794000  1.0
  C  C97  1  0.20480000  0.41529000  0.21794000  1.0
  C  C98  1  0.20480000  0.91528000  0.28206000  1.0
  C  C99  1  0.79521000  0.58471000  0.78206000  1.0
  C  C100  1  0.86586000  0.99506000  0.69884000  1.0
  C  C101  1  0.13413000  0.50494000  0.19884000  1.0
  C  C102  1  0.13413000  0.00493000  0.30116000  1.0
  C  C103  1  0.86587000  0.49507000  0.80117000  1.0
  C  C104  1  0.02108000  0.03838000  0.71391000  1.0
  C  C105  1  0.97892000  0.46163000  0.21391000  1.0
  C  C106  1  0.97892000  0.96162000  0.28609000  1.0
  C  C107  1  0.02109000  0.53837000  0.78609000  1.0
  C  C108  1  0.03731000  0.86575000  0.63798000  1.0
  C  C109  1  0.96269000  0.63425000  0.13798000  1.0
  C  C110  1  0.96269000  0.13424000  0.36203000  1.0
  C  C111  1  0.03731000  0.36575000  0.86202000  1.0
  C  C112  1  0.24590000  0.88180000  0.66832000  1.0
  C  C113  1  0.75410000  0.61821000  0.16832000  1.0
  C  C114  1  0.75411000  0.11821000  0.33168000  1.0
  C  C115  1  0.24590000  0.38179000  0.83168000  1.0
  I  I116  1  0.57155000  0.77675000  0.32388000  1.0
  I  I117  1  0.42845000  0.72324000  0.82388000  1.0
  I  I118  1  0.42846000  0.22325000  0.67612000  1.0
  I  I119  1  0.57155000  0.27676000  0.17611000  1.0
  N  N120  1  0.87843000  0.28876000  0.55649000  1.0
  N  N121  1  0.12156000  0.21124000  0.05649000  1.0
  N  N122  1  0.12157000  0.71124000  0.44351000  1.0
  N  N123  1  0.87843000  0.78876000  0.94351000  1.0
  N  N124  1  0.83972000  0.18179000  0.66346000  1.0
  N  N125  1  0.16027000  0.31821000  0.16346000  1.0
  N  N126  1  0.16027000  0.81821000  0.33654000  1.0
  N  N127  1  0.83973000  0.68179000  0.83654000  1.0
  N  N128  1  0.95456000  0.27122000  0.68084000  1.0
  N  N129  1  0.04544000  0.22878000  0.18085000  1.0
  N  N130  1  0.04543000  0.72878000  0.31916000  1.0
  N  N131  1  0.95456000  0.77122000  0.81916000  1.0
  N  N132  1  0.08865000  0.95760000  0.68459000  1.0
  N  N133  1  0.91135000  0.54241000  0.18459000  1.0
  N  N134  1  0.91135000  0.04240000  0.31541000  1.0
  N  N135  1  0.08865000  0.45759000  0.81541000  1.0
  N  N136  1  0.22184000  0.96932000  0.70483000  1.0
  N  N137  1  0.77815000  0.53068000  0.20483000  1.0
  N  N138  1  0.77815000  0.03068000  0.29517000  1.0
  N  N139  1  0.22185000  0.46932000  0.79517000  1.0
  N  N140  1  0.13480000  0.81572000  0.62622000  1.0
  N  N141  1  0.86520000  0.68429000  0.12622000  1.0
  N  N142  1  0.86520000  0.18428000  0.37378000  1.0
  N  N143  1  0.13480000  0.31571000  0.87378000  1.0
  O  O144  1  0.08637000  0.42826000  0.41416000  1.0
  O  O145  1  0.91362000  0.07174000  0.91417000  1.0
  O  O146  1  0.91363000  0.57175000  0.58583000  1.0
  O  O147  1  0.08638000  0.92826000  0.08583000  1.0
  O  O148  1  0.14893000  0.28903000  0.47611000  1.0
  O  O149  1  0.85105000  0.21097000  0.97611000  1.0
  O  O150  1  0.85106000  0.71098000  0.52389000  1.0
  O  O151  1  0.14895000  0.78902000  0.02390000  1.0
  O  O152  1  0.61880000  0.26937000  0.43570000  1.0
  O  O153  1  0.38119000  0.23063000  0.93570000  1.0
  O  O154  1  0.38119000  0.73063000  0.56431000  1.0
  O  O155  1  0.61881000  0.76937000  0.06430000  1.0
  O  O156  1  0.78797000  0.42952000  0.40335000  1.0
  O  O157  1  0.21203000  0.07048000  0.90336000  1.0
  O  O158  1  0.21203000  0.57048000  0.59665000  1.0
  O  O159  1  0.78797000  0.92952000  0.09664000  1.0
