# generated using pymatgen
data_CdMo2H14C6S4(NO4)2
_symmetry_space_group_name_H-M   'P 1'
_cell_length_a   8.61327000
_cell_length_b   9.99480000
_cell_length_c   10.17260000
_cell_angle_alpha   90.00010000
_cell_angle_beta   90.00000000
_cell_angle_gamma   104.99800000
_symmetry_Int_Tables_number   1
_chemical_formula_structural   CdMo2H14C6S4(NO4)2
_chemical_formula_sum   'Cd2 Mo4 H28 C12 S8 N4 O16'
_cell_volume   845.90574996
_cell_formula_units_Z   2
loop_
 _symmetry_equiv_pos_site_id
 _symmetry_equiv_pos_as_xyz
  1  'x, y, z'
loop_
 _atom_site_type_symbol
 _atom_site_label
 _atom_site_symmetry_multiplicity
 _atom_site_fract_x
 _atom_site_fract_y
 _atom_site_fract_z
 _atom_site_occupancy
  Cd  Cd0  1  0.01538000  0.82560000  0.86487000  1.0
  Cd  Cd1  1  0.98462000  0.17439000  0.36486000  1.0
  Mo  Mo2  1  0.44182000  0.81363000  0.87318000  1.0
  Mo  Mo3  1  0.55819000  0.18637000  0.37318000  1.0
  Mo  Mo4  1  0.60910000  0.61012000  0.92954000  1.0
  Mo  Mo5  1  0.39090000  0.38988000  0.42954000  1.0
  H  H6  1  0.50873000  0.22930000  0.79984000  1.0
  H  H7  1  0.49126000  0.77070000  0.29984000  1.0
  H  H8  1  0.54915000  0.03225000  0.68755000  1.0
  H  H9  1  0.45085000  0.96776000  0.18754000  1.0
  H  H10  1  0.59676000  0.49089000  0.17982000  1.0
  H  H11  1  0.40324000  0.50911000  0.67982000  1.0
  H  H12  1  0.65294000  0.38817000  0.07026000  1.0
  H  H13  1  0.34705000  0.61183000  0.57026000  1.0
  H  H14  1  0.82433000  0.00287000  0.90962000  1.0
  H  H15  1  0.17567000  0.99713000  0.40962000  1.0
  H  H16  1  0.22781000  0.12339000  0.86085000  1.0
  H  H17  1  0.77219000  0.87661000  0.36085000  1.0
  H  H18  1  0.33833000  0.18867000  0.00466000  1.0
  H  H19  1  0.66167000  0.81134000  0.50466000  1.0
  H  H20  1  0.86828000  0.50215000  0.22853000  1.0
  H  H21  1  0.13172000  0.49785000  0.72852000  1.0
  H  H22  1  0.93175000  0.40597000  0.01861000  1.0
  H  H23  1  0.06825000  0.59402000  0.51860000  1.0
  H  H24  1  0.07220000  0.56966000  0.04310000  1.0
  H  H25  1  0.92780000  0.43034000  0.54309000  1.0
  H  H26  1  0.97370000  0.10022000  0.82812000  1.0
  H  H27  1  0.02630000  0.89978000  0.32812000  1.0
  H  H28  1  0.35235000  0.00363000  0.70150000  1.0
  H  H29  1  0.64765000  0.99636000  0.20149000  1.0
  H  H30  1  0.05205000  0.92922000  0.58589000  1.0
  H  H31  1  0.94795000  0.07078000  0.08588000  1.0
  H  H32  1  0.17039000  0.83529000  0.60811000  1.0
  H  H33  1  0.82961000  0.16471000  0.10811000  1.0
  C  C34  1  0.47816000  0.12783000  0.84906000  1.0
  C  C35  1  0.52183000  0.87217000  0.34906000  1.0
  C  C36  1  0.61246000  0.11727000  0.94180000  1.0
  C  C37  1  0.38754000  0.88274000  0.44181000  1.0
  C  C38  1  0.32317000  0.11032000  0.92686000  1.0
  C  C39  1  0.67683000  0.88968000  0.42686000  1.0
  C  C40  1  0.83900000  0.54795000  0.13675000  1.0
  C  C41  1  0.16100000  0.45205000  0.63675000  1.0
  C  C42  1  0.86725000  0.70436000  0.15241000  1.0
  C  C43  1  0.13276000  0.29564000  0.65241000  1.0
  C  C44  1  0.94507000  0.51779000  0.02580000  1.0
  C  C45  1  0.05493000  0.48220000  0.52579000  1.0
  S  S46  1  0.42312000  0.68004000  0.06148000  1.0
  S  S47  1  0.57688000  0.31996000  0.56148000  1.0
  S  S48  1  0.66235000  0.77299000  0.75979000  1.0
  S  S49  1  0.33765000  0.22701000  0.25979000  1.0
  S  S50  1  0.26731000  0.93870000  0.00567000  1.0
  S  S51  1  0.73269000  0.06130000  0.50567000  1.0
  S  S52  1  0.88120000  0.57195000  0.86645000  1.0
  S  S53  1  0.11880000  0.42805000  0.36644000  1.0
  N  N54  1  0.45616000  0.01219000  0.75469000  1.0
  N  N55  1  0.54384000  0.98782000  0.25469000  1.0
  N  N56  1  0.66899000  0.48978000  0.09967000  1.0
  N  N57  1  0.33101000  0.51022000  0.59967000  1.0
  O  O58  1  0.28380000  0.72699000  0.77964000  1.0
  O  O59  1  0.71620000  0.27301000  0.27964000  1.0
  O  O60  1  0.49427000  0.46378000  0.85783000  1.0
  O  O61  1  0.50573000  0.53622000  0.35783000  1.0
  O  O62  1  0.69732000  0.21982000  0.00097000  1.0
  O  O63  1  0.30269000  0.78019000  0.50097000  1.0
  O  O64  1  0.62794000  0.99225000  0.95684000  1.0
  O  O65  1  0.37206000  0.00775000  0.45683000  1.0
  O  O66  1  0.96495000  0.76665000  0.23688000  1.0
  O  O67  1  0.03505000  0.23335000  0.73688000  1.0
  O  O68  1  0.78998000  0.76010000  0.06851000  1.0
  O  O69  1  0.21002000  0.23990000  0.56851000  1.0
  O  O70  1  0.94294000  0.02676000  0.89873000  1.0
  O  O71  1  0.05706000  0.97324000  0.39873000  1.0
  O  O72  1  0.10518000  0.88943000  0.65579000  1.0
  O  O73  1  0.89482000  0.11056000  0.15578000  1.0
