# generated using pymatgen
data_ZnH12C17(OF)6
_symmetry_space_group_name_H-M   'P 1'
_cell_length_a   11.99610000
_cell_length_b   12.89910000
_cell_length_c   13.19430000
_cell_angle_alpha   94.91120000
_cell_angle_beta   89.99950000
_cell_angle_gamma   90.00000000
_symmetry_Int_Tables_number   1
_chemical_formula_structural   ZnH12C17(OF)6
_chemical_formula_sum   'Zn4 H48 C68 O24 F24'
_cell_volume   2034.17554966
_cell_formula_units_Z   4
loop_
 _symmetry_equiv_pos_site_id
 _symmetry_equiv_pos_as_xyz
  1  'x, y, z'
loop_
 _atom_site_type_symbol
 _atom_site_label
 _atom_site_symmetry_multiplicity
 _atom_site_fract_x
 _atom_site_fract_y
 _atom_site_fract_z
 _atom_site_occupancy
  Zn  Zn0  1  0.08090000  0.02657000  0.53445000  1.0
  Zn  Zn1  1  0.58090000  0.97342000  0.46554000  1.0
  Zn  Zn2  1  0.59955000  0.45323000  0.52616000  1.0
  Zn  Zn3  1  0.09955000  0.54677000  0.47384000  1.0
  H  H4  1  0.89231000  0.95051000  0.59382000  1.0
  H  H5  1  0.39232000  0.04949000  0.40619000  1.0
  H  H6  1  0.87515000  0.95571000  0.47320000  1.0
  H  H7  1  0.37515000  0.04429000  0.52680000  1.0
  H  H8  1  0.08621000  0.24020000  0.55928000  1.0
  H  H9  1  0.58621000  0.75980000  0.44072000  1.0
  H  H10  1  0.95986000  0.19781000  0.56293000  1.0
  H  H11  1  0.45986000  0.80219000  0.43708000  1.0
  H  H12  1  0.34776000  0.01369000  0.07774000  1.0
  H  H13  1  0.84777000  0.98631000  0.92226000  1.0
  H  H14  1  0.23459000  0.05072000  0.23386000  1.0
  H  H15  1  0.73459000  0.94928000  0.76614000  1.0
  H  H16  1  0.30095000  0.74228000  0.31937000  1.0
  H  H17  1  0.80094000  0.25772000  0.68063000  1.0
  H  H18  1  0.41679000  0.70556000  0.16744000  1.0
  H  H19  1  0.91677000  0.29444000  0.83256000  1.0
  H  H20  1  0.55669000  0.95317000  0.85986000  1.0
  H  H21  1  0.05669000  0.04684000  0.14013000  1.0
  H  H22  1  0.45862000  0.01222000  0.71271000  1.0
  H  H23  1  0.95863000  0.98779000  0.28729000  1.0
  H  H24  1  0.15552000  0.87110000  0.80727000  1.0
  H  H25  1  0.65552000  0.12891000  0.19273000  1.0
  H  H26  1  0.25210000  0.81439000  0.95908000  1.0
  H  H27  1  0.75210000  0.18561000  0.04092000  1.0
  H  H28  1  0.41473000  0.53257000  0.60749000  1.0
  H  H29  1  0.91473000  0.46743000  0.39252000  1.0
  H  H30  1  0.39678000  0.52904000  0.48682000  1.0
  H  H31  1  0.89678000  0.47096000  0.51319000  1.0
  H  H32  1  0.61238000  0.24202000  0.52508000  1.0
  H  H33  1  0.11238000  0.75798000  0.47493000  1.0
  H  H34  1  0.48615000  0.28119000  0.52401000  1.0
  H  H35  1  0.98615000  0.71882000  0.47599000  1.0
  H  H36  1  0.84415000  0.49482000  0.07634000  1.0
  H  H37  1  0.34415000  0.50518000  0.92367000  1.0
  H  H38  1  0.72920000  0.45722000  0.22450000  1.0
  H  H39  1  0.22920000  0.54278000  0.77550000  1.0
  H  H40  1  0.77854000  0.77183000  0.35433000  1.0
  H  H41  1  0.27854000  0.22818000  0.64567000  1.0
  H  H42  1  0.89964000  0.80707000  0.21228000  1.0
  H  H43  1  0.39965000  0.19293000  0.78772000  1.0
  H  H44  1  0.06882000  0.52738000  0.89298000  1.0
  H  H45  1  0.56882000  0.47261000  0.10702000  1.0
  H  H46  1  0.98491000  0.45364000  0.73263000  1.0
  H  H47  1  0.48491000  0.54635000  0.26737000  1.0
  H  H48  1  0.67853000  0.61310000  0.80854000  1.0
  H  H49  1  0.17853000  0.38690000  0.19147000  1.0
  H  H50  1  0.75978000  0.68589000  0.97187000  1.0
  H  H51  1  0.25978000  0.31411000  0.02813000  1.0
  C  C52  1  0.33867000  0.95414000  0.13090000  1.0
  C  C53  1  0.83868000  0.04585000  0.86910000  1.0
  C  C54  1  0.27471000  0.97512000  0.21839000  1.0
  C  C55  1  0.77471000  0.02488000  0.78160000  1.0
  C  C56  1  0.26092000  0.89879000  0.28698000  1.0
  C  C57  1  0.76092000  0.10120000  0.71302000  1.0
  C  C58  1  0.19382000  0.91829000  0.38235000  1.0
  C  C59  1  0.69382000  0.08170000  0.61765000  1.0
  C  C60  1  0.31237000  0.80189000  0.26651000  1.0
  C  C61  1  0.81236000  0.19811000  0.73349000  1.0
  C  C62  1  0.37745000  0.78145000  0.17988000  1.0
  C  C63  1  0.87744000  0.21855000  0.82011000  1.0
  C  C64  1  0.39105000  0.85717000  0.11087000  1.0
  C  C65  1  0.89104000  0.14283000  0.88912000  1.0
  C  C66  1  0.46599000  0.84056000  0.01610000  1.0
  C  C67  1  0.96599000  0.15945000  0.98390000  1.0
  C  C68  1  0.57818000  0.89627000  0.04511000  1.0
  C  C69  1  0.07817000  0.10373000  0.95488000  1.0
  C  C70  1  0.49116000  0.72378000  0.98609000  1.0
  C  C71  1  0.99116000  0.27623000  0.01390000  1.0
  C  C72  1  0.41067000  0.88139000  0.92206000  1.0
  C  C73  1  0.91068000  0.11862000  0.07793000  1.0
  C  C74  1  0.46856000  0.93524000  0.85071000  1.0
  C  C75  1  0.96856000  0.06478000  0.14928000  1.0
  C  C76  1  0.41301000  0.96901000  0.76682000  1.0
  C  C77  1  0.91301000  0.03099000  0.23318000  1.0
  C  C78  1  0.29955000  0.94769000  0.75184000  1.0
  C  C79  1  0.79955000  0.05232000  0.24816000  1.0
  C  C80  1  0.23649000  0.99022000  0.66748000  1.0
  C  C81  1  0.73649000  0.00978000  0.33252000  1.0
  C  C82  1  0.24315000  0.88909000  0.82027000  1.0
  C  C83  1  0.74316000  0.11092000  0.17972000  1.0
  C  C84  1  0.29782000  0.85734000  0.90504000  1.0
  C  C85  1  0.79782000  0.14267000  0.09496000  1.0
  C  C86  1  0.83132000  0.55513000  0.13789000  1.0
  C  C87  1  0.33132000  0.44487000  0.86211000  1.0
  C  C88  1  0.76587000  0.53407000  0.22051000  1.0
  C  C89  1  0.26586000  0.46593000  0.77949000  1.0
  C  C90  1  0.74700000  0.61137000  0.30001000  1.0
  C  C91  1  0.24700000  0.38862000  0.69999000  1.0
  C  C92  1  0.68155000  0.58590000  0.39125000  1.0
  C  C93  1  0.18155000  0.41410000  0.60876000  1.0
  C  C94  1  0.79396000  0.71006000  0.29431000  1.0
  C  C95  1  0.29396000  0.28994000  0.70569000  1.0
  C  C96  1  0.86237000  0.73019000  0.21267000  1.0
  C  C97  1  0.36237000  0.26981000  0.78733000  1.0
  C  C98  1  0.88244000  0.65252000  0.13391000  1.0
  C  C99  1  0.38245000  0.34748000  0.86609000  1.0
  C  C100  1  0.96503000  0.66406000  0.04622000  1.0
  C  C101  1  0.46503000  0.33594000  0.95379000  1.0
  C  C102  1  0.98883000  0.77935000  0.02700000  1.0
  C  C103  1  0.48883000  0.22064000  0.97300000  1.0
  C  C104  1  0.07629000  0.61459000  0.07971000  1.0
  C  C105  1  0.57630000  0.38541000  0.92029000  1.0
  C  C106  1  0.91986000  0.61190000  0.94506000  1.0
  C  C107  1  0.41986000  0.38810000  0.05494000  1.0
  C  C108  1  0.98300000  0.54693000  0.87652000  1.0
  C  C109  1  0.48300000  0.45307000  0.12348000  1.0
  C  C110  1  0.93598000  0.50482000  0.78545000  1.0
  C  C111  1  0.43598000  0.49518000  0.21455000  1.0
  C  C112  1  0.82573000  0.52768000  0.76089000  1.0
  C  C113  1  0.32573000  0.47231000  0.23912000  1.0
  C  C114  1  0.77305000  0.48076000  0.66504000  1.0
  C  C115  1  0.27305000  0.51924000  0.33496000  1.0
  C  C116  1  0.76373000  0.59476000  0.82820000  1.0
  C  C117  1  0.26373000  0.40524000  0.17181000  1.0
  C  C118  1  0.80988000  0.63565000  0.91945000  1.0
  C  C119  1  0.30988000  0.36435000  0.08056000  1.0
  O  O120  1  0.19046000  0.84983000  0.44487000  1.0
  O  O121  1  0.69045000  0.15017000  0.55513000  1.0
  O  O122  1  0.14481000  0.00789000  0.39683000  1.0
  O  O123  1  0.64482000  0.99209000  0.60316000  1.0
  O  O124  1  0.13197000  0.96964000  0.66085000  1.0
  O  O125  1  0.63198000  0.03036000  0.33915000  1.0
  O  O126  1  0.28375000  0.04789000  0.60673000  1.0
  O  O127  1  0.78375000  0.95211000  0.39327000  1.0
  O  O128  1  0.93227000  0.94978000  0.52961000  1.0
  O  O129  1  0.43228000  0.05022000  0.47039000  1.0
  O  O130  1  0.03726000  0.17648000  0.56751000  1.0
  O  O131  1  0.53725000  0.82352000  0.43249000  1.0
  O  O132  1  0.66839000  0.48740000  0.39991000  1.0
  O  O133  1  0.16838000  0.51260000  0.60010000  1.0
  O  O134  1  0.64484000  0.65564000  0.45541000  1.0
  O  O135  1  0.14484000  0.34436000  0.54460000  1.0
  O  O136  1  0.66796000  0.49863000  0.65573000  1.0
  O  O137  1  0.16796000  0.50138000  0.34428000  1.0
  O  O138  1  0.83019000  0.42596000  0.59986000  1.0
  O  O139  1  0.33019000  0.57403000  0.40015000  1.0
  O  O140  1  0.43745000  0.49561000  0.54352000  1.0
  O  O141  1  0.93745000  0.50439000  0.45649000  1.0
  O  O142  1  0.56176000  0.29985000  0.50635000  1.0
  O  O143  1  0.06177000  0.70015000  0.49365000  1.0
  F  F144  1  0.66142000  0.87223000  0.97601000  1.0
  F  F145  1  0.16141000  0.12776000  0.02398000  1.0
  F  F146  1  0.61673000  0.87106000  0.13647000  1.0
  F  F147  1  0.11673000  0.12894000  0.86353000  1.0
  F  F148  1  0.56463000  0.00107000  0.05129000  1.0
  F  F149  1  0.06463000  0.99893000  0.94870000  1.0
  F  F150  1  0.53792000  0.70978000  0.89199000  1.0
  F  F151  1  0.03792000  0.29023000  0.10799000  1.0
  F  F152  1  0.56245000  0.68108000  0.05156000  1.0
  F  F153  1  0.06244000  0.31892000  0.94842000  1.0
  F  F154  1  0.39575000  0.66649000  0.98284000  1.0
  F  F155  1  0.89574000  0.33351000  0.01716000  1.0
  F  F156  1  0.04181000  0.78533000  0.93644000  1.0
  F  F157  1  0.54181000  0.21466000  0.06356000  1.0
  F  F158  1  0.05453000  0.82974000  0.09988000  1.0
  F  F159  1  0.55453000  0.17025000  0.90012000  1.0
  F  F160  1  0.89266000  0.83482000  0.02297000  1.0
  F  F161  1  0.39266000  0.16518000  0.97703000  1.0
  F  F162  1  0.16394000  0.63298000  0.01735000  1.0
  F  F163  1  0.66394000  0.36701000  0.98265000  1.0
  F  F164  1  0.06549000  0.50979000  0.07954000  1.0
  F  F165  1  0.56549000  0.49020000  0.92046000  1.0
  F  F166  1  0.10659000  0.65110000  0.17523000  1.0
  F  F167  1  0.60659000  0.34890000  0.82477000  1.0
