# generated using pymatgen
data_FePH3CO7
_symmetry_space_group_name_H-M   'P 1'
_cell_length_a   5.03904000
_cell_length_b   7.60084000
_cell_length_c   7.60808000
_cell_angle_alpha   95.85220000
_cell_angle_beta   101.57700000
_cell_angle_gamma   106.51000000
_symmetry_Int_Tables_number   1
_chemical_formula_structural   FePH3CO7
_chemical_formula_sum   'Fe2 P2 H6 C2 O14'
_cell_volume   269.74879942
_cell_formula_units_Z   2
loop_
 _symmetry_equiv_pos_site_id
 _symmetry_equiv_pos_as_xyz
  1  'x, y, z'
loop_
 _atom_site_type_symbol
 _atom_site_label
 _atom_site_symmetry_multiplicity
 _atom_site_fract_x
 _atom_site_fract_y
 _atom_site_fract_z
 _atom_site_occupancy
  Fe  Fe0  1  0.03803000  0.25891000  0.29971000  1.0
  Fe  Fe1  1  0.96197000  0.74109000  0.70028000  1.0
  P  P2  1  0.64478000  0.54971000  0.28449000  1.0
  P  P3  1  0.35521000  0.45029000  0.71550000  1.0
  H  H4  1  0.74664000  0.92242000  0.39369000  1.0
  H  H5  1  0.25337000  0.07759000  0.60632000  1.0
  H  H6  1  0.54646000  0.04485000  0.32487000  1.0
  H  H7  1  0.45354000  0.95515000  0.67514000  1.0
  H  H8  1  0.73604000  0.60748000  0.01405000  1.0
  H  H9  1  0.26395000  0.39252000  0.98594000  1.0
  C  C10  1  0.12551000  0.97359000  0.05295000  1.0
  C  C11  1  0.87449000  0.02641000  0.94706000  1.0
  O  O12  1  0.20396000  0.85202000  0.97160000  1.0
  O  O13  1  0.79606000  0.14796000  0.02839000  1.0
  O  O14  1  0.23287000  0.05930000  0.21588000  1.0
  O  O15  1  0.76713000  0.94069000  0.78412000  1.0
  O  O16  1  0.74647000  0.05097000  0.38205000  1.0
  O  O17  1  0.25354000  0.94904000  0.61796000  1.0
  O  O18  1  0.80274000  0.40809000  0.32576000  1.0
  O  O19  1  0.19727000  0.59192000  0.67424000  1.0
  O  O20  1  0.69784000  0.69442000  0.45570000  1.0
  O  O21  1  0.30216000  0.30559000  0.54430000  1.0
  O  O22  1  0.76341000  0.66862000  0.14393000  1.0
  O  O23  1  0.23657000  0.33139000  0.85606000  1.0
  O  O24  1  0.32219000  0.44871000  0.20288000  1.0
  O  O25  1  0.67780000  0.55129000  0.79711000  1.0
