# generated using pymatgen
data_Ag3H5C5(NO3)2
_symmetry_space_group_name_H-M   'P 1'
_cell_length_a   7.52257000
_cell_length_b   7.85965000
_cell_length_c   8.82804000
_cell_angle_alpha   81.84550000
_cell_angle_beta   79.57790000
_cell_angle_gamma   77.16830000
_symmetry_Int_Tables_number   1
_chemical_formula_structural   Ag3H5C5(NO3)2
_chemical_formula_sum   'Ag6 H10 C10 N4 O12'
_cell_volume   497.70352835
_cell_formula_units_Z   2
loop_
 _symmetry_equiv_pos_site_id
 _symmetry_equiv_pos_as_xyz
  1  'x, y, z'
loop_
 _atom_site_type_symbol
 _atom_site_label
 _atom_site_symmetry_multiplicity
 _atom_site_fract_x
 _atom_site_fract_y
 _atom_site_fract_z
 _atom_site_occupancy
  Ag  Ag0  1  0.72449000  0.31636000  0.68794000  1.0
  Ag  Ag1  1  0.27551000  0.68364000  0.31206000  1.0
  Ag  Ag2  1  0.03001000  0.16589000  0.03446000  1.0
  Ag  Ag3  1  0.96999000  0.83411000  0.96554000  1.0
  Ag  Ag4  1  0.91221000  0.67137000  0.51462000  1.0
  Ag  Ag5  1  0.08779000  0.32865000  0.48538000  1.0
  H  H6  1  0.59470000  0.77494000  0.10095000  1.0
  H  H7  1  0.40529000  0.22506000  0.89905000  1.0
  H  H8  1  0.56967000  0.19628000  0.48048000  1.0
  H  H9  1  0.43034000  0.80372000  0.51952000  1.0
  H  H10  1  0.57107000  0.05987000  0.63432000  1.0
  H  H11  1  0.42894000  0.94013000  0.36568000  1.0
  H  H12  1  0.35625000  0.02295000  0.11702000  1.0
  H  H13  1  0.64375000  0.97704000  0.88298000  1.0
  H  H14  1  0.34744000  0.93581000  0.96642000  1.0
  H  H15  1  0.65255000  0.06418000  0.03358000  1.0
  C  C16  1  0.83847000  0.48826000  0.25403000  1.0
  C  C17  1  0.16154000  0.51175000  0.74597000  1.0
  C  C18  1  0.76502000  0.50741000  0.10721000  1.0
  C  C19  1  0.23499000  0.49259000  0.89279000  1.0
  C  C20  1  0.65593000  0.65848000  0.04363000  1.0
  C  C21  1  0.34407000  0.34152000  0.95637000  1.0
  C  C22  1  0.64366000  0.62188000  0.89566000  1.0
  C  C23  1  0.35633000  0.37812000  0.10434000  1.0
  C  C24  1  0.55891000  0.74132000  0.77189000  1.0
  C  C25  1  0.44108000  0.25868000  0.22811000  1.0
  N  N26  1  0.74091000  0.45609000  0.87387000  1.0
  N  N27  1  0.25909000  0.54391000  0.12613000  1.0
  N  N28  1  0.81440000  0.38660000  0.00247000  1.0
  N  N29  1  0.18560000  0.61341000  0.99753000  1.0
  O  O30  1  0.79877000  0.62805000  0.32128000  1.0
  O  O31  1  0.20123000  0.37196000  0.67872000  1.0
  O  O32  1  0.93776000  0.34018000  0.29621000  1.0
  O  O33  1  0.06225000  0.65982000  0.70380000  1.0
  O  O34  1  0.49875000  0.90436000  0.79799000  1.0
  O  O35  1  0.50124000  0.09564000  0.20201000  1.0
  O  O36  1  0.55553000  0.68406000  0.64583000  1.0
  O  O37  1  0.44447000  0.31594000  0.35417000  1.0
  O  O38  1  0.64782000  0.13212000  0.56074000  1.0
  O  O39  1  0.35219000  0.86788000  0.43926000  1.0
  O  O40  1  0.27460000  0.96737000  0.06884000  1.0
  O  O41  1  0.72539000  0.03262000  0.93116000  1.0
