# generated using pymatgen
data_ZnH12C25NO10
_symmetry_space_group_name_H-M   'P 1'
_cell_length_a   14.12480000
_cell_length_b   20.45530000
_cell_length_c   22.46650000
_cell_angle_alpha   90.20970000
_cell_angle_beta   93.24460000
_cell_angle_gamma   92.18190000
_symmetry_Int_Tables_number   1
_chemical_formula_structural   ZnH12C25NO10
_chemical_formula_sum   'Zn4 H48 C100 N4 O40'
_cell_volume   6475.96502858
_cell_formula_units_Z   4
loop_
 _symmetry_equiv_pos_site_id
 _symmetry_equiv_pos_as_xyz
  1  'x, y, z'
loop_
 _atom_site_type_symbol
 _atom_site_label
 _atom_site_symmetry_multiplicity
 _atom_site_fract_x
 _atom_site_fract_y
 _atom_site_fract_z
 _atom_site_occupancy
  Zn  Zn0  1  0.60306000  0.99884000  0.50347000  1.0
  Zn  Zn1  1  0.39099000  0.99762000  0.49735000  1.0
  Zn  Zn2  1  0.60874000  0.49988000  0.00328000  1.0
  Zn  Zn3  1  0.39464000  0.49724000  0.99814000  1.0
  H  H4  1  0.27210000  0.83159000  0.23848000  1.0
  H  H5  1  0.71560000  0.15210000  0.76905000  1.0
  H  H6  1  0.26594000  0.17922000  0.25503000  1.0
  H  H7  1  0.72780000  0.82434000  0.74980000  1.0
  H  H8  1  0.28472000  0.33472000  0.73998000  1.0
  H  H9  1  0.70889000  0.65574000  0.26754000  1.0
  H  H10  1  0.26617000  0.65643000  0.74586000  1.0
  H  H11  1  0.73225000  0.34033000  0.25743000  1.0
  H  H12  1  0.91573000  0.16147000  0.47102000  1.0
  H  H13  1  0.07829000  0.83520000  0.53022000  1.0
  H  H14  1  0.90236000  0.83269000  0.51778000  1.0
  H  H15  1  0.09167000  0.16398000  0.48302000  1.0
  H  H16  1  0.92879000  0.64603000  0.07206000  1.0
  H  H17  1  0.07503000  0.34892000  0.93363000  1.0
  H  H18  1  0.89904000  0.34868000  0.93442000  1.0
  H  H19  1  0.10463000  0.64620000  0.07144000  1.0
  H  H20  1  0.68874000  0.09435000  0.70933000  1.0
  H  H21  1  0.30136000  0.89346000  0.29473000  1.0
  H  H22  1  0.65068000  0.91556000  0.63133000  1.0
  H  H23  1  0.34295000  0.08444000  0.37151000  1.0
  H  H24  1  0.69021000  0.60331000  0.20320000  1.0
  H  H25  1  0.30730000  0.38986000  0.80277000  1.0
  H  H26  1  0.65816000  0.42956000  0.13666000  1.0
  H  H27  1  0.34476000  0.56425000  0.86410000  1.0
  H  H28  1  0.37769000  0.17717000  0.59853000  1.0
  H  H29  1  0.61643000  0.81716000  0.40533000  1.0
  H  H30  1  0.34998000  0.83421000  0.61927000  1.0
  H  H31  1  0.64491000  0.16302000  0.38332000  1.0
  H  H32  1  0.37807000  0.68590000  0.09184000  1.0
  H  H33  1  0.62056000  0.30668000  0.91206000  1.0
  H  H34  1  0.35492000  0.35693000  0.12756000  1.0
  H  H35  1  0.64373000  0.64516000  0.87663000  1.0
  H  H36  1  0.28418000  0.23395000  0.61621000  1.0
  H  H37  1  0.70546000  0.75552000  0.39168000  1.0
  H  H38  1  0.20019000  0.71749000  0.67000000  1.0
  H  H39  1  0.79660000  0.27883000  0.33352000  1.0
  H  H40  1  0.26993000  0.72496000  0.11879000  1.0
  H  H41  1  0.71958000  0.25633000  0.89048000  1.0
  H  H42  1  0.20166000  0.24042000  0.17880000  1.0
  H  H43  1  0.79324000  0.76441000  0.82651000  1.0
  H  H44  1  0.67552000  0.89060000  0.47953000  1.0
  H  H45  1  0.31872000  0.10575000  0.52127000  1.0
  H  H46  1  0.68422000  0.09715000  0.45519000  1.0
  H  H47  1  0.30959000  0.89932000  0.54593000  1.0
  H  H48  1  0.67587000  0.40214000  0.95109000  1.0
  H  H49  1  0.32863000  0.59492000  0.04984000  1.0
  H  H50  1  0.69854000  0.59490000  0.05843000  1.0
  H  H51  1  0.30504000  0.39981000  0.94670000  1.0
  C  C52  1  0.49650000  0.08384000  0.41082000  1.0
  C  C53  1  0.49734000  0.91375000  0.59095000  1.0
  C  C54  1  0.48661000  0.90170000  0.42512000  1.0
  C  C55  1  0.50734000  0.09334000  0.57693000  1.0
  C  C56  1  0.49871000  0.56717000  0.90479000  1.0
  C  C57  1  0.50361000  0.43074000  0.09749000  1.0
  C  C58  1  0.49140000  0.39229000  0.93207000  1.0
  C  C59  1  0.51076000  0.60345000  0.07041000  1.0
  C  C60  1  0.58053000  0.13697000  0.67555000  1.0
  C  C61  1  0.41074000  0.85291000  0.32915000  1.0
  C  C62  1  0.58142000  0.85231000  0.67349000  1.0
  C  C63  1  0.41256000  0.14823000  0.33021000  1.0
  C  C64  1  0.57885000  0.64402000  0.17082000  1.0
  C  C65  1  0.41834000  0.34795000  0.83447000  1.0
  C  C66  1  0.58632000  0.37030000  0.18155000  1.0
  C  C67  1  0.41339000  0.62733000  0.82135000  1.0
  C  C68  1  0.50793000  0.13770000  0.62972000  1.0
  C  C69  1  0.48474000  0.85466000  0.37419000  1.0
  C  C70  1  0.49744000  0.86333000  0.63774000  1.0
  C  C71  1  0.49671000  0.13560000  0.36524000  1.0
  C  C72  1  0.50790000  0.64547000  0.12408000  1.0
  C  C73  1  0.49086000  0.34730000  0.88015000  1.0
  C  C74  1  0.50253000  0.38247000  0.14625000  1.0
  C  C75  1  0.49745000  0.61648000  0.85691000  1.0
  C  C76  1  0.43253000  0.17942000  0.63478000  1.0
  C  C77  1  0.56036000  0.81296000  0.36991000  1.0
  C  C78  1  0.41435000  0.82551000  0.64644000  1.0
  C  C79  1  0.58039000  0.17278000  0.35670000  1.0
  C  C80  1  0.43039000  0.68542000  0.12939000  1.0
  C  C81  1  0.56658000  0.30574000  0.87533000  1.0
  C  C82  1  0.41807000  0.34664000  0.15539000  1.0
  C  C83  1  0.58039000  0.65444000  0.84863000  1.0
  C  C84  1  0.42701000  0.22144000  0.68346000  1.0
  C  C85  1  0.56528000  0.76916000  0.32249000  1.0
  C  C86  1  0.41305000  0.77605000  0.68894000  1.0
  C  C87  1  0.58237000  0.22283000  0.31480000  1.0
  C  C88  1  0.42148000  0.72456000  0.17956000  1.0
  C  C89  1  0.57222000  0.26414000  0.82638000  1.0
  C  C90  1  0.41528000  0.29747000  0.19821000  1.0
  C  C91  1  0.58156000  0.70402000  0.80622000  1.0
  C  C92  1  0.50105000  0.22174000  0.72968000  1.0
  C  C93  1  0.49086000  0.76738000  0.27648000  1.0
  C  C94  1  0.49707000  0.76498000  0.72561000  1.0
  C  C95  1  0.49836000  0.23528000  0.27861000  1.0
  C  C96  1  0.49508000  0.72544000  0.22606000  1.0
  C  C97  1  0.49809000  0.26372000  0.78019000  1.0
  C  C98  1  0.49911000  0.28533000  0.23470000  1.0
  C  C99  1  0.49749000  0.71493000  0.76952000  1.0
  C  C100  1  0.57859000  0.17952000  0.72555000  1.0
  C  C101  1  0.41229000  0.80871000  0.28031000  1.0
  C  C102  1  0.58132000  0.80386000  0.71844000  1.0
  C  C103  1  0.41320000  0.19742000  0.28594000  1.0
  C  C104  1  0.57421000  0.68464000  0.22185000  1.0
  C  C105  1  0.42030000  0.30579000  0.78433000  1.0
  C  C106  1  0.58471000  0.32262000  0.22700000  1.0
  C  C107  1  0.41317000  0.67606000  0.77670000  1.0
  C  C108  1  0.34938000  0.26413000  0.68957000  1.0
  C  C109  1  0.64297000  0.72632000  0.31719000  1.0
  C  C110  1  0.32978000  0.73515000  0.69740000  1.0
  C  C111  1  0.66659000  0.26274000  0.30632000  1.0
  C  C112  1  0.34043000  0.76386000  0.18688000  1.0
  C  C113  1  0.65052000  0.22209000  0.81984000  1.0
  C  C114  1  0.33120000  0.25742000  0.20666000  1.0
  C  C115  1  0.66445000  0.74541000  0.79818000  1.0
  C  C116  1  0.33688000  0.80463000  0.23521000  1.0
  C  C117  1  0.65275000  0.18128000  0.77144000  1.0
  C  C118  1  0.33004000  0.20938000  0.24902000  1.0
  C  C119  1  0.66452000  0.79336000  0.75577000  1.0
  C  C120  1  0.34675000  0.30468000  0.73815000  1.0
  C  C121  1  0.64671000  0.68575000  0.26870000  1.0
  C  C122  1  0.32972000  0.68709000  0.73968000  1.0
  C  C123  1  0.66787000  0.31064000  0.26393000  1.0
  C  C124  1  0.79411000  0.93940000  0.49529000  1.0
  C  C125  1  0.20004000  0.05713000  0.50554000  1.0
  C  C126  1  0.79878000  0.05315000  0.48108000  1.0
  C  C127  1  0.19526000  0.94337000  0.51981000  1.0
  C  C128  1  0.79756000  0.44667000  0.97873000  1.0
  C  C129  1  0.20622000  0.54897000  0.02553000  1.0
  C  C130  1  0.80798000  0.54867000  0.02832000  1.0
  C  C131  1  0.19559000  0.44690000  0.97606000  1.0
  C  C132  1  0.89920000  0.05699000  0.48623000  1.0
  C  C133  1  0.09484000  0.93963000  0.51476000  1.0
  C  C134  1  0.89402000  0.93727000  0.50231000  1.0
  C  C135  1  0.10012000  0.05933000  0.49855000  1.0
  C  C136  1  0.90791000  0.55127000  0.02830000  1.0
  C  C137  1  0.09573000  0.44394000  0.97690000  1.0
  C  C138  1  0.89694000  0.44370000  0.97807000  1.0
  C  C139  1  0.10692000  0.55144000  0.02726000  1.0
  C  C140  1  0.94634000  0.99781000  0.49776000  1.0
  C  C141  1  0.04776000  0.99883000  0.50316000  1.0
  C  C142  1  0.95163000  0.49752000  0.00300000  1.0
  C  C143  1  0.05214000  0.49760000  0.00243000  1.0
  C  C144  1  0.95353000  0.11694000  0.48048000  1.0
  C  C145  1  0.04052000  0.87970000  0.52061000  1.0
  C  C146  1  0.94350000  0.87839000  0.51378000  1.0
  C  C147  1  0.05059000  0.11824000  0.48715000  1.0
  C  C148  1  0.96446000  0.60525000  0.05314000  1.0
  C  C149  1  0.03929000  0.38971000  0.95247000  1.0
  C  C150  1  0.94261000  0.38963000  0.95300000  1.0
  C  C151  1  0.06116000  0.60527000  0.05268000  1.0
  N  N152  1  0.74842000  0.99620000  0.48845000  1.0
  N  N153  1  0.24565000  0.00028000  0.51235000  1.0
  N  N154  1  0.75423000  0.49768000  0.00363000  1.0
  N  N155  1  0.24934000  0.49832000  0.99987000  1.0
  O  O156  1  0.57539000  0.06608000  0.43554000  1.0
  O  O157  1  0.41834000  0.93079000  0.56591000  1.0
  O  O158  1  0.57793000  0.93935000  0.57716000  1.0
  O  O159  1  0.41589000  0.05773000  0.42396000  1.0
  O  O160  1  0.40892000  0.92293000  0.44062000  1.0
  O  O161  1  0.58542000  0.07328000  0.56092000  1.0
  O  O162  1  0.42551000  0.07768000  0.55100000  1.0
  O  O163  1  0.56879000  0.91831000  0.45006000  1.0
  O  O164  1  0.57777000  0.55284000  0.93007000  1.0
  O  O165  1  0.42517000  0.44931000  0.07428000  1.0
  O  O166  1  0.58574000  0.45111000  0.08059000  1.0
  O  O167  1  0.41773000  0.54139000  0.91893000  1.0
  O  O168  1  0.41413000  0.40965000  0.95234000  1.0
  O  O169  1  0.58923000  0.58379000  0.05384000  1.0
  O  O170  1  0.43239000  0.58719000  0.04150000  1.0
  O  O171  1  0.57168000  0.41317000  0.95554000  1.0
  O  O172  1  0.65050000  0.09366000  0.67182000  1.0
  O  O173  1  0.33988000  0.89565000  0.33214000  1.0
  O  O174  1  0.66330000  0.88714000  0.66696000  1.0
  O  O175  1  0.33010000  0.11411000  0.33674000  1.0
  O  O176  1  0.65050000  0.60209000  0.16628000  1.0
  O  O177  1  0.34855000  0.39139000  0.83903000  1.0
  O  O178  1  0.66959000  0.40316000  0.17368000  1.0
  O  O179  1  0.33172000  0.59221000  0.82820000  1.0
  O  O180  1  0.27557000  0.26554000  0.64780000  1.0
  O  O181  1  0.71595000  0.72501000  0.35955000  1.0
  O  O182  1  0.25199000  0.74771000  0.66043000  1.0
  O  O183  1  0.74409000  0.24927000  0.34321000  1.0
  O  O184  1  0.26468000  0.76142000  0.14634000  1.0
  O  O185  1  0.72527000  0.22178000  0.86107000  1.0
  O  O186  1  0.25389000  0.27040000  0.16949000  1.0
  O  O187  1  0.74193000  0.73354000  0.83557000  1.0
  O  O188  1  0.74170000  0.88310000  0.49540000  1.0
  O  O189  1  0.25259000  0.11337000  0.50548000  1.0
  O  O190  1  0.75219000  0.10747000  0.46864000  1.0
  O  O191  1  0.24178000  0.88901000  0.53222000  1.0
  O  O192  1  0.74689000  0.39648000  0.95351000  1.0
  O  O193  1  0.25725000  0.59925000  0.05032000  1.0
  O  O194  1  0.76891000  0.59904000  0.05382000  1.0
  O  O195  1  0.23435000  0.39651000  0.95048000  1.0
