# generated using pymatgen
data_CdH44C52(N5O3)2
_symmetry_space_group_name_H-M   'P 1'
_cell_length_a   14.16780000
_cell_length_b   14.16840000
_cell_length_c   15.75350000
_cell_angle_alpha   112.11100000
_cell_angle_beta   100.17500000
_cell_angle_gamma   112.64300000
_symmetry_Int_Tables_number   1
_chemical_formula_structural   CdH44C52(N5O3)2
_chemical_formula_sum   'Cd2 H88 C104 N20 O12'
_cell_volume   2505.39615625
_cell_formula_units_Z   2
loop_
 _symmetry_equiv_pos_site_id
 _symmetry_equiv_pos_as_xyz
  1  'x, y, z'
loop_
 _atom_site_type_symbol
 _atom_site_label
 _atom_site_symmetry_multiplicity
 _atom_site_fract_x
 _atom_site_fract_y
 _atom_site_fract_z
 _atom_site_occupancy
  Cd  Cd0  1  0.00000000  0.00000000  0.00000000  1.0
  Cd  Cd1  1  0.00000000  0.50000000  0.50000000  1.0
  H  H2  1  0.86927000  0.12116000  0.94297000  1.0
  H  H3  1  0.17798000  0.42623000  0.55722000  1.0
  H  H4  1  0.13072000  0.87884000  0.05704000  1.0
  H  H5  1  0.82202000  0.57377000  0.44278000  1.0
  H  H6  1  0.78058000  0.13788000  0.80217000  1.0
  H  H7  1  0.33549000  0.47830000  0.69800000  1.0
  H  H8  1  0.21942000  0.86212000  0.19783000  1.0
  H  H9  1  0.66451000  0.52170000  0.30200000  1.0
  H  H10  1  0.80882000  0.05237000  0.64141000  1.0
  H  H11  1  0.41094000  0.66748000  0.85867000  1.0
  H  H12  1  0.19118000  0.94763000  0.35860000  1.0
  H  H13  1  0.58906000  0.33252000  0.14133000  1.0
  H  H14  1  0.01631000  0.95715000  0.78447000  1.0
  H  H15  1  0.17275000  0.73200000  0.71558000  1.0
  H  H16  1  0.98369000  0.04286000  0.21554000  1.0
  H  H17  1  0.82725000  0.26800000  0.28442000  1.0
  H  H18  1  0.99711000  0.92012000  0.61899000  1.0
  H  H19  1  0.30131000  0.87827000  0.88127000  1.0
  H  H20  1  0.00289000  0.07989000  0.38101000  1.0
  H  H21  1  0.69869000  0.12172000  0.11873000  1.0
  H  H22  1  0.78556000  0.79947000  0.19947000  1.0
  H  H23  1  0.59995000  0.08573000  0.30082000  1.0
  H  H24  1  0.21444000  0.20053000  0.80053000  1.0
  H  H25  1  0.40004000  0.91426000  0.69918000  1.0
  H  H26  1  0.96254000  0.66578000  0.32523000  1.0
  H  H27  1  0.34052000  0.13687000  0.17493000  1.0
  H  H28  1  0.03746000  0.33422000  0.67477000  1.0
  H  H29  1  0.65948000  0.86312000  0.82507000  1.0
  H  H30  1  0.96537000  0.78093000  0.48823000  1.0
  H  H31  1  0.29304000  0.97703000  0.01195000  1.0
  H  H32  1  0.03464000  0.21907000  0.51177000  1.0
  H  H33  1  0.70696000  0.02296000  0.98805000  1.0
  H  H34  1  0.87859000  0.77385000  0.09910000  1.0
  H  H35  1  0.67459000  0.27910000  0.40093000  1.0
  H  H36  1  0.12141000  0.22615000  0.90090000  1.0
  H  H37  1  0.32541000  0.72089000  0.59907000  1.0
  H  H38  1  0.86555000  0.65044000  0.93330000  1.0
  H  H39  1  0.71716000  0.43232000  0.56660000  1.0
  H  H40  1  0.13444000  0.34956000  0.06670000  1.0
  H  H41  1  0.28284000  0.56768000  0.43340000  1.0
  H  H42  1  0.85361000  0.50549000  0.17524000  1.0
  H  H43  1  0.33014000  0.17833000  0.32497000  1.0
  H  H44  1  0.14639000  0.49451000  0.82476000  1.0
  H  H45  1  0.66986000  0.82167000  0.67504000  1.0
  H  H46  1  0.74437000  0.93688000  0.29654000  1.0
  H  H47  1  0.64062000  0.94769000  0.20368000  1.0
  H  H48  1  0.25563000  0.06312000  0.70346000  1.0
  H  H49  1  0.35938000  0.05231000  0.79632000  1.0
  H  H50  1  0.83652000  0.03140000  0.42231000  1.0
  H  H51  1  0.60937000  0.91413000  0.07797000  1.0
  H  H52  1  0.16348000  0.96861000  0.57770000  1.0
  H  H53  1  0.39063000  0.08587000  0.92203000  1.0
  H  H54  1  0.70807000  0.91288000  0.39265000  1.0
  H  H55  1  0.52054000  0.81523000  0.10756000  1.0
  H  H56  1  0.29193000  0.08712000  0.60734000  1.0
  H  H57  1  0.47946000  0.18477000  0.89243000  1.0
  H  H58  1  0.83335000  0.32670000  0.06087000  1.0
  H  H59  1  0.26593000  0.27326000  0.43926000  1.0
  H  H60  1  0.16665000  0.67330000  0.93913000  1.0
  H  H61  1  0.73407000  0.72674000  0.56074000  1.0
  H  H62  1  0.90130000  0.33855000  0.97751000  1.0
  H  H63  1  0.36151000  0.42456000  0.52254000  1.0
  H  H64  1  0.09870000  0.66145000  0.02249000  1.0
  H  H65  1  0.63849000  0.57544000  0.47746000  1.0
  H  H66  1  0.75663000  0.27841000  0.93602000  1.0
  H  H67  1  0.34247000  0.32143000  0.56413000  1.0
  H  H68  1  0.24337000  0.72159000  0.06398000  1.0
  H  H69  1  0.65753000  0.67857000  0.43587000  1.0
  H  H70  1  0.94966000  0.56337000  0.84703000  1.0
  H  H71  1  0.71686000  0.60265000  0.65301000  1.0
  H  H72  1  0.05034000  0.43663000  0.15297000  1.0
  H  H73  1  0.28315000  0.39735000  0.34699000  1.0
  H  H74  1  0.74085000  0.23332000  0.69464000  1.0
  H  H75  1  0.53902000  0.54636000  0.80518000  1.0
  H  H76  1  0.25915000  0.76668000  0.30536000  1.0
  H  H77  1  0.46098000  0.45364000  0.19481000  1.0
  H  H78  1  0.71644000  0.11610000  0.51695000  1.0
  H  H79  1  0.59932000  0.69935000  0.98289000  1.0
  H  H80  1  0.28357000  0.88390000  0.48305000  1.0
  H  H81  1  0.40067000  0.30065000  0.01711000  1.0
  H  H82  1  0.83083000  0.22054000  0.44291000  1.0
  H  H83  1  0.77777000  0.88793000  0.05709000  1.0
  H  H84  1  0.16918000  0.77946000  0.55709000  1.0
  H  H85  1  0.22223000  0.11206000  0.94291000  1.0
  H  H86  1  0.98686000  0.53689000  0.70357000  1.0
  H  H87  1  0.83338000  0.78386000  0.79632000  1.0
  H  H88  1  0.01314000  0.46311000  0.29643000  1.0
  H  H89  1  0.16662000  0.21614000  0.20368000  1.0
  C  C90  1  0.88042000  0.08701000  0.87338000  1.0
  C  C91  1  0.21345000  0.50701000  0.62677000  1.0
  C  C92  1  0.11957000  0.91299000  0.12662000  1.0
  C  C93  1  0.78655000  0.49298000  0.37323000  1.0
  C  C94  1  0.83099000  0.09574000  0.79398000  1.0
  C  C95  1  0.30162000  0.53698000  0.70614000  1.0
  C  C96  1  0.16901000  0.90426000  0.20602000  1.0
  C  C97  1  0.69837000  0.46302000  0.29385000  1.0
  C  C98  1  0.84679000  0.04963000  0.70630000  1.0
  C  C99  1  0.34326000  0.64050000  0.79379000  1.0
  C  C100  1  0.15321000  0.95037000  0.29371000  1.0
  C  C101  1  0.65674000  0.35949000  0.20621000  1.0
  C  C102  1  0.91409000  0.99802000  0.70094000  1.0
  C  C103  1  0.29710000  0.71325000  0.79916000  1.0
  C  C104  1  0.08591000  0.00198000  0.29906000  1.0
  C  C105  1  0.70290000  0.28675000  0.20084000  1.0
  C  C106  1  0.96319000  0.99613000  0.78534000  1.0
  C  C107  1  0.21079000  0.67797000  0.71476000  1.0
  C  C108  1  0.03681000  0.00387000  0.21466000  1.0
  C  C109  1  0.78921000  0.32203000  0.28524000  1.0
  C  C110  1  0.93140000  0.94298000  0.61049000  1.0
  C  C111  1  0.33271000  0.82104000  0.88969000  1.0
  C  C112  1  0.06859000  0.05701000  0.38950000  1.0
  C  C113  1  0.66730000  0.17896000  0.11032000  1.0
  C  C114  1  0.87704000  0.85732000  0.43806000  1.0
  C  C115  1  0.41956000  0.93887000  0.06212000  1.0
  C  C116  1  0.12296000  0.14269000  0.56194000  1.0
  C  C117  1  0.58044000  0.06113000  0.93788000  1.0
  C  C118  1  0.82675000  0.86261000  0.35501000  1.0
  C  C119  1  0.50777000  0.97150000  0.14521000  1.0
  C  C120  1  0.17325000  0.13739000  0.64498000  1.0
  C  C121  1  0.49223000  0.02850000  0.85480000  1.0
  C  C122  1  0.82619000  0.79602000  0.26310000  1.0
  C  C123  1  0.53287000  0.06269000  0.23715000  1.0
  C  C124  1  0.17382000  0.20399000  0.73690000  1.0
  C  C125  1  0.46712000  0.93730000  0.76285000  1.0
  C  C126  1  0.87289000  0.72247000  0.24910000  1.0
  C  C127  1  0.47329000  0.12338000  0.25113000  1.0
  C  C128  1  0.12711000  0.27753000  0.75090000  1.0
  C  C129  1  0.52671000  0.87662000  0.74887000  1.0
  C  C130  1  0.92397000  0.72018000  0.33286000  1.0
  C  C131  1  0.38735000  0.09075000  0.16733000  1.0
  C  C132  1  0.07602000  0.27982000  0.66714000  1.0
  C  C133  1  0.61264000  0.90925000  0.83267000  1.0
  C  C134  1  0.92620000  0.78606000  0.42520000  1.0
  C  C135  1  0.36108000  0.00077000  0.07501000  1.0
  C  C136  1  0.07381000  0.21394000  0.57480000  1.0
  C  C137  1  0.63892000  0.99922000  0.92500000  1.0
  C  C138  1  0.86743000  0.64961000  0.15038000  1.0
  C  C139  1  0.49908000  0.21672000  0.34983000  1.0
  C  C140  1  0.13257000  0.35039000  0.84962000  1.0
  C  C141  1  0.50092000  0.78327000  0.65017000  1.0
  C  C142  1  0.86959000  0.68778000  0.07992000  1.0
  C  C143  1  0.60776000  0.28943000  0.42016000  1.0
  C  C144  1  0.13041000  0.31222000  0.92007000  1.0
  C  C145  1  0.39223000  0.71056000  0.57984000  1.0
  C  C146  1  0.86293000  0.61859000  0.98651000  1.0
  C  C147  1  0.63208000  0.37641000  0.51348000  1.0
  C  C148  1  0.13707000  0.38141000  0.01349000  1.0
  C  C149  1  0.36792000  0.62359000  0.48652000  1.0
  C  C150  1  0.85088000  0.50664000  0.95922000  1.0
  C  C151  1  0.54748000  0.39181000  0.54079000  1.0
  C  C152  1  0.14913000  0.49336000  0.04078000  1.0
  C  C153  1  0.45252000  0.60819000  0.45921000  1.0
  C  C154  1  0.84756000  0.46550000  0.02852000  1.0
  C  C155  1  0.43700000  0.31925000  0.47159000  1.0
  C  C156  1  0.15244000  0.53450000  0.97147000  1.0
  C  C157  1  0.56301000  0.68075000  0.52841000  1.0
  C  C158  1  0.85765000  0.53839000  0.12272000  1.0
  C  C159  1  0.41557000  0.23484000  0.37747000  1.0
  C  C160  1  0.14234000  0.46161000  0.87727000  1.0
  C  C161  1  0.58443000  0.76516000  0.62253000  1.0
  C  C162  1  0.77592000  0.93991000  0.36677000  1.0
  C  C163  1  0.57339000  0.90899000  0.13348000  1.0
  C  C164  1  0.22407000  0.06009000  0.63323000  1.0
  C  C165  1  0.42661000  0.09100000  0.86652000  1.0
  C  C166  1  0.83415000  0.34610000  0.99990000  1.0
  C  C167  1  0.34635000  0.33493000  0.50019000  1.0
  C  C168  1  0.16585000  0.65391000  0.00010000  1.0
  C  C169  1  0.65365000  0.66508000  0.49982000  1.0
  C  C170  1  0.88741000  0.47034000  0.81516000  1.0
  C  C171  1  0.65557000  0.57242000  0.68481000  1.0
  C  C172  1  0.11259000  0.52966000  0.18483000  1.0
  C  C173  1  0.34443000  0.42757000  0.31519000  1.0
  C  C174  1  0.86682000  0.39389000  0.71268000  1.0
  C  C175  1  0.68149000  0.65442000  0.78723000  1.0
  C  C176  1  0.13318000  0.60611000  0.28732000  1.0
  C  C177  1  0.31851000  0.34558000  0.21277000  1.0
  C  C178  1  0.78906000  0.27355000  0.65880000  1.0
  C  C179  1  0.61502000  0.63048000  0.84108000  1.0
  C  C180  1  0.21094000  0.72645000  0.34120000  1.0
  C  C181  1  0.38499000  0.36952000  0.15892000  1.0
  C  C182  1  0.77554000  0.20965000  0.56133000  1.0
  C  C183  1  0.64852000  0.71430000  0.93858000  1.0
  C  C184  1  0.22446000  0.79035000  0.43867000  1.0
  C  C185  1  0.35147000  0.28569000  0.06142000  1.0
  C  C186  1  0.83822000  0.26681000  0.51897000  1.0
  C  C187  1  0.74799000  0.81940000  0.98099000  1.0
  C  C188  1  0.16178000  0.73319000  0.48104000  1.0
  C  C189  1  0.25201000  0.18059000  0.01901000  1.0
  C  C190  1  0.92677000  0.44349000  0.66448000  1.0
  C  C191  1  0.77914000  0.76269000  0.83541000  1.0
  C  C192  1  0.07323000  0.55650000  0.33551000  1.0
  C  C193  1  0.22087000  0.23731000  0.16459000  1.0
  N  N194  1  0.94502000  0.03755000  0.86917000  1.0
  N  N195  1  0.16831000  0.57593000  0.63096000  1.0
  N  N196  1  0.05497000  0.96246000  0.13083000  1.0
  N  N197  1  0.83169000  0.42407000  0.36905000  1.0
  N  N198  1  0.86926000  0.91988000  0.52700000  1.0
  N  N199  1  0.39322000  0.84229000  0.97308000  1.0
  N  N200  1  0.13074000  0.08013000  0.47300000  1.0
  N  N201  1  0.60678000  0.15771000  0.02692000  1.0
  N  N202  1  0.83566000  0.43035000  0.86390000  1.0
  N  N203  1  0.56667000  0.47213000  0.63606000  1.0
  N  N204  1  0.16434000  0.56965000  0.13610000  1.0
  N  N205  1  0.43334000  0.52787000  0.36394000  1.0
  N  N206  1  0.91242000  0.38197000  0.56970000  1.0
  N  N207  1  0.81229000  0.84305000  0.93020000  1.0
  N  N208  1  0.08758000  0.61803000  0.43030000  1.0
  N  N209  1  0.18771000  0.15695000  0.06980000  1.0
  N  N210  1  0.07685000  0.82470000  0.86854000  1.0
  N  N211  1  0.95658000  0.70875000  0.63159000  1.0
  N  N212  1  0.92316000  0.17531000  0.13147000  1.0
  N  N213  1  0.04342000  0.29126000  0.36841000  1.0
  O  O214  1  0.00314000  0.82704000  0.90574000  1.0
  O  O215  1  0.92159000  0.59779000  0.59404000  1.0
  O  O216  1  0.99686000  0.17296000  0.09426000  1.0
  O  O217  1  0.07841000  0.40221000  0.40596000  1.0
  O  O218  1  0.08070000  0.73142000  0.83368000  1.0
  O  O219  1  0.89810000  0.74736000  0.66645000  1.0
  O  O220  1  0.91931000  0.26859000  0.16633000  1.0
  O  O221  1  0.10191000  0.25264000  0.33355000  1.0
  O  O222  1  0.14313000  0.91534000  0.86911000  1.0
  O  O223  1  0.04681000  0.77462000  0.63136000  1.0
  O  O224  1  0.85687000  0.08466000  0.13089000  1.0
  O  O225  1  0.95319000  0.22538000  0.36864000  1.0
