# generated using pymatgen
data_BaH10C6(N2O3)4
_symmetry_space_group_name_H-M   'P 1'
_cell_length_a   6.49813000
_cell_length_b   10.01170000
_cell_length_c   13.46416367
_cell_angle_alpha   95.99219232
_cell_angle_beta   103.92458992
_cell_angle_gamma   108.92580000
_symmetry_Int_Tables_number   1
_chemical_formula_structural   BaH10C6(N2O3)4
_chemical_formula_sum   'Ba2 H20 C12 N16 O24'
_cell_volume   788.20108261
_cell_formula_units_Z   2
loop_
 _symmetry_equiv_pos_site_id
 _symmetry_equiv_pos_as_xyz
  1  'x, y, z'
loop_
 _atom_site_type_symbol
 _atom_site_label
 _atom_site_symmetry_multiplicity
 _atom_site_fract_x
 _atom_site_fract_y
 _atom_site_fract_z
 _atom_site_occupancy
  Ba  Ba0  1  0.47540000  0.25001000  0.24999000  1.0
  Ba  Ba1  1  0.52460000  0.74999000  0.75001000  1.0
  H  H2  1  0.99019000  0.46513000  0.22992000  1.0
  H  H3  1  0.79521000  0.03504000  0.26996000  1.0
  H  H4  1  0.00982000  0.53487000  0.77008000  1.0
  H  H5  1  0.20479000  0.96496000  0.73004000  1.0
  H  H6  1  0.80895000  0.40131000  0.11752000  1.0
  H  H7  1  0.78999000  0.09869000  0.38240000  1.0
  H  H8  1  0.19105000  0.59869000  0.88248000  1.0
  H  H9  1  0.21001000  0.90131000  0.61760000  1.0
  H  H10  1  0.25563000  0.14354000  0.50015000  1.0
  H  H11  1  0.11204000  0.35681000  0.99998000  1.0
  H  H12  1  0.74437000  0.85646000  0.49985000  1.0
  H  H13  1  0.88795000  0.64319000  0.00002000  1.0
  H  H14  1  0.97252000  0.24104000  0.14568000  1.0
  H  H15  1  0.08570000  0.25905000  0.35434000  1.0
  H  H16  1  0.02748000  0.75896000  0.85432000  1.0
  H  H17  1  0.91430000  0.74095000  0.64566000  1.0
  H  H18  1  0.92923000  0.07669000  0.10719000  1.0
  H  H19  1  0.24507000  0.42339000  0.39279000  1.0
  H  H20  1  0.07077000  0.92331000  0.89281000  1.0
  H  H21  1  0.75493000  0.57661000  0.60721000  1.0
  C  C22  1  0.24750000  0.04334000  0.45671000  1.0
  C  C23  1  0.24768000  0.45692000  0.04337000  1.0
  C  C24  1  0.75250000  0.95666000  0.54329000  1.0
  C  C25  1  0.75232000  0.54308000  0.95663000  1.0
  C  C26  1  0.22983000  0.88900000  0.33041000  1.0
  C  C27  1  0.51080000  0.61108000  0.16954000  1.0
  C  C28  1  0.77017000  0.11100000  0.66959000  1.0
  C  C29  1  0.48920000  0.38892000  0.83046000  1.0
  C  C30  1  0.21615000  0.82372000  0.41845000  1.0
  C  C31  1  0.47445000  0.67641000  0.08153000  1.0
  C  C32  1  0.78385000  0.17628000  0.58155000  1.0
  C  C33  1  0.52555000  0.32359000  0.91847000  1.0
  N  N34  1  0.25306000  0.02768000  0.35629000  1.0
  N  N35  1  0.36935000  0.47247000  0.14372000  1.0
  N  N36  1  0.74693000  0.97231000  0.64371000  1.0
  N  N37  1  0.63065000  0.52753000  0.85628000  1.0
  N  N38  1  0.22840000  0.92449000  0.49746000  1.0
  N  N39  1  0.30680000  0.57574000  0.00261000  1.0
  N  N40  1  0.77160000  0.07551000  0.50254000  1.0
  N  N41  1  0.69320000  0.42426000  0.99739000  1.0
  N  N42  1  0.20890000  0.83346000  0.22449000  1.0
  N  N43  1  0.65109000  0.66654000  0.27545000  1.0
  N  N44  1  0.79110000  0.16654000  0.77551000  1.0
  N  N45  1  0.34891000  0.33346000  0.72455000  1.0
  N  N46  1  0.22187000  0.68832000  0.43818000  1.0
  N  N47  1  0.59562000  0.81178000  0.06174000  1.0
  N  N48  1  0.77813000  0.31168000  0.56182000  1.0
  N  N49  1  0.40437000  0.18821000  0.93825000  1.0
  O  O50  1  0.29853000  0.92014000  0.17319000  1.0
  O  O51  1  0.70506000  0.57979000  0.32673000  1.0
  O  O52  1  0.70147000  0.07986000  0.82681000  1.0
  O  O53  1  0.29494000  0.42021000  0.67327000  1.0
  O  O54  1  0.04297000  0.17436000  0.12138000  1.0
  O  O55  1  0.24702000  0.32571000  0.37868000  1.0
  O  O56  1  0.95703000  0.82564000  0.87862000  1.0
  O  O57  1  0.75298000  0.67429000  0.62132000  1.0
  O  O58  1  0.09747000  0.70338000  0.18774000  1.0
  O  O59  1  0.70651000  0.79663000  0.31222000  1.0
  O  O60  1  0.90253000  0.29661000  0.81226000  1.0
  O  O61  1  0.29349000  0.20337000  0.68778000  1.0
  O  O62  1  0.86794000  0.37721000  0.18756000  1.0
  O  O63  1  0.80304000  0.12292000  0.31236000  1.0
  O  O64  1  0.13206000  0.62279000  0.81244000  1.0
  O  O65  1  0.19696000  0.87708000  0.68764000  1.0
  O  O66  1  0.23808000  0.60353000  0.36743000  1.0
  O  O67  1  0.76720000  0.89665000  0.13243000  1.0
  O  O68  1  0.76192000  0.39647000  0.63257000  1.0
  O  O69  1  0.23280000  0.10335000  0.86757000  1.0
  O  O70  1  0.21664000  0.66004000  0.52566000  1.0
  O  O71  1  0.53114000  0.84003000  0.97428000  1.0
  O  O72  1  0.78335000  0.33996000  0.47434000  1.0
  O  O73  1  0.46886000  0.15997000  0.02572000  1.0
