# generated using pymatgen
data_PrPH3CO6
_symmetry_space_group_name_H-M   'P 1'
_cell_length_a   6.73177000
_cell_length_b   7.13936000
_cell_length_c   8.32345000
_cell_angle_alpha   114.26800000
_cell_angle_beta   95.62200000
_cell_angle_gamma   90.43360000
_symmetry_Int_Tables_number   1
_chemical_formula_structural   PrPH3CO6
_chemical_formula_sum   'Pr2 P2 H6 C2 O12'
_cell_volume   362.42109412
_cell_formula_units_Z   2
loop_
 _symmetry_equiv_pos_site_id
 _symmetry_equiv_pos_as_xyz
  1  'x, y, z'
loop_
 _atom_site_type_symbol
 _atom_site_label
 _atom_site_symmetry_multiplicity
 _atom_site_fract_x
 _atom_site_fract_y
 _atom_site_fract_z
 _atom_site_occupancy
  Pr  Pr0  1  0.12815000  0.21788000  0.93269000  1.0
  Pr  Pr1  1  0.87186000  0.78210000  0.06731000  1.0
  P  P2  1  0.67373000  0.25280000  0.01421000  1.0
  P  P3  1  0.32628000  0.74719000  0.98574000  1.0
  H  H4  1  0.64187000  0.33019000  0.19479000  1.0
  H  H5  1  0.35810000  0.66985000  0.80528000  1.0
  H  H6  1  0.08231000  0.29252000  0.30939000  1.0
  H  H7  1  0.91769000  0.70748000  0.69061000  1.0
  H  H8  1  0.09518000  0.51468000  0.31059000  1.0
  H  H9  1  0.90483000  0.48532000  0.68942000  1.0
  C  C10  1  0.99134000  0.10776000  0.49935000  1.0
  C  C11  1  0.00869000  0.89219000  0.50064000  1.0
  O  O12  1  0.80556000  0.06479000  0.97552000  1.0
  O  O13  1  0.19447000  0.93516000  0.02450000  1.0
  O  O14  1  0.47091000  0.20279000  0.90447000  1.0
  O  O15  1  0.52902000  0.79719000  0.09551000  1.0
  O  O16  1  0.80564000  0.41538000  0.98864000  1.0
  O  O17  1  0.19439000  0.58471000  0.01137000  1.0
  O  O18  1  0.02586000  0.26105000  0.64750000  1.0
  O  O19  1  0.97411000  0.73894000  0.35245000  1.0
  O  O20  1  0.05529000  0.88667000  0.64954000  1.0
  O  O21  1  0.94471000  0.11335000  0.35049000  1.0
  O  O22  1  0.15282000  0.37733000  0.26132000  1.0
  O  O23  1  0.84719000  0.62269000  0.73869000  1.0
