# generated using pymatgen
data_Zr3H23C44Br5O16
_symmetry_space_group_name_H-M   'P 1'
_cell_length_a   19.03246098
_cell_length_b   19.16530497
_cell_length_c   19.16530000
_cell_angle_alpha   89.63202361
_cell_angle_beta   60.28937469
_cell_angle_gamma   119.70944385
_symmetry_Int_Tables_number   1
_chemical_formula_structural   Zr3H23C44Br5O16
_chemical_formula_sum   'Zr6 H46 C88 Br10 O32'
_cell_volume   4970.56332425
_cell_formula_units_Z   2
loop_
 _symmetry_equiv_pos_site_id
 _symmetry_equiv_pos_as_xyz
  1  'x, y, z'
loop_
 _atom_site_type_symbol
 _atom_site_label
 _atom_site_symmetry_multiplicity
 _atom_site_fract_x
 _atom_site_fract_y
 _atom_site_fract_z
 _atom_site_occupancy
  Zr  Zr0  1  0.50133000  0.09276000  0.90719000  1.0
  Zr  Zr1  1  0.49955000  0.90718000  0.09275000  1.0
  Zr  Zr2  1  0.31516000  0.90897000  0.09114000  1.0
  Zr  Zr3  1  0.68572000  0.09114000  0.90895000  1.0
  Zr  Zr4  1  0.50040000  0.09180000  0.09183000  1.0
  Zr  Zr5  1  0.50042000  0.90819000  0.90818000  1.0
  H  H6  1  0.35520000  0.07340000  0.07109000  1.0
  H  H7  1  0.64561000  0.07111000  0.07345000  1.0
  H  H8  1  0.35473000  0.78279000  0.07240000  1.0
  H  H9  1  0.64612000  0.07242000  0.78281000  1.0
  H  H10  1  0.49930000  0.54498000  0.11402000  1.0
  H  H11  1  0.49856000  0.45323000  0.88708000  1.0
  H  H12  1  0.50378000  0.31874000  0.10346000  1.0
  H  H13  1  0.50028000  0.44482000  0.11176000  1.0
  H  H14  1  0.50361000  0.68445000  0.89311000  1.0
  H  H15  1  0.50069000  0.55516000  0.88784000  1.0
  H  H16  1  0.50119000  0.88680000  0.45387000  1.0
  H  H17  1  0.50048000  0.11376000  0.54558000  1.0
  H  H18  1  0.49666000  0.89299000  0.68469000  1.0
  H  H19  1  0.49911000  0.88757000  0.55564000  1.0
  H  H20  1  0.49638000  0.10324000  0.31898000  1.0
  H  H21  1  0.49946000  0.11145000  0.44528000  1.0
  H  H22  1  0.16045000  0.54673000  0.88688000  1.0
  H  H23  1  0.83994000  0.45265000  0.11432000  1.0
  H  H24  1  0.92344000  0.32149000  0.89222000  1.0
  H  H25  1  0.05811000  0.44767000  0.88702000  1.0
  H  H26  1  0.07720000  0.68306000  0.10393000  1.0
  H  H27  1  0.94248000  0.55349000  0.11263000  1.0
  H  H28  1  0.16061000  0.11460000  0.45219000  1.0
  H  H29  1  0.84008000  0.88714000  0.54626000  1.0
  H  H30  1  0.92352000  0.10404000  0.68271000  1.0
  H  H31  1  0.05816000  0.11290000  0.55292000  1.0
  H  H32  1  0.07729000  0.89238000  0.32111000  1.0
  H  H33  1  0.94256000  0.88733000  0.44707000  1.0
  H  H34  1  0.93278000  0.12122000  0.89993000  1.0
  H  H35  1  0.71212000  0.87587000  0.09689000  1.0
  H  H36  1  0.06807000  0.89997000  0.12122000  1.0
  H  H37  1  0.28870000  0.09682000  0.87577000  1.0
  H  H38  1  0.11212000  0.18621000  0.92300000  1.0
  H  H39  1  0.10863000  0.18157000  0.83246000  1.0
  H  H40  1  0.84742000  0.81209000  0.07853000  1.0
  H  H41  1  0.75990000  0.81918000  0.16809000  1.0
  H  H42  1  0.88881000  0.92307000  0.18621000  1.0
  H  H43  1  0.89224000  0.83249000  0.18158000  1.0
  H  H44  1  0.15342000  0.07851000  0.81202000  1.0
  H  H45  1  0.24093000  0.16802000  0.81914000  1.0
  H  H46  1  0.93152000  0.54541000  0.45359000  1.0
  H  H47  1  0.06924000  0.45370000  0.54529000  1.0
  H  H48  1  0.71320000  0.31915000  0.68463000  1.0
  H  H49  1  0.83285000  0.44514000  0.55569000  1.0
  H  H50  1  0.28750000  0.68451000  0.31920000  1.0
  H  H51  1  0.16771000  0.55556000  0.44517000  1.0
  C  C52  1  0.50541000  0.23681000  0.99436000  1.0
  C  C53  1  0.49525000  0.99433000  0.23690000  1.0
  C  C54  1  0.50399000  0.76727000  0.00133000  1.0
  C  C55  1  0.49677000  0.00138000  0.76735000  1.0
  C  C56  1  0.26419000  0.99807000  0.99790000  1.0
  C  C57  1  0.73971000  0.23646000  0.76780000  1.0
  C  C58  1  0.73668000  0.99792000  0.99806000  1.0
  C  C59  1  0.26116000  0.76781000  0.23644000  1.0
  C  C60  1  0.26891000  0.00132000  0.23630000  1.0
  C  C61  1  0.26879000  0.76892000  0.99378000  1.0
  C  C62  1  0.73199000  0.99377000  0.76879000  1.0
  C  C63  1  0.73182000  0.23640000  0.00130000  1.0
  C  C64  1  0.50333000  0.68901000  0.00466000  1.0
  C  C65  1  0.50368000  0.31386000  0.99209000  1.0
  C  C66  1  0.50194000  0.64748000  0.06679000  1.0
  C  C67  1  0.50030000  0.57407000  0.06438000  1.0
  C  C68  1  0.50170000  0.35363000  0.93157000  1.0
  C  C69  1  0.49991000  0.42536000  0.93559000  1.0
  C  C70  1  0.50280000  0.34953000  0.05626000  1.0
  C  C71  1  0.50088000  0.42075000  0.06033000  1.0
  C  C72  1  0.50269000  0.65264000  0.94121000  1.0
  C  C73  1  0.50104000  0.57966000  0.93881000  1.0
  C  C74  1  0.50007000  0.53839000  0.00070000  1.0
  C  C75  1  0.49996000  0.46102000  0.99933000  1.0
  C  C76  1  0.49661000  0.99194000  0.31414000  1.0
  C  C77  1  0.49707000  0.00460000  0.68926000  1.0
  C  C78  1  0.49842000  0.93136000  0.35403000  1.0
  C  C79  1  0.49994000  0.93532000  0.42589000  1.0
  C  C80  1  0.49825000  0.06665000  0.64786000  1.0
  C  C81  1  0.49958000  0.06415000  0.57460000  1.0
  C  C82  1  0.49748000  0.94106000  0.65297000  1.0
  C  C83  1  0.49886000  0.93858000  0.58011000  1.0
  C  C84  1  0.49728000  0.05604000  0.34987000  1.0
  C  C85  1  0.49894000  0.06005000  0.42121000  1.0
  C  C86  1  0.49982000  0.99905000  0.46154000  1.0
  C  C87  1  0.49974000  0.00045000  0.53890000  1.0
  C  C88  1  0.19413000  0.68982000  0.99182000  1.0
  C  C89  1  0.80637000  0.31435000  0.00456000  1.0
  C  C90  1  0.21535000  0.64883000  0.93124000  1.0
  C  C91  1  0.13951000  0.57529000  0.93548000  1.0
  C  C92  1  0.78508000  0.35354000  0.06691000  1.0
  C  C93  1  0.86090000  0.42529000  0.06452000  1.0
  C  C94  1  0.90678000  0.35135000  0.94075000  1.0
  C  C95  1  0.98218000  0.42265000  0.93833000  1.0
  C  C96  1  0.09376000  0.65211000  0.05646000  1.0
  C  C97  1  0.01836000  0.57895000  0.06080000  1.0
  C  C98  1  0.03956000  0.53880000  0.99947000  1.0
  C  C99  1  0.96088000  0.46173000  0.00069000  1.0
  C  C100  1  0.19430000  0.00469000  0.31407000  1.0
  C  C101  1  0.80655000  0.99191000  0.68954000  1.0
  C  C102  1  0.21552000  0.06708000  0.35322000  1.0
  C  C103  1  0.13968000  0.06476000  0.42487000  1.0
  C  C104  1  0.78527000  0.93139000  0.64850000  1.0
  C  C105  1  0.86106000  0.93572000  0.57484000  1.0
  C  C106  1  0.90690000  0.05660000  0.65173000  1.0
  C  C107  1  0.98226000  0.06104000  0.57844000  1.0
  C  C108  1  0.09390000  0.94093000  0.35095000  1.0
  C  C109  1  0.01847000  0.93860000  0.42214000  1.0
  C  C110  1  0.03972000  0.00095000  0.46122000  1.0
  C  C111  1  0.96102000  0.99974000  0.53828000  1.0
  C  C112  1  0.09506000  0.14382000  0.88663000  1.0
  C  C113  1  0.83789000  0.85573000  0.11361000  1.0
  C  C114  1  0.90582000  0.88668000  0.14383000  1.0
  C  C115  1  0.16295000  0.11356000  0.85567000  1.0
  C  C116  1  0.91423000  0.06801000  0.94302000  1.0
  C  C117  1  0.98786000  0.06943000  0.94338000  1.0
  C  C118  1  0.78956000  0.92955000  0.05444000  1.0
  C  C119  1  0.86208000  0.92949000  0.05561000  1.0
  C  C120  1  0.08663000  0.94302000  0.06798000  1.0
  C  C121  1  0.01299000  0.94338000  0.06940000  1.0
  C  C122  1  0.21127000  0.05438000  0.92947000  1.0
  C  C123  1  0.13874000  0.05554000  0.92942000  1.0
  C  C124  1  0.81498000  0.99838000  0.99827000  1.0
  C  C125  1  0.96186000  0.99965000  0.99974000  1.0
  C  C126  1  0.18587000  0.99824000  0.99833000  1.0
  C  C127  1  0.03897000  0.99972000  0.99962000  1.0
  C  C128  1  0.18042000  0.68938000  0.31391000  1.0
  C  C129  1  0.82040000  0.31397000  0.68937000  1.0
  C  C130  1  0.07810000  0.64773000  0.35395000  1.0
  C  C131  1  0.00929000  0.57446000  0.42567000  1.0
  C  C132  1  0.92272000  0.35405000  0.64768000  1.0
  C  C133  1  0.99148000  0.42578000  0.57439000  1.0
  C  C134  1  0.79217000  0.34989000  0.65293000  1.0
  C  C135  1  0.86042000  0.42114000  0.58005000  1.0
  C  C136  1  0.20855000  0.65285000  0.34988000  1.0
  C  C137  1  0.14022000  0.57998000  0.42112000  1.0
  C  C138  1  0.03796000  0.53872000  0.46142000  1.0
  C  C139  1  0.96270000  0.46146000  0.53872000  1.0
  Br  Br140  1  0.50209000  0.68363000  0.15948000  1.0
  Br  Br141  1  0.50047000  0.31674000  0.83952000  1.0
  Br  Br142  1  0.49977000  0.83937000  0.31714000  1.0
  Br  Br143  1  0.49832000  0.15943000  0.68397000  1.0
  Br  Br144  1  0.34494000  0.68570000  0.83849000  1.0
  Br  Br145  1  0.65540000  0.31612000  0.15997000  1.0
  Br  Br146  1  0.34516000  0.16013000  0.31591000  1.0
  Br  Br147  1  0.65563000  0.83859000  0.68556000  1.0
  Br  Br148  1  0.02078000  0.68375000  0.31743000  1.0
  Br  Br149  1  0.98012000  0.31757000  0.68361000  1.0
  O  O150  1  0.50736000  0.20529000  0.93552000  1.0
  O  O151  1  0.49350000  0.93557000  0.20530000  1.0
  O  O152  1  0.50337000  0.79932000  0.05959000  1.0
  O  O153  1  0.49765000  0.05975000  0.79929000  1.0
  O  O154  1  0.23572000  0.93932000  0.05813000  1.0
  O  O155  1  0.76520000  0.20367000  0.80077000  1.0
  O  O156  1  0.76516000  0.05814000  0.93928000  1.0
  O  O157  1  0.23571000  0.80088000  0.20370000  1.0
  O  O158  1  0.35973000  0.05880000  0.20378000  1.0
  O  O159  1  0.35958000  0.80157000  0.93605000  1.0
  O  O160  1  0.64117000  0.93603000  0.80151000  1.0
  O  O161  1  0.64100000  0.20373000  0.05888000  1.0
  O  O162  1  0.23688000  0.79758000  0.05348000  1.0
  O  O163  1  0.76395000  0.05337000  0.79753000  1.0
  O  O164  1  0.76389000  0.20715000  0.94227000  1.0
  O  O165  1  0.23692000  0.94229000  0.20703000  1.0
  O  O166  1  0.35422000  0.05664000  0.93886000  1.0
  O  O167  1  0.35002000  0.79553000  0.20768000  1.0
  O  O168  1  0.64665000  0.93887000  0.05663000  1.0
  O  O169  1  0.65084000  0.20771000  0.79559000  1.0
  O  O170  1  0.49724000  0.94144000  0.79600000  1.0
  O  O171  1  0.50344000  0.20705000  0.05554000  1.0
  O  O172  1  0.49729000  0.05552000  0.20708000  1.0
  O  O173  1  0.50351000  0.79595000  0.94140000  1.0
  O  O174  1  0.60519000  0.05185000  0.84459000  1.0
  O  O175  1  0.39567000  0.84457000  0.05184000  1.0
  O  O176  1  0.60427000  0.05119000  0.05262000  1.0
  O  O177  1  0.39658000  0.05262000  0.05120000  1.0
  O  O178  1  0.42312000  0.96165000  0.11448000  1.0
  O  O179  1  0.57771000  0.11442000  0.96168000  1.0
  O  O180  1  0.57716000  0.96135000  0.96236000  1.0
  O  O181  1  0.42367000  0.96234000  0.96135000  1.0
