# generated using pymatgen
data_Zn2PH14C6NO6
_symmetry_space_group_name_H-M   'P 1'
_cell_length_a   8.32100000
_cell_length_b   9.96234000
_cell_length_c   12.71750000
_cell_angle_alpha   90.00000000
_cell_angle_beta   90.85160000
_cell_angle_gamma   89.99990000
_symmetry_Int_Tables_number   1
_chemical_formula_structural   Zn2PH14C6NO6
_chemical_formula_sum   'Zn8 P4 H56 C24 N4 O24'
_cell_volume   1054.12145996
_cell_formula_units_Z   4
loop_
 _symmetry_equiv_pos_site_id
 _symmetry_equiv_pos_as_xyz
  1  'x, y, z'
loop_
 _atom_site_type_symbol
 _atom_site_label
 _atom_site_symmetry_multiplicity
 _atom_site_fract_x
 _atom_site_fract_y
 _atom_site_fract_z
 _atom_site_occupancy
  Zn  Zn0  1  0.23315000  0.08861000  0.02267000  1.0
  Zn  Zn1  1  0.76685000  0.58861000  0.47733000  1.0
  Zn  Zn2  1  0.76685000  0.91139000  0.97733000  1.0
  Zn  Zn3  1  0.23315000  0.41139000  0.52267000  1.0
  Zn  Zn4  1  0.41845000  0.89096000  0.82867000  1.0
  Zn  Zn5  1  0.58155000  0.39096000  0.67133000  1.0
  Zn  Zn6  1  0.58155000  0.10904000  0.17133000  1.0
  Zn  Zn7  1  0.41845000  0.60904000  0.32867000  1.0
  P  P8  1  0.31187000  0.89428000  0.21806000  1.0
  P  P9  1  0.68812000  0.39431000  0.28194000  1.0
  P  P10  1  0.68813000  0.10572000  0.78194000  1.0
  P  P11  1  0.31188000  0.60569000  0.71806000  1.0
  H  H12  1  0.19326000  0.94298000  0.28721000  1.0
  H  H13  1  0.80674000  0.44297000  0.21279000  1.0
  H  H14  1  0.80674000  0.05702000  0.71279000  1.0
  H  H15  1  0.19326000  0.55703000  0.78721000  1.0
  H  H16  1  0.91811000  0.09852000  0.10323000  1.0
  H  H17  1  0.08189000  0.59852000  0.39677000  1.0
  H  H18  1  0.08189000  0.90148000  0.89677000  1.0
  H  H19  1  0.91811000  0.40148000  0.60323000  1.0
  H  H20  1  0.36654000  0.22869000  0.81444000  1.0
  H  H21  1  0.63346000  0.72869000  0.68556000  1.0
  H  H22  1  0.63346000  0.77131000  0.18556000  1.0
  H  H23  1  0.36654000  0.27131000  0.31444000  1.0
  H  H24  1  0.18648000  0.30062000  0.76229000  1.0
  H  H25  1  0.81352000  0.80062000  0.73771000  1.0
  H  H26  1  0.81352000  0.69938000  0.23771000  1.0
  H  H27  1  0.18648000  0.19938000  0.26229000  1.0
  H  H28  1  0.03926000  0.08867000  0.79376000  1.0
  H  H29  1  0.96073000  0.58867000  0.70624000  1.0
  H  H30  1  0.96074000  0.91133000  0.20624000  1.0
  H  H31  1  0.03926000  0.41133000  0.29376000  1.0
  H  H32  1  0.21606000  0.05753000  0.72010000  1.0
  H  H33  1  0.78393000  0.55754000  0.77990000  1.0
  H  H34  1  0.78393000  0.94246000  0.27990000  1.0
  H  H35  1  0.21607000  0.44246000  0.22010000  1.0
  H  H36  1  0.25137000  0.41113000  0.04481000  1.0
  H  H37  1  0.74863000  0.91112000  0.45519000  1.0
  H  H38  1  0.74863000  0.58887000  0.95519000  1.0
  H  H39  1  0.25137000  0.08887000  0.54481000  1.0
  H  H40  1  0.33337000  0.44918000  0.91939000  1.0
  H  H41  1  0.66666667  0.94918000  0.58061000  1.0
  H  H42  1  0.66666667  0.55082000  0.08061000  1.0
  H  H43  1  0.33338000  0.05082000  0.41939000  1.0
  H  H44  1  0.54103000  0.27738000  0.94154000  1.0
  H  H45  1  0.45897000  0.77738000  0.55845000  1.0
  H  H46  1  0.45897000  0.72262000  0.05845000  1.0
  H  H47  1  0.54104000  0.22262000  0.44155000  1.0
  H  H48  1  0.53201000  0.37426000  0.05930000  1.0
  H  H49  1  0.46799000  0.87425000  0.44070000  1.0
  H  H50  1  0.46799000  0.62575000  0.94070000  1.0
  H  H51  1  0.53201000  0.12575000  0.55930000  1.0
  H  H52  1  0.95233000  0.24730000  0.88546000  1.0
  H  H53  1  0.04767000  0.74730000  0.61454000  1.0
  H  H54  1  0.04767000  0.75270000  0.11454000  1.0
  H  H55  1  0.95234000  0.25270000  0.38546000  1.0
  H  H56  1  0.00712000  0.41516000  0.91545000  1.0
  H  H57  1  0.99288000  0.91516000  0.58455000  1.0
  H  H58  1  0.99288000  0.58484000  0.08455000  1.0
  H  H59  1  0.00712000  0.08484000  0.41545000  1.0
  H  H60  1  0.01379000  0.36427000  0.10450000  1.0
  H  H61  1  0.98621000  0.86427000  0.39550000  1.0
  H  H62  1  0.98621000  0.63573000  0.89550000  1.0
  H  H63  1  0.01378000  0.13574000  0.60450000  1.0
  H  H64  1  0.83440000  0.29414000  0.05020000  1.0
  H  H65  1  0.16560000  0.79414000  0.44980000  1.0
  H  H66  1  0.16560000  0.70586000  0.94980000  1.0
  H  H67  1  0.83440000  0.20586000  0.55020000  1.0
  C  C68  1  0.23531000  0.22930000  0.82096000  1.0
  C  C69  1  0.76469000  0.72931000  0.67904000  1.0
  C  C70  1  0.76470000  0.77069000  0.17904000  1.0
  C  C71  1  0.23530000  0.27070000  0.32096000  1.0
  C  C72  1  0.17169000  0.08888000  0.79745000  1.0
  C  C73  1  0.82831000  0.58888000  0.70255000  1.0
  C  C74  1  0.82831000  0.91112000  0.20255000  1.0
  C  C75  1  0.17169000  0.41112000  0.29745000  1.0
  C  C76  1  0.30847000  0.36760000  0.97533000  1.0
  C  C77  1  0.69153000  0.86760000  0.52467000  1.0
  C  C78  1  0.69152000  0.63240000  0.02467000  1.0
  C  C79  1  0.30848000  0.13240000  0.47533000  1.0
  C  C80  1  0.46616000  0.30108000  0.00996000  1.0
  C  C81  1  0.53384000  0.80108000  0.49003000  1.0
  C  C82  1  0.53384000  0.69892000  0.99003000  1.0
  C  C83  1  0.46616000  0.19892000  0.50997000  1.0
  C  C84  1  0.02551000  0.30927000  0.93875000  1.0
  C  C85  1  0.97450000  0.80927000  0.56125000  1.0
  C  C86  1  0.97450000  0.69073000  0.06125000  1.0
  C  C87  1  0.02550000  0.19073000  0.43875000  1.0
  C  C88  1  0.96624000  0.28714000  0.05037000  1.0
  C  C89  1  0.03376000  0.78714000  0.44963000  1.0
  C  C90  1  0.03376000  0.71286000  0.94963000  1.0
  C  C91  1  0.96624000  0.21286000  0.55037000  1.0
  N  N92  1  0.19486000  0.26927000  0.92915000  1.0
  N  N93  1  0.80514000  0.76927000  0.57084000  1.0
  N  N94  1  0.80514000  0.73073000  0.07084000  1.0
  N  N95  1  0.19486000  0.23073000  0.42916000  1.0
  O  O96  1  0.22302000  0.99435000  0.87674000  1.0
  O  O97  1  0.77698000  0.49435000  0.62326000  1.0
  O  O98  1  0.77698000  0.00565000  0.12326000  1.0
  O  O99  1  0.22302000  0.50565000  0.37674000  1.0
  O  O100  1  0.43371000  0.18307000  0.06878000  1.0
  O  O101  1  0.56629000  0.68307000  0.43122000  1.0
  O  O102  1  0.56629000  0.81693000  0.93122000  1.0
  O  O103  1  0.43371000  0.31693000  0.56878000  1.0
  O  O104  1  0.01655000  0.15878000  0.08934000  1.0
  O  O105  1  0.98345000  0.65878000  0.41066000  1.0
  O  O106  1  0.98345000  0.84122000  0.91066000  1.0
  O  O107  1  0.01655000  0.34122000  0.58934000  1.0
  O  O108  1  0.25006000  0.92305000  0.10606000  1.0
  O  O109  1  0.74993000  0.42305000  0.39394000  1.0
  O  O110  1  0.74993000  0.07695000  0.89394000  1.0
  O  O111  1  0.25007000  0.57695000  0.60606000  1.0
  O  O112  1  0.32025000  0.74227000  0.23575000  1.0
  O  O113  1  0.67975000  0.24225000  0.26425000  1.0
  O  O114  1  0.67976000  0.25773000  0.76425000  1.0
  O  O115  1  0.32025000  0.75775000  0.73575000  1.0
  O  O116  1  0.46681000  0.96926000  0.24970000  1.0
  O  O117  1  0.53319000  0.46926000  0.25030000  1.0
  O  O118  1  0.53319000  0.03074000  0.75030000  1.0
  O  O119  1  0.46680000  0.53074000  0.74970000  1.0
