# generated using pymatgen
data_ZnH9C8(NO2)3
_symmetry_space_group_name_H-M   'P 1'
_cell_length_a   9.14457000
_cell_length_b   9.28871000
_cell_length_c   16.22700374
_cell_angle_alpha   105.35558135
_cell_angle_beta   91.40328073
_cell_angle_gamma   117.22800000
_symmetry_Int_Tables_number   1
_chemical_formula_structural   ZnH9C8(NO2)3
_chemical_formula_sum   'Zn4 H36 C32 N12 O24'
_cell_volume   1164.68396312
_cell_formula_units_Z   4
loop_
 _symmetry_equiv_pos_site_id
 _symmetry_equiv_pos_as_xyz
  1  'x, y, z'
loop_
 _atom_site_type_symbol
 _atom_site_label
 _atom_site_symmetry_multiplicity
 _atom_site_fract_x
 _atom_site_fract_y
 _atom_site_fract_z
 _atom_site_occupancy
  Zn  Zn0  1  0.45523000  0.35785000  0.32306000  1.0
  Zn  Zn1  1  0.02582000  0.62828000  0.17547000  1.0
  Zn  Zn2  1  0.54476000  0.64215000  0.67694000  1.0
  Zn  Zn3  1  0.97419000  0.37172000  0.82453000  1.0
  H  H4  1  0.85519000  0.90866000  0.22067000  1.0
  H  H5  1  0.67787000  0.12432000  0.27483000  1.0
  H  H6  1  0.14480000  0.09133000  0.77933000  1.0
  H  H7  1  0.32214000  0.87570000  0.72517000  1.0
  H  H8  1  0.90686000  0.08025000  0.31657000  1.0
  H  H9  1  0.76121000  0.08837000  0.17864000  1.0
  H  H10  1  0.09314000  0.91974000  0.68343000  1.0
  H  H11  1  0.23880000  0.91164000  0.82136000  1.0
  H  H12  1  0.44397000  0.71978000  0.43425000  1.0
  H  H13  1  0.29113000  0.51353000  0.06643000  1.0
  H  H14  1  0.55602000  0.28021000  0.56575000  1.0
  H  H15  1  0.70888000  0.48649000  0.93358000  1.0
  H  H16  1  0.69926000  0.61503000  0.23405000  1.0
  H  H17  1  0.36917000  0.95872000  0.25966000  1.0
  H  H18  1  0.30073000  0.38498000  0.76595000  1.0
  H  H19  1  0.63084000  0.04130000  0.74035000  1.0
  H  H20  1  0.23342000  0.94901000  0.05092000  1.0
  H  H21  1  0.89397000  0.68922000  0.45003000  1.0
  H  H22  1  0.76658000  0.05097000  0.94907000  1.0
  H  H23  1  0.10603000  0.31078000  0.54998000  1.0
  H  H24  1  0.69259000  0.48823000  0.46407000  1.0
  H  H25  1  0.01465000  0.73154000  0.03641000  1.0
  H  H26  1  0.30741000  0.51178000  0.53593000  1.0
  H  H27  1  0.98536000  0.26845000  0.96359000  1.0
  H  H28  1  0.64984000  0.29719000  0.41961000  1.0
  H  H29  1  0.86159000  0.72512000  0.08121000  1.0
  H  H30  1  0.35015000  0.70281000  0.58039000  1.0
  H  H31  1  0.13842000  0.27488000  0.91879000  1.0
  H  H32  1  0.15776000  0.12635000  0.23225000  1.0
  H  H33  1  0.88930000  0.42965000  0.27489000  1.0
  H  H34  1  0.84224000  0.87365000  0.76775000  1.0
  H  H35  1  0.11072000  0.57036000  0.72511000  1.0
  H  H36  1  0.24353000  0.27787000  0.19364000  1.0
  H  H37  1  0.08135000  0.55506000  0.30781000  1.0
  H  H38  1  0.75646000  0.72211000  0.80635000  1.0
  H  H39  1  0.91866000  0.44495000  0.69220000  1.0
  C  C40  1  0.80310000  0.97046000  0.26870000  1.0
  C  C41  1  0.69773000  0.03011000  0.22691000  1.0
  C  C42  1  0.19690000  0.02954000  0.73130000  1.0
  C  C43  1  0.30227000  0.96989000  0.77309000  1.0
  C  C44  1  0.52862000  0.73667000  0.38783000  1.0
  C  C45  1  0.35088000  0.64182000  0.11116000  1.0
  C  C46  1  0.47137000  0.26332000  0.61217000  1.0
  C  C47  1  0.64913000  0.35819000  0.88884000  1.0
  C  C48  1  0.65649000  0.67946000  0.28568000  1.0
  C  C49  1  0.38642000  0.86631000  0.20975000  1.0
  C  C50  1  0.34349000  0.32053000  0.71431000  1.0
  C  C51  1  0.61359000  0.13371000  0.79026000  1.0
  C  C52  1  0.49215000  0.12875000  0.06577000  1.0
  C  C53  1  0.06378000  0.92718000  0.43283000  1.0
  C  C54  1  0.50786000  0.87124000  0.93423000  1.0
  C  C55  1  0.93621000  0.07282000  0.56717000  1.0
  C  C56  1  0.64390000  0.15930000  0.03646000  1.0
  C  C57  1  0.12571000  0.10435000  0.46199000  1.0
  C  C58  1  0.35610000  0.84069000  0.96353000  1.0
  C  C59  1  0.87428000  0.89565000  0.53801000  1.0
  C  C60  1  0.35068000  0.97102000  0.02836000  1.0
  C  C61  1  0.94044000  0.82612000  0.47201000  1.0
  C  C62  1  0.64933000  0.02898000  0.97164000  1.0
  C  C63  1  0.05955000  0.17388000  0.52799000  1.0
  C  C64  1  0.46905000  0.24969000  0.13973000  1.0
  C  C65  1  0.10997000  0.82983000  0.35803000  1.0
  C  C66  1  0.53096000  0.75029000  0.86026000  1.0
  C  C67  1  0.89002000  0.17017000  0.64197000  1.0
  C  C68  1  0.79822000  0.32753000  0.07224000  1.0
  C  C69  1  0.26143000  0.22016000  0.42510000  1.0
  C  C70  1  0.20179000  0.67246000  0.92776000  1.0
  C  C71  1  0.73857000  0.77985000  0.57491000  1.0
  N  N72  1  0.70238000  0.84590000  0.31018000  1.0
  N  N73  1  0.53304000  0.88876000  0.18635000  1.0
  N  N74  1  0.29761000  0.15410000  0.68982000  1.0
  N  N75  1  0.46698000  0.11127000  0.81366000  1.0
  N  N76  1  0.62105000  0.88484000  0.37468000  1.0
  N  N77  1  0.51357000  0.74658000  0.12414000  1.0
  N  N78  1  0.37894000  0.11515000  0.62532000  1.0
  N  N79  1  0.48643000  0.25343000  0.87586000  1.0
  N  N80  1  0.54725000  0.60662000  0.33459000  1.0
  N  N81  1  0.26755000  0.71085000  0.16234000  1.0
  N  N82  1  0.45274000  0.39338000  0.66541000  1.0
  N  N83  1  0.73246000  0.28917000  0.83766000  1.0
  O  O84  1  0.52720000  0.25994000  0.21577000  1.0
  O  O85  1  0.04235000  0.81104000  0.28232000  1.0
  O  O86  1  0.47280000  0.74007000  0.78422000  1.0
  O  O87  1  0.95766000  0.18897000  0.71769000  1.0
  O  O88  1  0.38115000  0.31374000  0.12374000  1.0
  O  O89  1  0.19048000  0.75829000  0.37376000  1.0
  O  O90  1  0.61885000  0.68624000  0.87626000  1.0
  O  O91  1  0.80953000  0.24172000  0.62625000  1.0
  O  O92  1  0.78400000  0.44934000  0.12503000  1.0
  O  O93  1  0.32956000  0.15483000  0.36950000  1.0
  O  O94  1  0.21599000  0.55065000  0.87496000  1.0
  O  O95  1  0.67043000  0.84517000  0.63050000  1.0
  O  O96  1  0.93810000  0.34829000  0.05209000  1.0
  O  O97  1  0.30638000  0.37837000  0.44669000  1.0
  O  O98  1  0.06191000  0.65170000  0.94791000  1.0
  O  O99  1  0.69361000  0.62163000  0.55331000  1.0
  O  O100  1  0.68046000  0.40324000  0.40686000  1.0
  O  O101  1  0.98178000  0.76949000  0.09420000  1.0
  O  O102  1  0.31954000  0.59676000  0.59314000  1.0
  O  O103  1  0.01823000  0.23050000  0.90580000  1.0
  O  O104  1  0.20032000  0.24896000  0.24652000  1.0
  O  O105  1  0.99800000  0.46040000  0.25698000  1.0
  O  O106  1  0.79969000  0.75104000  0.75348000  1.0
  O  O107  1  0.00201000  0.53961000  0.74302000  1.0
