# generated using pymatgen
data_AlH11C25BrNO8
_symmetry_space_group_name_H-M   'P 1'
_cell_length_a   6.59571000
_cell_length_b   26.16910000
_cell_length_c   30.09500000
_cell_angle_alpha   67.85100000
_cell_angle_beta   89.99010000
_cell_angle_gamma   89.99490000
_symmetry_Int_Tables_number   1
_chemical_formula_structural   AlH11C25BrNO8
_chemical_formula_sum   'Al4 H44 C100 Br4 N4 O32'
_cell_volume   4811.19017396
_cell_formula_units_Z   4
loop_
 _symmetry_equiv_pos_site_id
 _symmetry_equiv_pos_as_xyz
  1  'x, y, z'
loop_
 _atom_site_type_symbol
 _atom_site_label
 _atom_site_symmetry_multiplicity
 _atom_site_fract_x
 _atom_site_fract_y
 _atom_site_fract_z
 _atom_site_occupancy
  Al  Al0  1  0.81197000  0.75115000  0.24881000  1.0
  Al  Al1  1  0.18805000  0.24884000  0.75119000  1.0
  Al  Al2  1  0.31196000  0.74880000  0.25121000  1.0
  Al  Al3  1  0.68806000  0.25120000  0.74879000  1.0
  H  H4  1  0.87363000  0.90357000  0.94407000  1.0
  H  H5  1  0.12637000  0.09643000  0.05594000  1.0
  H  H6  1  0.37535000  0.59654000  0.55595000  1.0
  H  H7  1  0.62465000  0.40346000  0.44406000  1.0
  H  H8  1  0.97381000  0.87470000  0.09421000  1.0
  H  H9  1  0.02622000  0.12529000  0.90579000  1.0
  H  H10  1  0.47474000  0.62530000  0.40580000  1.0
  H  H11  1  0.52526000  0.37470000  0.59421000  1.0
  H  H12  1  0.17609000  0.93484000  0.20084000  1.0
  H  H13  1  0.82391000  0.06516000  0.79916000  1.0
  H  H14  1  0.67484000  0.56500000  0.29909000  1.0
  H  H15  1  0.32519000  0.43499000  0.70092000  1.0
  H  H16  1  0.94873000  0.88648000  0.02765000  1.0
  H  H17  1  0.05125000  0.11353000  0.97236000  1.0
  H  H18  1  0.45002000  0.61356000  0.47236000  1.0
  H  H19  1  0.54998000  0.38643000  0.52764000  1.0
  H  H20  1  0.40193000  0.53518000  0.91384000  1.0
  H  H21  1  0.59806000  0.46482000  0.08616000  1.0
  H  H22  1  0.90194000  0.96482000  0.58611000  1.0
  H  H23  1  0.09813000  0.03523000  0.41385000  1.0
  H  H24  1  0.65457000  0.42176000  0.86773000  1.0
  H  H25  1  0.34544000  0.57825000  0.13226000  1.0
  H  H26  1  0.15465000  0.07827000  0.63227000  1.0
  H  H27  1  0.84546000  0.92169000  0.36776000  1.0
  H  H28  1  0.63894000  0.36616000  0.81600000  1.0
  H  H29  1  0.36110000  0.63384000  0.18400000  1.0
  H  H30  1  0.13894000  0.13383000  0.68404000  1.0
  H  H31  1  0.86115000  0.86611000  0.31601000  1.0
  H  H32  1  0.24521000  0.30764000  0.85850000  1.0
  H  H33  1  0.75482000  0.69237000  0.14150000  1.0
  H  H34  1  0.74518000  0.19240000  0.64147000  1.0
  H  H35  1  0.25474000  0.80766000  0.35849000  1.0
  H  H36  1  0.25656000  0.35951000  0.91329000  1.0
  H  H37  1  0.74344000  0.64050000  0.08671000  1.0
  H  H38  1  0.75658000  0.14054000  0.58668000  1.0
  H  H39  1  0.24326000  0.85956000  0.41325000  1.0
  H  H40  1  0.77285000  0.97945000  0.81090000  1.0
  H  H41  1  0.22714000  0.02054000  0.18911000  1.0
  H  H42  1  0.27514000  0.52079000  0.68915000  1.0
  H  H43  1  0.72487000  0.47921000  0.31086000  1.0
  H  H44  1  0.55559000  0.78755000  0.18827000  1.0
  H  H45  1  0.44441000  0.21244000  0.81174000  1.0
  H  H46  1  0.05548000  0.71236000  0.31174000  1.0
  H  H47  1  0.94453000  0.28762000  0.68826000  1.0
  C  C48  1  0.56332000  0.80135000  0.30272000  1.0
  C  C49  1  0.43666000  0.19866000  0.69728000  1.0
  C  C50  1  0.06324000  0.69861000  0.19730000  1.0
  C  C51  1  0.93681000  0.30139000  0.80271000  1.0
  C  C52  1  0.56491000  0.65810000  0.31251000  1.0
  C  C53  1  0.43511000  0.34189000  0.68750000  1.0
  C  C54  1  0.06507000  0.84182000  0.18747000  1.0
  C  C55  1  0.93493000  0.15817000  0.81253000  1.0
  C  C56  1  0.92704000  0.10080000  0.84946000  1.0
  C  C57  1  0.07297000  0.89920000  0.15054000  1.0
  C  C58  1  0.42722000  0.39928000  0.65058000  1.0
  C  C59  1  0.57280000  0.60072000  0.34943000  1.0
  C  C60  1  0.86301000  0.00318000  0.86978000  1.0
  C  C61  1  0.13701000  0.99682000  0.13023000  1.0
  C  C62  1  0.36417000  0.49695000  0.63027000  1.0
  C  C63  1  0.63584000  0.50305000  0.36974000  1.0
  C  C64  1  0.86595000  0.05708000  0.83631000  1.0
  C  C65  1  0.13405000  0.94292000  0.16369000  1.0
  C  C66  1  0.36689000  0.44304000  0.66375000  1.0
  C  C67  1  0.63314000  0.55696000  0.33625000  1.0
  C  C68  1  0.97754000  0.09069000  0.89668000  1.0
  C  C69  1  0.02248000  0.90931000  0.10333000  1.0
  C  C70  1  0.47723000  0.40935000  0.60334000  1.0
  C  C71  1  0.52276000  0.59064000  0.39666000  1.0
  C  C72  1  0.96442000  0.03718000  0.93269000  1.0
  C  C73  1  0.03559000  0.96283000  0.06732000  1.0
  C  C74  1  0.46450000  0.46287000  0.56732000  1.0
  C  C75  1  0.53549000  0.53713000  0.43269000  1.0
  C  C76  1  0.91142000  0.99209000  0.91900000  1.0
  C  C77  1  0.08858000  0.00791000  0.08101000  1.0
  C  C78  1  0.41216000  0.50799000  0.58102000  1.0
  C  C79  1  0.58784000  0.49200000  0.41899000  1.0
  C  C80  1  0.00418000  0.02731000  0.98262000  1.0
  C  C81  1  0.99581000  0.97270000  0.01739000  1.0
  C  C82  1  0.50403000  0.47269000  0.51739000  1.0
  C  C83  1  0.49596000  0.52730000  0.48262000  1.0
  C  C84  1  0.95037000  0.92888000  0.00182000  1.0
  C  C85  1  0.04961000  0.07113000  0.99819000  1.0
  C  C86  1  0.45116000  0.57116000  0.49819000  1.0
  C  C87  1  0.54884000  0.42884000  0.50182000  1.0
  C  C88  1  0.90877000  0.93782000  0.95487000  1.0
  C  C89  1  0.09123000  0.06218000  0.04514000  1.0
  C  C90  1  0.40985000  0.56225000  0.54515000  1.0
  C  C91  1  0.59014000  0.43774000  0.45486000  1.0
  C  C92  1  0.87212000  0.53752000  0.08416000  1.0
  C  C93  1  0.12789000  0.46249000  0.91583000  1.0
  C  C94  1  0.37209000  0.96250000  0.41584000  1.0
  C  C95  1  0.62796000  0.03755000  0.58412000  1.0
  C  C96  1  0.18363000  0.58579000  0.04027000  1.0
  C  C97  1  0.81639000  0.41421000  0.95973000  1.0
  C  C98  1  0.68340000  0.91416000  0.45974000  1.0
  C  C99  1  0.31643000  0.08583000  0.54027000  1.0
  C  C100  1  0.17179000  0.55381000  0.00864000  1.0
  C  C101  1  0.82822000  0.44619000  0.99136000  1.0
  C  C102  1  0.67171000  0.94617000  0.49135000  1.0
  C  C103  1  0.32824000  0.05384000  0.50864000  1.0
  C  C104  1  0.01027000  0.51548000  0.01498000  1.0
  C  C105  1  0.98973000  0.48453000  0.98502000  1.0
  C  C106  1  0.51025000  0.98453000  0.48502000  1.0
  C  C107  1  0.48974000  0.01549000  0.51497000  1.0
  C  C108  1  0.86415000  0.50711000  0.05151000  1.0
  C  C109  1  0.13585000  0.49290000  0.94849000  1.0
  C  C110  1  0.36414000  0.99290000  0.44849000  1.0
  C  C111  1  0.63584000  0.00711000  0.55149000  1.0
  C  C112  1  0.31238000  0.56032000  0.97196000  1.0
  C  C113  1  0.68764000  0.43968000  0.02804000  1.0
  C  C114  1  0.81228000  0.93966000  0.52803000  1.0
  C  C115  1  0.18766000  0.06034000  0.47197000  1.0
  C  C116  1  0.29270000  0.52996000  0.94236000  1.0
  C  C117  1  0.70730000  0.47004000  0.05765000  1.0
  C  C118  1  0.79266000  0.97004000  0.55762000  1.0
  C  C119  1  0.20732000  0.02998000  0.44237000  1.0
  C  C120  1  0.78264000  0.39628000  0.86594000  1.0
  C  C121  1  0.21737000  0.60373000  0.13406000  1.0
  C  C122  1  0.28269000  0.10374000  0.63407000  1.0
  C  C123  1  0.71737000  0.89624000  0.36594000  1.0
  C  C124  1  0.77420000  0.36549000  0.83701000  1.0
  C  C125  1  0.22582000  0.63452000  0.16298000  1.0
  C  C126  1  0.27423000  0.13454000  0.66300000  1.0
  C  C127  1  0.72582000  0.86544000  0.33702000  1.0
  C  C128  1  0.94142000  0.33376000  0.83421000  1.0
  C  C129  1  0.05861000  0.66624000  0.16579000  1.0
  C  C130  1  0.44140000  0.16627000  0.66580000  1.0
  C  C131  1  0.55861000  0.83374000  0.33421000  1.0
  C  C132  1  0.11597000  0.33218000  0.86130000  1.0
  C  C133  1  0.88406000  0.66783000  0.13870000  1.0
  C  C134  1  0.61595000  0.16786000  0.63869000  1.0
  C  C135  1  0.38402000  0.83218000  0.36128000  1.0
  C  C136  1  0.12275000  0.36129000  0.89152000  1.0
  C  C137  1  0.87725000  0.63871000  0.10848000  1.0
  C  C138  1  0.62281000  0.13875000  0.60847000  1.0
  C  C139  1  0.37714000  0.86131000  0.39150000  1.0
  C  C140  1  0.95658000  0.39358000  0.89322000  1.0
  C  C141  1  0.04343000  0.60643000  0.10678000  1.0
  C  C142  1  0.45664000  0.10645000  0.60677000  1.0
  C  C143  1  0.54336000  0.89357000  0.39321000  1.0
  C  C144  1  0.80759000  0.96096000  0.85020000  1.0
  C  C145  1  0.19241000  0.03904000  0.14981000  1.0
  C  C146  1  0.30956000  0.53923000  0.64983000  1.0
  C  C147  1  0.69045000  0.46076000  0.35017000  1.0
  Br  Br148  1  0.53812000  0.60855000  0.95741000  1.0
  Br  Br149  1  0.46188000  0.39145000  0.04259000  1.0
  Br  Br150  1  0.03807000  0.89144000  0.54258000  1.0
  Br  Br151  1  0.96190000  0.10857000  0.45741000  1.0
  N  N152  1  0.03302000  0.57510000  0.07636000  1.0
  N  N153  1  0.96699000  0.42490000  0.92364000  1.0
  N  N154  1  0.53293000  0.92490000  0.42363000  1.0
  N  N155  1  0.46704000  0.07513000  0.57635000  1.0
  O  O156  1  0.39105000  0.67964000  0.30021000  1.0
  O  O157  1  0.60898000  0.32037000  0.69981000  1.0
  O  O158  1  0.89127000  0.82021000  0.19968000  1.0
  O  O159  1  0.10872000  0.17980000  0.80034000  1.0
  O  O160  1  0.73570000  0.79104000  0.28884000  1.0
  O  O161  1  0.26428000  0.20893000  0.71118000  1.0
  O  O162  1  0.23558000  0.70909000  0.21104000  1.0
  O  O163  1  0.76445000  0.29088000  0.78898000  1.0
  O  O164  1  0.73399000  0.68076000  0.29646000  1.0
  O  O165  1  0.26605000  0.31922000  0.70353000  1.0
  O  O166  1  0.23412000  0.81927000  0.20367000  1.0
  O  O167  1  0.76587000  0.18071000  0.79631000  1.0
  O  O168  1  0.89228000  0.71409000  0.20750000  1.0
  O  O169  1  0.10778000  0.28594000  0.79248000  1.0
  O  O170  1  0.39249000  0.78567000  0.29266000  1.0
  O  O171  1  0.60749000  0.21435000  0.70732000  1.0
  O  O172  1  0.56003000  0.76048000  0.22080000  1.0
  O  O173  1  0.43999000  0.23951000  0.77921000  1.0
  O  O174  1  0.06001000  0.73948000  0.27923000  1.0
  O  O175  1  0.94001000  0.26051000  0.72078000  1.0
  O  O176  1  0.74661000  0.53040000  0.11614000  1.0
  O  O177  1  0.25338000  0.46961000  0.88386000  1.0
  O  O178  1  0.24661000  0.96964000  0.38386000  1.0
  O  O179  1  0.75358000  0.03045000  0.61607000  1.0
  O  O180  1  0.31456000  0.62055000  0.03619000  1.0
  O  O181  1  0.68546000  0.37946000  0.96381000  1.0
  O  O182  1  0.81424000  0.87936000  0.46386000  1.0
  O  O183  1  0.18549000  0.12058000  0.53619000  1.0
  O  O184  1  0.79822000  0.91084000  0.87180000  1.0
  O  O185  1  0.20179000  0.08915000  0.12822000  1.0
  O  O186  1  0.30067000  0.58935000  0.62822000  1.0
  O  O187  1  0.69933000  0.41065000  0.37179000  1.0
