# generated using pymatgen
data_Cu5H17C27N8
_symmetry_space_group_name_H-M   'P 1'
_cell_length_a   6.89739000
_cell_length_b   11.90640000
_cell_length_c   16.57530000
_cell_angle_alpha   71.39610000
_cell_angle_beta   80.17940000
_cell_angle_gamma   83.79000000
_symmetry_Int_Tables_number   1
_chemical_formula_structural   Cu5H17C27N8
_chemical_formula_sum   'Cu10 H34 C54 N16'
_cell_volume   1269.07465078
_cell_formula_units_Z   2
loop_
 _symmetry_equiv_pos_site_id
 _symmetry_equiv_pos_as_xyz
  1  'x, y, z'
loop_
 _atom_site_type_symbol
 _atom_site_label
 _atom_site_symmetry_multiplicity
 _atom_site_fract_x
 _atom_site_fract_y
 _atom_site_fract_z
 _atom_site_occupancy
  Cu  Cu0  1  0.00000000  0.00001000  0.99999000  1.0
  Cu  Cu1  1  0.00000000  0.50000000  0.00000000  1.0
  Cu  Cu2  1  0.65284000  0.33092000  0.07972000  1.0
  Cu  Cu3  1  0.34717000  0.66910000  0.92027000  1.0
  Cu  Cu4  1  0.72399000  0.49625000  0.30907000  1.0
  Cu  Cu5  1  0.27602000  0.50373000  0.69094000  1.0
  Cu  Cu6  1  0.92953000  0.72116000  0.47269000  1.0
  Cu  Cu7  1  0.07046000  0.27884000  0.52731000  1.0
  Cu  Cu8  1  0.60835000  0.62953000  0.53812000  1.0
  Cu  Cu9  1  0.39165000  0.37045000  0.46189000  1.0
  H  H10  1  0.97893000  0.87024000  0.28226000  1.0
  H  H11  1  0.02106000  0.12975000  0.71774000  1.0
  H  H12  1  0.91074000  0.08338000  0.19946000  1.0
  H  H13  1  0.08925000  0.91662000  0.80054000  1.0
  H  H14  1  0.77257000  0.22512000  0.28211000  1.0
  H  H15  1  0.22743000  0.77489000  0.71789000  1.0
  H  H16  1  0.70102000  0.14940000  0.44085000  1.0
  H  H17  1  0.29898000  0.85060000  0.55915000  1.0
  H  H18  1  0.69900000  0.08145000  0.56808000  1.0
  H  H19  1  0.30100000  0.91855000  0.43192000  1.0
  H  H20  1  0.47367000  0.14987000  0.64643000  1.0
  H  H21  1  0.52633000  0.85013000  0.35357000  1.0
  H  H22  1  0.35487000  0.26827000  0.74303000  1.0
  H  H23  1  0.64512000  0.73173000  0.25697000  1.0
  H  H24  1  0.27686000  0.18290000  0.95902000  1.0
  H  H25  1  0.72313000  0.81710000  0.04098000  1.0
  H  H26  1  0.35240000  0.31095000  0.87418000  1.0
  H  H27  1  0.64759000  0.68905000  0.12582000  1.0
  H  H28  1  0.51750000  0.22921000  0.94636000  1.0
  H  H29  1  0.48249000  0.77079000  0.05365000  1.0
  H  H30  1  0.61345000  0.00597000  0.94726000  1.0
  H  H31  1  0.38655000  0.99404000  0.05274000  1.0
  H  H32  1  0.71981000  0.88120000  0.85359000  1.0
  H  H33  1  0.28020000  0.11880000  0.14641000  1.0
  H  H34  1  0.66069000  0.76180000  0.78362000  1.0
  H  H35  1  0.33931000  0.23820000  0.21638000  1.0
  H  H36  1  0.88122000  0.60923000  0.80710000  1.0
  H  H37  1  0.11879000  0.39078000  0.19290000  1.0
  H  H38  1  0.89163000  0.38863000  0.86737000  1.0
  H  H39  1  0.10838000  0.61138000  0.13263000  1.0
  H  H40  1  0.79831000  0.27143000  0.77823000  1.0
  H  H41  1  0.20169000  0.72857000  0.22177000  1.0
  H  H42  1  0.69781000  0.38114000  0.63482000  1.0
  H  H43  1  0.30218000  0.61886000  0.36518000  1.0
  C  C44  1  0.91788000  0.93515000  0.31501000  1.0
  C  C45  1  0.08212000  0.06485000  0.68499000  1.0
  C  C46  1  0.88060000  0.05357000  0.26941000  1.0
  C  C47  1  0.11939000  0.94643000  0.73059000  1.0
  C  C48  1  0.80345000  0.13180000  0.31545000  1.0
  C  C49  1  0.19654000  0.86820000  0.68455000  1.0
  C  C50  1  0.76319000  0.08890000  0.40474000  1.0
  C  C51  1  0.23681000  0.91111000  0.59526000  1.0
  C  C52  1  0.80236000  0.96839000  0.44629000  1.0
  C  C53  1  0.19764000  0.03161000  0.55370000  1.0
  C  C54  1  0.76207000  0.91502000  0.54076000  1.0
  C  C55  1  0.23794000  0.08498000  0.45924000  1.0
  C  C56  1  0.70759000  0.98520000  0.59508000  1.0
  C  C57  1  0.29241000  0.01480000  0.40491000  1.0
  C  C58  1  0.66983000  0.93279000  0.68438000  1.0
  C  C59  1  0.33018000  0.06721000  0.31561000  1.0
  C  C60  1  0.60497000  0.00524000  0.74226000  1.0
  C  C61  1  0.39503000  0.99476000  0.25773000  1.0
  C  C62  1  0.50423000  0.11631000  0.71257000  1.0
  C  C63  1  0.49577000  0.88370000  0.28743000  1.0
  C  C64  1  0.43641000  0.18367000  0.76749000  1.0
  C  C65  1  0.56359000  0.81633000  0.23251000  1.0
  C  C66  1  0.47259000  0.14597000  0.85301000  1.0
  C  C67  1  0.52741000  0.85403000  0.14699000  1.0
  C  C68  1  0.40210000  0.22126000  0.91068000  1.0
  C  C69  1  0.59789000  0.77874000  0.08932000  1.0
  C  C70  1  0.57818000  0.03647000  0.88180000  1.0
  C  C71  1  0.42182000  0.96354000  0.11820000  1.0
  C  C72  1  0.64004000  0.96619000  0.82831000  1.0
  C  C73  1  0.35996000  0.03381000  0.17169000  1.0
  C  C74  1  0.69428000  0.80857000  0.71517000  1.0
  C  C75  1  0.30572000  0.19143000  0.28483000  1.0
  C  C76  1  0.75290000  0.74300000  0.65784000  1.0
  C  C77  1  0.24710000  0.25700000  0.34215000  1.0
  C  C78  1  0.77583000  0.61182000  0.69145000  1.0
  C  C79  1  0.22417000  0.38818000  0.30855000  1.0
  C  C80  1  0.83946000  0.55616000  0.77100000  1.0
  C  C81  1  0.16054000  0.44384000  0.22900000  1.0
  C  C82  1  0.84660000  0.43271000  0.80430000  1.0
  C  C83  1  0.15341000  0.56729000  0.19571000  1.0
  C  C84  1  0.79526000  0.36794000  0.75539000  1.0
  C  C85  1  0.20474000  0.63206000  0.24461000  1.0
  C  C86  1  0.73708000  0.42850000  0.67560000  1.0
  C  C87  1  0.26291000  0.57149000  0.32440000  1.0
  C  C88  1  0.80717000  0.21373000  0.04340000  1.0
  C  C89  1  0.19284000  0.78630000  0.95659000  1.0
  C  C90  1  0.23575000  0.42227000  0.03099000  1.0
  C  C91  1  0.76426000  0.57774000  0.96900000  1.0
  C  C92  1  0.68950000  0.43740000  0.22361000  1.0
  C  C93  1  0.31051000  0.56260000  0.77639000  1.0
  C  C94  1  0.80548000  0.62319000  0.42887000  1.0
  C  C95  1  0.19453000  0.37680000  0.57114000  1.0
  C  C96  1  0.35619000  0.67203000  0.51113000  1.0
  C  C97  1  0.64380000  0.32795000  0.48887000  1.0
  N  N98  1  0.88935000  0.13097000  0.02527000  1.0
  N  N99  1  0.11065000  0.86906000  0.97471000  1.0
  N  N100  1  0.38700000  0.37680000  0.05158000  1.0
  N  N101  1  0.61301000  0.62322000  0.94842000  1.0
  N  N102  1  0.67709000  0.39899000  0.16768000  1.0
  N  N103  1  0.32292000  0.60102000  0.83232000  1.0
  N  N104  1  0.77855000  0.57626000  0.37894000  1.0
  N  N105  1  0.22146000  0.42372000  0.62108000  1.0
  N  N106  1  0.19620000  0.69341000  0.49226000  1.0
  N  N107  1  0.80379000  0.30657000  0.50774000  1.0
  N  N108  1  0.72575000  0.54796000  0.64423000  1.0
  N  N109  1  0.27425000  0.45203000  0.35578000  1.0
  N  N110  1  0.78464000  0.79493000  0.57163000  1.0
  N  N111  1  0.21536000  0.20507000  0.42837000  1.0
  N  N112  1  0.88044000  0.89341000  0.40108000  1.0
  N  N113  1  0.11955000  0.10659000  0.59892000  1.0
