# generated using pymatgen
data_CuH7C10N5O6
_symmetry_space_group_name_H-M   'P 1'
_cell_length_a   7.78310000
_cell_length_b   8.57937000
_cell_length_c   10.82210000
_cell_angle_alpha   92.97130000
_cell_angle_beta   96.77790000
_cell_angle_gamma   100.73900000
_symmetry_Int_Tables_number   1
_chemical_formula_structural   CuH7C10N5O6
_chemical_formula_sum   'Cu2 H14 C20 N10 O12'
_cell_volume   702.99638730
_cell_formula_units_Z   2
loop_
 _symmetry_equiv_pos_site_id
 _symmetry_equiv_pos_as_xyz
  1  'x, y, z'
loop_
 _atom_site_type_symbol
 _atom_site_label
 _atom_site_symmetry_multiplicity
 _atom_site_fract_x
 _atom_site_fract_y
 _atom_site_fract_z
 _atom_site_occupancy
  Cu  Cu0  1  0.90591000  0.87038000  0.03565000  1.0
  Cu  Cu1  1  0.09410000  0.12959000  0.96434000  1.0
  H  H2  1  0.10540000  0.90732000  0.42176000  1.0
  H  H3  1  0.89461000  0.09269000  0.57824000  1.0
  H  H4  1  0.39603000  0.34060000  0.30813000  1.0
  H  H5  1  0.60397000  0.65941000  0.69186000  1.0
  H  H6  1  0.57352000  0.39400000  0.52303000  1.0
  H  H7  1  0.42648000  0.60603000  0.47696000  1.0
  H  H8  1  0.27652000  0.96615000  0.63880000  1.0
  H  H9  1  0.72349000  0.03386000  0.36120000  1.0
  H  H10  1  0.46312000  0.81827000  0.86219000  1.0
  H  H11  1  0.53692000  0.18171000  0.13785000  1.0
  H  H12  1  0.47229000  0.76168000  0.01747000  1.0
  H  H13  1  0.52768000  0.23830000  0.98253000  1.0
  H  H14  1  0.26345000  0.60085000  0.68492000  1.0
  H  H15  1  0.73656000  0.39913000  0.31508000  1.0
  C  C16  1  0.23803000  0.84693000  0.95595000  1.0
  C  C17  1  0.76196000  0.15304000  0.04405000  1.0
  C  C18  1  0.20790000  0.01349000  0.44546000  1.0
  C  C19  1  0.79212000  0.98652000  0.55455000  1.0
  C  C20  1  0.15236000  0.07927000  0.22196000  1.0
  C  C21  1  0.84761000  0.92069000  0.77805000  1.0
  C  C22  1  0.37363000  0.25805000  0.38040000  1.0
  C  C23  1  0.62634000  0.74197000  0.61958000  1.0
  C  C24  1  0.47017000  0.28893000  0.49846000  1.0
  C  C25  1  0.52981000  0.71110000  0.50152000  1.0
  C  C26  1  0.30287000  0.04421000  0.56434000  1.0
  C  C27  1  0.69713000  0.95582000  0.43567000  1.0
  C  C28  1  0.38506000  0.75838000  0.92982000  1.0
  C  C29  1  0.61493000  0.24160000  0.07018000  1.0
  C  C30  1  0.24498000  0.11861000  0.35280000  1.0
  C  C31  1  0.75502000  0.88136000  0.64720000  1.0
  C  C32  1  0.26057000  0.53201000  0.76612000  1.0
  C  C33  1  0.73946000  0.46801000  0.23389000  1.0
  C  C34  1  0.43456000  0.18041000  0.58802000  1.0
  C  C35  1  0.56544000  0.81961000  0.41196000  1.0
  N  N36  1  0.22857000  0.34676000  0.88907000  1.0
  N  N37  1  0.77144000  0.65323000  0.11093000  1.0
  N  N38  1  0.31782000  0.59388000  0.88438000  1.0
  N  N39  1  0.68220000  0.40611000  0.11564000  1.0
  N  N40  1  0.29612000  0.47552000  0.96102000  1.0
  N  N41  1  0.70389000  0.52447000  0.03899000  1.0
  N  N42  1  0.54139000  0.21154000  0.71097000  1.0
  N  N43  1  0.45861000  0.78848000  0.28902000  1.0
  N  N44  1  0.20438000  0.37686000  0.76656000  1.0
  N  N45  1  0.79564000  0.62316000  0.23345000  1.0
  O  O46  1  0.20365000  0.17464000  0.14144000  1.0
  O  O47  1  0.79636000  0.82535000  0.85860000  1.0
  O  O48  1  0.10243000  0.76650000  0.99213000  1.0
  O  O49  1  0.89757000  0.23350000  0.00788000  1.0
  O  O50  1  0.27104000  0.99423000  0.93915000  1.0
  O  O51  1  0.72898000  0.00573000  0.06084000  1.0
  O  O52  1  0.03379000  0.95365000  0.20380000  1.0
  O  O53  1  0.96615000  0.04633000  0.79616000  1.0
  O  O54  1  0.53848000  0.09898000  0.77887000  1.0
  O  O55  1  0.46151000  0.90106000  0.22113000  1.0
  O  O56  1  0.62894000  0.34756000  0.73990000  1.0
  O  O57  1  0.37105000  0.65247000  0.26008000  1.0
