# generated using pymatgen
data_BiH6C14N2ClO4
_symmetry_space_group_name_H-M   'P 1'
_cell_length_a   8.84156000
_cell_length_b   9.05444000
_cell_length_c   9.87279000
_cell_angle_alpha   111.15000000
_cell_angle_beta   115.35500000
_cell_angle_gamma   92.68050000
_symmetry_Int_Tables_number   1
_chemical_formula_structural   BiH6C14N2ClO4
_chemical_formula_sum   'Bi2 H12 C28 N4 Cl2 O8'
_cell_volume   646.84894165
_cell_formula_units_Z   2
loop_
 _symmetry_equiv_pos_site_id
 _symmetry_equiv_pos_as_xyz
  1  'x, y, z'
loop_
 _atom_site_type_symbol
 _atom_site_label
 _atom_site_symmetry_multiplicity
 _atom_site_fract_x
 _atom_site_fract_y
 _atom_site_fract_z
 _atom_site_occupancy
  Bi  Bi0  1  0.37563000  0.19226000  0.48336000  1.0
  Bi  Bi1  1  0.62437000  0.80773000  0.51664000  1.0
  H  H2  1  0.90605000  0.60816000  0.98681000  1.0
  H  H3  1  0.09395000  0.39184000  0.01319000  1.0
  H  H4  1  0.65404000  0.72111000  0.87053000  1.0
  H  H5  1  0.34596000  0.27889000  0.12946000  1.0
  H  H6  1  0.58425000  0.27503000  0.99360000  1.0
  H  H7  1  0.41575000  0.72497000  0.00640000  1.0
  H  H8  1  0.53778000  0.97547000  0.87026000  1.0
  H  H9  1  0.46223000  0.02453000  0.12974000  1.0
  H  H10  1  0.78899000  0.55533000  0.20793000  1.0
  H  H11  1  0.21101000  0.44467000  0.79207000  1.0
  H  H12  1  0.08585000  0.71296000  0.43547000  1.0
  H  H13  1  0.91415000  0.28704000  0.56453000  1.0
  C  C14  1  0.23267000  0.78564000  0.23921000  1.0
  C  C15  1  0.76733000  0.21436000  0.76079000  1.0
  C  C16  1  0.07278000  0.84588000  0.17053000  1.0
  C  C17  1  0.92721000  0.15412000  0.82947000  1.0
  C  C18  1  0.91577000  0.73895000  0.03860000  1.0
  C  C19  1  0.08423000  0.26105000  0.96140000  1.0
  C  C20  1  0.77601000  0.80254000  0.97453000  1.0
  C  C21  1  0.22399000  0.19746000  0.02547000  1.0
  C  C22  1  0.79359000  0.97315000  0.04106000  1.0
  C  C23  1  0.20641000  0.02685000  0.95894000  1.0
  C  C24  1  0.95592000  0.07099000  0.17684000  1.0
  C  C25  1  0.04408000  0.92901000  0.82316000  1.0
  C  C26  1  0.98326000  0.24553000  0.24831000  1.0
  C  C27  1  0.01674000  0.75447000  0.75169000  1.0
  C  C28  1  0.84892000  0.31961000  0.18220000  1.0
  C  C29  1  0.15108000  0.68039000  0.81780000  1.0
  C  C30  1  0.68638000  0.21779000  0.04594000  1.0
  C  C31  1  0.31362000  0.78221000  0.95406000  1.0
  C  C32  1  0.66008000  0.05156000  0.97740000  1.0
  C  C33  1  0.33992000  0.94844000  0.02260000  1.0
  C  C34  1  0.88782000  0.49195000  0.25311000  1.0
  C  C35  1  0.11218000  0.50805000  0.74689000  1.0
  C  C36  1  0.05151000  0.58015000  0.37949000  1.0
  C  C37  1  0.94849000  0.41984000  0.62051000  1.0
  C  C38  1  0.17604000  0.49584000  0.43792000  1.0
  C  C39  1  0.82396000  0.50416000  0.56208000  1.0
  C  C40  1  0.35900000  0.58030000  0.57355000  1.0
  C  C41  1  0.64100000  0.41970000  0.42646000  1.0
  N  N42  1  0.09016000  0.00672000  0.23819000  1.0
  N  N43  1  0.90984000  0.99328000  0.76180000  1.0
  N  N44  1  0.14047000  0.33365000  0.37398000  1.0
  N  N45  1  0.85953000  0.66635000  0.62602000  1.0
  Cl  Cl46  1  0.25706000  0.14623000  0.66265000  1.0
  Cl  Cl47  1  0.74294000  0.85377000  0.33735000  1.0
  O  O48  1  0.36879000  0.89909000  0.36059000  1.0
  O  O49  1  0.63121000  0.10091000  0.63942000  1.0
  O  O50  1  0.23068000  0.63894000  0.18049000  1.0
  O  O51  1  0.76932000  0.36106000  0.81951000  1.0
  O  O52  1  0.45122000  0.49380000  0.63578000  1.0
  O  O53  1  0.54879000  0.50620000  0.36422000  1.0
  O  O54  1  0.40990000  0.73042000  0.61471000  1.0
  O  O55  1  0.59010000  0.26959000  0.38530000  1.0
