# generated using pymatgen
data_ZnH4C17NCl3O4F5
_symmetry_space_group_name_H-M   'P 1'
_cell_length_a   12.20160000
_cell_length_b   13.07840000
_cell_length_c   16.02670000
_cell_angle_alpha   89.73500000
_cell_angle_beta   87.00980000
_cell_angle_gamma   86.24110000
_symmetry_Int_Tables_number   1
_chemical_formula_structural   ZnH4C17NCl3O4F5
_chemical_formula_sum   'Zn2 H8 C34 N2 Cl6 O8 F10'
_cell_volume   2548.52090783
_cell_formula_units_Z   2
loop_
 _symmetry_equiv_pos_site_id
 _symmetry_equiv_pos_as_xyz
  1  'x, y, z'
loop_
 _atom_site_type_symbol
 _atom_site_label
 _atom_site_symmetry_multiplicity
 _atom_site_fract_x
 _atom_site_fract_y
 _atom_site_fract_z
 _atom_site_occupancy
  Zn  Zn0  1  0.61612000  0.51004000  0.49881000  1.0
  Zn  Zn1  1  0.38293000  0.50154000  0.50034000  1.0
  H  H2  1  0.58033000  0.63304000  0.91746000  1.0
  H  H3  1  0.36265000  0.18493000  0.53033000  1.0
  H  H4  1  0.28539000  0.82692000  0.54769000  1.0
  H  H5  1  0.62718000  0.82570000  0.46779000  1.0
  H  H6  1  0.53391000  0.64090000  0.05898000  1.0
  H  H7  1  0.97449000  0.65408000  0.37873000  1.0
  H  H8  1  0.36548000  0.58588000  0.08898000  1.0
  H  H9  1  0.32439000  0.48365000  0.93815000  1.0
  C  C10  1  0.46578000  0.70145000  0.50320000  1.0
  C  C11  1  0.45789000  0.81619000  0.50689000  1.0
  C  C12  1  0.35023000  0.97539000  0.53450000  1.0
  C  C13  1  0.51544000  0.49927000  0.33837000  1.0
  C  C14  1  0.35680000  0.86998000  0.53130000  1.0
  C  C15  1  0.55046000  0.86850000  0.48642000  1.0
  C  C16  1  0.54475000  0.97653000  0.48932000  1.0
  C  C17  1  0.44309000  0.03320000  0.51328000  1.0
  C  C18  1  0.43943000  0.14109000  0.51372000  1.0
  C  C19  1  0.63229000  0.13867000  0.47124000  1.0
  C  C20  1  0.63739000  0.03306000  0.46867000  1.0
  C  C21  1  0.59160000  0.55734000  0.94680000  1.0
  C  C22  1  0.05526000  0.40230000  0.57246000  1.0
  C  C23  1  0.16617000  0.41451000  0.55692000  1.0
  C  C24  1  0.13635000  0.54439000  0.46189000  1.0
  C  C25  1  0.52070000  0.30926000  0.49615000  1.0
  C  C26  1  0.01990000  0.53750000  0.47101000  1.0
  C  C27  1  0.97745000  0.46549000  0.53022000  1.0
  C  C28  1  0.86006000  0.46394000  0.54119000  1.0
  C  C29  1  0.83603000  0.58585000  0.43798000  1.0
  C  C30  1  0.94607000  0.59878000  0.42434000  1.0
  C  C31  1  0.49412000  0.50532000  0.66114000  1.0
  C  C32  1  0.50181000  0.48890000  0.91686000  1.0
  C  C33  1  0.57954000  0.56742000  0.04325000  1.0
  C  C34  1  0.39184000  0.51372000  0.05691000  1.0
  C  C35  1  0.38968000  0.52764000  0.96120000  1.0
  C  C36  1  0.49289000  0.49978000  0.75158000  1.0
  C  C37  1  0.51025000  0.48103000  0.08296000  1.0
  C  C38  1  0.52336000  0.37512000  0.94826000  1.0
  C  C39  1  0.55235000  0.37578000  0.04344000  1.0
  C  C40  1  0.49631000  0.49289000  0.82686000  1.0
  C  C41  1  0.51568000  0.48208000  0.17292000  1.0
  C  C42  1  0.51730000  0.49028000  0.24815000  1.0
  C  C43  1  0.53167000  0.19444000  0.49345000  1.0
  N  N44  1  0.79252000  0.52146000  0.49480000  1.0
  N  N45  1  0.20626000  0.48488000  0.50437000  1.0
  Cl  Cl46  1  0.22576000  0.03926000  0.56527000  1.0
  Cl  Cl47  1  0.80217000  0.39034000  0.61636000  1.0
  Cl  Cl48  1  0.18832000  0.63168000  0.39414000  1.0
  Cl  Cl49  1  0.35474000  0.65874000  0.93484000  1.0
  Cl  Cl50  1  0.50004000  0.26998000  0.09716000  1.0
  Cl  Cl51  1  0.62481000  0.30375000  0.88739000  1.0
  O  O52  1  0.56012000  0.65871000  0.48342000  1.0
  O  O53  1  0.37800000  0.65563000  0.51959000  1.0
  O  O54  1  0.60691000  0.48443000  0.37239000  1.0
  O  O55  1  0.42137000  0.52155000  0.37420000  1.0
  O  O56  1  0.60443000  0.35568000  0.51446000  1.0
  O  O57  1  0.42634000  0.35027000  0.48107000  1.0
  O  O58  1  0.58342000  0.53161000  0.62522000  1.0
  O  O59  1  0.40716000  0.48270000  0.62705000  1.0
  F  F60  1  0.68152000  0.57020000  0.07682000  1.0
  F  F61  1  0.66530000  0.36753000  0.04824000  1.0
  F  F62  1  0.69606000  0.51680000  0.92122000  1.0
  F  F63  1  0.42542000  0.32796000  0.94115000  1.0
  F  F64  1  0.72430000  0.18673000  0.44947000  1.0
  F  F65  1  0.73423000  0.98165000  0.44498000  1.0
  F  F66  1  0.76339000  0.64095000  0.39388000  1.0
  F  F67  1  0.02707000  0.32899000  0.62669000  1.0
  F  F68  1  0.23853000  0.35349000  0.59612000  1.0
  F  F69  1  0.31716000  0.44209000  0.08292000  1.0
