# generated using pymatgen
data_BH12PbC12IN8
_symmetry_space_group_name_H-M   'P 1'
_cell_length_a   8.63423000
_cell_length_b   10.02440000
_cell_length_c   10.92450000
_cell_angle_alpha   101.97400000
_cell_angle_beta   104.56600000
_cell_angle_gamma   103.59900000
_symmetry_Int_Tables_number   1
_chemical_formula_structural   BH12PbC12IN8
_chemical_formula_sum   'B2 H24 Pb2 C24 I2 N16'
_cell_volume   853.03269894
_cell_formula_units_Z   2
loop_
 _symmetry_equiv_pos_site_id
 _symmetry_equiv_pos_as_xyz
  1  'x, y, z'
loop_
 _atom_site_type_symbol
 _atom_site_label
 _atom_site_symmetry_multiplicity
 _atom_site_fract_x
 _atom_site_fract_y
 _atom_site_fract_z
 _atom_site_occupancy
  B  B0  1  0.77086000  0.35282000  0.22901000  1.0
  B  B1  1  0.22913000  0.64716000  0.77102000  1.0
  H  H2  1  0.63380000  0.57621000  0.16700000  1.0
  H  H3  1  0.36619000  0.42385000  0.83300000  1.0
  H  H4  1  0.76192000  0.42243000  0.49918000  1.0
  H  H5  1  0.23811000  0.57757000  0.50078000  1.0
  H  H6  1  0.65144000  0.65832000  0.56516000  1.0
  H  H7  1  0.34858000  0.34167000  0.43488000  1.0
  H  H8  1  0.98549000  0.64825000  0.29407000  1.0
  H  H9  1  0.01453000  0.35173000  0.70598000  1.0
  H  H10  1  0.01890000  0.23089000  0.15780000  1.0
  H  H11  1  0.98108000  0.76910000  0.84217000  1.0
  H  H12  1  0.31023000  0.43330000  0.17571000  1.0
  H  H13  1  0.68974000  0.56666000  0.82423000  1.0
  H  H14  1  0.51959000  0.08592000  0.19524000  1.0
  H  H15  1  0.48039000  0.91406000  0.80476000  1.0
  H  H16  1  0.02110000  0.30691000  0.43592000  1.0
  H  H17  1  0.97887000  0.69314000  0.56410000  1.0
  H  H18  1  0.89764000  0.06846000  0.51536000  1.0
  H  H19  1  0.10243000  0.93156000  0.48465000  1.0
  H  H20  1  0.81505000  0.31476000  0.96968000  1.0
  H  H21  1  0.18491000  0.68525000  0.03027000  1.0
  H  H22  1  0.40543000  0.24300000  0.12041000  1.0
  H  H23  1  0.59457000  0.75697000  0.87960000  1.0
  H  H24  1  0.28606000  0.15905000  0.84780000  1.0
  H  H25  1  0.71395000  0.84094000  0.15221000  1.0
  Pb  Pb26  1  0.43898000  0.82712000  0.35622000  1.0
  Pb  Pb27  1  0.56102000  0.17285000  0.64370000  1.0
  C  C28  1  0.65326000  0.56833000  0.26698000  1.0
  C  C29  1  0.34674000  0.43164000  0.73301000  1.0
  C  C30  1  0.71855000  0.48931000  0.44074000  1.0
  C  C31  1  0.28143000  0.51073000  0.55929000  1.0
  C  C32  1  0.66305000  0.60593000  0.47197000  1.0
  C  C33  1  0.33695000  0.39412000  0.52804000  1.0
  C  C34  1  0.03514000  0.56304000  0.25936000  1.0
  C  C35  1  0.96485000  0.43695000  0.74063000  1.0
  C  C36  1  0.05414000  0.34694000  0.18716000  1.0
  C  C37  1  0.94583000  0.65305000  0.81280000  1.0
  C  C38  1  0.19877000  0.44828000  0.19752000  1.0
  C  C39  1  0.80122000  0.55170000  0.80246000  1.0
  C  C40  1  0.63950000  0.11279000  0.27091000  1.0
  C  C41  1  0.36050000  0.88720000  0.72909000  1.0
  C  C42  1  0.89897000  0.22697000  0.39910000  1.0
  C  C43  1  0.10106000  0.77301000  0.60092000  1.0
  C  C44  1  0.83782000  0.10775000  0.43644000  1.0
  C  C45  1  0.16219000  0.89224000  0.56358000  1.0
  C  C46  1  0.68764000  0.28533000  0.97325000  1.0
  C  C47  1  0.31237000  0.71471000  0.02680000  1.0
  C  C48  1  0.47258000  0.24764000  0.04904000  1.0
  C  C49  1  0.52741000  0.75234000  0.95097000  1.0
  C  C50  1  0.41426000  0.20602000  0.91367000  1.0
  C  C51  1  0.58575000  0.79397000  0.08631000  1.0
  I  I52  1  0.18528000  0.99462000  0.24639000  1.0
  I  I53  1  0.81470000  0.00543000  0.75362000  1.0
  N  N54  1  0.71214000  0.46589000  0.30973000  1.0
  N  N55  1  0.28786000  0.53410000  0.69030000  1.0
  N  N56  1  0.62308000  0.65488000  0.36251000  1.0
  N  N57  1  0.37691000  0.34511000  0.63746000  1.0
  N  N58  1  0.94984000  0.42091000  0.22713000  1.0
  N  N59  1  0.05014000  0.57909000  0.77285000  1.0
  N  N60  1  0.18598000  0.58334000  0.24313000  1.0
  N  N61  1  0.81404000  0.41664000  0.75686000  1.0
  N  N62  1  0.77200000  0.22935000  0.29296000  1.0
  N  N63  1  0.22803000  0.77063000  0.70705000  1.0
  N  N64  1  0.67469000  0.03721000  0.35527000  1.0
  N  N65  1  0.32531000  0.96279000  0.64475000  1.0
  N  N66  1  0.64695000  0.29756000  0.08636000  1.0
  N  N67  1  0.35304000  0.70245000  0.91369000  1.0
  N  N68  1  0.55086000  0.23107000  0.86772000  1.0
  N  N69  1  0.44919000  0.76899000  0.13231000  1.0
