# generated using pymatgen
data_CdH30C28(NO3)4
_symmetry_space_group_name_H-M   'P 1'
_cell_length_a   7.21743000
_cell_length_b   9.11466000
_cell_length_c   12.04810000
_cell_angle_alpha   90.03030000
_cell_angle_beta   95.08180000
_cell_angle_gamma   111.55190000
_symmetry_Int_Tables_number   1
_chemical_formula_structural   CdH30C28(NO3)4
_chemical_formula_sum   'Cd1 H30 C28 N4 O12'
_cell_volume   733.79890481
_cell_formula_units_Z   1
loop_
 _symmetry_equiv_pos_site_id
 _symmetry_equiv_pos_as_xyz
  1  'x, y, z'
loop_
 _atom_site_type_symbol
 _atom_site_label
 _atom_site_symmetry_multiplicity
 _atom_site_fract_x
 _atom_site_fract_y
 _atom_site_fract_z
 _atom_site_occupancy
  Cd  Cd0  1  0.50000000  0.00001000  1.00000000  1.0
  H  H1  1  0.88470000  0.90042000  0.31125000  1.0
  H  H2  1  0.11529000  0.09959000  0.68876000  1.0
  H  H3  1  0.07757000  0.92981000  0.92685000  1.0
  H  H4  1  0.92243000  0.07020000  0.07315000  1.0
  H  H5  1  0.23416000  0.07301000  0.87244000  1.0
  H  H6  1  0.76583000  0.92700000  0.12756000  1.0
  H  H7  1  0.84546000  0.42912000  0.74603000  1.0
  H  H8  1  0.15453000  0.57088000  0.25397000  1.0
  H  H9  1  0.55317000  0.27269000  0.18423000  1.0
  H  H10  1  0.44680000  0.72733000  0.81577000  1.0
  H  H11  1  0.68427000  0.57052000  0.20630000  1.0
  H  H12  1  0.31571000  0.42950000  0.79370000  1.0
  H  H13  1  0.82733000  0.73058000  0.04258000  1.0
  H  H14  1  0.17266000  0.26943000  0.95742000  1.0
  H  H15  1  0.72671000  0.29180000  0.86585000  1.0
  H  H16  1  0.27329000  0.70820000  0.13417000  1.0
  H  H17  1  0.99811000  0.56575000  0.59978000  1.0
  H  H18  1  0.00193000  0.43425000  0.40024000  1.0
  H  H19  1  0.03946000  0.74853000  0.67085000  1.0
  H  H20  1  0.96053000  0.25147000  0.32916000  1.0
  H  H21  1  0.68644000  0.71695000  0.62441000  1.0
  H  H22  1  0.31355000  0.28302000  0.37556000  1.0
  H  H23  1  0.80728000  0.71902000  0.50355000  1.0
  H  H24  1  0.19277000  0.28097000  0.49643000  1.0
  H  H25  1  0.53176000  0.41824000  0.60745000  1.0
  H  H26  1  0.46828000  0.58173000  0.39251000  1.0
  H  H27  1  0.65320000  0.42202000  0.48634000  1.0
  H  H28  1  0.34686000  0.57798000  0.51363000  1.0
  H  H29  1  0.16455000  0.96307000  0.55452000  1.0
  H  H30  1  0.83544000  0.03692000  0.44549000  1.0
  C  C31  1  0.62457000  0.34897000  0.11831000  1.0
  C  C32  1  0.37541000  0.65104000  0.88170000  1.0
  C  C33  1  0.69494000  0.51290000  0.12926000  1.0
  C  C34  1  0.30505000  0.48712000  0.87074000  1.0
  C  C35  1  0.77610000  0.60206000  0.03943000  1.0
  C  C36  1  0.22389000  0.39795000  0.96057000  1.0
  C  C37  1  0.78737000  0.52497000  0.94120000  1.0
  C  C38  1  0.21263000  0.47503000  0.05881000  1.0
  C  C39  1  0.71903000  0.36027000  0.93836000  1.0
  C  C40  1  0.28096000  0.63974000  0.06165000  1.0
  C  C41  1  0.86172000  0.62281000  0.84277000  1.0
  C  C42  1  0.13828000  0.37720000  0.15723000  1.0
  C  C43  1  0.92749000  0.63117000  0.64686000  1.0
  C  C44  1  0.07253000  0.36882000  0.35315000  1.0
  C  C45  1  0.75009000  0.64781000  0.57566000  1.0
  C  C46  1  0.24994000  0.35217000  0.42432000  1.0
  C  C47  1  0.58782000  0.49022000  0.53532000  1.0
  C  C48  1  0.41222000  0.50976000  0.46465000  1.0
  C  C49  1  0.44716000  0.06453000  0.73027000  1.0
  C  C50  1  0.55284000  0.93547000  0.26974000  1.0
  C  C51  1  0.47808000  0.03800000  0.61089000  1.0
  C  C52  1  0.52190000  0.96199000  0.38912000  1.0
  C  C53  1  0.31309000  0.98064000  0.53132000  1.0
  C  C54  1  0.68689000  0.01935000  0.46868000  1.0
  C  C55  1  0.33227000  0.94193000  0.42168000  1.0
  C  C56  1  0.66771000  0.05807000  0.57833000  1.0
  C  C57  1  0.14395000  0.87222000  0.34532000  1.0
  C  C58  1  0.85604000  0.12778000  0.65469000  1.0
  N  N59  1  0.63835000  0.27450000  0.02456000  1.0
  N  N60  1  0.36164000  0.72550000  0.97545000  1.0
  N  N61  1  0.86938000  0.54688000  0.74837000  1.0
  N  N62  1  0.13061000  0.45312000  0.25163000  1.0
  O  O63  1  0.54262000  0.01504000  0.80439000  1.0
  O  O64  1  0.45738000  0.98498000  0.19562000  1.0
  O  O65  1  0.32571000  0.13317000  0.74924000  1.0
  O  O66  1  0.67428000  0.86684000  0.25076000  1.0
  O  O67  1  0.10170000  0.75211000  0.28568000  1.0
  O  O68  1  0.89828000  0.24789000  0.71433000  1.0
  O  O69  1  0.02296000  0.95000000  0.35535000  1.0
  O  O70  1  0.97704000  0.04999000  0.64466000  1.0
  O  O71  1  0.90730000  0.76901000  0.84834000  1.0
  O  O72  1  0.09271000  0.23099000  0.15166000  1.0
  O  O73  1  0.19490000  0.02858000  0.94637000  1.0
  O  O74  1  0.80509000  0.97142000  0.05363000  1.0
