# generated using pymatgen
data_CdH17C23(NO3)2
_symmetry_space_group_name_H-M   'P 1'
_cell_length_a   7.26650000
_cell_length_b   10.48850000
_cell_length_c   14.39290000
_cell_angle_alpha   84.78800000
_cell_angle_beta   76.47710000
_cell_angle_gamma   77.32270000
_symmetry_Int_Tables_number   1
_chemical_formula_structural   CdH17C23(NO3)2
_chemical_formula_sum   'Cd2 H34 C46 N4 O12'
_cell_volume   1039.63489063
_cell_formula_units_Z   2
loop_
 _symmetry_equiv_pos_site_id
 _symmetry_equiv_pos_as_xyz
  1  'x, y, z'
loop_
 _atom_site_type_symbol
 _atom_site_label
 _atom_site_symmetry_multiplicity
 _atom_site_fract_x
 _atom_site_fract_y
 _atom_site_fract_z
 _atom_site_occupancy
  Cd  Cd0  1  0.11592000  0.05203000  0.05898000  1.0
  Cd  Cd1  1  0.88408000  0.94797000  0.94103000  1.0
  H  H2  1  0.45841000  0.16525000  0.08906000  1.0
  H  H3  1  0.54159000  0.83475000  0.91094000  1.0
  H  H4  1  0.41630000  0.30122000  0.95190000  1.0
  H  H5  1  0.58371000  0.69879000  0.04811000  1.0
  H  H6  1  0.81021000  0.48186000  0.05025000  1.0
  H  H7  1  0.18981000  0.51815000  0.94976000  1.0
  H  H8  1  0.60573000  0.14728000  0.39742000  1.0
  H  H9  1  0.39426000  0.85272000  0.60258000  1.0
  H  H10  1  0.45454000  0.30421000  0.40776000  1.0
  H  H11  1  0.54545000  0.69579000  0.59224000  1.0
  H  H12  1  0.18881000  0.08593000  0.66781000  1.0
  H  H13  1  0.81119000  0.91408000  0.33219000  1.0
  H  H14  1  0.56196000  0.21428000  0.81585000  1.0
  H  H15  1  0.43802000  0.78573000  0.18415000  1.0
  H  H16  1  0.59417000  0.22551000  0.21903000  1.0
  H  H17  1  0.40583000  0.77449000  0.78097000  1.0
  H  H18  1  0.65069000  0.26964000  0.50842000  1.0
  H  H19  1  0.34932000  0.73036000  0.49158000  1.0
  H  H20  1  0.04979000  0.38693000  0.55782000  1.0
  H  H21  1  0.95023000  0.61306000  0.44218000  1.0
  H  H22  1  0.11640000  0.10704000  0.42249000  1.0
  H  H23  1  0.88359000  0.89296000  0.57751000  1.0
  H  H24  1  0.99606000  0.05594000  0.28251000  1.0
  H  H25  1  0.00394000  0.94406000  0.71749000  1.0
  H  H26  1  0.29200000  0.52895000  0.51923000  1.0
  H  H27  1  0.70800000  0.47105000  0.48077000  1.0
  H  H28  1  0.15280000  0.65186000  0.79770000  1.0
  H  H29  1  0.84719000  0.34814000  0.20230000  1.0
  H  H30  1  0.87192000  0.26360000  0.77572000  1.0
  H  H31  1  0.12809000  0.73640000  0.22428000  1.0
  H  H32  1  0.67971000  0.40328000  0.78168000  1.0
  H  H33  1  0.32030000  0.59671000  0.21832000  1.0
  H  H34  1  0.90586000  0.51508000  0.84729000  1.0
  H  H35  1  0.09413000  0.48491000  0.15270000  1.0
  C  C36  1  0.38518000  0.15687000  0.16382000  1.0
  C  C37  1  0.61482000  0.84313000  0.83618000  1.0
  C  C38  1  0.62719000  0.37934000  0.00096000  1.0
  C  C39  1  0.37283000  0.62067000  0.99904000  1.0
  C  C40  1  0.45250000  0.38864000  0.97253000  1.0
  C  C41  1  0.54752000  0.61137000  0.02747000  1.0
  C  C42  1  0.76349000  0.24965000  0.00233000  1.0
  C  C43  1  0.23652000  0.75035000  0.99768000  1.0
  C  C44  1  0.36567000  0.14561000  0.75034000  1.0
  C  C45  1  0.63432000  0.85439000  0.24966000  1.0
  C  C46  1  0.67393000  0.49095000  0.02843000  1.0
  C  C47  1  0.32609000  0.50906000  0.97158000  1.0
  C  C48  1  0.45285000  0.19892000  0.40987000  1.0
  C  C49  1  0.54714000  0.80108000  0.59013000  1.0
  C  C50  1  0.31134000  0.13046000  0.66606000  1.0
  C  C51  1  0.68865000  0.86954000  0.33394000  1.0
  C  C52  1  0.61960000  0.25086000  0.66125000  1.0
  C  C53  1  0.38039000  0.74913000  0.33875000  1.0
  C  C54  1  0.95806000  0.43807000  0.70619000  1.0
  C  C55  1  0.04194000  0.56192000  0.29380000  1.0
  C  C56  1  0.41405000  0.17423000  0.57877000  1.0
  C  C57  1  0.58595000  0.82577000  0.42123000  1.0
  C  C58  1  0.52075000  0.20609000  0.74906000  1.0
  C  C59  1  0.47924000  0.79391000  0.25094000  1.0
  C  C60  1  0.45995000  0.18945000  0.23657000  1.0
  C  C61  1  0.54005000  0.81055000  0.76343000  1.0
  C  C62  1  0.56950000  0.23359000  0.57532000  1.0
  C  C63  1  0.43050000  0.76641000  0.42469000  1.0
  C  C64  1  0.36547000  0.17025000  0.33176000  1.0
  C  C65  1  0.63453000  0.82975000  0.66824000  1.0
  C  C66  1  0.25557000  0.09510000  0.84314000  1.0
  C  C67  1  0.74442000  0.90491000  0.15686000  1.0
  C  C68  1  0.06853000  0.44419000  0.61303000  1.0
  C  C69  1  0.93148000  0.55580000  0.38697000  1.0
  C  C70  1  0.19479000  0.12271000  0.34955000  1.0
  C  C71  1  0.80521000  0.87729000  0.65045000  1.0
  C  C72  1  0.12787000  0.09389000  0.27259000  1.0
  C  C73  1  0.87213000  0.90611000  0.72741000  1.0
  C  C74  1  0.20453000  0.52390000  0.59198000  1.0
  C  C75  1  0.79547000  0.47609000  0.40802000  1.0
  C  C76  1  0.12845000  0.59145000  0.74547000  1.0
  C  C77  1  0.87154000  0.40855000  0.25453000  1.0
  C  C78  1  0.81289000  0.35142000  0.73493000  1.0
  C  C79  1  0.18712000  0.64858000  0.26507000  1.0
  C  C80  1  0.98942000  0.51447000  0.77362000  1.0
  C  C81  1  0.01058000  0.48552000  0.22638000  1.0
  N  N82  1  0.22198000  0.10938000  0.18132000  1.0
  N  N83  1  0.77802000  0.89062000  0.81868000  1.0
  N  N84  1  0.23648000  0.59724000  0.65600000  1.0
  N  N85  1  0.76352000  0.40276000  0.34400000  1.0
  O  O86  1  0.12584000  0.03354000  0.83772000  1.0
  O  O87  1  0.87416000  0.96646000  0.16228000  1.0
  O  O88  1  0.73115000  0.15916000  0.95881000  1.0
  O  O89  1  0.26886000  0.84084000  0.04119000  1.0
  O  O90  1  0.30044000  0.11646000  0.92009000  1.0
  O  O91  1  0.69955000  0.88355000  0.07991000  1.0
  O  O92  1  0.34827000  0.15732000  0.49984000  1.0
  O  O93  1  0.65173000  0.84268000  0.50016000  1.0
  O  O94  1  0.89725000  0.24058000  0.04747000  1.0
  O  O95  1  0.10277000  0.75943000  0.95254000  1.0
  O  O96  1  0.76996000  0.31406000  0.65037000  1.0
  O  O97  1  0.23003000  0.68593000  0.34963000  1.0
