# generated using pymatgen
data_ZnH9C16N3O8
_symmetry_space_group_name_H-M   'P 1'
_cell_length_a   9.77227000
_cell_length_b   11.03860000
_cell_length_c   17.21820000
_cell_angle_alpha   86.32620000
_cell_angle_beta   81.09500000
_cell_angle_gamma   86.53710000
_symmetry_Int_Tables_number   1
_chemical_formula_structural   ZnH9C16N3O8
_chemical_formula_sum   'Zn2 H18 C32 N6 O16'
_cell_volume   1828.80371566
_cell_formula_units_Z   2
loop_
 _symmetry_equiv_pos_site_id
 _symmetry_equiv_pos_as_xyz
  1  'x, y, z'
loop_
 _atom_site_type_symbol
 _atom_site_label
 _atom_site_symmetry_multiplicity
 _atom_site_fract_x
 _atom_site_fract_y
 _atom_site_fract_z
 _atom_site_occupancy
  Zn  Zn0  1  0.36453000  0.51064000  0.50412000  1.0
  Zn  Zn1  1  0.65582000  0.49173000  0.49457000  1.0
  H  H2  1  0.37005000  0.68544000  0.26542000  1.0
  H  H3  1  0.76604000  0.48826000  0.23308000  1.0
  H  H4  1  0.67527000  0.59799000  0.97054000  1.0
  H  H5  1  0.28430000  0.69896000  0.87291000  1.0
  H  H6  1  0.28720000  0.63991000  0.73644000  1.0
  H  H7  1  0.35694000  0.62810000  0.00918000  1.0
  H  H8  1  0.63033000  0.44248000  0.89570000  1.0
  H  H9  1  0.71340000  0.87779000  0.43716000  1.0
  H  H10  1  0.71809000  0.10314000  0.43019000  1.0
  H  H11  1  0.25430000  0.12443000  0.63670000  1.0
  H  H12  1  0.17282000  0.13510000  0.54987000  1.0
  H  H13  1  0.16930000  0.90603000  0.55583000  1.0
  H  H14  1  0.92370000  0.43966000  0.38259000  1.0
  H  H15  1  0.17985000  0.45152000  0.38404000  1.0
  H  H16  1  0.08371000  0.50951000  0.68471000  1.0
  H  H17  1  0.07679000  0.66516000  0.64904000  1.0
  H  H18  1  0.82825000  0.50094000  0.68427000  1.0
  H  H19  1  0.81881000  0.65569000  0.64680000  1.0
  C  C20  1  0.50524000  0.73585000  0.50591000  1.0
  C  C21  1  0.46766000  0.48641000  0.65282000  1.0
  C  C22  1  0.51663000  0.26786000  0.49002000  1.0
  C  C23  1  0.54886000  0.54479000  0.34598000  1.0
  C  C24  1  0.45660000  0.50698000  0.73897000  1.0
  C  C25  1  0.55105000  0.45304000  0.78604000  1.0
  C  C26  1  0.55640000  0.48890000  0.86118000  1.0
  C  C27  1  0.46007000  0.57894000  0.89369000  1.0
  C  C28  1  0.36030000  0.62957000  0.84865000  1.0
  C  C29  1  0.36059000  0.59554000  0.77209000  1.0
  C  C30  1  0.47234000  0.67095000  0.14628000  1.0
  C  C31  1  0.45955000  0.64767000  0.22714000  1.0
  C  C32  1  0.68072000  0.53742000  0.20909000  1.0
  C  C33  1  0.68518000  0.55424000  0.12803000  1.0
  C  C34  1  0.57870000  0.61691000  0.09196000  1.0
  C  C35  1  0.45941000  0.61180000  0.97473000  1.0
  C  C36  1  0.57585000  0.61377000  0.00777000  1.0
  C  C37  1  0.56335000  0.57773000  0.25929000  1.0
  C  C38  1  0.39559000  0.94553000  0.53373000  1.0
  C  C39  1  0.50710000  0.87102000  0.50148000  1.0
  C  C40  1  0.62337000  0.93223000  0.46347000  1.0
  C  C41  1  0.62554000  0.05899000  0.45932000  1.0
  C  C42  1  0.51153000  0.13294000  0.49224000  1.0
  C  C43  1  0.39685000  0.07169000  0.52963000  1.0
  C  C44  1  0.25472000  0.08768000  0.57888000  1.0
  C  C45  1  0.25230000  0.94389000  0.58114000  1.0
  C  C46  1  0.91759000  0.52766000  0.55903000  1.0
  C  C47  1  0.96256000  0.46669000  0.43457000  1.0
  C  C48  1  0.10430000  0.47337000  0.43531000  1.0
  C  C49  1  0.05987000  0.53378000  0.55981000  1.0
  C  C50  1  0.04070000  0.57456000  0.64280000  1.0
  C  C51  1  0.87901000  0.56862000  0.64193000  1.0
  N  N52  1  0.86526000  0.49438000  0.49737000  1.0
  N  N53  1  0.15601000  0.50791000  0.49907000  1.0
  N  N54  1  0.64290000  0.34883000  0.75819000  1.0
  N  N55  1  0.80822000  0.49647000  0.08054000  1.0
  N  N56  1  0.24541000  0.88559000  0.66358000  1.0
  N  N57  1  0.36972000  0.76152000  0.11886000  1.0
  O  O58  1  0.38679000  0.69014000  0.52400000  1.0
  O  O59  1  0.62139000  0.67727000  0.49054000  1.0
  O  O60  1  0.35607000  0.47844000  0.62489000  1.0
  O  O61  1  0.59000000  0.48741000  0.61452000  1.0
  O  O62  1  0.40161000  0.32865000  0.48903000  1.0
  O  O63  1  0.63444000  0.31082000  0.49011000  1.0
  O  O64  1  0.42708000  0.55644000  0.38463000  1.0
  O  O65  1  0.65852000  0.50681000  0.37290000  1.0
  O  O66  1  0.76393000  0.34455000  0.77282000  1.0
  O  O67  1  0.59284000  0.27150000  0.72361000  1.0
  O  O68  1  0.79095000  0.43888000  0.02360000  1.0
  O  O69  1  0.92130000  0.50831000  0.10252000  1.0
  O  O70  1  0.13648000  0.83628000  0.69216000  1.0
  O  O71  1  0.34640000  0.89222000  0.69781000  1.0
  O  O72  1  0.24615000  0.75005000  0.14702000  1.0
  O  O73  1  0.41545000  0.84464000  0.07232000  1.0
