# generated using pymatgen
data_Co9H32C44(N9O10)2
_symmetry_space_group_name_H-M   'P 1'
_cell_length_a   10.96610000
_cell_length_b   10.96630000
_cell_length_c   32.05760000
_cell_angle_alpha   85.21680000
_cell_angle_beta   85.21350000
_cell_angle_gamma   81.64390000
_symmetry_Int_Tables_number   1
_chemical_formula_structural   Co9H32C44(N9O10)2
_chemical_formula_sum   'Co18 H64 C88 N36 O40'
_cell_volume   3790.99893033
_cell_formula_units_Z   2
loop_
 _symmetry_equiv_pos_site_id
 _symmetry_equiv_pos_as_xyz
  1  'x, y, z'
loop_
 _atom_site_type_symbol
 _atom_site_label
 _atom_site_symmetry_multiplicity
 _atom_site_fract_x
 _atom_site_fract_y
 _atom_site_fract_z
 _atom_site_occupancy
  Co  Co0  1  0.93336000  0.06663000  0.25001000  1.0
  Co  Co1  1  0.06659000  0.93341000  0.74999000  1.0
  Co  Co2  1  0.08517000  0.89800000  0.41753000  1.0
  Co  Co3  1  0.10202000  0.91485000  0.08247000  1.0
  Co  Co4  1  0.91484000  0.10196000  0.58246000  1.0
  Co  Co5  1  0.89801000  0.08516000  0.91754000  1.0
  Co  Co6  1  0.15606000  0.99718000  0.50163000  1.0
  Co  Co7  1  0.00283000  0.84396000  0.99836000  1.0
  Co  Co8  1  0.84397000  0.00278000  0.49834000  1.0
  Co  Co9  1  0.99719000  0.15604000  0.00166000  1.0
  Co  Co10  1  0.03313000  0.13699000  0.33144000  1.0
  Co  Co11  1  0.86302000  0.96679000  0.16858000  1.0
  Co  Co12  1  0.96683000  0.86303000  0.66856000  1.0
  Co  Co13  1  0.13695000  0.03324000  0.83143000  1.0
  Co  Co14  1  0.98628000  0.82686000  0.33677000  1.0
  Co  Co15  1  0.17311000  0.01376000  0.16325000  1.0
  Co  Co16  1  0.01377000  0.17311000  0.66322000  1.0
  Co  Co17  1  0.82690000  0.98624000  0.83676000  1.0
  H  H18  1  0.87119000  0.64250000  0.16196000  1.0
  H  H19  1  0.35747000  0.12882000  0.33806000  1.0
  H  H20  1  0.12879000  0.35750000  0.83804000  1.0
  H  H21  1  0.64246000  0.87117000  0.66194000  1.0
  H  H22  1  0.88817000  0.42385000  0.19353000  1.0
  H  H23  1  0.57613000  0.11182000  0.30650000  1.0
  H  H24  1  0.11181000  0.57616000  0.80648000  1.0
  H  H25  1  0.42381000  0.88816000  0.69352000  1.0
  H  H26  1  0.96158000  0.53643000  0.31385000  1.0
  H  H27  1  0.46355000  0.03837000  0.18618000  1.0
  H  H28  1  0.03842000  0.46362000  0.68615000  1.0
  H  H29  1  0.53641000  0.96158000  0.81383000  1.0
  H  H30  1  0.15714000  0.31939000  0.50531000  1.0
  H  H31  1  0.68067000  0.84282000  0.99470000  1.0
  H  H32  1  0.84289000  0.68058000  0.49468000  1.0
  H  H33  1  0.31937000  0.15714000  0.00532000  1.0
  H  H34  1  0.12613000  0.53969000  0.47532000  1.0
  H  H35  1  0.46035000  0.87388000  0.02468000  1.0
  H  H36  1  0.87392000  0.46027000  0.52467000  1.0
  H  H37  1  0.53968000  0.12610000  0.97533000  1.0
  H  H38  1  0.05400000  0.42849000  0.35473000  1.0
  H  H39  1  0.57152000  0.94607000  0.14527000  1.0
  H  H40  1  0.94600000  0.57148000  0.64526000  1.0
  H  H41  1  0.42851000  0.05395000  0.85475000  1.0
  H  H42  1  0.44242000  0.82890000  0.36528000  1.0
  H  H43  1  0.17109000  0.55763000  0.13470000  1.0
  H  H44  1  0.55759000  0.17115000  0.63467000  1.0
  H  H45  1  0.82890000  0.44238000  0.86533000  1.0
  H  H46  1  0.55288000  0.94158000  0.48074000  1.0
  H  H47  1  0.05840000  0.44709000  0.01926000  1.0
  H  H48  1  0.44714000  0.05841000  0.51923000  1.0
  H  H49  1  0.94161000  0.55292000  0.98076000  1.0
  H  H50  1  0.65968000  0.81341000  0.33263000  1.0
  H  H51  1  0.18660000  0.34040000  0.16737000  1.0
  H  H52  1  0.34034000  0.18662000  0.66733000  1.0
  H  H53  1  0.81341000  0.65962000  0.83266000  1.0
  H  H54  1  0.04359000  0.81465000  0.49158000  1.0
  H  H55  1  0.18535000  0.95646000  0.00843000  1.0
  H  H56  1  0.95639000  0.18536000  0.50843000  1.0
  H  H57  1  0.81467000  0.04356000  0.99158000  1.0
  H  H58  1  0.82649000  0.06192000  0.32070000  1.0
  H  H59  1  0.93805000  0.17343000  0.17931000  1.0
  H  H60  1  0.17349000  0.93809000  0.67931000  1.0
  H  H61  1  0.06192000  0.82660000  0.82068000  1.0
  H  H62  1  0.19429000  0.89927000  0.34655000  1.0
  H  H63  1  0.10075000  0.80568000  0.15345000  1.0
  H  H64  1  0.80571000  0.10070000  0.65345000  1.0
  H  H65  1  0.89927000  0.19432000  0.84656000  1.0
  H  H66  1  0.22747000  0.83704000  0.57226000  1.0
  H  H67  1  0.16296000  0.77260000  0.92773000  1.0
  H  H68  1  0.77242000  0.16296000  0.42772000  1.0
  H  H69  1  0.83703000  0.22747000  0.07228000  1.0
  H  H70  1  0.24995000  0.62151000  0.56173000  1.0
  H  H71  1  0.37848000  0.75011000  0.93827000  1.0
  H  H72  1  0.75007000  0.37851000  0.43822000  1.0
  H  H73  1  0.62151000  0.24991000  0.06174000  1.0
  H  H74  1  0.19789000  0.67149000  0.51090000  1.0
  H  H75  1  0.32848000  0.80215000  0.98911000  1.0
  H  H76  1  0.80217000  0.32852000  0.48905000  1.0
  H  H77  1  0.67153000  0.19786000  0.01091000  1.0
  H  H78  1  0.34244000  0.70748000  0.52395000  1.0
  H  H79  1  0.29250000  0.65760000  0.97605000  1.0
  H  H80  1  0.65757000  0.29259000  0.47603000  1.0
  H  H81  1  0.70748000  0.34242000  0.02396000  1.0
  C  C82  1  0.93446000  0.68059000  0.26357000  1.0
  C  C83  1  0.31938000  0.06551000  0.23647000  1.0
  C  C84  1  0.06555000  0.31943000  0.73643000  1.0
  C  C85  1  0.68056000  0.93447000  0.76354000  1.0
  C  C86  1  0.90710000  0.71034000  0.22112000  1.0
  C  C87  1  0.28961000  0.09289000  0.27891000  1.0
  C  C88  1  0.09290000  0.28967000  0.77887000  1.0
  C  C89  1  0.71033000  0.90710000  0.72110000  1.0
  C  C90  1  0.88988000  0.61907000  0.19475000  1.0
  C  C91  1  0.38089000  0.11009000  0.30528000  1.0
  C  C92  1  0.11010000  0.38094000  0.80525000  1.0
  C  C93  1  0.61906000  0.88988000  0.69473000  1.0
  C  C94  1  0.89945000  0.49900000  0.21235000  1.0
  C  C95  1  0.50098000  0.10052000  0.28768000  1.0
  C  C96  1  0.10053000  0.50102000  0.78765000  1.0
  C  C97  1  0.49897000  0.89945000  0.71234000  1.0
  C  C98  1  0.92471000  0.46832000  0.25512000  1.0
  C  C99  1  0.53166000  0.07525000  0.24491000  1.0
  C  C100  1  0.07528000  0.53170000  0.74489000  1.0
  C  C101  1  0.46829000  0.92472000  0.75510000  1.0
  C  C102  1  0.94214000  0.55875000  0.28122000  1.0
  C  C103  1  0.44123000  0.05782000  0.21882000  1.0
  C  C104  1  0.05786000  0.44127000  0.71879000  1.0
  C  C105  1  0.55873000  0.94214000  0.78120000  1.0
  C  C106  1  0.93546000  0.33532000  0.27137000  1.0
  C  C107  1  0.66466000  0.06447000  0.22866000  1.0
  C  C108  1  0.06449000  0.66471000  0.72864000  1.0
  C  C109  1  0.33528000  0.93552000  0.77135000  1.0
  C  C110  1  0.09031000  0.28273000  0.40396000  1.0
  C  C111  1  0.71728000  0.90969000  0.09605000  1.0
  C  C112  1  0.90971000  0.71722000  0.59603000  1.0
  C  C113  1  0.28274000  0.09031000  0.90397000  1.0
  C  C114  1  0.12171000  0.25208000  0.44597000  1.0
  C  C115  1  0.74795000  0.87827000  0.05404000  1.0
  C  C116  1  0.87831000  0.74788000  0.55402000  1.0
  C  C117  1  0.25208000  0.12171000  0.94598000  1.0
  C  C118  1  0.13554000  0.34340000  0.47282000  1.0
  C  C119  1  0.65663000  0.86445000  0.02719000  1.0
  C  C120  1  0.86450000  0.65656000  0.52717000  1.0
  C  C121  1  0.34341000  0.13553000  0.97283000  1.0
  C  C122  1  0.11855000  0.46442000  0.45607000  1.0
  C  C123  1  0.53560000  0.88146000  0.04394000  1.0
  C  C124  1  0.88148000  0.53554000  0.54392000  1.0
  C  C125  1  0.46443000  0.11853000  0.95609000  1.0
  C  C126  1  0.09019000  0.49596000  0.41365000  1.0
  C  C127  1  0.50407000  0.90985000  0.08636000  1.0
  C  C128  1  0.90983000  0.50402000  0.58634000  1.0
  C  C129  1  0.49596000  0.09015000  0.91366000  1.0
  C  C130  1  0.07596000  0.40546000  0.38710000  1.0
  C  C131  1  0.59455000  0.92408000  0.11290000  1.0
  C  C132  1  0.92405000  0.59451000  0.61289000  1.0
  C  C133  1  0.40546000  0.07593000  0.88711000  1.0
  C  C134  1  0.07458000  0.62944000  0.39800000  1.0
  C  C135  1  0.37057000  0.92546000  0.10200000  1.0
  C  C136  1  0.92544000  0.37053000  0.60199000  1.0
  C  C137  1  0.62947000  0.07453000  0.89802000  1.0
  C  C138  1  0.72722000  0.86881000  0.38926000  1.0
  C  C139  1  0.13118000  0.27282000  0.11074000  1.0
  C  C140  1  0.27281000  0.13118000  0.61070000  1.0
  C  C141  1  0.86884000  0.72719000  0.88928000  1.0
  C  C142  1  0.69711000  0.90663000  0.43066000  1.0
  C  C143  1  0.09336000  0.30291000  0.06934000  1.0
  C  C144  1  0.30291000  0.09336000  0.56931000  1.0
  C  C145  1  0.90666000  0.69710000  0.93068000  1.0
  C  C146  1  0.51701000  0.84924000  0.38278000  1.0
  C  C147  1  0.15075000  0.48304000  0.11720000  1.0
  C  C148  1  0.48301000  0.15080000  0.61717000  1.0
  C  C149  1  0.84925000  0.51698000  0.88282000  1.0
  C  C150  1  0.48607000  0.88513000  0.42449000  1.0
  C  C151  1  0.11486000  0.51395000  0.07549000  1.0
  C  C152  1  0.51394000  0.11489000  0.57546000  1.0
  C  C153  1  0.88515000  0.48606000  0.92453000  1.0
  C  C154  1  0.57578000  0.91407000  0.44891000  1.0
  C  C155  1  0.08591000  0.42423000  0.05108000  1.0
  C  C156  1  0.42425000  0.08593000  0.55105000  1.0
  C  C157  1  0.91410000  0.57578000  0.94894000  1.0
  C  C158  1  0.63647000  0.84020000  0.36461000  1.0
  C  C159  1  0.15980000  0.36360000  0.13538000  1.0
  C  C160  1  0.36356000  0.15983000  0.63535000  1.0
  C  C161  1  0.84021000  0.63642000  0.86464000  1.0
  C  C162  1  0.35360000  0.89383000  0.44146000  1.0
  C  C163  1  0.10616000  0.64640000  0.05852000  1.0
  C  C164  1  0.64641000  0.10616000  0.55850000  1.0
  C  C165  1  0.89385000  0.35360000  0.94149000  1.0
  C  C166  1  0.24806000  0.69602000  0.53648000  1.0
  C  C167  1  0.30395000  0.75199000  0.96353000  1.0
  C  C168  1  0.75196000  0.30400000  0.46348000  1.0
  C  C169  1  0.69604000  0.24803000  0.03649000  1.0
  N  N170  1  0.94902000  0.78958000  0.27991000  1.0
  N  N171  1  0.21040000  0.05098000  0.22012000  1.0
  N  N172  1  0.05099000  0.21045000  0.72008000  1.0
  N  N173  1  0.78956000  0.94902000  0.77989000  1.0
  N  N174  1  0.93137000  0.87863000  0.24901000  1.0
  N  N175  1  0.12134000  0.06865000  0.25101000  1.0
  N  N176  1  0.06862000  0.12140000  0.75098000  1.0
  N  N177  1  0.87861000  0.93138000  0.74899000  1.0
  N  N178  1  0.90486000  0.83495000  0.21387000  1.0
  N  N179  1  0.16500000  0.09515000  0.28616000  1.0
  N  N180  1  0.09512000  0.16507000  0.78613000  1.0
  N  N181  1  0.83494000  0.90487000  0.71384000  1.0
  N  N182  1  0.07910000  0.17346000  0.38725000  1.0
  N  N183  1  0.82656000  0.92089000  0.11275000  1.0
  N  N184  1  0.92090000  0.82650000  0.61273000  1.0
  N  N185  1  0.17346000  0.07912000  0.88726000  1.0
  N  N186  1  0.10242000  0.08363000  0.41756000  1.0
  N  N187  1  0.91641000  0.89757000  0.08244000  1.0
  N  N188  1  0.89759000  0.91634000  0.58242000  1.0
  N  N189  1  0.08361000  0.10244000  0.91757000  1.0
  N  N190  1  0.12955000  0.12682000  0.45266000  1.0
  N  N191  1  0.87320000  0.87043000  0.04736000  1.0
  N  N192  1  0.87046000  0.87313000  0.54734000  1.0
  N  N193  1  0.12682000  0.12956000  0.95266000  1.0
  N  N194  1  0.85101000  0.87045000  0.38111000  1.0
  N  N195  1  0.12953000  0.14903000  0.11890000  1.0
  N  N196  1  0.14902000  0.12953000  0.61887000  1.0
  N  N197  1  0.87049000  0.85099000  0.88112000  1.0
  N  N198  1  0.89387000  0.90840000  0.41477000  1.0
  N  N199  1  0.09158000  0.10616000  0.08524000  1.0
  N  N200  1  0.10616000  0.09156000  0.58521000  1.0
  N  N201  1  0.90844000  0.89386000  0.91478000  1.0
  N  N202  1  0.80500000  0.93052000  0.44546000  1.0
  N  N203  1  0.06946000  0.19501000  0.05455000  1.0
  N  N204  1  0.19502000  0.06944000  0.55452000  1.0
  N  N205  1  0.93056000  0.80500000  0.94547000  1.0
  O  O206  1  0.91468000  0.03809000  0.31428000  1.0
  O  O207  1  0.96191000  0.08525000  0.18574000  1.0
  O  O208  1  0.08529000  0.96194000  0.68571000  1.0
  O  O209  1  0.03805000  0.91478000  0.81426000  1.0
  O  O210  1  0.10664000  0.92432000  0.35363000  1.0
  O  O211  1  0.07569000  0.89334000  0.14638000  1.0
  O  O212  1  0.89337000  0.07565000  0.64637000  1.0
  O  O213  1  0.92432000  0.10666000  0.85363000  1.0
  O  O214  1  0.04322000  0.89927000  0.47974000  1.0
  O  O215  1  0.10072000  0.95680000  0.02026000  1.0
  O  O216  1  0.95676000  0.10070000  0.52024000  1.0
  O  O217  1  0.89930000  0.04322000  0.97975000  1.0
  O  O218  1  0.96625000  0.30793000  0.30923000  1.0
  O  O219  1  0.69208000  0.03365000  0.19081000  1.0
  O  O220  1  0.03371000  0.69209000  0.69078000  1.0
  O  O221  1  0.30788000  0.96634000  0.80921000  1.0
  O  O222  1  0.91435000  0.25843000  0.24629000  1.0
  O  O223  1  0.74156000  0.08562000  0.25374000  1.0
  O  O224  1  0.08559000  0.74162000  0.75371000  1.0
  O  O225  1  0.25838000  0.91440000  0.74628000  1.0
  O  O226  1  0.04826000  0.65600000  0.35966000  1.0
  O  O227  1  0.34399000  0.95180000  0.14034000  1.0
  O  O228  1  0.95177000  0.34396000  0.64033000  1.0
  O  O229  1  0.65604000  0.04819000  0.85967000  1.0
  O  O230  1  0.08829000  0.70739000  0.42380000  1.0
  O  O231  1  0.29265000  0.91174000  0.07620000  1.0
  O  O232  1  0.91172000  0.29259000  0.57619000  1.0
  O  O233  1  0.70740000  0.08825000  0.92382000  1.0
  O  O234  1  0.32703000  0.93005000  0.47864000  1.0
  O  O235  1  0.06994000  0.67298000  0.02134000  1.0
  O  O236  1  0.67300000  0.06994000  0.52132000  1.0
  O  O237  1  0.93009000  0.32702000  0.97868000  1.0
  O  O238  1  0.27704000  0.86438000  0.41773000  1.0
  O  O239  1  0.13562000  0.72296000  0.08225000  1.0
  O  O240  1  0.72296000  0.13558000  0.58223000  1.0
  O  O241  1  0.86439000  0.27702000  0.91778000  1.0
  O  O242  1  0.18168000  0.80962000  0.55093000  1.0
  O  O243  1  0.19036000  0.81836000  0.94907000  1.0
  O  O244  1  0.81827000  0.19038000  0.44903000  1.0
  O  O245  1  0.80963000  0.18169000  0.05095000  1.0
