# generated using pymatgen
data_AlC27N7(Cl2O)6
_symmetry_space_group_name_H-M   'P 1'
_cell_length_a   4.13883000
_cell_length_b   18.13210000
_cell_length_c   18.23440000
_cell_angle_alpha   119.76900000
_cell_angle_beta   91.31120000
_cell_angle_gamma   90.07280000
_symmetry_Int_Tables_number   1
_chemical_formula_structural   AlC27N7(Cl2O)6
_chemical_formula_sum   'Al1 C27 N7 Cl12 O6'
_cell_volume   1187.39240877
_cell_formula_units_Z   1
loop_
 _symmetry_equiv_pos_site_id
 _symmetry_equiv_pos_as_xyz
  1  'x, y, z'
loop_
 _atom_site_type_symbol
 _atom_site_label
 _atom_site_symmetry_multiplicity
 _atom_site_fract_x
 _atom_site_fract_y
 _atom_site_fract_z
 _atom_site_occupancy
  Al  Al0  1  0.01147000  0.00084000  0.50007000  1.0
  C  C1  1  0.50617000  0.06505000  0.43478000  1.0
  C  C2  1  0.52478000  0.06470000  0.62867000  1.0
  C  C3  1  0.50371000  0.87147000  0.43585000  1.0
  C  C4  1  0.36814000  0.23731000  0.37555000  1.0
  C  C5  1  0.50885000  0.20140000  0.29468000  1.0
  C  C6  1  0.37973000  0.12028000  0.85638000  1.0
  C  C7  1  0.52332000  0.20268000  0.90323000  1.0
  C  C8  1  0.51121000  0.59552000  0.29527000  1.0
  C  C9  1  0.35825000  0.64206000  0.26079000  1.0
  C  C10  1  0.67047000  0.23842000  0.85808000  1.0
  C  C11  1  0.66191000  0.19400000  0.76912000  1.0
  C  C12  1  0.52901000  0.11204000  0.72416000  1.0
  C  C13  1  0.39542000  0.07457000  0.76769000  1.0
  C  C14  1  0.36504000  0.73148000  0.30604000  1.0
  C  C15  1  0.50209000  0.77549000  0.38756000  1.0
  C  C16  1  0.64273000  0.73056000  0.42365000  1.0
  C  C17  1  0.65979000  0.64136000  0.37712000  1.0
  C  C18  1  0.64700000  0.11944000  0.26055000  1.0
  C  C19  1  0.63214000  0.07434000  0.30485000  1.0
  C  C20  1  0.50565000  0.11206000  0.38572000  1.0
  C  C21  1  0.37957000  0.19376000  0.42144000  1.0
  C  C22  1  0.51357000  0.37743000  0.25261000  1.0
  C  C23  1  0.51678000  0.24403000  0.11962000  1.0
  C  C24  1  0.51204000  0.24866000  0.24732000  1.0
  C  C25  1  0.51242000  0.50095000  0.24748000  1.0
  C  C26  1  0.51560000  0.37826000  0.11960000  1.0
  C  C27  1  0.52108000  0.25000000  0.99724000  1.0
  N  N28  1  0.51514000  0.33326000  0.16392000  1.0
  N  N29  1  0.48958000  0.20261000  0.16259000  1.0
  N  N30  1  0.53733000  0.33373000  0.29347000  1.0
  N  N31  1  0.48837000  0.46175000  0.29325000  1.0
  N  N32  1  0.53691000  0.46290000  0.16313000  1.0
  N  N33  1  0.54519000  0.20354000  0.03596000  1.0
  N  N34  1  0.49480000  0.33489000  0.03540000  1.0
  Cl  Cl35  1  0.77035000  0.97232000  0.26107000  1.0
  Cl  Cl36  1  0.85147000  0.07279000  0.16796000  1.0
  Cl  Cl37  1  0.23724000  0.23947000  0.52216000  1.0
  Cl  Cl38  1  0.16456000  0.33123000  0.41989000  1.0
  Cl  Cl39  1  0.87959000  0.59304000  0.42172000  1.0
  Cl  Cl40  1  0.79524000  0.78636000  0.52540000  1.0
  Cl  Cl41  1  0.14565000  0.59395000  0.16654000  1.0
  Cl  Cl42  1  0.20464000  0.78874000  0.26247000  1.0
  Cl  Cl43  1  0.16718000  0.07393000  0.90272000  1.0
  Cl  Cl44  1  0.24960000  0.97217000  0.71073000  1.0
  Cl  Cl45  1  0.87809000  0.33329000  0.90722000  1.0
  Cl  Cl46  1  0.81542000  0.23905000  0.71357000  1.0
  O  O47  1  0.27125000  0.90708000  0.48466000  1.0
  O  O48  1  0.26627000  0.01633000  0.42221000  1.0
  O  O49  1  0.28576000  0.07815000  0.59239000  1.0
  O  O50  1  0.73879000  0.90806000  0.42296000  1.0
  O  O51  1  0.75922000  0.01596000  0.59319000  1.0
  O  O52  1  0.74665000  0.07862000  0.48439000  1.0
