# generated using pymatgen
data_ZnH6C6N5O2
_symmetry_space_group_name_H-M   'P 1'
_cell_length_a   13.15460000
_cell_length_b   13.15710000
_cell_length_c   16.34488906
_cell_angle_alpha   113.72396681
_cell_angle_beta   113.71744665
_cell_angle_gamma   90.02690000
_symmetry_Int_Tables_number   1
_chemical_formula_structural   ZnH6C6N5O2
_chemical_formula_sum   'Zn8 H48 C48 N40 O16'
_cell_volume   2326.24082358
_cell_formula_units_Z   8
loop_
 _symmetry_equiv_pos_site_id
 _symmetry_equiv_pos_as_xyz
  1  'x, y, z'
loop_
 _atom_site_type_symbol
 _atom_site_label
 _atom_site_symmetry_multiplicity
 _atom_site_fract_x
 _atom_site_fract_y
 _atom_site_fract_z
 _atom_site_occupancy
  Zn  Zn0  1  0.08184000  0.97734000  0.60821000  1.0
  Zn  Zn1  1  0.52640000  0.63103000  0.60809000  1.0
  Zn  Zn2  1  0.63091000  0.08206000  0.60822000  1.0
  Zn  Zn3  1  0.97719000  0.52629000  0.60812000  1.0
  Zn  Zn4  1  0.91816000  0.02267000  0.39179000  1.0
  Zn  Zn5  1  0.47360000  0.36897000  0.39191000  1.0
  Zn  Zn6  1  0.36909000  0.91794000  0.39178000  1.0
  Zn  Zn7  1  0.02281000  0.47372000  0.39188000  1.0
  H  H8  1  0.41594000  0.20581000  0.83944000  1.0
  H  H9  1  0.42323000  0.63382000  0.83907000  1.0
  H  H10  1  0.63354000  0.41603000  0.83945000  1.0
  H  H11  1  0.20545000  0.42344000  0.83909000  1.0
  H  H12  1  0.58405000  0.79420000  0.16056000  1.0
  H  H13  1  0.57677000  0.36618000  0.16093000  1.0
  H  H14  1  0.36647000  0.58397000  0.16055000  1.0
  H  H15  1  0.79455000  0.57655000  0.16090000  1.0
  H  H16  1  0.58001000  0.33074000  0.00028000  1.0
  H  H17  1  0.41998000  0.66925000  0.99971000  1.0
  H  H18  1  0.66931000  0.57986000  0.00021000  1.0
  H  H19  1  0.33069000  0.42014000  0.99978000  1.0
  H  H20  1  0.24680000  0.15284000  0.00006000  1.0
  H  H21  1  0.75319000  0.84716000  0.99994000  1.0
  H  H22  1  0.84725000  0.24691000  0.99993000  1.0
  H  H23  1  0.15275000  0.75307000  0.00006000  1.0
  H  H24  1  0.98081000  0.65834000  0.33710000  1.0
  H  H25  1  0.35627000  0.67904000  0.33738000  1.0
  H  H26  1  0.67886000  0.98115000  0.33727000  1.0
  H  H27  1  0.65819000  0.35615000  0.33718000  1.0
  H  H28  1  0.01919000  0.34167000  0.66290000  1.0
  H  H29  1  0.64373000  0.32096000  0.66262000  1.0
  H  H30  1  0.32114000  0.01887000  0.66274000  1.0
  H  H31  1  0.34181000  0.64385000  0.66283000  1.0
  H  H32  1  0.01686000  0.80653000  0.40024000  1.0
  H  H33  1  0.38341000  0.59403000  0.40049000  1.0
  H  H34  1  0.59389000  0.01714000  0.40039000  1.0
  H  H35  1  0.80639000  0.38324000  0.40031000  1.0
  H  H36  1  0.98315000  0.19347000  0.59976000  1.0
  H  H37  1  0.61659000  0.40597000  0.59951000  1.0
  H  H38  1  0.40611000  0.98286000  0.59961000  1.0
  H  H39  1  0.19362000  0.61676000  0.59970000  1.0
  H  H40  1  0.07484000  0.77824000  0.77075000  1.0
  H  H41  1  0.69626000  0.99273000  0.77090000  1.0
  H  H42  1  0.99245000  0.07474000  0.77075000  1.0
  H  H43  1  0.77820000  0.69588000  0.77074000  1.0
  H  H44  1  0.92516000  0.22177000  0.22925000  1.0
  H  H45  1  0.30375000  0.00726000  0.22910000  1.0
  H  H46  1  0.00755000  0.92527000  0.22925000  1.0
  H  H47  1  0.22180000  0.30411000  0.22926000  1.0
  H  H48  1  0.09434000  0.90805000  0.76417000  1.0
  H  H49  1  0.67018000  0.85627000  0.76427000  1.0
  H  H50  1  0.85612000  0.09455000  0.76424000  1.0
  H  H51  1  0.90806000  0.66979000  0.76421000  1.0
  H  H52  1  0.90565000  0.09195000  0.23583000  1.0
  H  H53  1  0.32982000  0.14372000  0.23572000  1.0
  H  H54  1  0.14389000  0.90546000  0.23576000  1.0
  H  H55  1  0.09194000  0.33020000  0.23579000  1.0
  C  C56  1  0.22013000  0.09533000  0.81575000  1.0
  C  C57  1  0.59552000  0.72070000  0.81555000  1.0
  C  C58  1  0.72039000  0.22039000  0.81560000  1.0
  C  C59  1  0.09492000  0.59555000  0.81569000  1.0
  C  C60  1  0.77986000  0.90467000  0.18425000  1.0
  C  C61  1  0.40448000  0.27931000  0.18446000  1.0
  C  C62  1  0.27962000  0.77960000  0.18440000  1.0
  C  C63  1  0.90508000  0.40445000  0.18431000  1.0
  C  C64  1  0.32118000  0.17088000  0.90970000  1.0
  C  C65  1  0.58839000  0.73887000  0.90940000  1.0
  C  C66  1  0.73882000  0.32128000  0.90961000  1.0
  C  C67  1  0.17061000  0.58842000  0.90952000  1.0
  C  C68  1  0.67881000  0.82912000  0.09030000  1.0
  C  C69  1  0.41161000  0.26113000  0.09060000  1.0
  C  C70  1  0.26118000  0.67871000  0.09039000  1.0
  C  C71  1  0.82940000  0.41158000  0.09048000  1.0
  C  C72  1  0.41546000  0.22126000  0.91002000  1.0
  C  C73  1  0.49433000  0.68885000  0.90965000  1.0
  C  C74  1  0.68874000  0.41552000  0.90998000  1.0
  C  C75  1  0.22099000  0.49445000  0.90971000  1.0
  C  C76  1  0.58454000  0.77873000  0.08998000  1.0
  C  C77  1  0.50567000  0.31115000  0.09035000  1.0
  C  C78  1  0.31126000  0.58448000  0.09002000  1.0
  C  C79  1  0.77902000  0.50555000  0.09029000  1.0
  C  C80  1  0.50718000  0.29122000  0.00021000  1.0
  C  C81  1  0.49282000  0.70878000  0.99979000  1.0
  C  C82  1  0.70883000  0.50709000  0.00017000  1.0
  C  C83  1  0.29118000  0.49290000  0.99982000  1.0
  C  C84  1  0.31997000  0.19154000  0.00013000  1.0
  C  C85  1  0.68003000  0.80846000  0.99987000  1.0
  C  C86  1  0.80860000  0.32002000  0.99999000  1.0
  C  C87  1  0.19140000  0.67997000  0.00000000  1.0
  C  C88  1  0.02585000  0.72197000  0.48474000  1.0
  C  C89  1  0.45890000  0.76306000  0.48499000  1.0
  C  C90  1  0.76294000  0.02637000  0.48491000  1.0
  C  C91  1  0.72184000  0.45872000  0.48480000  1.0
  C  C92  1  0.97415000  0.27804000  0.51526000  1.0
  C  C93  1  0.54110000  0.23694000  0.51501000  1.0
  C  C94  1  0.23706000  0.97365000  0.51509000  1.0
  C  C95  1  0.27816000  0.54128000  0.51521000  1.0
  C  C96  1  0.05603000  0.76303000  0.63601000  1.0
  C  C97  1  0.58029000  0.87321000  0.63618000  1.0
  C  C98  1  0.87303000  0.05622000  0.63609000  1.0
  C  C99  1  0.76301000  0.57994000  0.63605000  1.0
  C  C100  1  0.94397000  0.23697000  0.36399000  1.0
  C  C101  1  0.41971000  0.12679000  0.36382000  1.0
  C  C102  1  0.12697000  0.94379000  0.36391000  1.0
  C  C103  1  0.23699000  0.42005000  0.36395000  1.0
  N  N104  1  0.01312000  0.62298000  0.48792000  1.0
  N  N105  1  0.47486000  0.86517000  0.48813000  1.0
  N  N106  1  0.86502000  0.01339000  0.48802000  1.0
  N  N107  1  0.62289000  0.47470000  0.48799000  1.0
  N  N108  1  0.98688000  0.37702000  0.51208000  1.0
  N  N109  1  0.52514000  0.13483000  0.51187000  1.0
  N  N110  1  0.13498000  0.98662000  0.51198000  1.0
  N  N111  1  0.37711000  0.52529000  0.51201000  1.0
  N  N112  1  0.03513000  0.64909000  0.58710000  1.0
  N  N113  1  0.55220000  0.93821000  0.58725000  1.0
  N  N114  1  0.93804000  0.03521000  0.58715000  1.0
  N  N115  1  0.64905000  0.55196000  0.58715000  1.0
  N  N116  1  0.96486000  0.35092000  0.41290000  1.0
  N  N117  1  0.44780000  0.06179000  0.41275000  1.0
  N  N118  1  0.06196000  0.96481000  0.41285000  1.0
  N  N119  1  0.35095000  0.44804000  0.41286000  1.0
  N  N120  1  0.05276000  0.81163000  0.57511000  1.0
  N  N121  1  0.52253000  0.76374000  0.57530000  1.0
  N  N122  1  0.76361000  0.05322000  0.57525000  1.0
  N  N123  1  0.81154000  0.52222000  0.57514000  1.0
  N  N124  1  0.94724000  0.18837000  0.42489000  1.0
  N  N125  1  0.47747000  0.23626000  0.42470000  1.0
  N  N126  1  0.23640000  0.94679000  0.42475000  1.0
  N  N127  1  0.18846000  0.47778000  0.42487000  1.0
  N  N128  1  0.01597000  0.73031000  0.40234000  1.0
  N  N129  1  0.38612000  0.67237000  0.40265000  1.0
  N  N130  1  0.67226000  0.01678000  0.40256000  1.0
  N  N131  1  0.73017000  0.38607000  0.40243000  1.0
  N  N132  1  0.98403000  0.26969000  0.59766000  1.0
  N  N133  1  0.61388000  0.32763000  0.59735000  1.0
  N  N134  1  0.32775000  0.98325000  0.59745000  1.0
  N  N135  1  0.26984000  0.61393000  0.59758000  1.0
  N  N136  1  0.07765000  0.82133000  0.73142000  1.0
  N  N137  1  0.65428000  0.91024000  0.73152000  1.0
  N  N138  1  0.91007000  0.07769000  0.73146000  1.0
  N  N139  1  0.82133000  0.65369000  0.73146000  1.0
  N  N140  1  0.92234000  0.17867000  0.26858000  1.0
  N  N141  1  0.34572000  0.08976000  0.26848000  1.0
  N  N142  1  0.08994000  0.92232000  0.26854000  1.0
  N  N143  1  0.17867000  0.34630000  0.26854000  1.0
  O  O144  1  0.22361000  0.07052000  0.73197000  1.0
  O  O145  1  0.50816000  0.66196000  0.73180000  1.0
  O  O146  1  0.66145000  0.22398000  0.73189000  1.0
  O  O147  1  0.06989000  0.50825000  0.73192000  1.0
  O  O148  1  0.77638000  0.92947000  0.26803000  1.0
  O  O149  1  0.49184000  0.33804000  0.26820000  1.0
  O  O150  1  0.33856000  0.77601000  0.26811000  1.0
  O  O151  1  0.93011000  0.49175000  0.26808000  1.0
  O  O152  1  0.13598000  0.05875000  0.82163000  1.0
  O  O153  1  0.68568000  0.76291000  0.82142000  1.0
  O  O154  1  0.76270000  0.13614000  0.82131000  1.0
  O  O155  1  0.05854000  0.68565000  0.82160000  1.0
  O  O156  1  0.86402000  0.94125000  0.17838000  1.0
  O  O157  1  0.31433000  0.23710000  0.17859000  1.0
  O  O158  1  0.23730000  0.86385000  0.17869000  1.0
  O  O159  1  0.94146000  0.31434000  0.17839000  1.0
