# generated using pymatgen
data_HgH12C14Br2(NO2)2
_symmetry_space_group_name_H-M   'P 1'
_cell_length_a   4.91344000
_cell_length_b   11.66230000
_cell_length_c   15.32410000
_cell_angle_alpha   103.85900000
_cell_angle_beta   90.00270000
_cell_angle_gamma   102.16000000
_symmetry_Int_Tables_number   1
_chemical_formula_structural   HgH12C14Br2(NO2)2
_chemical_formula_sum   'Hg2 H24 C28 Br4 N4 O8'
_cell_volume   832.22961709
_cell_formula_units_Z   2
loop_
 _symmetry_equiv_pos_site_id
 _symmetry_equiv_pos_as_xyz
  1  'x, y, z'
loop_
 _atom_site_type_symbol
 _atom_site_label
 _atom_site_symmetry_multiplicity
 _atom_site_fract_x
 _atom_site_fract_y
 _atom_site_fract_z
 _atom_site_occupancy
  Hg  Hg0  1  0.47391000  0.00006000  0.25004000  1.0
  Hg  Hg1  1  0.52609000  0.99994000  0.74996000  1.0
  H  H2  1  0.25684000  0.56608000  0.51486000  1.0
  H  H3  1  0.69070000  0.43396000  0.98514000  1.0
  H  H4  1  0.74316000  0.43392000  0.48514000  1.0
  H  H5  1  0.30930000  0.56604000  0.01486000  1.0
  H  H6  1  0.55316000  0.60132000  0.44940000  1.0
  H  H7  1  0.95181000  0.39866000  0.05057000  1.0
  H  H8  1  0.44684000  0.39868000  0.55060000  1.0
  H  H9  1  0.04819000  0.60134000  0.94943000  1.0
  H  H10  1  0.92185000  0.24864000  0.33717000  1.0
  H  H11  1  0.67327000  0.75133000  0.16278000  1.0
  H  H12  1  0.07815000  0.75136000  0.66283000  1.0
  H  H13  1  0.32673000  0.24867000  0.83722000  1.0
  H  H14  1  0.82496000  0.04497000  0.07332000  1.0
  H  H15  1  0.77980000  0.95496000  0.42663000  1.0
  H  H16  1  0.17505000  0.95502000  0.92668000  1.0
  H  H17  1  0.22020000  0.04504000  0.57337000  1.0
  H  H18  1  0.25368000  0.17494000  0.02962000  1.0
  H  H19  1  0.07859000  0.82503000  0.47037000  1.0
  H  H20  1  0.74632000  0.82506000  0.97038000  1.0
  H  H21  1  0.92141000  0.17497000  0.52963000  1.0
  H  H22  1  0.52727000  0.34953000  0.15040000  1.0
  H  H23  1  0.17777000  0.65048000  0.34960000  1.0
  H  H24  1  0.47273000  0.65047000  0.84960000  1.0
  H  H25  1  0.82223000  0.34952000  0.65040000  1.0
  C  C26  1  0.40936000  0.41171000  0.32341000  1.0
  C  C27  1  0.99782000  0.58830000  0.17659000  1.0
  C  C28  1  0.59063000  0.58829000  0.67659000  1.0
  C  C29  1  0.00218000  0.41170000  0.82341000  1.0
  C  C30  1  0.41565000  0.52954000  0.47362000  1.0
  C  C31  1  0.88605000  0.47046000  0.02638000  1.0
  C  C32  1  0.58435000  0.47046000  0.52638000  1.0
  C  C33  1  0.11394000  0.52954000  0.97362000  1.0
  C  C34  1  0.24397000  0.31229000  0.25200000  1.0
  C  C35  1  0.93187000  0.68775000  0.24797000  1.0
  C  C36  1  0.75603000  0.68771000  0.74800000  1.0
  C  C37  1  0.06813000  0.31225000  0.75203000  1.0
  C  C38  1  0.00257000  0.23598000  0.27008000  1.0
  C  C39  1  0.76671000  0.76403000  0.22987000  1.0
  C  C40  1  0.99742000  0.76402000  0.72992000  1.0
  C  C41  1  0.23329000  0.23597000  0.77013000  1.0
  C  C42  1  0.95012000  0.12187000  0.12226000  1.0
  C  C43  1  0.82818000  0.87810000  0.37770000  1.0
  C  C44  1  0.04988000  0.87813000  0.87774000  1.0
  C  C45  1  0.17182000  0.12190000  0.62230000  1.0
  C  C46  1  0.18772000  0.19458000  0.09853000  1.0
  C  C47  1  0.99306000  0.80541000  0.40146000  1.0
  C  C48  1  0.81229000  0.80542000  0.90147000  1.0
  C  C49  1  0.00695000  0.19459000  0.59854000  1.0
  C  C50  1  0.33847000  0.29043000  0.16465000  1.0
  C  C51  1  0.04818000  0.70961000  0.33532000  1.0
  C  C52  1  0.66153000  0.70957000  0.83535000  1.0
  C  C53  1  0.95182000  0.29039000  0.66468000  1.0
  Br  Br54  1  0.29594000  0.87117000  0.09402000  1.0
  Br  Br55  1  0.42689000  0.12911000  0.40621000  1.0
  Br  Br56  1  0.70406000  0.12883000  0.90598000  1.0
  Br  Br57  1  0.57311000  0.87089000  0.59379000  1.0
  N  N58  1  0.86151000  0.14233000  0.20643000  1.0
  N  N59  1  0.71924000  0.85766000  0.29352000  1.0
  N  N60  1  0.13849000  0.85767000  0.79357000  1.0
  N  N61  1  0.28076000  0.14234000  0.70648000  1.0
  O  O62  1  0.64978000  0.46266000  0.31632000  1.0
  O  O63  1  0.18706000  0.53723000  0.18371000  1.0
  O  O64  1  0.35022000  0.53734000  0.68368000  1.0
  O  O65  1  0.81294000  0.46277000  0.81629000  1.0
  O  O66  1  0.26363000  0.43856000  0.39840000  1.0
  O  O67  1  0.82515000  0.56145000  0.10161000  1.0
  O  O68  1  0.73637000  0.56144000  0.60160000  1.0
  O  O69  1  0.17485000  0.43855000  0.89839000  1.0
