# generated using pymatgen
data_ZnH7C12NO4
_symmetry_space_group_name_H-M   'P 1'
_cell_length_a   9.73467000
_cell_length_b   11.08390000
_cell_length_c   14.13810000
_cell_angle_alpha   91.41110000
_cell_angle_beta   98.72830000
_cell_angle_gamma   90.06380000
_symmetry_Int_Tables_number   1
_chemical_formula_structural   ZnH7C12NO4
_chemical_formula_sum   'Zn2 H14 C24 N2 O8'
_cell_volume   1507.33239561
_cell_formula_units_Z   2
loop_
 _symmetry_equiv_pos_site_id
 _symmetry_equiv_pos_as_xyz
  1  'x, y, z'
loop_
 _atom_site_type_symbol
 _atom_site_label
 _atom_site_symmetry_multiplicity
 _atom_site_fract_x
 _atom_site_fract_y
 _atom_site_fract_z
 _atom_site_occupancy
  Zn  Zn0  1  0.36254000  0.50418000  0.49478000  1.0
  Zn  Zn1  1  0.64955000  0.50432000  0.50635000  1.0
  H  H2  1  0.34110000  0.49257000  0.97705000  1.0
  H  H3  1  0.17006000  0.11718000  0.49709000  1.0
  H  H4  1  0.90775000  0.61068000  0.62696000  1.0
  H  H5  1  0.16641000  0.61121000  0.62326000  1.0
  H  H6  1  0.08254000  0.41843000  0.28046000  1.0
  H  H7  1  0.20068000  0.10575000  0.37564000  1.0
  H  H8  1  0.10064000  0.28583000  0.35028000  1.0
  H  H9  1  0.82099000  0.41626000  0.28449000  1.0
  H  H10  1  0.84070000  0.28343000  0.35411000  1.0
  H  H11  1  0.66125000  0.50512000  0.02351000  1.0
  H  H12  1  0.72750000  0.11997000  0.54748000  1.0
  H  H13  1  0.72990000  0.89577000  0.55033000  1.0
  H  H14  1  0.20046000  0.88011000  0.38301000  1.0
  H  H15  1  0.17354000  0.88968000  0.50494000  1.0
  C  C16  1  0.50741000  0.26872000  0.49917000  1.0
  C  C17  1  0.23051000  0.07042000  0.44783000  1.0
  C  C18  1  0.91792000  0.44923000  0.43425000  1.0
  C  C19  1  0.46513000  0.50112000  0.31160000  1.0
  C  C20  1  0.95170000  0.56399000  0.56985000  1.0
  C  C21  1  0.09448000  0.56462000  0.56771000  1.0
  C  C22  1  0.06067000  0.45026000  0.43197000  1.0
  C  C23  1  0.04872000  0.37354000  0.34137000  1.0
  C  C24  1  0.88578000  0.37209000  0.34393000  1.0
  C  C25  1  0.51104000  0.73964000  0.50631000  1.0
  C  C26  1  0.54053000  0.50533000  0.68922000  1.0
  C  C27  1  0.45380000  0.49778000  0.20839000  1.0
  C  C28  1  0.55141000  0.50452000  0.79232000  1.0
  C  C29  1  0.55932000  0.50145000  0.97858000  1.0
  C  C30  1  0.44321000  0.49631000  0.02172000  1.0
  C  C31  1  0.44879000  0.49651000  0.12152000  1.0
  C  C32  1  0.55468000  0.50282000  0.87895000  1.0
  C  C33  1  0.38603000  0.06527000  0.48094000  1.0
  C  C34  1  0.50688000  0.13435000  0.50282000  1.0
  C  C35  1  0.63091000  0.06910000  0.52868000  1.0
  C  C36  1  0.63216000  0.94332000  0.53070000  1.0
  C  C37  1  0.50931000  0.87414000  0.50741000  1.0
  C  C38  1  0.38721000  0.93931000  0.48359000  1.0
  C  C39  1  0.23174000  0.92797000  0.45189000  1.0
  N  N40  1  0.85991000  0.50494000  0.50225000  1.0
  N  N41  1  0.15197000  0.50656000  0.49758000  1.0
  O  O42  1  0.38955000  0.32093000  0.49136000  1.0
  O  O43  1  0.62491000  0.32137000  0.50399000  1.0
  O  O44  1  0.35197000  0.50168000  0.34654000  1.0
  O  O45  1  0.58823000  0.50324000  0.35780000  1.0
  O  O46  1  0.39314000  0.68668000  0.49803000  1.0
  O  O47  1  0.62866000  0.68753000  0.51260000  1.0
  O  O48  1  0.41726000  0.50602000  0.64319000  1.0
  O  O49  1  0.65356000  0.50487000  0.65419000  1.0
