# generated using pymatgen
data_Li2H13C11NO7
_symmetry_space_group_name_H-M   'P 1'
_cell_length_a   8.12831000
_cell_length_b   11.31280000
_cell_length_c   15.74360000
_cell_angle_alpha   89.99980000
_cell_angle_beta   89.99990000
_cell_angle_gamma   104.85300000
_symmetry_Int_Tables_number   1
_chemical_formula_structural   Li2H13C11NO7
_chemical_formula_sum   'Li8 H52 C44 N4 O28'
_cell_volume   1399.31413626
_cell_formula_units_Z   4
loop_
 _symmetry_equiv_pos_site_id
 _symmetry_equiv_pos_as_xyz
  1  'x, y, z'
loop_
 _atom_site_type_symbol
 _atom_site_label
 _atom_site_symmetry_multiplicity
 _atom_site_fract_x
 _atom_site_fract_y
 _atom_site_fract_z
 _atom_site_occupancy
  Li  Li0  1  0.43976000  0.49312000  0.91459000  1.0
  Li  Li1  1  0.56024000  0.00688000  0.41460000  1.0
  Li  Li2  1  0.56024000  0.50688000  0.08541000  1.0
  Li  Li3  1  0.43976000  0.99312000  0.58541000  1.0
  Li  Li4  1  0.14044000  0.58140000  0.96615000  1.0
  Li  Li5  1  0.85956000  0.91860000  0.46615000  1.0
  Li  Li6  1  0.85956000  0.41860000  0.03385000  1.0
  Li  Li7  1  0.14044000  0.08140000  0.53385000  1.0
  H  H8  1  0.21729000  0.82091000  0.73417000  1.0
  H  H9  1  0.78271000  0.67909000  0.23417000  1.0
  H  H10  1  0.78271000  0.17909000  0.26582000  1.0
  H  H11  1  0.21729000  0.32091000  0.76582000  1.0
  H  H12  1  0.20063000  0.49617000  0.82606000  1.0
  H  H13  1  0.79937000  0.00383000  0.32606000  1.0
  H  H14  1  0.79937000  0.50384000  0.17394000  1.0
  H  H15  1  0.20062000  0.99617000  0.67394000  1.0
  H  H16  1  0.30293000  0.63971000  0.82259000  1.0
  H  H17  1  0.69707000  0.86029000  0.32259000  1.0
  H  H18  1  0.69707000  0.36030000  0.17741000  1.0
  H  H19  1  0.30293000  0.13971000  0.67741000  1.0
  H  H20  1  0.07006000  0.71656000  0.84994000  1.0
  H  H21  1  0.92994000  0.78345000  0.34994000  1.0
  H  H22  1  0.92993000  0.28344000  0.15006000  1.0
  H  H23  1  0.07007000  0.21656000  0.65006000  1.0
  H  H24  1  0.83331000  0.90241000  0.66542000  1.0
  H  H25  1  0.16669000  0.59759000  0.16542000  1.0
  H  H26  1  0.16668000  0.09758000  0.33458000  1.0
  H  H27  1  0.83332000  0.40241000  0.83458000  1.0
  H  H28  1  0.53995000  0.70612000  0.87225000  1.0
  H  H29  1  0.46005000  0.79388000  0.37225000  1.0
  H  H30  1  0.46004000  0.29387000  0.12775000  1.0
  H  H31  1  0.53996000  0.20612000  0.62775000  1.0
  H  H32  1  0.17063000  0.87613000  0.08303000  1.0
  H  H33  1  0.82937000  0.62387000  0.58303000  1.0
  H  H34  1  0.82937000  0.12387000  0.91697000  1.0
  H  H35  1  0.17064000  0.37613000  0.41697000  1.0
  H  H36  1  0.30319000  0.02983000  0.09002000  1.0
  H  H37  1  0.69681000  0.47017000  0.59002000  1.0
  H  H38  1  0.69681000  0.97017000  0.90998000  1.0
  H  H39  1  0.30319000  0.52983000  0.40998000  1.0
  H  H40  1  0.27153000  0.93351000  0.18134000  1.0
  H  H41  1  0.72847000  0.56649000  0.68134000  1.0
  H  H42  1  0.72848000  0.06649000  0.81866000  1.0
  H  H43  1  0.27153000  0.43351000  0.31866000  1.0
  H  H44  1  0.69143000  0.90630000  0.10000000  1.0
  H  H45  1  0.30857000  0.59370000  0.60000000  1.0
  H  H46  1  0.30857000  0.09370000  0.90000000  1.0
  H  H47  1  0.69143000  0.40630000  0.40000000  1.0
  H  H48  1  0.59302000  0.95339000  0.19081000  1.0
  H  H49  1  0.40698000  0.54661000  0.69081000  1.0
  H  H50  1  0.40698000  0.04661000  0.80919000  1.0
  H  H51  1  0.59302000  0.45339000  0.30919000  1.0
  H  H52  1  0.63273000  0.04860000  0.09885000  1.0
  H  H53  1  0.36727000  0.45140000  0.59885000  1.0
  H  H54  1  0.36727000  0.95140000  0.90115000  1.0
  H  H55  1  0.63274000  0.54860000  0.40115000  1.0
  H  H56  1  0.52838000  0.76032000  0.02816000  1.0
  H  H57  1  0.47162000  0.73968000  0.52816000  1.0
  H  H58  1  0.47162000  0.23968000  0.97184000  1.0
  H  H59  1  0.52839000  0.26032000  0.47184000  1.0
  C  C60  1  0.80246000  0.70158000  0.86851000  1.0
  C  C61  1  0.19754000  0.79842000  0.36851000  1.0
  C  C62  1  0.19753000  0.29841000  0.13148000  1.0
  C  C63  1  0.80246000  0.20158000  0.63148000  1.0
  C  C64  1  0.95818000  0.74237000  0.82654000  1.0
  C  C65  1  0.04182000  0.75763000  0.32654000  1.0
  C  C66  1  0.04181000  0.25762000  0.17346000  1.0
  C  C67  1  0.95818000  0.24237000  0.67346000  1.0
  C  C68  1  0.96983000  0.81626000  0.75409000  1.0
  C  C69  1  0.03016000  0.68374000  0.25409000  1.0
  C  C70  1  0.03015000  0.18374000  0.24591000  1.0
  C  C71  1  0.96984000  0.31626000  0.74591000  1.0
  C  C72  1  0.82463000  0.84733000  0.72281000  1.0
  C  C73  1  0.17536000  0.65267000  0.22281000  1.0
  C  C74  1  0.17536000  0.15267000  0.27719000  1.0
  C  C75  1  0.82464000  0.34733000  0.77719000  1.0
  C  C76  1  0.66831000  0.80490000  0.76444000  1.0
  C  C77  1  0.33169000  0.69509000  0.26444000  1.0
  C  C78  1  0.33169000  0.19509000  0.23556000  1.0
  C  C79  1  0.66831000  0.30491000  0.73556000  1.0
  C  C80  1  0.65922000  0.73482000  0.83805000  1.0
  C  C81  1  0.34077000  0.76518000  0.33805000  1.0
  C  C82  1  0.34077000  0.26517000  0.16195000  1.0
  C  C83  1  0.65923000  0.23482000  0.66195000  1.0
  C  C84  1  0.78216000  0.61722000  0.94347000  1.0
  C  C85  1  0.21784000  0.88278000  0.44347000  1.0
  C  C86  1  0.21784000  0.38278000  0.05653000  1.0
  C  C87  1  0.78216000  0.11722000  0.55653000  1.0
  C  C88  1  0.50936000  0.83244000  0.73016000  1.0
  C  C89  1  0.49064000  0.66756000  0.23016000  1.0
  C  C90  1  0.49064000  0.16755000  0.26984000  1.0
  C  C91  1  0.50936000  0.33245000  0.76984000  1.0
  C  C92  1  0.28508000  0.93504000  0.11186000  1.0
  C  C93  1  0.71491000  0.56496000  0.61186000  1.0
  C  C94  1  0.71492000  0.06496000  0.88814000  1.0
  C  C95  1  0.28509000  0.43505000  0.38814000  1.0
  C  C96  1  0.59621000  0.95327000  0.12103000  1.0
  C  C97  1  0.40379000  0.54673000  0.62103000  1.0
  C  C98  1  0.40379000  0.04673000  0.87897000  1.0
  C  C99  1  0.59621000  0.45327000  0.37897000  1.0
  C  C100  1  0.40986000  0.78865000  0.03988000  1.0
  C  C101  1  0.59014000  0.71134000  0.53988000  1.0
  C  C102  1  0.59015000  0.21135000  0.96012000  1.0
  C  C103  1  0.40986000  0.28866000  0.46012000  1.0
  N  N104  1  0.43038000  0.88953000  0.08776000  1.0
  N  N105  1  0.56963000  0.61047000  0.58776000  1.0
  N  N106  1  0.56963000  0.11047000  0.91224000  1.0
  N  N107  1  0.43037000  0.38953000  0.41224000  1.0
  O  O108  1  0.63898000  0.59273000  0.98182000  1.0
  O  O109  1  0.36102000  0.90727000  0.48182000  1.0
  O  O110  1  0.36102000  0.40727000  0.01819000  1.0
  O  O111  1  0.63899000  0.09274000  0.51818000  1.0
  O  O112  1  0.90261000  0.57046000  0.96430000  1.0
  O  O113  1  0.09739000  0.92955000  0.46429000  1.0
  O  O114  1  0.09740000  0.42955000  0.03571000  1.0
  O  O115  1  0.90261000  0.07045000  0.53571000  1.0
  O  O116  1  0.52297000  0.90991000  0.67154000  1.0
  O  O117  1  0.47703000  0.59010000  0.17154000  1.0
  O  O118  1  0.47703000  0.09009000  0.32845000  1.0
  O  O119  1  0.52297000  0.40991000  0.82845000  1.0
  O  O120  1  0.36569000  0.77408000  0.76325000  1.0
  O  O121  1  0.63432000  0.72592000  0.26326000  1.0
  O  O122  1  0.63431000  0.22592000  0.23674000  1.0
  O  O123  1  0.36568000  0.27408000  0.73674000  1.0
  O  O124  1  0.11945000  0.85711000  0.71174000  1.0
  O  O125  1  0.88055000  0.64289000  0.21174000  1.0
  O  O126  1  0.88054000  0.14289000  0.28826000  1.0
  O  O127  1  0.11946000  0.35711000  0.78826000  1.0
  O  O128  1  0.27032000  0.73003000  0.01043000  1.0
  O  O129  1  0.72969000  0.76997000  0.51043000  1.0
  O  O130  1  0.72970000  0.26997000  0.98957000  1.0
  O  O131  1  0.27031000  0.23003000  0.48957000  1.0
  O  O132  1  0.26268000  0.56768000  0.86079000  1.0
  O  O133  1  0.73732000  0.93232000  0.36079000  1.0
  O  O134  1  0.73732000  0.43232000  0.13921000  1.0
  O  O135  1  0.26268000  0.06768000  0.63921000  1.0
