# generated using pymatgen
data_CdH18C26N2(ClO2)2
_symmetry_space_group_name_H-M   'P 1'
_cell_length_a   9.78918000
_cell_length_b   11.20120000
_cell_length_c   11.53400000
_cell_angle_alpha   88.23790000
_cell_angle_beta   71.27140000
_cell_angle_gamma   82.86660000
_symmetry_Int_Tables_number   1
_chemical_formula_structural   CdH18C26N2(ClO2)2
_chemical_formula_sum   'Cd2 H36 C52 N4 Cl4 O8'
_cell_volume   1188.41649615
_cell_formula_units_Z   2
loop_
 _symmetry_equiv_pos_site_id
 _symmetry_equiv_pos_as_xyz
  1  'x, y, z'
loop_
 _atom_site_type_symbol
 _atom_site_label
 _atom_site_symmetry_multiplicity
 _atom_site_fract_x
 _atom_site_fract_y
 _atom_site_fract_z
 _atom_site_occupancy
  Cd  Cd0  1  0.07885000  0.11107000  0.58030000  1.0
  Cd  Cd1  1  0.92115000  0.88893000  0.41970000  1.0
  H  H2  1  0.74146000  0.19905000  0.69729000  1.0
  H  H3  1  0.25854000  0.80095000  0.30271000  1.0
  H  H4  1  0.56293000  0.37918000  0.70615000  1.0
  H  H5  1  0.43707000  0.62081000  0.29385000  1.0
  H  H6  1  0.88780000  0.52157000  0.40138000  1.0
  H  H7  1  0.11220000  0.47843000  0.59862000  1.0
  H  H8  1  0.05522000  0.33333333  0.40747000  1.0
  H  H9  1  0.94478000  0.66666667  0.59253000  1.0
  H  H10  1  0.66987000  0.64029000  0.47806000  1.0
  H  H11  1  0.33013000  0.35971000  0.52194000  1.0
  H  H12  1  0.44760000  0.56510000  0.71800000  1.0
  H  H13  1  0.55240000  0.43490000  0.28200000  1.0
  H  H14  1  0.23181000  0.70544000  0.79741000  1.0
  H  H15  1  0.76819000  0.29456000  0.20259000  1.0
  H  H16  1  0.07780000  0.89556000  0.77565000  1.0
  H  H17  1  0.92220000  0.10444000  0.22435000  1.0
  H  H18  1  0.38928000  0.98439000  0.45789000  1.0
  H  H19  1  0.61072000  0.01561000  0.54211000  1.0
  H  H20  1  0.55898000  0.80200000  0.46671000  1.0
  H  H21  1  0.44102000  0.19800000  0.53329000  1.0
  H  H22  1  0.97430000  0.22460000  0.01106000  1.0
  H  H23  1  0.02570000  0.77540000  0.98894000  1.0
  H  H24  1  0.01178000  0.33588000  0.18316000  1.0
  H  H25  1  0.98822000  0.66412000  0.81684000  1.0
  H  H26  1  0.32525000  0.52706000  0.91974000  1.0
  H  H27  1  0.67475000  0.47294000  0.08026000  1.0
  H  H28  1  0.28455000  0.41593000  0.74879000  1.0
  H  H29  1  0.71545000  0.58407000  0.25121000  1.0
  H  H30  1  0.40042000  0.22933000  0.19077000  1.0
  H  H31  1  0.59958000  0.77067000  0.80923000  1.0
  H  H32  1  0.50792000  0.23917000  0.96193000  1.0
  H  H33  1  0.49208000  0.76083000  0.03807000  1.0
  H  H34  1  0.24549000  0.97044000  0.92451000  1.0
  H  H35  1  0.75450000  0.02956000  0.07549000  1.0
  H  H36  1  0.14294000  0.95783000  0.15128000  1.0
  H  H37  1  0.85706000  0.04218000  0.84872000  1.0
  C  C38  1  0.76936000  0.27321000  0.63397000  1.0
  C  C39  1  0.23064000  0.72679000  0.36603000  1.0
  C  C40  1  0.67063000  0.37453000  0.63812000  1.0
  C  C41  1  0.32936000  0.62547000  0.36188000  1.0
  C  C42  1  0.71208000  0.46861000  0.55534000  1.0
  C  C43  1  0.28792000  0.53139000  0.44466000  1.0
  C  C44  1  0.85185000  0.45147000  0.46814000  1.0
  C  C45  1  0.14815000  0.54852000  0.53186000  1.0
  C  C46  1  0.94438000  0.34772000  0.47085000  1.0
  C  C47  1  0.05562000  0.65228000  0.52915000  1.0
  C  C48  1  0.62258000  0.58218000  0.55460000  1.0
  C  C49  1  0.37742000  0.41782000  0.44540000  1.0
  C  C50  1  0.49417000  0.62103000  0.63932000  1.0
  C  C51  1  0.50583000  0.37897000  0.36068000  1.0
  C  C52  1  0.40811000  0.73503000  0.63223000  1.0
  C  C53  1  0.59189000  0.26497000  0.36777000  1.0
  C  C54  1  0.27136000  0.76544000  0.72086000  1.0
  C  C55  1  0.72864000  0.23456000  0.27914000  1.0
  C  C56  1  0.18510000  0.87057000  0.70937000  1.0
  C  C57  1  0.81490000  0.12943000  0.29063000  1.0
  C  C58  1  0.35976000  0.91987000  0.53189000  1.0
  C  C59  1  0.64024000  0.08014000  0.46812000  1.0
  C  C60  1  0.45298000  0.81767000  0.53704000  1.0
  C  C61  1  0.54702000  0.18233000  0.46296000  1.0
  C  C62  1  0.10677000  0.24473000  0.76962000  1.0
  C  C63  1  0.89323000  0.75527000  0.23038000  1.0
  C  C64  1  0.12665000  0.31434000  0.87063000  1.0
  C  C65  1  0.87335000  0.68566000  0.12937000  1.0
  C  C66  1  0.04966000  0.29204000  0.99280000  1.0
  C  C67  1  0.95034000  0.70796000  0.00720000  1.0
  C  C68  1  0.07048000  0.35320000  0.08784000  1.0
  C  C69  1  0.92952000  0.64680000  0.91216000  1.0
  C  C70  1  0.17014000  0.43714000  0.05965000  1.0
  C  C71  1  0.82986000  0.56286000  0.94035000  1.0
  C  C72  1  0.24792000  0.46119000  0.93840000  1.0
  C  C73  1  0.75208000  0.53882000  0.06160000  1.0
  C  C74  1  0.22531000  0.39964000  0.84441000  1.0
  C  C75  1  0.77469000  0.60036000  0.15559000  1.0
  C  C76  1  0.20347000  0.08952000  0.32148000  1.0
  C  C77  1  0.79653000  0.91049000  0.67852000  1.0
  C  C78  1  0.26528000  0.09389000  0.18510000  1.0
  C  C79  1  0.73472000  0.90612000  0.81490000  1.0
  C  C80  1  0.36809000  0.17281000  0.13125000  1.0
  C  C81  1  0.63191000  0.82719000  0.86875000  1.0
  C  C82  1  0.42738000  0.17863000  0.00454000  1.0
  C  C83  1  0.57263000  0.82136000  0.99545000  1.0
  C  C84  1  0.38175000  0.10536000  0.93181000  1.0
  C  C85  1  0.61825000  0.89464000  0.06819000  1.0
  C  C86  1  0.27941000  0.02625000  0.98348000  1.0
  C  C87  1  0.72059000  0.97375000  0.01652000  1.0
  C  C88  1  0.22190000  0.02028000  0.11046000  1.0
  C  C89  1  0.77810000  0.97972000  0.88954000  1.0
  N  N90  1  0.90470000  0.26018000  0.55298000  1.0
  N  N91  1  0.09530000  0.73981000  0.44702000  1.0
  N  N92  1  0.22741000  0.94607000  0.61531000  1.0
  N  N93  1  0.77259000  0.05393000  0.38469000  1.0
  Cl  Cl94  1  0.20035000  0.51144000  0.17687000  1.0
  Cl  Cl95  1  0.79965000  0.48856000  0.82313000  1.0
  Cl  Cl96  1  0.45308000  0.11331000  0.77400000  1.0
  Cl  Cl97  1  0.54692000  0.88669000  0.22599000  1.0
  O  O98  1  0.01976000  0.16494000  0.79736000  1.0
  O  O99  1  0.98023000  0.83506000  0.20264000  1.0
  O  O100  1  0.17929000  0.26747000  0.65921000  1.0
  O  O101  1  0.82071000  0.73253000  0.34080000  1.0
  O  O102  1  0.11154000  0.01606000  0.37125000  1.0
  O  O103  1  0.88847000  0.98394000  0.62875000  1.0
  O  O104  1  0.24381000  0.16013000  0.38537000  1.0
  O  O105  1  0.75619000  0.83987000  0.61462000  1.0
