# generated using pymatgen
data_SnH13C9NO2
_symmetry_space_group_name_H-M   'P 1'
_cell_length_a   7.01459000
_cell_length_b   12.26860000
_cell_length_c   14.29160000
_cell_angle_alpha   86.10820000
_cell_angle_beta   76.26570000
_cell_angle_gamma   73.38880000
_symmetry_Int_Tables_number   1
_chemical_formula_structural   SnH13C9NO2
_chemical_formula_sum   'Sn4 H52 C36 N4 O8'
_cell_volume   1144.89551604
_cell_formula_units_Z   4
loop_
 _symmetry_equiv_pos_site_id
 _symmetry_equiv_pos_as_xyz
  1  'x, y, z'
loop_
 _atom_site_type_symbol
 _atom_site_label
 _atom_site_symmetry_multiplicity
 _atom_site_fract_x
 _atom_site_fract_y
 _atom_site_fract_z
 _atom_site_occupancy
  Sn  Sn0  1  0.27857000  0.77287000  0.41313000  1.0
  Sn  Sn1  1  0.46376000  0.22741000  0.58641000  1.0
  Sn  Sn2  1  0.80154000  0.72701000  0.91311000  1.0
  Sn  Sn3  1  0.44140000  0.27284000  0.08671000  1.0
  H  H4  1  0.57249000  0.48455000  0.59840000  1.0
  H  H5  1  0.65716000  0.51447000  0.40030000  1.0
  H  H6  1  0.80757000  0.01543000  0.09832000  1.0
  H  H7  1  0.92152000  0.98580000  0.90074000  1.0
  H  H8  1  0.65313000  0.77813000  0.71373000  1.0
  H  H9  1  0.14444000  0.22012000  0.28752000  1.0
  H  H10  1  0.18140000  0.72176000  0.21373000  1.0
  H  H11  1  0.11452000  0.27999000  0.78740000  1.0
  H  H12  1  0.66020000  0.37680000  0.74678000  1.0
  H  H13  1  0.78652000  0.62193000  0.25298000  1.0
  H  H14  1  0.78730000  0.12311000  0.24677000  1.0
  H  H15  1  0.15727000  0.87824000  0.75322000  1.0
  H  H16  1  0.45405000  0.91333000  0.28647000  1.0
  H  H17  1  0.65464000  0.08613000  0.71302000  1.0
  H  H18  1  0.11727000  0.58662000  0.78646000  1.0
  H  H19  1  0.49137000  0.41388000  0.21341000  1.0
  H  H20  1  0.64241000  0.78184000  0.29263000  1.0
  H  H21  1  0.71915000  0.21700000  0.70777000  1.0
  H  H22  1  0.17455000  0.71799000  0.79261000  1.0
  H  H23  1  0.68668000  0.28294000  0.20793000  1.0
  H  H24  1  0.56954000  0.88150000  0.38847000  1.0
  H  H25  1  0.83838000  0.11781000  0.61162000  1.0
  H  H26  1  0.20103000  0.61833000  0.88844000  1.0
  H  H27  1  0.70662000  0.38235000  0.11191000  1.0
  H  H28  1  0.74012000  0.47635000  0.87132000  1.0
  H  H29  1  0.08923000  0.52196000  0.13013000  1.0
  H  H30  1  0.96614000  0.02344000  0.37148000  1.0
  H  H31  1  0.35987000  0.97800000  0.63012000  1.0
  H  H32  1  0.08212000  0.62590000  0.37094000  1.0
  H  H33  1  0.08024000  0.37436000  0.62721000  1.0
  H  H34  1  0.45814000  0.87382000  0.87087000  1.0
  H  H35  1  0.20533000  0.12563000  0.12720000  1.0
  H  H36  1  0.28381000  0.55163000  0.42778000  1.0
  H  H37  1  0.26284000  0.44900000  0.57141000  1.0
  H  H38  1  0.58510000  0.94828000  0.92778000  1.0
  H  H39  1  0.46271000  0.05113000  0.07157000  1.0
  H  H40  1  0.34004000  0.58391000  0.30263000  1.0
  H  H41  1  0.22850000  0.41621000  0.69658000  1.0
  H  H42  1  0.67388000  0.91606000  0.80261000  1.0
  H  H43  1  0.39507000  0.08399000  0.19674000  1.0
  H  H44  1  0.89297000  0.86583000  0.51963000  1.0
  H  H45  1  0.27578000  0.13319000  0.47986000  1.0
  H  H46  1  0.50925000  0.63387000  0.01963000  1.0
  H  H47  1  0.16039000  0.36714000  0.97958000  1.0
  H  H48  1  0.05349000  0.95205000  0.53217000  1.0
  H  H49  1  0.53456000  0.04707000  0.46860000  1.0
  H  H50  1  0.75611000  0.54776000  0.03209000  1.0
  H  H51  1  0.33327000  0.45306000  0.96852000  1.0
  H  H52  1  0.06745000  0.82124000  0.59697000  1.0
  H  H53  1  0.48147000  0.17736000  0.40304000  1.0
  H  H54  1  0.63908000  0.67854000  0.09690000  1.0
  H  H55  1  0.41058000  0.32259000  0.90314000  1.0
  C  C56  1  0.60759000  0.52541000  0.65502000  1.0
  C  C57  1  0.78938000  0.47331000  0.34448000  1.0
  C  C58  1  0.88330000  0.97449000  0.15501000  1.0
  C  C59  1  0.01246000  0.02688000  0.84477000  1.0
  C  C60  1  0.65334000  0.68909000  0.71956000  1.0
  C  C61  1  0.06209000  0.30927000  0.28133000  1.0
  C  C62  1  0.09267000  0.81080000  0.21957000  1.0
  C  C63  1  0.12116000  0.19084000  0.78132000  1.0
  C  C64  1  0.65664000  0.46597000  0.73657000  1.0
  C  C65  1  0.86105000  0.53266000  0.26350000  1.0
  C  C66  1  0.87284000  0.03389000  0.23659000  1.0
  C  C67  1  0.14291000  0.96750000  0.76371000  1.0
  C  C68  1  0.53620000  0.71509000  0.56599000  1.0
  C  C69  1  0.81669000  0.28399000  0.43375000  1.0
  C  C70  1  0.00118000  0.78481000  0.06609000  1.0
  C  C71  1  0.85154000  0.21628000  0.93404000  1.0
  C  C72  1  0.60388000  0.64023000  0.64670000  1.0
  C  C73  1  0.89111000  0.35836000  0.35329000  1.0
  C  C74  1  0.99431000  0.85966000  0.14671000  1.0
  C  C75  1  0.99957000  0.14183000  0.85346000  1.0
  C  C76  1  0.51465000  0.84641000  0.33499000  1.0
  C  C77  1  0.69646000  0.15306000  0.66493000  1.0
  C  C78  1  0.11107000  0.65351000  0.83495000  1.0
  C  C79  1  0.60004000  0.34702000  0.16519000  1.0
  C  C80  1  0.70071000  0.52154000  0.80707000  1.0
  C  C81  1  0.03062000  0.47683000  0.19395000  1.0
  C  C82  1  0.97206000  0.97827000  0.30717000  1.0
  C  C83  1  0.25641000  0.02325000  0.69397000  1.0
  C  C84  1  0.24178000  0.61488000  0.37295000  1.0
  C  C85  1  0.23036000  0.38558000  0.62594000  1.0
  C  C86  1  0.60664000  0.88500000  0.87291000  1.0
  C  C87  1  0.36657000  0.11456000  0.12606000  1.0
  C  C88  1  0.04412000  0.86475000  0.52931000  1.0
  C  C89  1  0.43504000  0.13426000  0.47077000  1.0
  C  C90  1  0.65928000  0.63501000  0.02926000  1.0
  C  C91  1  0.32071000  0.36590000  0.97074000  1.0
  N  N92  1  0.69939000  0.63169000  0.79818000  1.0
  N  N93  1  0.12985000  0.36654000  0.20316000  1.0
  N  N94  1  0.08104000  0.86815000  0.29826000  1.0
  N  N95  1  0.24572000  0.13351000  0.70304000  1.0
  O  O96  1  0.47015000  0.66593000  0.50775000  1.0
  O  O97  1  0.64230000  0.33299000  0.49014000  1.0
  O  O98  1  0.88557000  0.83395000  0.00801000  1.0
  O  O99  1  0.72612000  0.16744000  0.99056000  1.0
  O  O100  1  0.54007000  0.81645000  0.56207000  1.0
  O  O101  1  0.91885000  0.18305000  0.43927000  1.0
  O  O102  1  0.10666000  0.68347000  0.06200000  1.0
  O  O103  1  0.85344000  0.31713000  0.93951000  1.0
