# generated using pymatgen
data_CdH10C12(SeN2)2
_symmetry_space_group_name_H-M   'P 1'
_cell_length_a   7.68415000
_cell_length_b   8.96261000
_cell_length_c   17.72980000
_cell_angle_alpha   97.16390000
_cell_angle_beta   98.14050000
_cell_angle_gamma   110.93000000
_symmetry_Int_Tables_number   1
_chemical_formula_structural   CdH10C12(SeN2)2
_chemical_formula_sum   'Cd3 H30 C36 Se6 N12'
_cell_volume   1108.51716843
_cell_formula_units_Z   3
loop_
 _symmetry_equiv_pos_site_id
 _symmetry_equiv_pos_as_xyz
  1  'x, y, z'
loop_
 _atom_site_type_symbol
 _atom_site_label
 _atom_site_symmetry_multiplicity
 _atom_site_fract_x
 _atom_site_fract_y
 _atom_site_fract_z
 _atom_site_occupancy
  Cd  Cd0  1  0.81883000  0.82688000  0.83507000  1.0
  Cd  Cd1  1  0.18118000  0.17312000  0.16493000  1.0
  Cd  Cd2  1  0.50000000  0.50000000  0.50000000  1.0
  H  H3  1  0.50422000  0.46219000  0.79151000  1.0
  H  H4  1  0.49578000  0.53781000  0.20849000  1.0
  H  H5  1  0.38627000  0.20209000  0.84332000  1.0
  H  H6  1  0.61372000  0.79791000  0.15668000  1.0
  H  H7  1  0.53261000  0.20015000  0.97855000  1.0
  H  H8  1  0.46740000  0.79985000  0.02145000  1.0
  H  H9  1  0.78842000  0.45579000  0.05724000  1.0
  H  H10  1  0.21158000  0.54421000  0.94276000  1.0
  H  H11  1  0.89041000  0.70501000  0.99687000  1.0
  H  H12  1  0.10959000  0.29499000  0.00313000  1.0
  H  H13  1  0.80722000  0.17940000  0.85544000  1.0
  H  H14  1  0.19278000  0.82060000  0.14456000  1.0
  H  H15  1  0.91189000  0.44282000  0.80575000  1.0
  H  H16  1  0.08810000  0.55719000  0.19425000  1.0
  H  H17  1  0.09615000  0.46600000  0.69907000  1.0
  H  H18  1  0.90384000  0.53400000  0.30093000  1.0
  H  H19  1  0.17103000  0.22746000  0.64667000  1.0
  H  H20  1  0.82896000  0.77254000  0.35333000  1.0
  H  H21  1  0.06091000  0.97548000  0.70433000  1.0
  H  H22  1  0.93909000  0.02452000  0.29567000  1.0
  H  H23  1  0.76982000  0.87503000  0.56783000  1.0
  H  H24  1  0.23018000  0.12497000  0.43217000  1.0
  H  H25  1  0.86317000  0.15327000  0.53313000  1.0
  H  H26  1  0.13683000  0.84673000  0.46687000  1.0
  H  H27  1  0.71530000  0.17962000  0.40322000  1.0
  H  H28  1  0.28470000  0.82038000  0.59678000  1.0
  H  H29  1  0.47840000  0.92899000  0.31233000  1.0
  H  H30  1  0.52160000  0.07101000  0.68767000  1.0
  H  H31  1  0.40020000  0.65988000  0.35608000  1.0
  H  H32  1  0.59980000  0.34012000  0.64391000  1.0
  C  C33  1  0.20482000  0.96026000  0.99222000  1.0
  C  C34  1  0.79518000  0.03974000  0.00778000  1.0
  C  C35  1  0.87336000  0.63561000  0.66320000  1.0
  C  C36  1  0.12664000  0.36440000  0.33680000  1.0
  C  C37  1  0.44240000  0.66889000  0.67729000  1.0
  C  C38  1  0.55760000  0.33110000  0.32271000  1.0
  C  C39  1  0.56378000  0.45463000  0.84994000  1.0
  C  C40  1  0.43622000  0.54537000  0.15006000  1.0
  C  C41  1  0.49854000  0.31136000  0.87885000  1.0
  C  C42  1  0.50146000  0.68864000  0.12115000  1.0
  C  C43  1  0.57975000  0.31041000  0.95427000  1.0
  C  C44  1  0.42024000  0.68959000  0.04573000  1.0
  C  C45  1  0.72236000  0.45276000  0.99815000  1.0
  C  C46  1  0.27764000  0.54725000  0.00185000  1.0
  C  C47  1  0.77950000  0.59088000  0.96487000  1.0
  C  C48  1  0.22050000  0.40912000  0.03513000  1.0
  C  C49  1  0.88868000  0.19634000  0.80935000  1.0
  C  C50  1  0.11132000  0.80366000  0.19066000  1.0
  C  C51  1  0.94673000  0.34155000  0.78166000  1.0
  C  C52  1  0.05327000  0.65845000  0.21834000  1.0
  C  C53  1  0.04913000  0.35434000  0.72211000  1.0
  C  C54  1  0.95087000  0.64566000  0.27789000  1.0
  C  C55  1  0.09075000  0.22175000  0.69292000  1.0
  C  C56  1  0.90924000  0.77825000  0.30708000  1.0
  C  C57  1  0.02954000  0.08148000  0.72455000  1.0
  C  C58  1  0.97046000  0.91853000  0.27545000  1.0
  C  C59  1  0.70864000  0.89311000  0.51193000  1.0
  C  C60  1  0.29136000  0.10689000  0.48806000  1.0
  C  C61  1  0.76035000  0.04662000  0.49238000  1.0
  C  C62  1  0.23965000  0.95338000  0.50762000  1.0
  C  C63  1  0.67728000  0.06092000  0.41988000  1.0
  C  C64  1  0.32272000  0.93908000  0.58012000  1.0
  C  C65  1  0.54554000  0.92137000  0.36942000  1.0
  C  C66  1  0.45446000  0.07863000  0.63058000  1.0
  C  C67  1  0.50191000  0.77240000  0.39339000  1.0
  C  C68  1  0.49809000  0.22760000  0.60661000  1.0
  Se  Se69  1  0.19980000  0.87069000  0.89490000  1.0
  Se  Se70  1  0.80020000  0.12931000  0.10510000  1.0
  Se  Se71  1  0.88903000  0.57197000  0.56491000  1.0
  Se  Se72  1  0.11097000  0.42803000  0.43509000  1.0
  Se  Se73  1  0.44077000  0.77948000  0.76900000  1.0
  Se  Se74  1  0.55924000  0.22051000  0.23100000  1.0
  N  N75  1  0.21096000  0.01527000  0.05700000  1.0
  N  N76  1  0.78904000  0.98472000  0.94300000  1.0
  N  N77  1  0.86318000  0.67367000  0.72813000  1.0
  N  N78  1  0.13683000  0.32634000  0.27187000  1.0
  N  N79  1  0.43642000  0.59404000  0.61671000  1.0
  N  N80  1  0.56358000  0.40596000  0.38329000  1.0
  N  N81  1  0.70237000  0.59171000  0.89197000  1.0
  N  N82  1  0.29764000  0.40829000  0.10803000  1.0
  N  N83  1  0.92963000  0.06869000  0.78153000  1.0
  N  N84  1  0.07037000  0.93131000  0.21847000  1.0
  N  N85  1  0.58218000  0.75851000  0.46335000  1.0
  N  N86  1  0.41782000  0.24149000  0.53665000  1.0
