# generated using pymatgen
data_V2ZnH14C10(N2O3)2
_symmetry_space_group_name_H-M   'P 1'
_cell_length_a   9.18451000
_cell_length_b   10.55910000
_cell_length_c   18.41110000
_cell_angle_alpha   97.20160000
_cell_angle_beta   89.98540000
_cell_angle_gamma   115.78800000
_symmetry_Int_Tables_number   1
_chemical_formula_structural   V2ZnH14C10(N2O3)2
_chemical_formula_sum   'V8 Zn4 H56 C40 N16 O24'
_cell_volume   1592.06190774
_cell_formula_units_Z   4
loop_
 _symmetry_equiv_pos_site_id
 _symmetry_equiv_pos_as_xyz
  1  'x, y, z'
loop_
 _atom_site_type_symbol
 _atom_site_label
 _atom_site_symmetry_multiplicity
 _atom_site_fract_x
 _atom_site_fract_y
 _atom_site_fract_z
 _atom_site_occupancy
  V  V0  1  0.91856000  0.85302000  0.33459000  1.0
  V  V1  1  0.93433000  0.85309000  0.83448000  1.0
  V  V2  1  0.22448000  0.76126000  0.38858000  1.0
  V  V3  1  0.53670000  0.76135000  0.88853000  1.0
  V  V4  1  0.31041000  0.49562000  0.31908000  1.0
  V  V5  1  0.18510000  0.49565000  0.81933000  1.0
  V  V6  1  0.60393000  0.69416000  0.22438000  1.0
  V  V7  1  0.09049000  0.69415000  0.72450000  1.0
  Zn  Zn8  1  0.25996000  0.78189000  0.56869000  1.0
  Zn  Zn9  1  0.52202000  0.78182000  0.06865000  1.0
  Zn  Zn10  1  0.99475000  0.20108000  0.35328000  1.0
  Zn  Zn11  1  0.20628000  0.20113000  0.85335000  1.0
  H  H12  1  0.13029000  0.46868000  0.48133000  1.0
  H  H13  1  0.33862000  0.46873000  0.98138000  1.0
  H  H14  1  0.07463000  0.42463000  0.62689000  1.0
  H  H15  1  0.34993000  0.42465000  0.12696000  1.0
  H  H16  1  0.92096000  0.02677000  0.49191000  1.0
  H  H17  1  0.10595000  0.02684000  0.99195000  1.0
  H  H18  1  0.01270000  0.20141000  0.68991000  1.0
  H  H19  1  0.18880000  0.20158000  0.18997000  1.0
  H  H20  1  0.94389000  0.03482000  0.63440000  1.0
  H  H21  1  0.09096000  0.03493000  0.13452000  1.0
  H  H22  1  0.73989000  0.20118000  0.66094000  1.0
  H  H23  1  0.46139000  0.20139000  0.16093000  1.0
  H  H24  1  0.67619000  0.03225000  0.60871000  1.0
  H  H25  1  0.35615000  0.03247000  0.10869000  1.0
  H  H26  1  0.56912000  0.96956000  0.72321000  1.0
  H  H27  1  0.40077000  0.96984000  0.22317000  1.0
  H  H28  1  0.75134000  0.95419000  0.72843000  1.0
  H  H29  1  0.20304000  0.95417000  0.22838000  1.0
  H  H30  1  0.74105000  0.07361000  0.84342000  1.0
  H  H31  1  0.33233000  0.07361000  0.34338000  1.0
  H  H32  1  0.88028000  0.21307000  0.79870000  1.0
  H  H33  1  0.33263000  0.21308000  0.29868000  1.0
  H  H34  1  0.80906000  0.41753000  0.78310000  1.0
  H  H35  1  0.60852000  0.41768000  0.28320000  1.0
  H  H36  1  0.53027000  0.45707000  0.80806000  1.0
  H  H37  1  0.92678000  0.45720000  0.30820000  1.0
  H  H38  1  0.43532000  0.03772000  0.83877000  1.0
  H  H39  1  0.60217000  0.03785000  0.33885000  1.0
  H  H40  1  0.25278000  0.01967000  0.69664000  1.0
  H  H41  1  0.76636000  0.01964000  0.19663000  1.0
  H  H42  1  0.35743000  0.29939000  0.67060000  1.0
  H  H43  1  0.94154000  0.29934000  0.17058000  1.0
  H  H44  1  0.41233000  0.05274000  0.48140000  1.0
  H  H45  1  0.64023000  0.05261000  0.98137000  1.0
  H  H46  1  0.43963000  0.41806000  0.55691000  1.0
  H  H47  1  0.97833000  0.41794000  0.05693000  1.0
  H  H48  1  0.42208000  0.31361000  0.47207000  1.0
  H  H49  1  0.89165000  0.31351000  0.97208000  1.0
  H  H50  1  0.68774000  0.31171000  0.50005000  1.0
  H  H51  1  0.62405000  0.31170000  0.99988000  1.0
  H  H52  1  0.71215000  0.41820000  0.58500000  1.0
  H  H53  1  0.70589000  0.41813000  0.08487000  1.0
  H  H54  1  0.85481000  0.53368000  0.46779000  1.0
  H  H55  1  0.67952000  0.53371000  0.96760000  1.0
  H  H56  1  0.66364000  0.52301000  0.44301000  1.0
  H  H57  1  0.86010000  0.52296000  0.94299000  1.0
  H  H58  1  0.87605000  0.68112000  0.58414000  1.0
  H  H59  1  0.80512000  0.68095000  0.08403000  1.0
  H  H60  1  0.85188000  0.75725000  0.50655000  1.0
  H  H61  1  0.90556000  0.75719000  0.00649000  1.0
  H  H62  1  0.55909000  0.74957000  0.48359000  1.0
  H  H63  1  0.19098000  0.75006000  0.98371000  1.0
  H  H64  1  0.40448000  0.68569000  0.69873000  1.0
  H  H65  1  0.28126000  0.68592000  0.19882000  1.0
  H  H66  1  0.67926000  0.64033000  0.68108000  1.0
  H  H67  1  0.96110000  0.64052000  0.18110000  1.0
  C  C68  1  0.07943000  0.37050000  0.50508000  1.0
  C  C69  1  0.29126000  0.37055000  0.00514000  1.0
  C  C70  1  0.05352000  0.35061000  0.57710000  1.0
  C  C71  1  0.29717000  0.35067000  0.07716000  1.0
  C  C72  1  0.97307000  0.14113000  0.50841000  1.0
  C  C73  1  0.16822000  0.14119000  0.00847000  1.0
  C  C74  1  0.93046000  0.13396000  0.64280000  1.0
  C  C75  1  0.20356000  0.13408000  0.14287000  1.0
  C  C76  1  0.75433000  0.10225000  0.65644000  1.0
  C  C77  1  0.34801000  0.10243000  0.15644000  1.0
  C  C78  1  0.70147000  0.03108000  0.72557000  1.0
  C  C79  1  0.32978000  0.03121000  0.22555000  1.0
  C  C80  1  0.75374000  0.13359000  0.79739000  1.0
  C  C81  1  0.37974000  0.13365000  0.29738000  1.0
  C  C82  1  0.68954000  0.34618000  0.79773000  1.0
  C  C83  1  0.65662000  0.34633000  0.29786000  1.0
  C  C84  1  0.55205000  0.36454000  0.81040000  1.0
  C  C85  1  0.81245000  0.36469000  0.31056000  1.0
  C  C86  1  0.49636000  0.14702000  0.82780000  1.0
  C  C87  1  0.65050000  0.14715000  0.32788000  1.0
  C  C88  1  0.30095000  0.06839000  0.64812000  1.0
  C  C89  1  0.76698000  0.06834000  0.14811000  1.0
  C  C90  1  0.35279000  0.20674000  0.63590000  1.0
  C  C91  1  0.85355000  0.20669000  0.13589000  1.0
  C  C92  1  0.38246000  0.08115000  0.53633000  1.0
  C  C93  1  0.69849000  0.08107000  0.03629000  1.0
  C  C94  1  0.47605000  0.33986000  0.52840000  1.0
  C  C95  1  0.86375000  0.33975000  0.02839000  1.0
  C  C96  1  0.66055000  0.39652000  0.52821000  1.0
  C  C97  1  0.73601000  0.39646000  0.02811000  1.0
  C  C98  1  0.74180000  0.52921000  0.48989000  1.0
  C  C99  1  0.78792000  0.52918000  0.98980000  1.0
  C  C100  1  0.79153000  0.67064000  0.53919000  1.0
  C  C101  1  0.87941000  0.67063000  0.03914000  1.0
  C  C102  1  0.55125000  0.72644000  0.53966000  1.0
  C  C103  1  0.17557000  0.72690000  0.03977000  1.0
  C  C104  1  0.47377000  0.68892000  0.65080000  1.0
  C  C105  1  0.21531000  0.68922000  0.15089000  1.0
  C  C106  1  0.60870000  0.66513000  0.64290000  1.0
  C  C107  1  0.05658000  0.66543000  0.14296000  1.0
  N  N108  1  0.02938000  0.23900000  0.46274000  1.0
  N  N109  1  0.20987000  0.23904000  0.96280000  1.0
  N  N110  1  0.98691000  0.20547000  0.57811000  1.0
  N  N111  1  0.21860000  0.20554000  0.07817000  1.0
  N  N112  1  0.65217000  0.20869000  0.80928000  1.0
  N  N113  1  0.55642000  0.20883000  0.30937000  1.0
  N  N114  1  0.43274000  0.23933000  0.82907000  1.0
  N  N115  1  0.80648000  0.23945000  0.32920000  1.0
  N  N116  1  0.31991000  0.99094000  0.58539000  1.0
  N  N117  1  0.67071000  0.99089000  0.08537000  1.0
  N  N118  1  0.40294000  0.21256000  0.56502000  1.0
  N  N119  1  0.80940000  0.21247000  0.06500000  1.0
  N  N120  1  0.65582000  0.68925000  0.57258000  1.0
  N  N121  1  0.03371000  0.68955000  0.07263000  1.0
  N  N122  1  0.43943000  0.72782000  0.58615000  1.0
  N  N123  1  0.28867000  0.72820000  0.08626000  1.0
  O  O124  1  0.79985000  0.72032000  0.25850000  1.0
  O  O125  1  0.92065000  0.72055000  0.75838000  1.0
  O  O126  1  0.56588000  0.82528000  0.25890000  1.0
  O  O127  1  0.25970000  0.82527000  0.75899000  1.0
  O  O128  1  0.45169000  0.52824000  0.24740000  1.0
  O  O129  1  0.07631000  0.52828000  0.74776000  1.0
  O  O130  1  0.16071000  0.32880000  0.29627000  1.0
  O  O131  1  0.16776000  0.32879000  0.79648000  1.0
  O  O132  1  0.40020000  0.50778000  0.39753000  1.0
  O  O133  1  0.10789000  0.50801000  0.89790000  1.0
  O  O134  1  0.21862000  0.61551000  0.32420000  1.0
  O  O135  1  0.39680000  0.61545000  0.82422000  1.0
  O  O136  1  0.40736000  0.89032000  0.40247000  1.0
  O  O137  1  0.48277000  0.89030000  0.90254000  1.0
  O  O138  1  0.09441000  0.82660000  0.35144000  1.0
  O  O139  1  0.73200000  0.82673000  0.85124000  1.0
  O  O140  1  0.15980000  0.70299000  0.46952000  1.0
  O  O141  1  0.54331000  0.70306000  0.96945000  1.0
  O  O142  1  0.97858000  0.01781000  0.31123000  1.0
  O  O143  1  0.03939000  0.01789000  0.81117000  1.0
  O  O144  1  0.81667000  0.83877000  0.40807000  1.0
  O  O145  1  0.02165000  0.83864000  0.90797000  1.0
  O  O146  1  0.08720000  0.68240000  0.63172000  1.0
  O  O147  1  0.59596000  0.68268000  0.13159000  1.0
