# generated using pymatgen
data_Zn2H20C21SN2O9
_symmetry_space_group_name_H-M   'P 1'
_cell_length_a   7.79293000
_cell_length_b   11.14560000
_cell_length_c   14.52910000
_cell_angle_alpha   71.73140000
_cell_angle_beta   74.45090000
_cell_angle_gamma   69.54430000
_symmetry_Int_Tables_number   1
_chemical_formula_structural   Zn2H20C21SN2O9
_chemical_formula_sum   'Zn4 H40 C42 S2 N4 O18'
_cell_volume   1104.81963132
_cell_formula_units_Z   2
loop_
 _symmetry_equiv_pos_site_id
 _symmetry_equiv_pos_as_xyz
  1  'x, y, z'
loop_
 _atom_site_type_symbol
 _atom_site_label
 _atom_site_symmetry_multiplicity
 _atom_site_fract_x
 _atom_site_fract_y
 _atom_site_fract_z
 _atom_site_occupancy
  Zn  Zn0  1  0.66997000  0.00170000  0.55676000  1.0
  Zn  Zn1  1  0.77126000  0.50165000  0.05691000  1.0
  Zn  Zn2  1  0.88102000  0.71579000  0.62956000  1.0
  Zn  Zn3  1  0.77338000  0.21583000  0.12959000  1.0
  H  H4  1  0.54193000  0.82010000  0.65746000  1.0
  H  H5  1  0.98037000  0.32007000  0.15751000  1.0
  H  H6  1  0.14940000  0.78136000  0.67179000  1.0
  H  H7  1  0.39732000  0.28144000  0.17185000  1.0
  H  H8  1  0.94736000  0.88487000  0.70230000  1.0
  H  H9  1  0.46546000  0.38494000  0.20238000  1.0
  H  H10  1  0.22110000  0.66213000  0.35738000  1.0
  H  H11  1  0.75948000  0.16241000  0.85738000  1.0
  H  H12  1  0.45744000  0.88080000  0.08037000  1.0
  H  H13  1  0.58179000  0.38088000  0.58025000  1.0
  H  H14  1  0.06587000  0.08583000  0.29323000  1.0
  H  H15  1  0.55515000  0.58614000  0.79309000  1.0
  H  H16  1  0.55681000  0.27052000  0.44546000  1.0
  H  H17  1  0.72698000  0.77047000  0.94536000  1.0
  H  H18  1  0.28242000  0.43323000  0.38016000  1.0
  H  H19  1  0.90400000  0.93320000  0.88030000  1.0
  H  H20  1  0.01967000  0.12032000  0.47282000  1.0
  H  H21  1  0.38666000  0.62028000  0.97311000  1.0
  H  H22  1  0.30813000  0.96845000  0.53449000  1.0
  H  H23  1  0.18835000  0.46846000  0.03469000  1.0
  H  H24  1  0.82919000  0.37812000  0.44446000  1.0
  H  H25  1  0.34791000  0.87811000  0.94479000  1.0
  H  H26  1  0.92730000  0.35317000  0.32604000  1.0
  H  H27  1  0.39327000  0.85294000  0.82641000  1.0
  H  H28  1  0.96093000  0.56839000  0.40558000  1.0
  H  H29  1  0.06503000  0.06854000  0.90554000  1.0
  H  H30  1  0.07278000  0.53906000  0.28824000  1.0
  H  H31  1  0.10015000  0.03897000  0.78827000  1.0
  H  H32  1  0.76167000  0.58134000  0.24616000  1.0
  H  H33  1  0.41103000  0.08126000  0.74631000  1.0
  H  H34  1  0.64977000  0.61415000  0.36329000  1.0
  H  H35  1  0.37281000  0.11416000  0.86345000  1.0
  H  H36  1  0.57586000  0.06904000  0.30606000  1.0
  H  H37  1  0.04896000  0.56892000  0.80615000  1.0
  H  H38  1  0.56370000  0.83603000  0.37995000  1.0
  H  H39  1  0.22039000  0.33599000  0.88006000  1.0
  H  H40  1  0.98843000  0.72673000  0.13623000  1.0
  H  H41  1  0.14850000  0.22652000  0.63640000  1.0
  H  H42  1  0.98713000  0.96243000  0.07362000  1.0
  H  H43  1  0.97671000  0.46219000  0.57377000  1.0
  C  C44  1  0.13386000  0.87292000  0.33577000  1.0
  C  C45  1  0.65757000  0.37325000  0.83565000  1.0
  C  C46  1  0.23420000  0.75525000  0.30705000  1.0
  C  C47  1  0.70359000  0.25550000  0.80701000  1.0
  C  C48  1  0.34768000  0.75780000  0.21446000  1.0
  C  C49  1  0.68013000  0.25791000  0.71443000  1.0
  C  C50  1  0.36641000  0.87833000  0.15185000  1.0
  C  C51  1  0.60376000  0.37845000  0.65174000  1.0
  C  C52  1  0.26533000  0.99529000  0.18038000  1.0
  C  C53  1  0.55925000  0.49546000  0.68024000  1.0
  C  C54  1  0.14812000  0.99411000  0.27185000  1.0
  C  C55  1  0.58601000  0.49441000  0.77172000  1.0
  C  C56  1  0.00265000  0.86748000  0.43237000  1.0
  C  C57  1  0.69752000  0.36785000  0.93229000  1.0
  C  C58  1  0.44350000  0.63390000  0.17921000  1.0
  C  C59  1  0.74346000  0.13395000  0.67917000  1.0
  C  C60  1  0.43469000  0.24115000  0.45020000  1.0
  C  C61  1  0.87363000  0.74115000  0.95026000  1.0
  C  C62  1  0.27822000  0.33235000  0.41504000  1.0
  C  C63  1  0.97410000  0.83232000  0.91522000  1.0
  C  C64  1  0.12277000  0.29249000  0.42186000  1.0
  C  C65  1  0.16250000  0.79246000  0.92216000  1.0
  C  C66  1  0.13511000  0.15851000  0.46526000  1.0
  C  C67  1  0.24062000  0.65848000  0.96552000  1.0
  C  C68  1  0.29567000  0.07262000  0.49952000  1.0
  C  C69  1  0.13165000  0.57261000  0.99970000  1.0
  C  C70  1  0.94937000  0.38709000  0.38459000  1.0
  C  C71  1  0.27868000  0.88700000  0.88490000  1.0
  C  C72  1  0.94999000  0.53123000  0.34616000  1.0
  C  C73  1  0.17270000  0.03120000  0.84625000  1.0
  C  C74  1  0.77258000  0.61951000  0.30511000  1.0
  C  C75  1  0.30298000  0.11943000  0.80523000  1.0
  C  C76  1  0.66588000  0.98938000  0.27168000  1.0
  C  C77  1  0.07309000  0.48924000  0.77176000  1.0
  C  C78  1  0.65895000  0.86014000  0.31165000  1.0
  C  C79  1  0.16938000  0.36005000  0.81174000  1.0
  C  C80  1  0.77436000  0.76084000  0.26409000  1.0
  C  C81  1  0.20081000  0.26072000  0.76419000  1.0
  C  C82  1  0.89411000  0.79920000  0.17664000  1.0
  C  C83  1  0.13002000  0.29902000  0.67679000  1.0
  C  C84  1  0.89480000  0.92999000  0.14087000  1.0
  C  C85  1  0.03428000  0.42980000  0.64102000  1.0
  S  S86  1  0.26175000  0.14525000  0.08837000  1.0
  S  S87  1  0.50501000  0.64532000  0.58821000  1.0
  N  N88  1  0.44453000  0.11310000  0.49254000  1.0
  N  N89  1  0.94939000  0.61310000  0.99264000  1.0
  N  N90  1  0.78257000  0.02450000  0.18766000  1.0
  N  N91  1  0.00516000  0.52436000  0.68777000  1.0
  O  O92  1  0.89023000  0.97757000  0.44867000  1.0
  O  O93  1  0.68343000  0.47796000  0.94861000  1.0
  O  O94  1  0.01063000  0.75454000  0.48985000  1.0
  O  O95  1  0.74502000  0.25492000  0.98979000  1.0
  O  O96  1  0.56102000  0.64687000  0.09786000  1.0
  O  O97  1  0.69393000  0.14685000  0.59792000  1.0
  O  O98  1  0.40299000  0.52940000  0.22817000  1.0
  O  O99  1  0.83980000  0.02951000  0.72802000  1.0
  O  O100  1  0.10096000  0.16723000  0.04330000  1.0
  O  O101  1  0.68892000  0.66730000  0.54320000  1.0
  O  O102  1  0.43918000  0.12572000  0.02152000  1.0
  O  O103  1  0.41407000  0.62576000  0.52132000  1.0
  O  O104  1  0.22357000  0.24952000  0.14169000  1.0
  O  O105  1  0.38550000  0.74955000  0.64151000  1.0
  O  O106  1  0.64483000  0.84883000  0.66266000  1.0
  O  O107  1  0.84355000  0.34879000  0.16274000  1.0
  O  O108  1  0.01353000  0.79292000  0.69334000  1.0
  O  O109  1  0.50015000  0.29301000  0.19336000  1.0
