# generated using pymatgen
data_ZnH19C23N4O9
_symmetry_space_group_name_H-M   'P 1'
_cell_length_a   10.87940000
_cell_length_b   14.69050000
_cell_length_c   16.04190000
_cell_angle_alpha   90.56990000
_cell_angle_beta   90.94280000
_cell_angle_gamma   91.66380000
_symmetry_Int_Tables_number   1
_chemical_formula_structural   ZnH19C23N4O9
_chemical_formula_sum   'Zn2 H38 C46 N8 O18'
_cell_volume   2562.31057556
_cell_formula_units_Z   2
loop_
 _symmetry_equiv_pos_site_id
 _symmetry_equiv_pos_as_xyz
  1  'x, y, z'
loop_
 _atom_site_type_symbol
 _atom_site_label
 _atom_site_symmetry_multiplicity
 _atom_site_fract_x
 _atom_site_fract_y
 _atom_site_fract_z
 _atom_site_occupancy
  Zn  Zn0  1  0.50128000  0.59596000  0.50777000  1.0
  Zn  Zn1  1  0.49649000  0.40037000  0.49532000  1.0
  H  H2  1  0.30286000  0.57948000  0.05250000  1.0
  H  H3  1  0.68023000  0.43080000  0.95136000  1.0
  H  H4  1  0.29968000  0.08123000  0.52304000  1.0
  H  H5  1  0.68640000  0.91487000  0.47624000  1.0
  H  H6  1  0.26894000  0.16715000  0.20497000  1.0
  H  H7  1  0.67614000  0.79498000  0.78306000  1.0
  H  H8  1  0.28284000  0.83047000  0.54581000  1.0
  H  H9  1  0.08969000  0.88506000  0.56503000  1.0
  H  H10  1  0.13146000  0.98916000  0.51658000  1.0
  H  H11  1  0.16927000  0.97304000  0.62394000  1.0
  H  H12  1  0.70588000  0.16581000  0.45697000  1.0
  H  H13  1  0.89862000  0.11057000  0.44078000  1.0
  H  H14  1  0.82495000  0.01801000  0.38467000  1.0
  H  H15  1  0.85452000  0.00973000  0.49390000  1.0
  H  H16  1  0.30044000  0.37913000  0.18546000  1.0
  H  H17  1  0.48375000  0.30558000  0.15825000  1.0
  H  H18  1  0.44956000  0.22341000  0.23555000  1.0
  H  H19  1  0.48405000  0.33819000  0.26659000  1.0
  H  H20  1  0.66300000  0.60498000  0.80382000  1.0
  H  H21  1  0.72533000  0.66782000  0.93416000  1.0
  H  H22  1  0.82031000  0.75072000  0.88419000  1.0
  H  H23  1  0.86609000  0.63571000  0.88746000  1.0
  H  H24  1  0.18107000  0.51194000  0.34373000  1.0
  H  H25  1  0.14951000  0.55920000  0.20409000  1.0
  H  H26  1  0.02377000  0.48437000  0.23157000  1.0
  H  H27  1  0.14510000  0.44381000  0.17016000  1.0
  H  H28  1  0.83437000  0.47172000  0.65020000  1.0
  H  H29  1  0.97065000  0.50043000  0.78158000  1.0
  H  H30  1  0.86073000  0.40736000  0.77833000  1.0
  H  H31  1  0.82569000  0.50940000  0.83095000  1.0
  H  H32  1  0.04637000  0.30207000  0.53475000  1.0
  H  H33  1  0.92998000  0.68663000  0.46178000  1.0
  H  H34  1  0.17197000  0.06791000  0.36200000  1.0
  H  H35  1  0.78329000  0.91089000  0.63574000  1.0
  H  H36  1  0.93767000  0.34700000  0.35561000  1.0
  H  H37  1  0.05589000  0.63917000  0.64191000  1.0
  H  H38  1  0.33778000  0.54888000  0.83444000  1.0
  H  H39  1  0.64511000  0.46236000  0.16939000  1.0
  C  C40  1  0.52568000  0.48182000  0.66253000  1.0
  C  C41  1  0.46961000  0.52575000  0.34141000  1.0
  C  C42  1  0.86998000  0.50020000  0.48711000  1.0
  C  C43  1  0.12686000  0.48810000  0.50932000  1.0
  C  C44  1  0.93277000  0.55857000  0.54472000  1.0
  C  C45  1  0.06371000  0.42920000  0.45183000  1.0
  C  C46  1  0.38522000  0.54713000  0.03038000  1.0
  C  C47  1  0.59799000  0.46325000  0.97353000  1.0
  C  C48  1  0.47535000  0.51887000  0.08763000  1.0
  C  C49  1  0.50791000  0.49163000  0.91627000  1.0
  C  C50  1  0.58275000  0.47658000  0.05851000  1.0
  C  C51  1  0.40046000  0.53371000  0.94534000  1.0
  C  C52  1  0.46464000  0.52871000  0.17483000  1.0
  C  C53  1  0.52056000  0.48176000  0.82916000  1.0
  C  C54  1  0.52408000  0.48049000  0.75312000  1.0
  C  C55  1  0.46608000  0.52836000  0.25094000  1.0
  C  C56  1  0.38017000  0.94795000  0.52058000  1.0
  C  C57  1  0.60593000  0.04818000  0.47848000  1.0
  C  C58  1  0.49476000  0.90521000  0.50610000  1.0
  C  C59  1  0.49132000  0.09097000  0.49282000  1.0
  C  C60  1  0.60330000  0.95299000  0.48502000  1.0
  C  C61  1  0.38267000  0.04314000  0.51375000  1.0
  C  C62  1  0.26429000  0.48739000  0.51576000  1.0
  C  C63  1  0.73223000  0.49941000  0.48330000  1.0
  C  C64  1  0.50045000  0.81017000  0.51488000  1.0
  C  C65  1  0.48829000  0.18615000  0.48510000  1.0
  C  C66  1  0.23540000  0.30442000  0.28051000  1.0
  C  C67  1  0.77751000  0.67499000  0.72697000  1.0
  C  C68  1  0.18365000  0.37609000  0.32608000  1.0
  C  C69  1  0.82366000  0.60495000  0.67648000  1.0
  C  C70  1  0.12312000  0.35665000  0.40166000  1.0
  C  C71  1  0.87259000  0.62815000  0.59764000  1.0
  C  C72  1  0.11363000  0.26632000  0.43079000  1.0
  C  C73  1  0.87335000  0.71900000  0.56959000  1.0
  C  C74  1  0.15537000  0.19466000  0.38191000  1.0
  C  C75  1  0.82863000  0.78817000  0.61999000  1.0
  C  C76  1  0.21336000  0.21492000  0.30717000  1.0
  C  C77  1  0.77987000  0.76432000  0.69683000  1.0
  C  C78  1  0.93567000  0.43693000  0.44026000  1.0
  C  C79  1  0.06108000  0.55141000  0.55600000  1.0
  C  C80  1  0.16127000  0.93889000  0.56240000  1.0
  C  C81  1  0.82758000  0.05651000  0.44413000  1.0
  C  C82  1  0.43872000  0.29485000  0.21822000  1.0
  C  C83  1  0.78592000  0.67968000  0.88105000  1.0
  C  C84  1  0.12431000  0.48940000  0.22245000  1.0
  C  C85  1  0.87155000  0.48179000  0.77630000  1.0
  N  N86  1  0.49219000  0.26478000  0.47681000  1.0
  N  N87  1  0.50236000  0.73175000  0.52398000  1.0
  N  N88  1  0.27572000  0.89851000  0.53806000  1.0
  N  N89  1  0.71057000  0.09722000  0.46124000  1.0
  N  N90  1  0.30654000  0.31471000  0.20759000  1.0
  N  N91  1  0.71427000  0.66421000  0.80344000  1.0
  N  N92  1  0.19599000  0.46626000  0.29706000  1.0
  N  N93  1  0.81441000  0.51303000  0.69909000  1.0
  O  O94  1  0.53046000  0.56091000  0.63075000  1.0
  O  O95  1  0.48172000  0.44716000  0.37292000  1.0
  O  O96  1  0.51909000  0.40531000  0.62541000  1.0
  O  O97  1  0.46291000  0.60129000  0.37962000  1.0
  O  O98  1  0.31901000  0.56485000  0.51855000  1.0
  O  O99  1  0.68037000  0.42144000  0.49086000  1.0
  O  O100  1  0.31411000  0.41020000  0.51414000  1.0
  O  O101  1  0.68013000  0.57535000  0.47723000  1.0
  O  O102  1  0.24961000  0.14198000  0.25995000  1.0
  O  O103  1  0.72370000  0.83078000  0.74158000  1.0
  O  O104  1  0.06074000  0.24473000  0.50549000  1.0
  O  O105  1  0.91764000  0.74300000  0.49310000  1.0
  O  O106  1  0.13870000  0.10545000  0.40650000  1.0
  O  O107  1  0.82617000  0.87701000  0.59280000  1.0
  O  O108  1  0.87437000  0.38379000  0.38190000  1.0
  O  O109  1  0.12080000  0.60424000  0.61512000  1.0
  O  O110  1  0.31117000  0.56162000  0.89141000  1.0
  O  O111  1  0.67181000  0.44854000  0.11258000  1.0
