# generated using pymatgen
data_MnH8C16N2(O2F3)2
_symmetry_space_group_name_H-M   'P 1'
_cell_length_a   7.42277000
_cell_length_b   11.26130000
_cell_length_c   11.26130000
_cell_angle_alpha   61.71950000
_cell_angle_beta   81.35140000
_cell_angle_gamma   81.35180000
_symmetry_Int_Tables_number   1
_chemical_formula_structural   MnH8C16N2(O2F3)2
_chemical_formula_sum   'Mn2 H16 C32 N4 O8 F12'
_cell_volume   816.15634819
_cell_formula_units_Z   2
loop_
 _symmetry_equiv_pos_site_id
 _symmetry_equiv_pos_as_xyz
  1  'x, y, z'
loop_
 _atom_site_type_symbol
 _atom_site_label
 _atom_site_symmetry_multiplicity
 _atom_site_fract_x
 _atom_site_fract_y
 _atom_site_fract_z
 _atom_site_occupancy
  Mn  Mn0  1  0.25000000  0.12957000  0.87043000  1.0
  Mn  Mn1  1  0.75000000  0.87043000  0.12957000  1.0
  H  H2  1  0.99553000  0.34475000  0.95196000  1.0
  H  H3  1  0.50448000  0.04805000  0.65525000  1.0
  H  H4  1  0.00446000  0.65525000  0.04804000  1.0
  H  H5  1  0.49553000  0.95195000  0.34475000  1.0
  H  H6  1  0.87839000  0.59081000  0.83695000  1.0
  H  H7  1  0.62161000  0.16305000  0.40919000  1.0
  H  H8  1  0.12160000  0.40919000  0.16305000  1.0
  H  H9  1  0.37840000  0.83695000  0.59081000  1.0
  H  H10  1  0.96963000  0.72953000  0.58965000  1.0
  H  H11  1  0.53036000  0.41035000  0.27047000  1.0
  H  H12  1  0.03037000  0.27047000  0.41035000  1.0
  H  H13  1  0.46964000  0.58965000  0.72953000  1.0
  H  H14  1  0.14449000  0.73904000  0.37391000  1.0
  H  H15  1  0.35549000  0.62610000  0.26096000  1.0
  H  H16  1  0.85550000  0.26096000  0.62609000  1.0
  H  H17  1  0.64450000  0.37391000  0.73904000  1.0
  C  C18  1  0.00438000  0.04432000  0.28664000  1.0
  C  C19  1  0.49561000  0.71337000  0.95568000  1.0
  C  C20  1  0.99563000  0.95567000  0.71337000  1.0
  C  C21  1  0.50437000  0.28663000  0.04432000  1.0
  C  C22  1  0.05778000  0.01880000  0.16061000  1.0
  C  C23  1  0.44221000  0.83939000  0.98119000  1.0
  C  C24  1  0.94222000  0.98120000  0.83938000  1.0
  C  C25  1  0.55778000  0.16061000  0.01880000  1.0
  C  C26  1  0.03157000  0.40852000  0.84451000  1.0
  C  C27  1  0.46843000  0.15550000  0.59148000  1.0
  C  C28  1  0.96843000  0.59148000  0.15549000  1.0
  C  C29  1  0.53157000  0.84451000  0.40852000  1.0
  C  C30  1  0.96724000  0.54622000  0.77958000  1.0
  C  C31  1  0.53277000  0.22042000  0.45378000  1.0
  C  C32  1  0.03276000  0.45379000  0.22042000  1.0
  C  C33  1  0.46724000  0.77958000  0.54621000  1.0
  C  C34  1  0.01750000  0.62256000  0.64306000  1.0
  C  C35  1  0.48250000  0.35695000  0.37744000  1.0
  C  C36  1  0.98250000  0.37745000  0.35695000  1.0
  C  C37  1  0.51750000  0.64305000  0.62256000  1.0
  C  C38  1  0.13253000  0.56112000  0.57184000  1.0
  C  C39  1  0.36746000  0.42816000  0.43888000  1.0
  C  C40  1  0.86747000  0.43888000  0.42816000  1.0
  C  C41  1  0.63254000  0.57184000  0.56112000  1.0
  C  C42  1  0.19112000  0.42160000  0.64614000  1.0
  C  C43  1  0.30888000  0.35386000  0.57840000  1.0
  C  C44  1  0.80888000  0.57840000  0.35386000  1.0
  C  C45  1  0.69113000  0.64614000  0.42160000  1.0
  C  C46  1  0.19262000  0.63262000  0.43085000  1.0
  C  C47  1  0.30737000  0.56916000  0.36739000  1.0
  C  C48  1  0.80738000  0.36738000  0.56915000  1.0
  C  C49  1  0.69263000  0.43085000  0.63262000  1.0
  N  N50  1  0.14018000  0.34794000  0.77994000  1.0
  N  N51  1  0.35982000  0.22006000  0.65206000  1.0
  N  N52  1  0.85981000  0.65206000  0.22006000  1.0
  N  N53  1  0.64018000  0.77994000  0.34794000  1.0
  O  O54  1  0.15030000  0.10905000  0.06678000  1.0
  O  O55  1  0.34969000  0.93322000  0.89095000  1.0
  O  O56  1  0.84970000  0.89095000  0.93322000  1.0
  O  O57  1  0.65031000  0.06677000  0.10905000  1.0
  O  O58  1  0.99108000  0.08591000  0.83355000  1.0
  O  O59  1  0.50893000  0.16643000  0.91409000  1.0
  O  O60  1  0.00892000  0.91409000  0.16643000  1.0
  O  O61  1  0.49108000  0.83357000  0.08591000  1.0
  F  F62  1  0.92075000  0.17144000  0.25156000  1.0
  F  F63  1  0.57925000  0.74844000  0.82856000  1.0
  F  F64  1  0.07928000  0.82855000  0.74846000  1.0
  F  F65  1  0.42074000  0.25155000  0.17145000  1.0
  F  F66  1  0.88962000  0.95545000  0.38281000  1.0
  F  F67  1  0.61037000  0.61719000  0.04454000  1.0
  F  F68  1  0.11039000  0.04454000  0.61719000  1.0
  F  F69  1  0.38961000  0.38280000  0.95546000  1.0
  F  F70  1  0.15686000  0.03241000  0.34797000  1.0
  F  F71  1  0.34313000  0.65203000  0.96759000  1.0
  F  F72  1  0.84316000  0.96757000  0.65203000  1.0
  F  F73  1  0.65685000  0.34797000  0.03242000  1.0
