# generated using pymatgen
data_CdH12C14(NO2)2
_symmetry_space_group_name_H-M   'P 1'
_cell_length_a   6.83782000
_cell_length_b   10.55700000
_cell_length_c   18.55050000
_cell_angle_alpha   90.00000000
_cell_angle_beta   94.29910000
_cell_angle_gamma   90.00000000
_symmetry_Int_Tables_number   1
_chemical_formula_structural   CdH12C14(NO2)2
_chemical_formula_sum   'Cd4 H48 C56 N8 O16'
_cell_volume   1335.33463529
_cell_formula_units_Z   4
loop_
 _symmetry_equiv_pos_site_id
 _symmetry_equiv_pos_as_xyz
  1  'x, y, z'
loop_
 _atom_site_type_symbol
 _atom_site_label
 _atom_site_symmetry_multiplicity
 _atom_site_fract_x
 _atom_site_fract_y
 _atom_site_fract_z
 _atom_site_occupancy
  Cd  Cd0  1  0.24943000  0.92049000  0.49004000  1.0
  Cd  Cd1  1  0.75057000  0.42049000  0.00997000  1.0
  Cd  Cd2  1  0.75057000  0.07952000  0.50996000  1.0
  Cd  Cd3  1  0.24943000  0.57952000  0.99004000  1.0
  H  H4  1  0.57616000  0.68816000  0.72409000  1.0
  H  H5  1  0.42384000  0.18815000  0.77591000  1.0
  H  H6  1  0.42384000  0.31184000  0.27591000  1.0
  H  H7  1  0.57616000  0.81184000  0.22409000  1.0
  H  H8  1  0.31760000  0.52531000  0.74080000  1.0
  H  H9  1  0.68241000  0.02531000  0.75921000  1.0
  H  H10  1  0.68241000  0.47470000  0.25920000  1.0
  H  H11  1  0.31759000  0.97469000  0.24079000  1.0
  H  H12  1  0.02449000  0.51766000  0.65156000  1.0
  H  H13  1  0.97552000  0.01765000  0.84844000  1.0
  H  H14  1  0.97552000  0.48234000  0.34844000  1.0
  H  H15  1  0.02448000  0.98235000  0.15156000  1.0
  H  H16  1  0.88015000  0.76791000  0.53142000  1.0
  H  H17  1  0.11986000  0.26791000  0.96859000  1.0
  H  H18  1  0.11985000  0.23209000  0.46858000  1.0
  H  H19  1  0.88014000  0.73209000  0.03142000  1.0
  H  H20  1  0.83679000  0.60559000  0.55116000  1.0
  H  H21  1  0.16321000  0.10559000  0.94884000  1.0
  H  H22  1  0.16321000  0.39441000  0.44884000  1.0
  H  H23  1  0.83679000  0.89441000  0.05116000  1.0
  H  H24  1  0.98825000  0.64848000  0.48091000  1.0
  H  H25  1  0.01176000  0.14847000  0.01909000  1.0
  H  H26  1  0.01175000  0.35152000  0.51909000  1.0
  H  H27  1  0.98824000  0.85152000  0.98091000  1.0
  H  H28  1  0.84167000  0.75419000  0.25383000  1.0
  H  H29  1  0.15833000  0.25419000  0.24617000  1.0
  H  H30  1  0.15833000  0.24581000  0.74617000  1.0
  H  H31  1  0.84167000  0.74581000  0.75383000  1.0
  H  H32  1  0.07786000  0.59279000  0.21540000  1.0
  H  H33  1  0.92214000  0.09278000  0.28460000  1.0
  H  H34  1  0.92214000  0.40722000  0.78460000  1.0
  H  H35  1  0.07786000  0.90721000  0.71540000  1.0
  H  H36  1  0.39082000  0.55895000  0.29043000  1.0
  H  H37  1  0.60918000  0.05895000  0.20957000  1.0
  H  H38  1  0.60918000  0.44105000  0.70957000  1.0
  H  H39  1  0.39082000  0.94105000  0.79043000  1.0
  H  H40  1  0.57447000  0.77498000  0.43313000  1.0
  H  H41  1  0.42553000  0.27498000  0.06687000  1.0
  H  H42  1  0.42553000  0.22502000  0.56687000  1.0
  H  H43  1  0.57447000  0.72502000  0.93313000  1.0
  H  H44  1  0.61693000  0.62656000  0.39109000  1.0
  H  H45  1  0.38307000  0.12656000  0.10891000  1.0
  H  H46  1  0.38307000  0.37344000  0.60891000  1.0
  H  H47  1  0.61693000  0.87344000  0.89109000  1.0
  H  H48  1  0.47450000  0.63505000  0.46755000  1.0
  H  H49  1  0.52551000  0.13505000  0.03245000  1.0
  H  H50  1  0.52550000  0.36495000  0.53245000  1.0
  H  H51  1  0.47450000  0.86494000  0.96755000  1.0
  C  C52  1  0.42394000  0.76466000  0.62724000  1.0
  C  C53  1  0.57606000  0.26465000  0.87276000  1.0
  C  C54  1  0.57606000  0.23535000  0.37276000  1.0
  C  C55  1  0.42394000  0.73535000  0.12724000  1.0
  C  C56  1  0.44846000  0.68131000  0.68567000  1.0
  C  C57  1  0.55154000  0.18131000  0.81433000  1.0
  C  C58  1  0.55154000  0.31869000  0.31433000  1.0
  C  C59  1  0.44846000  0.81869000  0.18567000  1.0
  C  C60  1  0.30454000  0.59043000  0.69487000  1.0
  C  C61  1  0.69547000  0.09043000  0.80513000  1.0
  C  C62  1  0.69547000  0.40957000  0.30513000  1.0
  C  C63  1  0.30453000  0.90957000  0.19487000  1.0
  C  C64  1  0.14098000  0.58629000  0.64557000  1.0
  C  C65  1  0.85902000  0.08629000  0.85443000  1.0
  C  C66  1  0.85902000  0.41371000  0.35443000  1.0
  C  C67  1  0.14098000  0.91371000  0.14557000  1.0
  C  C68  1  0.12303000  0.67304000  0.58844000  1.0
  C  C69  1  0.87697000  0.17304000  0.91157000  1.0
  C  C70  1  0.87697000  0.32696000  0.41156000  1.0
  C  C71  1  0.12303000  0.82696000  0.08844000  1.0
  C  C72  1  0.57913000  0.86427000  0.61506000  1.0
  C  C73  1  0.42087000  0.36426000  0.88494000  1.0
  C  C74  1  0.42087000  0.13573000  0.38494000  1.0
  C  C75  1  0.57913000  0.63574000  0.11506000  1.0
  C  C76  1  0.94706000  0.67340000  0.53528000  1.0
  C  C77  1  0.05295000  0.17339000  0.96472000  1.0
  C  C78  1  0.05295000  0.32660000  0.46472000  1.0
  C  C79  1  0.94705000  0.82661000  0.03528000  1.0
  C  C80  1  0.02655000  0.80758000  0.34829000  1.0
  C  C81  1  0.97345000  0.30758000  0.15171000  1.0
  C  C82  1  0.97345000  0.19242000  0.65171000  1.0
  C  C83  1  0.02655000  0.69242000  0.84829000  1.0
  C  C84  1  0.97935000  0.73839000  0.28553000  1.0
  C  C85  1  0.02065000  0.23839000  0.21447000  1.0
  C  C86  1  0.02065000  0.26161000  0.71447000  1.0
  C  C87  1  0.97935000  0.76161000  0.78553000  1.0
  C  C88  1  0.11108000  0.64782000  0.26429000  1.0
  C  C89  1  0.88892000  0.14782000  0.23571000  1.0
  C  C90  1  0.88892000  0.35218000  0.73571000  1.0
  C  C91  1  0.11108000  0.85218000  0.76429000  1.0
  C  C92  1  0.28562000  0.62893000  0.30634000  1.0
  C  C93  1  0.71437000  0.12893000  0.19367000  1.0
  C  C94  1  0.71438000  0.37107000  0.69366000  1.0
  C  C95  1  0.28562000  0.87107000  0.80633000  1.0
  C  C96  1  0.32592000  0.70140000  0.36899000  1.0
  C  C97  1  0.67408000  0.20140000  0.13102000  1.0
  C  C98  1  0.67408000  0.29860000  0.63102000  1.0
  C  C99  1  0.32592000  0.79860000  0.86898000  1.0
  C  C100  1  0.88024000  0.90241000  0.37441000  1.0
  C  C101  1  0.11976000  0.40241000  0.12559000  1.0
  C  C102  1  0.11976000  0.09760000  0.62559000  1.0
  C  C103  1  0.88024000  0.59759000  0.87441000  1.0
  C  C104  1  0.50889000  0.68335000  0.41745000  1.0
  C  C105  1  0.49110000  0.18335000  0.08255000  1.0
  C  C106  1  0.49111000  0.31665000  0.58255000  1.0
  C  C107  1  0.50889000  0.81665000  0.91745000  1.0
  N  N108  1  0.26441000  0.75971000  0.57981000  1.0
  N  N109  1  0.73560000  0.25971000  0.92019000  1.0
  N  N110  1  0.73559000  0.24029000  0.42019000  1.0
  N  N111  1  0.26441000  0.74029000  0.07981000  1.0
  N  N112  1  0.19696000  0.78934000  0.38868000  1.0
  N  N113  1  0.80304000  0.28934000  0.11133000  1.0
  N  N114  1  0.80304000  0.21066000  0.61133000  1.0
  N  N115  1  0.19696000  0.71066000  0.88867000  1.0
  O  O116  1  0.56660000  0.91550000  0.55125000  1.0
  O  O117  1  0.43340000  0.41549000  0.94875000  1.0
  O  O118  1  0.43340000  0.08451000  0.44875000  1.0
  O  O119  1  0.56660000  0.58450000  0.05125000  1.0
  O  O120  1  0.70785000  0.88698000  0.66421000  1.0
  O  O121  1  0.29216000  0.38697000  0.83579000  1.0
  O  O122  1  0.29215000  0.11302000  0.33579000  1.0
  O  O123  1  0.70784000  0.61302000  0.16420000  1.0
  O  O124  1  0.92641000  0.95005000  0.43771000  1.0
  O  O125  1  0.07358000  0.45005000  0.06229000  1.0
  O  O126  1  0.07359000  0.04995000  0.56229000  1.0
  O  O127  1  0.92641000  0.54995000  0.93771000  1.0
  O  O128  1  0.72775000  0.92516000  0.33565000  1.0
  O  O129  1  0.27224000  0.42517000  0.16435000  1.0
  O  O130  1  0.27224000  0.07483000  0.66435000  1.0
  O  O131  1  0.72776000  0.57483000  0.83565000  1.0
