# generated using pymatgen
data_Zn2H20C31N4O9
_symmetry_space_group_name_H-M   'P 1'
_cell_length_a   10.95130000
_cell_length_b   11.42760000
_cell_length_c   12.16570000
_cell_angle_alpha   80.92880000
_cell_angle_beta   84.77400000
_cell_angle_gamma   68.17560000
_symmetry_Int_Tables_number   1
_chemical_formula_structural   Zn2H20C31N4O9
_chemical_formula_sum   'Zn4 H40 C62 N8 O18'
_cell_volume   1394.82765264
_cell_formula_units_Z   2
loop_
 _symmetry_equiv_pos_site_id
 _symmetry_equiv_pos_as_xyz
  1  'x, y, z'
loop_
 _atom_site_type_symbol
 _atom_site_label
 _atom_site_symmetry_multiplicity
 _atom_site_fract_x
 _atom_site_fract_y
 _atom_site_fract_z
 _atom_site_occupancy
  Zn  Zn0  1  0.96847000  0.35401000  0.43449000  1.0
  Zn  Zn1  1  0.03153000  0.64599000  0.56551000  1.0
  Zn  Zn2  1  0.17538000  0.92808000  0.35560000  1.0
  Zn  Zn3  1  0.82462000  0.07192000  0.64440000  1.0
  H  H4  1  0.51061000  0.59576000  0.32513000  1.0
  H  H5  1  0.48939000  0.40424000  0.67487000  1.0
  H  H6  1  0.68345000  0.38127000  0.32072000  1.0
  H  H7  1  0.31655000  0.61873000  0.67928000  1.0
  H  H8  1  0.62783000  0.18749000  0.38724000  1.0
  H  H9  1  0.37217000  0.81251000  0.61276000  1.0
  H  H10  1  0.15510000  0.18769000  0.86631000  1.0
  H  H11  1  0.84490000  0.81231000  0.13369000  1.0
  H  H12  1  0.36474000  0.23526000  0.82994000  1.0
  H  H13  1  0.63526000  0.76473000  0.17006000  1.0
  H  H14  1  0.46751000  0.23029000  0.63966000  1.0
  H  H15  1  0.53249000  0.76970000  0.36034000  1.0
  H  H16  1  0.20094000  0.21012000  0.27495000  1.0
  H  H17  1  0.79906000  0.78988000  0.72505000  1.0
  H  H18  1  0.36881000  0.06550000  0.97333000  1.0
  H  H19  1  0.63119000  0.93449000  0.02667000  1.0
  H  H20  1  0.30074000  0.88216000  0.11640000  1.0
  H  H21  1  0.69926000  0.11784000  0.88360000  1.0
  H  H22  1  0.25901000  0.35742000  0.13183000  1.0
  H  H23  1  0.74099000  0.64258000  0.86817000  1.0
  H  H24  1  0.26859000  0.33067000  0.99080000  1.0
  H  H25  1  0.73141000  0.66933000  0.00920000  1.0
  H  H26  1  0.50112000  0.12503000  0.21242000  1.0
  H  H27  1  0.49888000  0.87497000  0.78758000  1.0
  H  H28  1  0.73748000  0.08831000  0.20241000  1.0
  H  H29  1  0.26252000  0.91169000  0.79759000  1.0
  H  H30  1  0.68391000  0.36843000  0.91093000  1.0
  H  H31  1  0.31609000  0.63157000  0.08907000  1.0
  H  H32  1  0.44542000  0.40699000  0.92053000  1.0
  H  H33  1  0.55458000  0.59301000  0.07946000  1.0
  H  H34  1  0.92866000  0.10246000  0.08696000  1.0
  H  H35  1  0.07134000  0.89754000  0.91304000  1.0
  H  H36  1  0.91096000  0.22102000  0.97008000  1.0
  H  H37  1  0.08904000  0.77898000  0.02992000  1.0
  H  H38  1  0.87826000  0.44983000  0.00903000  1.0
  H  H39  1  0.12174000  0.55017000  0.99097000  1.0
  H  H40  1  0.90250000  0.54194000  0.20403000  1.0
  H  H41  1  0.09751000  0.45806000  0.79597000  1.0
  H  H42  1  0.92467000  0.16106000  0.28434000  1.0
  H  H43  1  0.07533000  0.83894000  0.71566000  1.0
  C  C44  1  0.42542000  0.29546000  0.42528000  1.0
  C  C45  1  0.57458000  0.70454000  0.57472000  1.0
  C  C46  1  0.32768000  0.41757000  0.42974000  1.0
  C  C47  1  0.67233000  0.58243000  0.57026000  1.0
  C  C48  1  0.35892000  0.52659000  0.39320000  1.0
  C  C49  1  0.64108000  0.47341000  0.60680000  1.0
  C  C50  1  0.48765000  0.51083000  0.35294000  1.0
  C  C51  1  0.51235000  0.48917000  0.64706000  1.0
  C  C52  1  0.58378000  0.39071000  0.34981000  1.0
  C  C53  1  0.41622000  0.60929000  0.65019000  1.0
  C  C54  1  0.55298000  0.28257000  0.38562000  1.0
  C  C55  1  0.44702000  0.71743000  0.61438000  1.0
  C  C56  1  0.39248000  0.17775000  0.46029000  1.0
  C  C57  1  0.60752000  0.82225000  0.53971000  1.0
  C  C58  1  0.32952000  0.16775000  0.57418000  1.0
  C  C59  1  0.67048000  0.83225000  0.42582000  1.0
  C  C60  1  0.22082000  0.12838000  0.59778000  1.0
  C  C61  1  0.77918000  0.87162000  0.40221000  1.0
  C  C62  1  0.15716000  0.13968000  0.70354000  1.0
  C  C63  1  0.84284000  0.86032000  0.29646000  1.0
  C  C64  1  0.20782000  0.18046000  0.78570000  1.0
  C  C65  1  0.79218000  0.81954000  0.21430000  1.0
  C  C66  1  0.32198000  0.20812000  0.76509000  1.0
  C  C67  1  0.67802000  0.79188000  0.23491000  1.0
  C  C68  1  0.38044000  0.20494000  0.65863000  1.0
  C  C69  1  0.61956000  0.79506000  0.34138000  1.0
  C  C70  1  0.19052000  0.42219000  0.46422000  1.0
  C  C71  1  0.80949000  0.57781000  0.53578000  1.0
  C  C72  1  0.26131000  0.65979000  0.39451000  1.0
  C  C73  1  0.73869000  0.34021000  0.60549000  1.0
  C  C74  1  0.17012000  0.08205000  0.50830000  1.0
  C  C75  1  0.82988000  0.91795000  0.49170000  1.0
  C  C76  1  0.03237000  0.11235000  0.73043000  1.0
  C  C77  1  0.96763000  0.88765000  0.26957000  1.0
  C  C78  1  0.23528000  0.14504000  0.21320000  1.0
  C  C79  1  0.76472000  0.85496000  0.78680000  1.0
  C  C80  1  0.32357000  0.06745000  0.05621000  1.0
  C  C81  1  0.67643000  0.93255000  0.94380000  1.0
  C  C82  1  0.29087000  0.97734000  0.12767000  1.0
  C  C83  1  0.70913000  0.02266000  0.87233000  1.0
  C  C84  1  0.31175000  0.29005000  0.07264000  1.0
  C  C85  1  0.68825000  0.70995000  0.92736000  1.0
  C  C86  1  0.45719000  0.26778000  0.06627000  1.0
  C  C87  1  0.54281000  0.73222000  0.93373000  1.0
  C  C88  1  0.54034000  0.17823000  0.14540000  1.0
  C  C89  1  0.45966000  0.82177000  0.85460000  1.0
  C  C90  1  0.67387000  0.15817000  0.14018000  1.0
  C  C91  1  0.32613000  0.84183000  0.85982000  1.0
  C  C92  1  0.72728000  0.22583000  0.05651000  1.0
  C  C93  1  0.27273000  0.77417000  0.94348000  1.0
  C  C94  1  0.64377000  0.31625000  0.97808000  1.0
  C  C95  1  0.35623000  0.68375000  0.02192000  1.0
  C  C96  1  0.50940000  0.33695000  0.98282000  1.0
  C  C97  1  0.49060000  0.66305000  0.01718000  1.0
  C  C98  1  0.87263000  0.20197000  0.05475000  1.0
  C  C99  1  0.12737000  0.79803000  0.94525000  1.0
  C  C100  1  0.89034000  0.40630000  0.09510000  1.0
  C  C101  1  0.10966000  0.59370000  0.90490000  1.0
  C  C102  1  0.90284000  0.45009000  0.19094000  1.0
  C  C103  1  0.09716000  0.54991000  0.80906000  1.0
  C  C104  1  0.91417000  0.25350000  0.23745000  1.0
  C  C105  1  0.08583000  0.74650000  0.76255000  1.0
  N  N106  1  0.23638000  0.02681000  0.22493000  1.0
  N  N107  1  0.76362000  0.97319000  0.77507000  1.0
  N  N108  1  0.28648000  0.17348000  0.11134000  1.0
  N  N109  1  0.71352000  0.82652000  0.88865000  1.0
  N  N110  1  0.89796000  0.28216000  0.12620000  1.0
  N  N111  1  0.10203000  0.71784000  0.87380000  1.0
  N  N112  1  0.91767000  0.35371000  0.27868000  1.0
  N  N113  1  0.08233000  0.64629000  0.72132000  1.0
  O  O114  1  0.13918000  0.38381000  0.39387000  1.0
  O  O115  1  0.86082000  0.61619000  0.60613000  1.0
  O  O116  1  0.13831000  0.45341000  0.55748000  1.0
  O  O117  1  0.86169000  0.54659000  0.44252000  1.0
  O  O118  1  0.14534000  0.68263000  0.43591000  1.0
  O  O119  1  0.85466000  0.31737000  0.56409000  1.0
  O  O120  1  0.30143000  0.74915000  0.35045000  1.0
  O  O121  1  0.69857000  0.25085000  0.64956000  1.0
  O  O122  1  0.41739000  0.09619000  0.39786000  1.0
  O  O123  1  0.58261000  0.90381000  0.60214000  1.0
  O  O124  1  0.08338000  0.16003000  0.44332000  1.0
  O  O125  1  0.91662000  0.83997000  0.55668000  1.0
  O  O126  1  0.22473000  0.96449000  0.49716000  1.0
  O  O127  1  0.77527000  0.03551000  0.50284000  1.0
  O  O128  1  0.01012000  0.04585000  0.66255000  1.0
  O  O129  1  0.98988000  0.95415000  0.33745000  1.0
  O  O130  1  0.96046000  0.15239000  0.81240000  1.0
  O  O131  1  0.03954000  0.84761000  0.18760000  1.0
