# generated using pymatgen
data_NdH7C13O6
_symmetry_space_group_name_H-M   'P 1'
_cell_length_a   6.84003000
_cell_length_b   13.13120000
_cell_length_c   13.13200000
_cell_angle_alpha   89.99990000
_cell_angle_beta   94.17830000
_cell_angle_gamma   89.99970000
_symmetry_Int_Tables_number   1
_chemical_formula_structural   NdH7C13O6
_chemical_formula_sum   'Nd4 H28 C52 O24'
_cell_volume   1176.35246702
_cell_formula_units_Z   4
loop_
 _symmetry_equiv_pos_site_id
 _symmetry_equiv_pos_as_xyz
  1  'x, y, z'
loop_
 _atom_site_type_symbol
 _atom_site_label
 _atom_site_symmetry_multiplicity
 _atom_site_fract_x
 _atom_site_fract_y
 _atom_site_fract_z
 _atom_site_occupancy
  Nd  Nd0  1  0.09566000  0.62831000  0.93342000  1.0
  Nd  Nd1  1  0.40433000  0.12831000  0.06658000  1.0
  Nd  Nd2  1  0.90433000  0.37169000  0.06657000  1.0
  Nd  Nd3  1  0.59567000  0.87169000  0.93342000  1.0
  H  H4  1  0.43435000  0.37323000  0.93500000  1.0
  H  H5  1  0.06564000  0.87324000  0.06500000  1.0
  H  H6  1  0.56564000  0.62676000  0.06500000  1.0
  H  H7  1  0.93436000  0.12677000  0.93499000  1.0
  H  H8  1  0.76465000  0.00250000  0.72224000  1.0
  H  H9  1  0.73535000  0.50251000  0.27776000  1.0
  H  H10  1  0.23535000  0.99749000  0.27776000  1.0
  H  H11  1  0.26465000  0.49749000  0.72224000  1.0
  H  H12  1  0.66826000  0.06452000  0.54669000  1.0
  H  H13  1  0.83174000  0.56452000  0.45330000  1.0
  H  H14  1  0.33173000  0.93548000  0.45331000  1.0
  H  H15  1  0.16826000  0.43548000  0.54670000  1.0
  H  H16  1  0.01488000  0.71044000  0.40989000  1.0
  H  H17  1  0.48512000  0.21044000  0.59011000  1.0
  H  H18  1  0.98512000  0.28956000  0.59011000  1.0
  H  H19  1  0.51488000  0.78956000  0.40990000  1.0
  H  H20  1  0.90937000  0.77140000  0.23530000  1.0
  H  H21  1  0.59063000  0.27140000  0.76469000  1.0
  H  H22  1  0.09064000  0.22860000  0.76470000  1.0
  H  H23  1  0.40937000  0.72860000  0.23531000  1.0
  H  H24  1  0.65430000  0.03877000  0.35948000  1.0
  H  H25  1  0.84570000  0.53877000  0.64051000  1.0
  H  H26  1  0.34570000  0.96123000  0.64052000  1.0
  H  H27  1  0.15430000  0.46123000  0.35948000  1.0
  H  H28  1  0.02282000  0.73447000  0.60079000  1.0
  H  H29  1  0.47718000  0.23447000  0.39921000  1.0
  H  H30  1  0.97718000  0.26553000  0.39921000  1.0
  H  H31  1  0.52282000  0.76553000  0.60079000  1.0
  C  C32  1  0.28871000  0.37151000  0.96629000  1.0
  C  C33  1  0.21129000  0.87152000  0.03371000  1.0
  C  C34  1  0.71128000  0.62849000  0.03370000  1.0
  C  C35  1  0.78872000  0.12849000  0.96629000  1.0
  C  C36  1  0.94551000  0.82641000  0.77725000  1.0
  C  C37  1  0.55450000  0.32641000  0.22275000  1.0
  C  C38  1  0.05449000  0.17359000  0.22276000  1.0
  C  C39  1  0.44550000  0.67359000  0.77725000  1.0
  C  C40  1  0.89924000  0.86438000  0.67083000  1.0
  C  C41  1  0.60077000  0.36438000  0.32917000  1.0
  C  C42  1  0.10076000  0.13562000  0.32917000  1.0
  C  C43  1  0.39923000  0.63562000  0.67083000  1.0
  C  C44  1  0.79824000  0.95829000  0.65565000  1.0
  C  C45  1  0.70176000  0.45829000  0.34435000  1.0
  C  C46  1  0.20176000  0.04171000  0.34435000  1.0
  C  C47  1  0.29824000  0.54171000  0.65565000  1.0
  C  C48  1  0.74466000  0.99223000  0.55871000  1.0
  C  C49  1  0.75534000  0.49223000  0.44129000  1.0
  C  C50  1  0.25534000  0.00777000  0.44129000  1.0
  C  C51  1  0.24466000  0.50777000  0.55871000  1.0
  C  C52  1  0.78826000  0.93403000  0.47208000  1.0
  C  C53  1  0.71174000  0.43403000  0.52792000  1.0
  C  C54  1  0.21174000  0.06597000  0.52792000  1.0
  C  C55  1  0.28826000  0.56597000  0.47208000  1.0
  C  C56  1  0.89222000  0.83937000  0.48670000  1.0
  C  C57  1  0.60778000  0.33937000  0.51329000  1.0
  C  C58  1  0.10778000  0.16063000  0.51330000  1.0
  C  C59  1  0.39221000  0.66063000  0.48671000  1.0
  C  C60  1  0.93499000  0.78190000  0.39926000  1.0
  C  C61  1  0.56501000  0.28189000  0.60074000  1.0
  C  C62  1  0.06500000  0.21810000  0.60074000  1.0
  C  C63  1  0.43499000  0.71811000  0.39926000  1.0
  C  C64  1  0.70712000  0.94526000  0.18351000  1.0
  C  C65  1  0.79288000  0.44525000  0.81649000  1.0
  C  C66  1  0.29288000  0.05474000  0.81649000  1.0
  C  C67  1  0.20712000  0.55475000  0.18351000  1.0
  C  C68  1  0.87735000  0.81555000  0.30239000  1.0
  C  C69  1  0.62265000  0.31555000  0.69761000  1.0
  C  C70  1  0.12265000  0.18445000  0.69761000  1.0
  C  C71  1  0.37735000  0.68445000  0.30239000  1.0
  C  C72  1  0.77440000  0.90891000  0.28806000  1.0
  C  C73  1  0.72560000  0.40891000  0.71194000  1.0
  C  C74  1  0.22561000  0.09109000  0.71194000  1.0
  C  C75  1  0.27440000  0.59109000  0.28806000  1.0
  C  C76  1  0.73220000  0.96692000  0.37181000  1.0
  C  C77  1  0.76780000  0.46692000  0.62819000  1.0
  C  C78  1  0.26780000  0.03308000  0.62819000  1.0
  C  C79  1  0.23220000  0.53308000  0.37181000  1.0
  C  C80  1  0.94589000  0.80655000  0.58765000  1.0
  C  C81  1  0.55412000  0.30655000  0.41234000  1.0
  C  C82  1  0.05411000  0.19345000  0.41235000  1.0
  C  C83  1  0.44588000  0.69345000  0.58766000  1.0
  O  O84  1  0.88638000  0.88031000  0.85083000  1.0
  O  O85  1  0.61363000  0.38032000  0.14917000  1.0
  O  O86  1  0.11362000  0.11969000  0.14917000  1.0
  O  O87  1  0.38637000  0.61968000  0.85083000  1.0
  O  O88  1  0.73119000  0.88574000  0.10830000  1.0
  O  O89  1  0.76881000  0.38574000  0.89170000  1.0
  O  O90  1  0.26881000  0.11426000  0.89171000  1.0
  O  O91  1  0.23119000  0.61426000  0.10829000  1.0
  O  O92  1  0.03524000  0.74262000  0.79064000  1.0
  O  O93  1  0.46475000  0.24262000  0.20936000  1.0
  O  O94  1  0.96475000  0.25738000  0.20936000  1.0
  O  O95  1  0.53524000  0.75737000  0.79065000  1.0
  O  O96  1  0.17744000  0.44849000  0.95489000  1.0
  O  O97  1  0.32256000  0.94850000  0.04511000  1.0
  O  O98  1  0.82256000  0.55151000  0.04511000  1.0
  O  O99  1  0.67745000  0.05151000  0.95489000  1.0
  O  O100  1  0.23332000  0.29243000  0.01254000  1.0
  O  O101  1  0.26667000  0.79244000  0.98747000  1.0
  O  O102  1  0.76667000  0.70757000  0.98746000  1.0
  O  O103  1  0.73333000  0.20757000  0.01254000  1.0
  O  O104  1  0.62697000  0.03275000  0.17605000  1.0
  O  O105  1  0.87303000  0.53275000  0.82395000  1.0
  O  O106  1  0.37304000  0.96725000  0.82395000  1.0
  O  O107  1  0.12697000  0.46725000  0.17605000  1.0
