# generated using pymatgen
data_NaH13C18O
_symmetry_space_group_name_H-M   'P 1'
_cell_length_a   6.17928000
_cell_length_b   11.56780000
_cell_length_c   18.05600000
_cell_angle_alpha   90.76860000
_cell_angle_beta   90.00000000
_cell_angle_gamma   90.00000000
_symmetry_Int_Tables_number   1
_chemical_formula_structural   NaH13C18O
_chemical_formula_sum   'Na4 H52 C72 O4'
_cell_volume   1290.53894520
_cell_formula_units_Z   4
loop_
 _symmetry_equiv_pos_site_id
 _symmetry_equiv_pos_as_xyz
  1  'x, y, z'
loop_
 _atom_site_type_symbol
 _atom_site_label
 _atom_site_symmetry_multiplicity
 _atom_site_fract_x
 _atom_site_fract_y
 _atom_site_fract_z
 _atom_site_occupancy
  Na  Na0  1  0.17721000  0.41491000  0.46337000  1.0
  Na  Na1  1  0.67722000  0.58508000  0.03663000  1.0
  Na  Na2  1  0.82278000  0.58508000  0.53662000  1.0
  Na  Na3  1  0.32278000  0.41492000  0.96338000  1.0
  H  H4  1  0.23423000  0.57717000  0.31446000  1.0
  H  H5  1  0.73425000  0.42284000  0.18552000  1.0
  H  H6  1  0.76577000  0.42284000  0.68551000  1.0
  H  H7  1  0.26574000  0.57718000  0.81448000  1.0
  H  H8  1  0.15286000  0.37810000  0.26839000  1.0
  H  H9  1  0.65285000  0.62189000  0.23160000  1.0
  H  H10  1  0.84715000  0.62191000  0.73159000  1.0
  H  H11  1  0.34715000  0.37812000  0.76841000  1.0
  H  H12  1  0.42318000  0.22285000  0.28784000  1.0
  H  H13  1  0.92318000  0.77715000  0.21216000  1.0
  H  H14  1  0.57681000  0.77716000  0.71214000  1.0
  H  H15  1  0.07683000  0.22286000  0.78785000  1.0
  H  H16  1  0.88800000  0.24515000  0.47076000  1.0
  H  H17  1  0.38802000  0.75485000  0.02924000  1.0
  H  H18  1  0.11199000  0.75485000  0.52924000  1.0
  H  H19  1  0.61197000  0.24513000  0.97076000  1.0
  H  H20  1  0.17556000  0.09711000  0.46379000  1.0
  H  H21  1  0.67557000  0.90290000  0.03622000  1.0
  H  H22  1  0.82442000  0.90290000  0.53622000  1.0
  H  H23  1  0.32443000  0.09708000  0.96378000  1.0
  H  H24  1  0.25736000  0.99675000  0.34378000  1.0
  H  H25  1  0.75736000  0.00326000  0.15623000  1.0
  H  H26  1  0.74263000  0.00325000  0.65623000  1.0
  H  H27  1  0.24266000  0.99674000  0.84377000  1.0
  H  H28  1  0.04715000  0.04679000  0.23130000  1.0
  H  H29  1  0.54715000  0.95320000  0.26871000  1.0
  H  H30  1  0.95288000  0.95321000  0.76870000  1.0
  H  H31  1  0.45291000  0.04680000  0.73129000  1.0
  H  H32  1  0.76542000  0.19848000  0.23771000  1.0
  H  H33  1  0.26541000  0.80152000  0.26229000  1.0
  H  H34  1  0.23461000  0.80153000  0.76228000  1.0
  H  H35  1  0.73464000  0.19849000  0.73772000  1.0
  H  H36  1  0.25335000  0.68678000  0.43379000  1.0
  H  H37  1  0.75338000  0.31319000  0.06620000  1.0
  H  H38  1  0.74663000  0.31320000  0.56620000  1.0
  H  H39  1  0.24660000  0.68681000  0.93381000  1.0
  H  H40  1  0.32001000  0.89601000  0.45497000  1.0
  H  H41  1  0.82006000  0.10397000  0.04503000  1.0
  H  H42  1  0.67996000  0.10397000  0.54502000  1.0
  H  H43  1  0.17993000  0.89604000  0.95498000  1.0
  H  H44  1  0.67807000  0.98221000  0.42067000  1.0
  H  H45  1  0.17811000  0.01778000  0.07933000  1.0
  H  H46  1  0.32190000  0.01779000  0.57934000  1.0
  H  H47  1  0.82188000  0.98222000  0.92066000  1.0
  H  H48  1  0.97145000  0.85376000  0.37407000  1.0
  H  H49  1  0.47148000  0.14624000  0.12593000  1.0
  H  H50  1  0.02855000  0.14626000  0.62594000  1.0
  H  H51  1  0.52852000  0.85375000  0.87406000  1.0
  H  H52  1  0.90534000  0.64322000  0.35609000  1.0
  H  H53  1  0.40537000  0.35679000  0.14390000  1.0
  H  H54  1  0.09466000  0.35680000  0.64391000  1.0
  H  H55  1  0.59463000  0.64320000  0.85609000  1.0
  C  C56  1  0.67511000  0.43722000  0.39063000  1.0
  C  C57  1  0.17513000  0.56278000  0.10937000  1.0
  C  C58  1  0.32488000  0.56278000  0.60936000  1.0
  C  C59  1  0.82488000  0.43723000  0.89064000  1.0
  C  C60  1  0.52654000  0.52875000  0.37167000  1.0
  C  C61  1  0.02658000  0.47124000  0.12832000  1.0
  C  C62  1  0.47345000  0.47125000  0.62831000  1.0
  C  C63  1  0.97343000  0.52876000  0.87169000  1.0
  C  C64  1  0.34182000  0.50584000  0.32846000  1.0
  C  C65  1  0.84185000  0.49416000  0.17154000  1.0
  C  C66  1  0.65818000  0.49417000  0.67153000  1.0
  C  C67  1  0.15815000  0.50585000  0.82847000  1.0
  C  C68  1  0.29883000  0.39513000  0.30037000  1.0
  C  C69  1  0.79882000  0.60488000  0.19963000  1.0
  C  C70  1  0.70117000  0.60489000  0.69961000  1.0
  C  C71  1  0.20117000  0.39513000  0.80038000  1.0
  C  C72  1  0.45138000  0.30836000  0.31211000  1.0
  C  C73  1  0.95139000  0.69165000  0.18788000  1.0
  C  C74  1  0.54862000  0.69166000  0.68787000  1.0
  C  C75  1  0.04862000  0.30836000  0.81213000  1.0
  C  C76  1  0.63953000  0.32658000  0.35440000  1.0
  C  C77  1  0.13955000  0.67342000  0.14559000  1.0
  C  C78  1  0.36045000  0.67342000  0.64558000  1.0
  C  C79  1  0.86046000  0.32658000  0.85442000  1.0
  C  C80  1  0.80490000  0.23414000  0.35480000  1.0
  C  C81  1  0.30493000  0.76586000  0.14520000  1.0
  C  C82  1  0.19509000  0.76586000  0.64520000  1.0
  C  C83  1  0.69509000  0.23414000  0.85480000  1.0
  C  C84  1  0.92424000  0.20306000  0.41795000  1.0
  C  C85  1  0.42426000  0.79694000  0.08205000  1.0
  C  C86  1  0.07574000  0.79694000  0.58205000  1.0
  C  C87  1  0.57575000  0.20305000  0.91795000  1.0
  C  C88  1  0.08468000  0.11820000  0.41402000  1.0
  C  C89  1  0.58470000  0.88180000  0.08598000  1.0
  C  C90  1  0.91531000  0.88181000  0.58598000  1.0
  C  C91  1  0.41531000  0.11818000  0.91402000  1.0
  C  C92  1  0.12976000  0.06154000  0.34704000  1.0
  C  C93  1  0.62978000  0.93846000  0.15297000  1.0
  C  C94  1  0.87024000  0.93846000  0.65297000  1.0
  C  C95  1  0.37025000  0.06153000  0.84703000  1.0
  C  C96  1  0.01112000  0.08953000  0.28403000  1.0
  C  C97  1  0.51116000  0.91046000  0.21597000  1.0
  C  C98  1  0.98888000  0.91046000  0.71596000  1.0
  C  C99  1  0.48889000  0.08954000  0.78403000  1.0
  C  C100  1  0.85159000  0.17458000  0.28795000  1.0
  C  C101  1  0.35162000  0.82541000  0.21205000  1.0
  C  C102  1  0.14841000  0.82541000  0.71205000  1.0
  C  C103  1  0.64841000  0.17460000  0.78794000  1.0
  C  C104  1  0.57338000  0.65036000  0.39255000  1.0
  C  C105  1  0.07341000  0.34963000  0.10744000  1.0
  C  C106  1  0.42661000  0.34964000  0.60743000  1.0
  C  C107  1  0.92659000  0.65037000  0.89257000  1.0
  C  C108  1  0.41092000  0.72377000  0.42071000  1.0
  C  C109  1  0.91097000  0.27622000  0.07928000  1.0
  C  C110  1  0.58905000  0.27622000  0.57929000  1.0
  C  C111  1  0.08903000  0.72379000  0.92072000  1.0
  C  C112  1  0.44841000  0.84178000  0.43195000  1.0
  C  C113  1  0.94845000  0.15821000  0.06805000  1.0
  C  C114  1  0.55158000  0.15821000  0.56805000  1.0
  C  C115  1  0.05155000  0.84179000  0.93196000  1.0
  C  C116  1  0.64912000  0.88954000  0.41425000  1.0
  C  C117  1  0.14916000  0.11045000  0.08575000  1.0
  C  C118  1  0.35088000  0.11046000  0.58576000  1.0
  C  C119  1  0.85083000  0.88954000  0.91425000  1.0
  C  C120  1  0.81445000  0.81704000  0.38805000  1.0
  C  C121  1  0.31448000  0.18296000  0.11195000  1.0
  C  C122  1  0.18554000  0.18297000  0.61195000  1.0
  C  C123  1  0.68551000  0.81704000  0.88805000  1.0
  C  C124  1  0.77832000  0.69893000  0.37828000  1.0
  C  C125  1  0.27836000  0.30108000  0.12171000  1.0
  C  C126  1  0.22166000  0.30109000  0.62172000  1.0
  C  C127  1  0.72164000  0.69892000  0.87829000  1.0
  O  O128  1  0.83309000  0.45647000  0.43733000  1.0
  O  O129  1  0.33311000  0.54353000  0.06266000  1.0
  O  O130  1  0.16689000  0.54353000  0.56266000  1.0
  O  O131  1  0.66687000  0.45647000  0.93734000  1.0
