# generated using pymatgen
data_NiH20C14O5
_symmetry_space_group_name_H-M   'P 1'
_cell_length_a   6.31310000
_cell_length_b   10.06480000
_cell_length_c   11.20840000
_cell_angle_alpha   112.73500000
_cell_angle_beta   89.99920000
_cell_angle_gamma   89.99800000
_symmetry_Int_Tables_number   1
_chemical_formula_structural   NiH20C14O5
_chemical_formula_sum   'Ni2 H40 C28 O10'
_cell_volume   656.84768632
_cell_formula_units_Z   2
loop_
 _symmetry_equiv_pos_site_id
 _symmetry_equiv_pos_as_xyz
  1  'x, y, z'
loop_
 _atom_site_type_symbol
 _atom_site_label
 _atom_site_symmetry_multiplicity
 _atom_site_fract_x
 _atom_site_fract_y
 _atom_site_fract_z
 _atom_site_occupancy
  Ni  Ni0  1  0.63067000  0.00476000  0.99015000  1.0
  Ni  Ni1  1  0.13067000  0.99526000  0.00986000  1.0
  H  H2  1  0.50366000  0.95651000  0.59782000  1.0
  H  H3  1  0.00362000  0.04349000  0.40219000  1.0
  H  H4  1  0.65016000  0.03147000  0.74386000  1.0
  H  H5  1  0.15014000  0.96853000  0.25615000  1.0
  H  H6  1  0.77742000  0.12495000  0.55341000  1.0
  H  H7  1  0.27739000  0.87502000  0.44659000  1.0
  H  H8  1  0.84606000  0.21026000  0.71889000  1.0
  H  H9  1  0.34604000  0.78972000  0.28112000  1.0
  H  H10  1  0.91418000  0.37253000  0.60137000  1.0
  H  H11  1  0.41413000  0.62743000  0.39863000  1.0
  H  H12  1  0.80991000  0.48097000  0.83497000  1.0
  H  H13  1  0.30988000  0.51901000  0.16503000  1.0
  H  H14  1  0.71250000  0.58601000  0.75188000  1.0
  H  H15  1  0.21245000  0.41398000  0.24810000  1.0
  H  H16  1  0.54971000  0.30910000  0.88877000  1.0
  H  H17  1  0.04969000  0.69090000  0.11123000  1.0
  H  H18  1  0.28485000  0.29968000  0.83617000  1.0
  H  H19  1  0.78484000  0.70034000  0.16383000  1.0
  H  H20  1  0.33130000  0.56823000  0.68228000  1.0
  H  H21  1  0.83125000  0.43178000  0.31771000  1.0
  H  H22  1  0.15422000  0.45523000  0.72202000  1.0
  H  H23  1  0.65418000  0.54479000  0.27797000  1.0
  H  H24  1  0.25933000  0.34198000  0.48846000  1.0
  H  H25  1  0.75927000  0.65801000  0.51153000  1.0
  H  H26  1  0.19157000  0.17513000  0.60118000  1.0
  H  H27  1  0.69153000  0.82488000  0.39883000  1.0
  H  H28  1  0.39565000  0.10748000  0.48386000  1.0
  H  H29  1  0.89561000  0.89251000  0.51615000  1.0
  H  H30  1  0.63883000  0.27441000  0.43138000  1.0
  H  H31  1  0.13877000  0.72556000  0.56862000  1.0
  H  H32  1  0.61106000  0.46401000  0.51226000  1.0
  H  H33  1  0.11099000  0.53596000  0.48772000  1.0
  H  H34  1  0.24858000  0.54546000  0.95623000  1.0
  H  H35  1  0.74855000  0.45456000  0.04376000  1.0
  H  H36  1  0.51787000  0.57144000  0.00525000  1.0
  H  H37  1  0.01786000  0.42857000  0.99475000  1.0
  H  H38  1  0.89178000  0.81948000  0.82995000  1.0
  H  H39  1  0.39177000  0.18055000  0.17007000  1.0
  H  H40  1  0.98993000  0.95662000  0.79337000  1.0
  H  H41  1  0.48991000  0.04340000  0.20663000  1.0
  C  C42  1  0.32056000  0.01750000  0.76969000  1.0
  C  C43  1  0.82054000  0.98251000  0.23032000  1.0
  C  C44  1  0.50440000  0.04232000  0.69530000  1.0
  C  C45  1  0.00437000  0.95768000  0.30471000  1.0
  C  C46  1  0.50731000  0.18992000  0.68209000  1.0
  C  C47  1  0.00729000  0.81008000  0.31791000  1.0
  C  C48  1  0.73462000  0.21391000  0.64448000  1.0
  C  C49  1  0.23459000  0.78608000  0.35552000  1.0
  C  C50  1  0.75152000  0.35856000  0.62968000  1.0
  C  C51  1  0.25148000  0.64142000  0.37032000  1.0
  C  C52  1  0.69779000  0.48059000  0.75951000  1.0
  C  C53  1  0.19775000  0.51940000  0.24048000  1.0
  C  C54  1  0.46981000  0.46144000  0.79932000  1.0
  C  C55  1  0.96978000  0.53856000  0.20067000  1.0
  C  C56  1  0.44967000  0.31345000  0.81002000  1.0
  C  C57  1  0.94965000  0.68655000  0.18999000  1.0
  C  C58  1  0.31831000  0.46398000  0.69275000  1.0
  C  C59  1  0.81826000  0.53603000  0.30724000  1.0
  C  C60  1  0.37105000  0.34042000  0.56358000  1.0
  C  C61  1  0.87100000  0.65957000  0.43641000  1.0
  C  C62  1  0.35446000  0.19427000  0.57671000  1.0
  C  C63  1  0.85442000  0.80573000  0.42330000  1.0
  C  C64  1  0.59773000  0.36094000  0.52448000  1.0
  C  C65  1  0.09767000  0.63904000  0.47551000  1.0
  C  C66  1  0.40495000  0.57518000  0.93174000  1.0
  C  C67  1  0.90492000  0.42483000  0.06826000  1.0
  C  C68  1  0.39260000  0.73109000  0.94633000  1.0
  C  C69  1  0.89257000  0.26892000  0.05367000  1.0
  O  O70  1  0.35993000  0.01411000  0.88137000  1.0
  O  O71  1  0.85992000  0.98592000  0.11864000  1.0
  O  O72  1  0.13479000  0.99988000  0.72207000  1.0
  O  O73  1  0.63477000  0.00012000  0.27793000  1.0
  O  O74  1  0.89490000  0.92428000  0.85890000  1.0
  O  O75  1  0.39488000  0.07575000  0.14111000  1.0
  O  O76  1  0.56651000  0.79349000  0.94247000  1.0
  O  O77  1  0.06648000  0.20652000  0.05752000  1.0
  O  O78  1  0.20826000  0.78836000  0.96661000  1.0
  O  O79  1  0.70824000  0.21167000  0.03340000  1.0
