# generated using pymatgen
data_BiH7C7SBr3
_symmetry_space_group_name_H-M   'P 1'
_cell_length_a   6.87519000
_cell_length_b   9.22377000
_cell_length_c   18.45040000
_cell_angle_alpha   87.12850000
_cell_angle_beta   89.99980000
_cell_angle_gamma   89.99930000
_symmetry_Int_Tables_number   1
_chemical_formula_structural   BiH7C7SBr3
_chemical_formula_sum   'Bi4 H28 C28 S4 Br12'
_cell_volume   1168.56617897
_cell_formula_units_Z   4
loop_
 _symmetry_equiv_pos_site_id
 _symmetry_equiv_pos_as_xyz
  1  'x, y, z'
loop_
 _atom_site_type_symbol
 _atom_site_label
 _atom_site_symmetry_multiplicity
 _atom_site_fract_x
 _atom_site_fract_y
 _atom_site_fract_z
 _atom_site_occupancy
  Bi  Bi0  1  0.25145000  0.92479000  0.56013000  1.0
  Bi  Bi1  1  0.24856000  0.92481000  0.06013000  1.0
  Bi  Bi2  1  0.74856000  0.07518000  0.43988000  1.0
  Bi  Bi3  1  0.75144000  0.07519000  0.93987000  1.0
  H  H4  1  0.21238000  0.54874000  0.48431000  1.0
  H  H5  1  0.28763000  0.54875000  0.98431000  1.0
  H  H6  1  0.78764000  0.45125000  0.51568000  1.0
  H  H7  1  0.71237000  0.45126000  0.01569000  1.0
  H  H8  1  0.00088000  0.65718000  0.46636000  1.0
  H  H9  1  0.49913000  0.65718000  0.96636000  1.0
  H  H10  1  0.99914000  0.34281000  0.53364000  1.0
  H  H11  1  0.50086000  0.34283000  0.03364000  1.0
  H  H12  1  0.49261000  0.62092000  0.59021000  1.0
  H  H13  1  0.00739000  0.62093000  0.09021000  1.0
  H  H14  1  0.50741000  0.37907000  0.40979000  1.0
  H  H15  1  0.99259000  0.37907000  0.90979000  1.0
  H  H16  1  0.72137000  0.44958000  0.65148000  1.0
  H  H17  1  0.77862000  0.44959000  0.15147000  1.0
  H  H18  1  0.27863000  0.55040000  0.34853000  1.0
  H  H19  1  0.22137000  0.55041000  0.84853000  1.0
  H  H20  1  0.59754000  0.24507000  0.73259000  1.0
  H  H21  1  0.90246000  0.24507000  0.23259000  1.0
  H  H22  1  0.40245000  0.75493000  0.26741000  1.0
  H  H23  1  0.09755000  0.75493000  0.76741000  1.0
  H  H24  1  0.24226000  0.21987000  0.75474000  1.0
  H  H25  1  0.25774000  0.21988000  0.25474000  1.0
  H  H26  1  0.75774000  0.78013000  0.24526000  1.0
  H  H27  1  0.74226000  0.78013000  0.74526000  1.0
  H  H28  1  0.01082000  0.39282000  0.69438000  1.0
  H  H29  1  0.48916000  0.39283000  0.19438000  1.0
  H  H30  1  0.98917000  0.60718000  0.30562000  1.0
  H  H31  1  0.51083000  0.60719000  0.80562000  1.0
  C  C32  1  0.06181000  0.56809000  0.50111000  1.0
  C  C33  1  0.43820000  0.56809000  0.00111000  1.0
  C  C34  1  0.93822000  0.43191000  0.49889000  1.0
  C  C35  1  0.56179000  0.43191000  0.99889000  1.0
  C  C36  1  0.23654000  0.51600000  0.63711000  1.0
  C  C37  1  0.26345000  0.51600000  0.13711000  1.0
  C  C38  1  0.76347000  0.48400000  0.36289000  1.0
  C  C39  1  0.73654000  0.48401000  0.86289000  1.0
  C  C40  1  0.43691000  0.53271000  0.62580000  1.0
  C  C41  1  0.06309000  0.53273000  0.12579000  1.0
  C  C42  1  0.56309000  0.46728000  0.37421000  1.0
  C  C43  1  0.93691000  0.46729000  0.87420000  1.0
  C  C44  1  0.56573000  0.43558000  0.66044000  1.0
  C  C45  1  0.93426000  0.43558000  0.16044000  1.0
  C  C46  1  0.43428000  0.56441000  0.33956000  1.0
  C  C47  1  0.06573000  0.56442000  0.83956000  1.0
  C  C48  1  0.49648000  0.32238000  0.70645000  1.0
  C  C49  1  0.00352000  0.32240000  0.20645000  1.0
  C  C50  1  0.50351000  0.67761000  0.29355000  1.0
  C  C51  1  0.99649000  0.67761000  0.79355000  1.0
  C  C52  1  0.29717000  0.30762000  0.71866000  1.0
  C  C53  1  0.20282000  0.30763000  0.21866000  1.0
  C  C54  1  0.70282000  0.69237000  0.28134000  1.0
  C  C55  1  0.79719000  0.69238000  0.78134000  1.0
  C  C56  1  0.16635000  0.40441000  0.68434000  1.0
  C  C57  1  0.33365000  0.40442000  0.18434000  1.0
  C  C58  1  0.83365000  0.59559000  0.31566000  1.0
  C  C59  1  0.66635000  0.59559000  0.81566000  1.0
  S  S60  1  0.06521000  0.63533000  0.59280000  1.0
  S  S61  1  0.43480000  0.63533000  0.09281000  1.0
  S  S62  1  0.93481000  0.36467000  0.40719000  1.0
  S  S63  1  0.56520000  0.36468000  0.90719000  1.0
  Br  Br64  1  0.39897000  0.91250000  0.69383000  1.0
  Br  Br65  1  0.10101000  0.91251000  0.19382000  1.0
  Br  Br66  1  0.60105000  0.08749000  0.30618000  1.0
  Br  Br67  1  0.89897000  0.08749000  0.80617000  1.0
  Br  Br68  1  0.40841000  0.20343000  0.51840000  1.0
  Br  Br69  1  0.09160000  0.20343000  0.01840000  1.0
  Br  Br70  1  0.59159000  0.79658000  0.48160000  1.0
  Br  Br71  1  0.90838000  0.79658000  0.98160000  1.0
  Br  Br72  1  0.09209000  0.94083000  0.39989000  1.0
  Br  Br73  1  0.40791000  0.94081000  0.89989000  1.0
  Br  Br74  1  0.90791000  0.05915000  0.60010000  1.0
  Br  Br75  1  0.59206000  0.05919000  0.10012000  1.0
