# generated using pymatgen
data_ZnH25C23(N3O2)2
_symmetry_space_group_name_H-M   'P 1'
_cell_length_a   15.83320000
_cell_length_b   17.33010000
_cell_length_c   18.08830000
_cell_angle_alpha   90.00020000
_cell_angle_beta   89.99990000
_cell_angle_gamma   90.00000000
_symmetry_Int_Tables_number   1
_chemical_formula_structural   ZnH25C23(N3O2)2
_chemical_formula_sum   'Zn8 H200 C184 N48 O32'
_cell_volume   4963.26562766
_cell_formula_units_Z   8
loop_
 _symmetry_equiv_pos_site_id
 _symmetry_equiv_pos_as_xyz
  1  'x, y, z'
loop_
 _atom_site_type_symbol
 _atom_site_label
 _atom_site_symmetry_multiplicity
 _atom_site_fract_x
 _atom_site_fract_y
 _atom_site_fract_z
 _atom_site_occupancy
  Zn  Zn0  1  0.72132000  0.09510000  0.37888000  1.0
  Zn  Zn1  1  0.77868000  0.40489000  0.87888000  1.0
  Zn  Zn2  1  0.27867000  0.09510000  0.12112000  1.0
  Zn  Zn3  1  0.22132000  0.40489000  0.62112000  1.0
  Zn  Zn4  1  0.27867000  0.90489000  0.62112000  1.0
  Zn  Zn5  1  0.22132000  0.59511000  0.12112000  1.0
  Zn  Zn6  1  0.72133000  0.90490000  0.87888000  1.0
  Zn  Zn7  1  0.77868000  0.59510000  0.37888000  1.0
  H  H8  1  0.69886000  0.91609000  0.41196000  1.0
  H  H9  1  0.80114000  0.58391000  0.91195000  1.0
  H  H10  1  0.30114000  0.91609000  0.08804000  1.0
  H  H11  1  0.19886000  0.58391000  0.58805000  1.0
  H  H12  1  0.30115000  0.08391000  0.58805000  1.0
  H  H13  1  0.19885000  0.41609000  0.08805000  1.0
  H  H14  1  0.69886000  0.08391000  0.91196000  1.0
  H  H15  1  0.80114000  0.41609000  0.41195000  1.0
  H  H16  1  0.85795000  0.98500000  0.81269000  1.0
  H  H17  1  0.64205000  0.51500000  0.31269000  1.0
  H  H18  1  0.14206000  0.98500000  0.68731000  1.0
  H  H19  1  0.35794000  0.51500000  0.18731000  1.0
  H  H20  1  0.14205000  0.01501000  0.18731000  1.0
  H  H21  1  0.35794000  0.48500000  0.68731000  1.0
  H  H22  1  0.85794000  0.01500000  0.31269000  1.0
  H  H23  1  0.64205000  0.48500000  0.81269000  1.0
  H  H24  1  0.78475000  0.15424000  0.55070000  1.0
  H  H25  1  0.71525000  0.34576000  0.05070000  1.0
  H  H26  1  0.21525000  0.15424000  0.94930000  1.0
  H  H27  1  0.28474000  0.34576000  0.44930000  1.0
  H  H28  1  0.21525000  0.84576000  0.44930000  1.0
  H  H29  1  0.28476000  0.65424000  0.94930000  1.0
  H  H30  1  0.78475000  0.84576000  0.05070000  1.0
  H  H31  1  0.71525000  0.65424000  0.55070000  1.0
  H  H32  1  0.67381000  0.15580000  0.53742000  1.0
  H  H33  1  0.82619000  0.34420000  0.03742000  1.0
  H  H34  1  0.32619000  0.15580000  0.96258000  1.0
  H  H35  1  0.17380000  0.34420000  0.46258000  1.0
  H  H36  1  0.32619000  0.84420000  0.46258000  1.0
  H  H37  1  0.17382000  0.65580000  0.96258000  1.0
  H  H38  1  0.67381000  0.84420000  0.03742000  1.0
  H  H39  1  0.82619000  0.65580000  0.53742000  1.0
  H  H40  1  0.71662000  0.12510000  0.62378000  1.0
  H  H41  1  0.78339000  0.37490000  0.12378000  1.0
  H  H42  1  0.28338000  0.12510000  0.87622000  1.0
  H  H43  1  0.21661000  0.37490000  0.37622000  1.0
  H  H44  1  0.28338000  0.87489000  0.37622000  1.0
  H  H45  1  0.21662000  0.62510000  0.87622000  1.0
  H  H46  1  0.71661000  0.87490000  0.12378000  1.0
  H  H47  1  0.78339000  0.62510000  0.62378000  1.0
  H  H48  1  0.73807000  0.79796000  0.48550000  1.0
  H  H49  1  0.76193000  0.70204000  0.98549000  1.0
  H  H50  1  0.26193000  0.79796000  0.01450000  1.0
  H  H51  1  0.23806000  0.70204000  0.51451000  1.0
  H  H52  1  0.26194000  0.20203000  0.51450000  1.0
  H  H53  1  0.23806000  0.29796000  0.01451000  1.0
  H  H54  1  0.73806000  0.20204000  0.98550000  1.0
  H  H55  1  0.76194000  0.29796000  0.48550000  1.0
  H  H56  1  0.79931000  0.81391000  0.56639000  1.0
  H  H57  1  0.70069000  0.68609000  0.06639000  1.0
  H  H58  1  0.20069000  0.81391000  0.93361000  1.0
  H  H59  1  0.29930000  0.68608000  0.43361000  1.0
  H  H60  1  0.20070000  0.18608000  0.43361000  1.0
  H  H61  1  0.29930000  0.31391000  0.93361000  1.0
  H  H62  1  0.79931000  0.18608000  0.06639000  1.0
  H  H63  1  0.70070000  0.31391000  0.56639000  1.0
  H  H64  1  0.68776000  0.80616000  0.57283000  1.0
  H  H65  1  0.81225000  0.69384000  0.07283000  1.0
  H  H66  1  0.31224000  0.80616000  0.92717000  1.0
  H  H67  1  0.18775000  0.69384000  0.42717000  1.0
  H  H68  1  0.31226000  0.19383000  0.42717000  1.0
  H  H69  1  0.18775000  0.30616000  0.92717000  1.0
  H  H70  1  0.68775000  0.19384000  0.07283000  1.0
  H  H71  1  0.81225000  0.30616000  0.57283000  1.0
  H  H72  1  0.91235000  0.09739000  0.69336000  1.0
  H  H73  1  0.58765000  0.40261000  0.19336000  1.0
  H  H74  1  0.08765000  0.09740000  0.80664000  1.0
  H  H75  1  0.41235000  0.40261000  0.30664000  1.0
  H  H76  1  0.08765000  0.90261000  0.30664000  1.0
  H  H77  1  0.41235000  0.59739000  0.80664000  1.0
  H  H78  1  0.91235000  0.90261000  0.19336000  1.0
  H  H79  1  0.58765000  0.59739000  0.69336000  1.0
  H  H80  1  0.96147000  0.00700000  0.67416000  1.0
  H  H81  1  0.53853000  0.49300000  0.17415000  1.0
  H  H82  1  0.03853000  0.00701000  0.82585000  1.0
  H  H83  1  0.46146000  0.49300000  0.32585000  1.0
  H  H84  1  0.03853000  0.99300000  0.32585000  1.0
  H  H85  1  0.46147000  0.50700000  0.82584000  1.0
  H  H86  1  0.96147000  0.99299000  0.17416000  1.0
  H  H87  1  0.53853000  0.50700000  0.67416000  1.0
  H  H88  1  0.89665000  0.05059000  0.60692000  1.0
  H  H89  1  0.60335000  0.44941000  0.10692000  1.0
  H  H90  1  0.10335000  0.05060000  0.89308000  1.0
  H  H91  1  0.39664000  0.44941000  0.39308000  1.0
  H  H92  1  0.10335000  0.94941000  0.39308000  1.0
  H  H93  1  0.39665000  0.55059000  0.89308000  1.0
  H  H94  1  0.89665000  0.94940000  0.10692000  1.0
  H  H95  1  0.60335000  0.55059000  0.60692000  1.0
  H  H96  1  0.57975000  0.90846000  0.74740000  1.0
  H  H97  1  0.92025000  0.59154000  0.24740000  1.0
  H  H98  1  0.42025000  0.90846000  0.75260000  1.0
  H  H99  1  0.07974000  0.59155000  0.25260000  1.0
  H  H100  1  0.42026000  0.09154000  0.25260000  1.0
  H  H101  1  0.07975000  0.40845000  0.75260000  1.0
  H  H102  1  0.57975000  0.09154000  0.24740000  1.0
  H  H103  1  0.92025000  0.40846000  0.74740000  1.0
  H  H104  1  0.59692000  0.90399000  0.65012000  1.0
  H  H105  1  0.90308000  0.59601000  0.15012000  1.0
  H  H106  1  0.40308000  0.90399000  0.84988000  1.0
  H  H107  1  0.09692000  0.59602000  0.34988000  1.0
  H  H108  1  0.40308000  0.09601000  0.34988000  1.0
  H  H109  1  0.09692000  0.40398000  0.84988000  1.0
  H  H110  1  0.59692000  0.09601000  0.15012000  1.0
  H  H111  1  0.90308000  0.40399000  0.65012000  1.0
  H  H112  1  0.63542000  0.82983000  0.70956000  1.0
  H  H113  1  0.86458000  0.67017000  0.20956000  1.0
  H  H114  1  0.36458000  0.82983000  0.79044000  1.0
  H  H115  1  0.13543000  0.67017000  0.29044000  1.0
  H  H116  1  0.36458000  0.17017000  0.29044000  1.0
  H  H117  1  0.13543000  0.32983000  0.79044000  1.0
  H  H118  1  0.63542000  0.17017000  0.20956000  1.0
  H  H119  1  0.86458000  0.32983000  0.70956000  1.0
  H  H120  1  0.90673000  0.26720000  0.43986000  1.0
  H  H121  1  0.59328000  0.23279000  0.93986000  1.0
  H  H122  1  0.09327000  0.26721000  0.06014000  1.0
  H  H123  1  0.40673000  0.23279000  0.56013000  1.0
  H  H124  1  0.09328000  0.73280000  0.56014000  1.0
  H  H125  1  0.40673000  0.76721000  0.06013000  1.0
  H  H126  1  0.90673000  0.73280000  0.93986000  1.0
  H  H127  1  0.59327000  0.76721000  0.43986000  1.0
  H  H128  1  0.00498000  0.33385000  0.52812000  1.0
  H  H129  1  0.49502000  0.16615000  0.02811000  1.0
  H  H130  1  0.99502000  0.33385000  0.97188000  1.0
  H  H131  1  0.50498000  0.16615000  0.47188000  1.0
  H  H132  1  0.99503000  0.66615000  0.47189000  1.0
  H  H133  1  0.50499000  0.83385000  0.97188000  1.0
  H  H134  1  0.00499000  0.66616000  0.02811000  1.0
  H  H135  1  0.49502000  0.83385000  0.52811000  1.0
  H  H136  1  0.11269000  0.11510000  0.58808000  1.0
  H  H137  1  0.38731000  0.38490000  0.08809000  1.0
  H  H138  1  0.88730000  0.11510000  0.91191000  1.0
  H  H139  1  0.61270000  0.38490000  0.41192000  1.0
  H  H140  1  0.88730000  0.88490000  0.41191000  1.0
  H  H141  1  0.61270000  0.61510000  0.91191000  1.0
  H  H142  1  0.11270000  0.88491000  0.08808000  1.0
  H  H143  1  0.38731000  0.61510000  0.58809000  1.0
  H  H144  1  0.02175000  0.04996000  0.49477000  1.0
  H  H145  1  0.47825000  0.45004000  0.99478000  1.0
  H  H146  1  0.97824000  0.04996000  0.00523000  1.0
  H  H147  1  0.52175000  0.45004000  0.50523000  1.0
  H  H148  1  0.97825000  0.95004000  0.50522000  1.0
  H  H149  1  0.52175000  0.54996000  0.00522000  1.0
  H  H150  1  0.02175000  0.95005000  0.99477000  1.0
  H  H151  1  0.47825000  0.54996000  0.49477000  1.0
  H  H152  1  0.72993000  0.78571000  0.31371000  1.0
  H  H153  1  0.77007000  0.71429000  0.81370000  1.0
  H  H154  1  0.27007000  0.78571000  0.18630000  1.0
  H  H155  1  0.22993000  0.71429000  0.68630000  1.0
  H  H156  1  0.27007000  0.21429000  0.68630000  1.0
  H  H157  1  0.22993000  0.28571000  0.18629000  1.0
  H  H158  1  0.72993000  0.21429000  0.81370000  1.0
  H  H159  1  0.77007000  0.28571000  0.31370000  1.0
  H  H160  1  0.68140000  0.70060000  0.19981000  1.0
  H  H161  1  0.81860000  0.79940000  0.69981000  1.0
  H  H162  1  0.31860000  0.70059000  0.30019000  1.0
  H  H163  1  0.18140000  0.79940000  0.80019000  1.0
  H  H164  1  0.31860000  0.29940000  0.80019000  1.0
  H  H165  1  0.18140000  0.20060000  0.30019000  1.0
  H  H166  1  0.68140000  0.29940000  0.69981000  1.0
  H  H167  1  0.81860000  0.20060000  0.19981000  1.0
  H  H168  1  0.58077000  0.72239000  0.16028000  1.0
  H  H169  1  0.91923000  0.77761000  0.66028000  1.0
  H  H170  1  0.41923000  0.72239000  0.33972000  1.0
  H  H171  1  0.08077000  0.77761000  0.83973000  1.0
  H  H172  1  0.41923000  0.27761000  0.83972000  1.0
  H  H173  1  0.08078000  0.22239000  0.33973000  1.0
  H  H174  1  0.58077000  0.27761000  0.66027000  1.0
  H  H175  1  0.91923000  0.22239000  0.16027000  1.0
  H  H176  1  0.58807000  0.66377000  0.24035000  1.0
  H  H177  1  0.91193000  0.83623000  0.74035000  1.0
  H  H178  1  0.41193000  0.66377000  0.25965000  1.0
  H  H179  1  0.08807000  0.83623000  0.75965000  1.0
  H  H180  1  0.41193000  0.33623000  0.75965000  1.0
  H  H181  1  0.08808000  0.16377000  0.25965000  1.0
  H  H182  1  0.58808000  0.33623000  0.74035000  1.0
  H  H183  1  0.91193000  0.16377000  0.24035000  1.0
  H  H184  1  0.52567000  0.95404000  0.41693000  1.0
  H  H185  1  0.97433000  0.54596000  0.91693000  1.0
  H  H186  1  0.47433000  0.95404000  0.08307000  1.0
  H  H187  1  0.02567000  0.54596000  0.58307000  1.0
  H  H188  1  0.47433000  0.04596000  0.58307000  1.0
  H  H189  1  0.02567000  0.45404000  0.08307000  1.0
  H  H190  1  0.52567000  0.04597000  0.91693000  1.0
  H  H191  1  0.97433000  0.45404000  0.41693000  1.0
  H  H192  1  0.45427000  0.95158000  0.34101000  1.0
  H  H193  1  0.04573000  0.54842000  0.84101000  1.0
  H  H194  1  0.54573000  0.95158000  0.15899000  1.0
  H  H195  1  0.95427000  0.54842000  0.65899000  1.0
  H  H196  1  0.54573000  0.04842000  0.65899000  1.0
  H  H197  1  0.95427000  0.45157000  0.15899000  1.0
  H  H198  1  0.45427000  0.04843000  0.84101000  1.0
  H  H199  1  0.04573000  0.45158000  0.34101000  1.0
  H  H200  1  0.54498000  0.01186000  0.33835000  1.0
  H  H201  1  0.95502000  0.48814000  0.83834000  1.0
  H  H202  1  0.45502000  0.01186000  0.16166000  1.0
  H  H203  1  0.04498000  0.48814000  0.66166000  1.0
  H  H204  1  0.45502000  0.98814000  0.66165000  1.0
  H  H205  1  0.04498000  0.51186000  0.16166000  1.0
  H  H206  1  0.54497000  0.98814000  0.83834000  1.0
  H  H207  1  0.95502000  0.51186000  0.33834000  1.0
  C  C208  1  0.72565000  0.12378000  0.56360000  1.0
  C  C209  1  0.77436000  0.37622000  0.06360000  1.0
  C  C210  1  0.27435000  0.12379000  0.93639000  1.0
  C  C211  1  0.22564000  0.37621000  0.43640000  1.0
  C  C212  1  0.27435000  0.87621000  0.43639000  1.0
  C  C213  1  0.22565000  0.62379000  0.93640000  1.0
  C  C214  1  0.72564000  0.87621000  0.06360000  1.0
  C  C215  1  0.77436000  0.62379000  0.56360000  1.0
  C  C216  1  0.72727000  0.04236000  0.53707000  1.0
  C  C217  1  0.77273000  0.45764000  0.03706000  1.0
  C  C218  1  0.27273000  0.04236000  0.96293000  1.0
  C  C219  1  0.22727000  0.45764000  0.46293000  1.0
  C  C220  1  0.27273000  0.95764000  0.46293000  1.0
  C  C221  1  0.22727000  0.54236000  0.96293000  1.0
  C  C222  1  0.72727000  0.95764000  0.03707000  1.0
  C  C223  1  0.77273000  0.54236000  0.53707000  1.0
  C  C224  1  0.74028000  0.97449000  0.57875000  1.0
  C  C225  1  0.75972000  0.52551000  0.07875000  1.0
  C  C226  1  0.25972000  0.97449000  0.92125000  1.0
  C  C227  1  0.24027000  0.52551000  0.42125000  1.0
  C  C228  1  0.25973000  0.02550000  0.42125000  1.0
  C  C229  1  0.24028000  0.47449000  0.92125000  1.0
  C  C230  1  0.74028000  0.02551000  0.07875000  1.0
  C  C231  1  0.75972000  0.47449000  0.57875000  1.0
  C  C232  1  0.73298000  0.91333000  0.52811000  1.0
  C  C233  1  0.76702000  0.58667000  0.02811000  1.0
  C  C234  1  0.26702000  0.91333000  0.97189000  1.0
  C  C235  1  0.23297000  0.58667000  0.47189000  1.0
  C  C236  1  0.26703000  0.08667000  0.47189000  1.0
  C  C237  1  0.23298000  0.41333000  0.97189000  1.0
  C  C238  1  0.73298000  0.08667000  0.02811000  1.0
  C  C239  1  0.76702000  0.41333000  0.52811000  1.0
  C  C240  1  0.73975000  0.82839000  0.53860000  1.0
  C  C241  1  0.76025000  0.67161000  0.03860000  1.0
  C  C242  1  0.26025000  0.82839000  0.96140000  1.0
  C  C243  1  0.23974000  0.67161000  0.46140000  1.0
  C  C244  1  0.26027000  0.17160000  0.46140000  1.0
  C  C245  1  0.23974000  0.32839000  0.96140000  1.0
  C  C246  1  0.73974000  0.17161000  0.03860000  1.0
  C  C247  1  0.76026000  0.32839000  0.53860000  1.0
  C  C248  1  0.90349000  0.04106000  0.66649000  1.0
  C  C249  1  0.59651000  0.45894000  0.16649000  1.0
  C  C250  1  0.09651000  0.04106000  0.83351000  1.0
  C  C251  1  0.40348000  0.45894000  0.33351000  1.0
  C  C252  1  0.09651000  0.95895000  0.33351000  1.0
  C  C253  1  0.40349000  0.54106000  0.83351000  1.0
  C  C254  1  0.90349000  0.95894000  0.16649000  1.0
  C  C255  1  0.59651000  0.54106000  0.66649000  1.0
  C  C256  1  0.82773000  0.00035000  0.69538000  1.0
  C  C257  1  0.67227000  0.49965000  0.19538000  1.0
  C  C258  1  0.17227000  0.00035000  0.80462000  1.0
  C  C259  1  0.32772000  0.49965000  0.30462000  1.0
  C  C260  1  0.17228000  0.99966000  0.30462000  1.0
  C  C261  1  0.32773000  0.50035000  0.80462000  1.0
  C  C262  1  0.82773000  0.99965000  0.19538000  1.0
  C  C263  1  0.67227000  0.50035000  0.69538000  1.0
  C  C264  1  0.75735000  0.97003000  0.65782000  1.0
  C  C265  1  0.74265000  0.52997000  0.15782000  1.0
  C  C266  1  0.24265000  0.97003000  0.84218000  1.0
  C  C267  1  0.25735000  0.52997000  0.34218000  1.0
  C  C268  1  0.24265000  0.02997000  0.34218000  1.0
  C  C269  1  0.25735000  0.47003000  0.84218000  1.0
  C  C270  1  0.75735000  0.02997000  0.15782000  1.0
  C  C271  1  0.74265000  0.47003000  0.65782000  1.0
  C  C272  1  0.70609000  0.93554000  0.71271000  1.0
  C  C273  1  0.79391000  0.56446000  0.21271000  1.0
  C  C274  1  0.29391000  0.93554000  0.78729000  1.0
  C  C275  1  0.20609000  0.56446000  0.28729000  1.0
  C  C276  1  0.29391000  0.06446000  0.28729000  1.0
  C  C277  1  0.20609000  0.43554000  0.78729000  1.0
  C  C278  1  0.70609000  0.06446000  0.21271000  1.0
  C  C279  1  0.79391000  0.43554000  0.71271000  1.0
  C  C280  1  0.62520000  0.89244000  0.70430000  1.0
  C  C281  1  0.87480000  0.60756000  0.20430000  1.0
  C  C282  1  0.37480000  0.89244000  0.79570000  1.0
  C  C283  1  0.12520000  0.60757000  0.29570000  1.0
  C  C284  1  0.37480000  0.10756000  0.29570000  1.0
  C  C285  1  0.12520000  0.39244000  0.79570000  1.0
  C  C286  1  0.62520000  0.10756000  0.20430000  1.0
  C  C287  1  0.87480000  0.39244000  0.70430000  1.0
  C  C288  1  0.89465000  0.11420000  0.41404000  1.0
  C  C289  1  0.60536000  0.38579000  0.91404000  1.0
  C  C290  1  0.10535000  0.11421000  0.08596000  1.0
  C  C291  1  0.39465000  0.38579000  0.58596000  1.0
  C  C292  1  0.10535000  0.88580000  0.58596000  1.0
  C  C293  1  0.39465000  0.61421000  0.08596000  1.0
  C  C294  1  0.89465000  0.88580000  0.91404000  1.0
  C  C295  1  0.60535000  0.61421000  0.41404000  1.0
  C  C296  1  0.95731000  0.15429000  0.46280000  1.0
  C  C297  1  0.54269000  0.34571000  0.96280000  1.0
  C  C298  1  0.04268000  0.15429000  0.03721000  1.0
  C  C299  1  0.45731000  0.34570000  0.53720000  1.0
  C  C300  1  0.04269000  0.84571000  0.53720000  1.0
  C  C301  1  0.45731000  0.65429000  0.03720000  1.0
  C  C302  1  0.95732000  0.84571000  0.96280000  1.0
  C  C303  1  0.54269000  0.65429000  0.46280000  1.0
  C  C304  1  0.95259000  0.23458000  0.47200000  1.0
  C  C305  1  0.54741000  0.26542000  0.97200000  1.0
  C  C306  1  0.04741000  0.23458000  0.02800000  1.0
  C  C307  1  0.45259000  0.26542000  0.52800000  1.0
  C  C308  1  0.04741000  0.76542000  0.52800000  1.0
  C  C309  1  0.45259000  0.73458000  0.02800000  1.0
  C  C310  1  0.95259000  0.76542000  0.97200000  1.0
  C  C311  1  0.54741000  0.73458000  0.47200000  1.0
  C  C312  1  0.00625000  0.27139000  0.52143000  1.0
  C  C313  1  0.49375000  0.22861000  0.02142000  1.0
  C  C314  1  0.99375000  0.27139000  0.97858000  1.0
  C  C315  1  0.50625000  0.22861000  0.47857000  1.0
  C  C316  1  0.99375000  0.72861000  0.47858000  1.0
  C  C317  1  0.50626000  0.77139000  0.97857000  1.0
  C  C318  1  0.00626000  0.72861000  0.02142000  1.0
  C  C319  1  0.49374000  0.77139000  0.52142000  1.0
  C  C320  1  0.06811000  0.14828000  0.55503000  1.0
  C  C321  1  0.43189000  0.35172000  0.05504000  1.0
  C  C322  1  0.93189000  0.14828000  0.94497000  1.0
  C  C323  1  0.56810000  0.35172000  0.44497000  1.0
  C  C324  1  0.93189000  0.85172000  0.44497000  1.0
  C  C325  1  0.56811000  0.64828000  0.94496000  1.0
  C  C326  1  0.06811000  0.85173000  0.05503000  1.0
  C  C327  1  0.43189000  0.64828000  0.55503000  1.0
  C  C328  1  0.01691000  0.11188000  0.50312000  1.0
  C  C329  1  0.48309000  0.38811000  0.00312000  1.0
  C  C330  1  0.98309000  0.11189000  0.99689000  1.0
  C  C331  1  0.51691000  0.38811000  0.49688000  1.0
  C  C332  1  0.98309000  0.88811000  0.49688000  1.0
  C  C333  1  0.51691000  0.61188000  0.99688000  1.0
  C  C334  1  0.01691000  0.88812000  0.00312000  1.0
  C  C335  1  0.48309000  0.61189000  0.50312000  1.0
  C  C336  1  0.12166000  0.26883000  0.61666000  1.0
  C  C337  1  0.37834000  0.23117000  0.11665000  1.0
  C  C338  1  0.87834000  0.26883000  0.88334000  1.0
  C  C339  1  0.62165000  0.23118000  0.38334000  1.0
  C  C340  1  0.87834000  0.73117000  0.38335000  1.0
  C  C341  1  0.62166000  0.76882000  0.88334000  1.0
  C  C342  1  0.12165000  0.73118000  0.11666000  1.0
  C  C343  1  0.37834000  0.76883000  0.61666000  1.0
  C  C344  1  0.06310000  0.22833000  0.56442000  1.0
  C  C345  1  0.43690000  0.27166000  0.06442000  1.0
  C  C346  1  0.93689000  0.22834000  0.93558000  1.0
  C  C347  1  0.56310000  0.27167000  0.43558000  1.0
  C  C348  1  0.93690000  0.77166000  0.43558000  1.0
  C  C349  1  0.56310000  0.72833000  0.93557000  1.0
  C  C350  1  0.06311000  0.77167000  0.06442000  1.0
  C  C351  1  0.43689000  0.72834000  0.56442000  1.0
  C  C352  1  0.61534000  0.71442000  0.21239000  1.0
  C  C353  1  0.88466000  0.78558000  0.71239000  1.0
  C  C354  1  0.38466000  0.71442000  0.28761000  1.0
  C  C355  1  0.11535000  0.78558000  0.78761000  1.0
  C  C356  1  0.38465000  0.28558000  0.78761000  1.0
  C  C357  1  0.11535000  0.21442000  0.28761000  1.0
  C  C358  1  0.61535000  0.28558000  0.71239000  1.0
  C  C359  1  0.88465000  0.21442000  0.21239000  1.0
  C  C360  1  0.60837000  0.78469000  0.25928000  1.0
  C  C361  1  0.89163000  0.71531000  0.75928000  1.0
  C  C362  1  0.39163000  0.78469000  0.24072000  1.0
  C  C363  1  0.10837000  0.71531000  0.74072000  1.0
  C  C364  1  0.39163000  0.21531000  0.74072000  1.0
  C  C365  1  0.10837000  0.28469000  0.24072000  1.0
  C  C366  1  0.60837000  0.21531000  0.75928000  1.0
  C  C367  1  0.89163000  0.28469000  0.25928000  1.0
  C  C368  1  0.54071000  0.83599000  0.26896000  1.0
  C  C369  1  0.95929000  0.66401000  0.76896000  1.0
  C  C370  1  0.45929000  0.83599000  0.23104000  1.0
  C  C371  1  0.04071000  0.66401000  0.73104000  1.0
  C  C372  1  0.45929000  0.16401000  0.73104000  1.0
  C  C373  1  0.04071000  0.33599000  0.23104000  1.0
  C  C374  1  0.54071000  0.16401000  0.76896000  1.0
  C  C375  1  0.95929000  0.33599000  0.26896000  1.0
  C  C376  1  0.56904000  0.88993000  0.32244000  1.0
  C  C377  1  0.93096000  0.61007000  0.82244000  1.0
  C  C378  1  0.43096000  0.88993000  0.17756000  1.0
  C  C379  1  0.06904000  0.61007000  0.67756000  1.0
  C  C380  1  0.43096000  0.11007000  0.67756000  1.0
  C  C381  1  0.06904000  0.38993000  0.17756000  1.0
  C  C382  1  0.56904000  0.11007000  0.82244000  1.0
  C  C383  1  0.93096000  0.38993000  0.32244000  1.0
  C  C384  1  0.52121000  0.95524000  0.35630000  1.0
  C  C385  1  0.97879000  0.54476000  0.85630000  1.0
  C  C386  1  0.47879000  0.95524000  0.14371000  1.0
  C  C387  1  0.02121000  0.54476000  0.64370000  1.0
  C  C388  1  0.47880000  0.04476000  0.64370000  1.0
  C  C389  1  0.02121000  0.45524000  0.14370000  1.0
  C  C390  1  0.52120000  0.04476000  0.85630000  1.0
  C  C391  1  0.97879000  0.45524000  0.35629000  1.0
  N  N392  1  0.71375000  0.02316000  0.46567000  1.0
  N  N393  1  0.78625000  0.47684000  0.96566000  1.0
  N  N394  1  0.28625000  0.02316000  0.03433000  1.0
  N  N395  1  0.21375000  0.47684000  0.53434000  1.0
  N  N396  1  0.28625000  0.97683000  0.53433000  1.0
  N  N397  1  0.21375000  0.52316000  0.03434000  1.0
  N  N398  1  0.71375000  0.97684000  0.96566000  1.0
  N  N399  1  0.78625000  0.52316000  0.46566000  1.0
  N  N400  1  0.71824000  0.94516000  0.46140000  1.0
  N  N401  1  0.78177000  0.55484000  0.96140000  1.0
  N  N402  1  0.28176000  0.94516000  0.03860000  1.0
  N  N403  1  0.21823000  0.55484000  0.53860000  1.0
  N  N404  1  0.28177000  0.05483000  0.53860000  1.0
  N  N405  1  0.21823000  0.44516000  0.03860000  1.0
  N  N406  1  0.71823000  0.05484000  0.96140000  1.0
  N  N407  1  0.78177000  0.44516000  0.46140000  1.0
  N  N408  1  0.74315000  0.94526000  0.77892000  1.0
  N  N409  1  0.75685000  0.55474000  0.27892000  1.0
  N  N410  1  0.25685000  0.94526000  0.72108000  1.0
  N  N411  1  0.24315000  0.55474000  0.22108000  1.0
  N  N412  1  0.25685000  0.05474000  0.22108000  1.0
  N  N413  1  0.24315000  0.44526000  0.72108000  1.0
  N  N414  1  0.74315000  0.05474000  0.27892000  1.0
  N  N415  1  0.75685000  0.44526000  0.77892000  1.0
  N  N416  1  0.81611000  0.98454000  0.76769000  1.0
  N  N417  1  0.68389000  0.51546000  0.26769000  1.0
  N  N418  1  0.18389000  0.98454000  0.73231000  1.0
  N  N419  1  0.31610000  0.51546000  0.23231000  1.0
  N  N420  1  0.18389000  0.01546000  0.23231000  1.0
  N  N421  1  0.31611000  0.48454000  0.73231000  1.0
  N  N422  1  0.81611000  0.01546000  0.26769000  1.0
  N  N423  1  0.68389000  0.48454000  0.76769000  1.0
  N  N424  1  0.67107000  0.80985000  0.30392000  1.0
  N  N425  1  0.82893000  0.69015000  0.80391000  1.0
  N  N426  1  0.32893000  0.80985000  0.19608000  1.0
  N  N427  1  0.17107000  0.69015000  0.69609000  1.0
  N  N428  1  0.32893000  0.19015000  0.69608000  1.0
  N  N429  1  0.17107000  0.30985000  0.19608000  1.0
  N  N430  1  0.67107000  0.19015000  0.80392000  1.0
  N  N431  1  0.82893000  0.30985000  0.30391000  1.0
  N  N432  1  0.64864000  0.87330000  0.34286000  1.0
  N  N433  1  0.85136000  0.62670000  0.84286000  1.0
  N  N434  1  0.35136000  0.87330000  0.15714000  1.0
  N  N435  1  0.14864000  0.62670000  0.65714000  1.0
  N  N436  1  0.35136000  0.12670000  0.65714000  1.0
  N  N437  1  0.14864000  0.37329000  0.15714000  1.0
  N  N438  1  0.64864000  0.12671000  0.84286000  1.0
  N  N439  1  0.85136000  0.37330000  0.34286000  1.0
  O  O440  1  0.82603000  0.15282000  0.40269000  1.0
  O  O441  1  0.67398000  0.34718000  0.90269000  1.0
  O  O442  1  0.17397000  0.15282000  0.09731000  1.0
  O  O443  1  0.32602000  0.34718000  0.59731000  1.0
  O  O444  1  0.17397000  0.84718000  0.59731000  1.0
  O  O445  1  0.32602000  0.65282000  0.09731000  1.0
  O  O446  1  0.82603000  0.84718000  0.90269000  1.0
  O  O447  1  0.67398000  0.65282000  0.40269000  1.0
  O  O448  1  0.91000000  0.04729000  0.38983000  1.0
  O  O449  1  0.59000000  0.45271000  0.88983000  1.0
  O  O450  1  0.08999000  0.04729000  0.11017000  1.0
  O  O451  1  0.41000000  0.45271000  0.61017000  1.0
  O  O452  1  0.09000000  0.95271000  0.61017000  1.0
  O  O453  1  0.41000000  0.54729000  0.11017000  1.0
  O  O454  1  0.91000000  0.95271000  0.88983000  1.0
  O  O455  1  0.59000000  0.54729000  0.38983000  1.0
  O  O456  1  0.12018000  0.34348000  0.61092000  1.0
  O  O457  1  0.37982000  0.15652000  0.11092000  1.0
  O  O458  1  0.87982000  0.34348000  0.88908000  1.0
  O  O459  1  0.62019000  0.15653000  0.38907000  1.0
  O  O460  1  0.87982000  0.65652000  0.38908000  1.0
  O  O461  1  0.62019000  0.84347000  0.88907000  1.0
  O  O462  1  0.12018000  0.65653000  0.11092000  1.0
  O  O463  1  0.37982000  0.84348000  0.61092000  1.0
  O  O464  1  0.16777000  0.23098000  0.65970000  1.0
  O  O465  1  0.33222000  0.26902000  0.15969000  1.0
  O  O466  1  0.83223000  0.23098000  0.84030000  1.0
  O  O467  1  0.66777000  0.26903000  0.34030000  1.0
  O  O468  1  0.83222000  0.76901000  0.34031000  1.0
  O  O469  1  0.66777000  0.73097000  0.84030000  1.0
  O  O470  1  0.16777000  0.76903000  0.15970000  1.0
  O  O471  1  0.33223000  0.73099000  0.65970000  1.0
