# generated using pymatgen
data_NaSmH16(C3O2)6
_symmetry_space_group_name_H-M   'P 1'
_cell_length_a   6.84132000
_cell_length_b   7.55966000
_cell_length_c   19.93969595
_cell_angle_alpha   89.99897419
_cell_angle_beta   99.83967565
_cell_angle_gamma   89.99920000
_symmetry_Int_Tables_number   1
_chemical_formula_structural   NaSmH16(C3O2)6
_chemical_formula_sum   'Na2 Sm2 H32 C36 O24'
_cell_volume   1016.07247181
_cell_formula_units_Z   2
loop_
 _symmetry_equiv_pos_site_id
 _symmetry_equiv_pos_as_xyz
  1  'x, y, z'
loop_
 _atom_site_type_symbol
 _atom_site_label
 _atom_site_symmetry_multiplicity
 _atom_site_fract_x
 _atom_site_fract_y
 _atom_site_fract_z
 _atom_site_occupancy
  Na  Na0  1  0.66258000  0.24976000  0.32392000  1.0
  Na  Na1  1  0.33743000  0.74976000  0.67608000  1.0
  Sm  Sm2  1  0.79326000  0.74987000  0.58693000  1.0
  Sm  Sm3  1  0.20675000  0.24988000  0.41307000  1.0
  H  H4  1  0.79990000  0.14820000  0.18612000  1.0
  H  H5  1  0.20010000  0.64820000  0.81388000  1.0
  H  H6  1  0.61169000  0.85208000  0.81408000  1.0
  H  H7  1  0.38831000  0.35208000  0.18592000  1.0
  H  H8  1  0.73784000  0.14515000  0.05964000  1.0
  H  H9  1  0.26218000  0.64515000  0.94036000  1.0
  H  H10  1  0.67663000  0.85551000  0.94061000  1.0
  H  H11  1  0.32338000  0.35551000  0.05939000  1.0
  H  H12  1  0.27597000  0.14425000  0.96637000  1.0
  H  H13  1  0.72403000  0.64426000  0.03362000  1.0
  H  H14  1  0.30824000  0.85608000  0.03331000  1.0
  H  H15  1  0.69177000  0.35608000  0.96670000  1.0
  H  H16  1  0.21199000  0.14232000  0.84039000  1.0
  H  H17  1  0.78799000  0.64234000  0.15961000  1.0
  H  H18  1  0.37107000  0.85772000  0.15926000  1.0
  H  H19  1  0.62891000  0.35772000  0.84074000  1.0
  H  H20  1  0.00305000  0.26960000  0.56096000  1.0
  H  H21  1  0.99695000  0.76960000  0.43904000  1.0
  H  H22  1  0.44218000  0.73007000  0.43905000  1.0
  H  H23  1  0.55781000  0.23009000  0.56094000  1.0
  H  H24  1  0.71623000  0.37632000  0.65391000  1.0
  H  H25  1  0.28375000  0.87632000  0.34609000  1.0
  H  H26  1  0.06269000  0.62349000  0.34608000  1.0
  H  H27  1  0.93729000  0.12349000  0.65392000  1.0
  H  H28  1  0.51938000  0.90815000  0.26510000  1.0
  H  H29  1  0.48062000  0.40815000  0.73490000  1.0
  H  H30  1  0.25330000  0.09163000  0.73480000  1.0
  H  H31  1  0.74669000  0.59163000  0.26520000  1.0
  H  H32  1  0.75229000  0.89754000  0.27264000  1.0
  H  H33  1  0.24771000  0.39755000  0.72736000  1.0
  H  H34  1  0.47874000  0.10179000  0.72729000  1.0
  H  H35  1  0.52125000  0.60179000  0.27271000  1.0
  C  C36  1  0.09796000  0.25011000  0.19370000  1.0
  C  C37  1  0.90205000  0.75011000  0.80630000  1.0
  C  C38  1  0.13553000  0.25000000  0.26917000  1.0
  C  C39  1  0.86448000  0.74999000  0.73083000  1.0
  C  C40  1  0.02619000  0.25027000  0.05066000  1.0
  C  C41  1  0.97381000  0.75027000  0.94933000  1.0
  C  C42  1  0.98848000  0.25027000  0.97561000  1.0
  C  C43  1  0.01153000  0.75027000  0.02439000  1.0
  C  C44  1  0.91341000  0.19468000  0.15799000  1.0
  C  C45  1  0.08659000  0.69468000  0.84201000  1.0
  C  C46  1  0.75336000  0.80564000  0.84211000  1.0
  C  C47  1  0.24664000  0.30563000  0.15789000  1.0
  C  C48  1  0.87888000  0.19422000  0.08725000  1.0
  C  C49  1  0.12114000  0.69422000  0.91275000  1.0
  C  C50  1  0.78987000  0.80628000  0.91287000  1.0
  C  C51  1  0.21014000  0.30627000  0.08713000  1.0
  C  C52  1  0.91617000  0.25013000  0.83201000  1.0
  C  C53  1  0.08382000  0.75013000  0.16799000  1.0
  C  C54  1  0.13474000  0.19310000  0.93880000  1.0
  C  C55  1  0.86526000  0.69310000  0.06120000  1.0
  C  C56  1  0.19478000  0.80731000  0.06102000  1.0
  C  C57  1  0.80522000  0.30731000  0.93898000  1.0
  C  C58  1  0.09899000  0.19166000  0.86808000  1.0
  C  C59  1  0.90099000  0.69166000  0.13192000  1.0
  C  C60  1  0.23026000  0.80860000  0.13173000  1.0
  C  C61  1  0.76973000  0.30860000  0.86827000  1.0
  C  C62  1  0.87799000  0.25005000  0.75619000  1.0
  C  C63  1  0.12199000  0.75006000  0.24381000  1.0
  C  C64  1  0.86798000  0.18784000  0.55486000  1.0
  C  C65  1  0.13201000  0.68784000  0.44514000  1.0
  C  C66  1  0.31319000  0.81182000  0.44514000  1.0
  C  C67  1  0.68680000  0.31183000  0.55485000  1.0
  C  C68  1  0.84980000  0.08639000  0.48801000  1.0
  C  C69  1  0.15021000  0.58638000  0.51199000  1.0
  C  C70  1  0.36159000  0.91333000  0.51199000  1.0
  C  C71  1  0.63841000  0.41334000  0.48800000  1.0
  O  O72  1  0.99024000  0.23742000  0.30195000  1.0
  O  O73  1  0.00978000  0.73741000  0.69806000  1.0
  O  O74  1  0.68665000  0.76244000  0.69799000  1.0
  O  O75  1  0.31337000  0.26245000  0.30201000  1.0
  O  O76  1  0.69922000  0.57078000  0.48703000  1.0
  O  O77  1  0.30082000  0.07077000  0.51297000  1.0
  O  O78  1  0.21186000  0.42891000  0.51298000  1.0
  O  O79  1  0.78813000  0.92891000  0.48702000  1.0
  O  O80  1  0.63996000  0.97947000  0.26521000  1.0
  O  O81  1  0.36004000  0.47947000  0.73479000  1.0
  O  O82  1  0.37369000  0.02011000  0.73478000  1.0
  O  O83  1  0.62631000  0.52011000  0.26522000  1.0
  O  O84  1  0.01993000  0.21072000  0.72429000  1.0
  O  O85  1  0.98004000  0.71073000  0.27571000  1.0
  O  O86  1  0.29587000  0.78932000  0.27556000  1.0
  O  O87  1  0.70410000  0.28932000  0.72444000  1.0
  O  O88  1  0.72647000  0.43768000  0.60893000  1.0
  O  O89  1  0.27353000  0.93768000  0.39107000  1.0
  O  O90  1  0.11783000  0.56205000  0.39104000  1.0
  O  O91  1  0.88215000  0.06204000  0.60896000  1.0
  O  O92  1  0.89633000  0.16572000  0.43656000  1.0
  O  O93  1  0.10368000  0.66572000  0.56345000  1.0
  O  O94  1  0.45959000  0.83412000  0.56344000  1.0
  O  O95  1  0.54042000  0.33415000  0.43656000  1.0
