# generated using pymatgen
data_PrH4C3O8
_symmetry_space_group_name_H-M   'P 1'
_cell_length_a   6.10747000
_cell_length_b   7.83922000
_cell_length_c   8.30915000
_cell_angle_alpha   96.24290000
_cell_angle_beta   93.47580000
_cell_angle_gamma   109.46000000
_symmetry_Int_Tables_number   1
_chemical_formula_structural   PrH4C3O8
_chemical_formula_sum   'Pr2 H8 C6 O16'
_cell_volume   370.87730489
_cell_formula_units_Z   2
loop_
 _symmetry_equiv_pos_site_id
 _symmetry_equiv_pos_as_xyz
  1  'x, y, z'
loop_
 _atom_site_type_symbol
 _atom_site_label
 _atom_site_symmetry_multiplicity
 _atom_site_fract_x
 _atom_site_fract_y
 _atom_site_fract_z
 _atom_site_occupancy
  Pr  Pr0  1  0.00123000  0.81478000  0.28273000  1.0
  Pr  Pr1  1  0.99876000  0.18520000  0.71726000  1.0
  H  H2  1  0.57112000  0.87301000  0.12398000  1.0
  H  H3  1  0.42886000  0.12697000  0.87601000  1.0
  H  H4  1  0.69588000  0.82502000  0.96609000  1.0
  H  H5  1  0.30412000  0.17496000  0.03390000  1.0
  H  H6  1  0.18301000  0.23287000  0.31016000  1.0
  H  H7  1  0.81696000  0.76711000  0.68984000  1.0
  H  H8  1  0.00567000  0.17119000  0.14955000  1.0
  H  H9  1  0.99434000  0.82880000  0.85044000  1.0
  C  C10  1  0.44076000  0.01709000  0.57718000  1.0
  C  C11  1  0.55923000  0.98289000  0.42283000  1.0
  C  C12  1  0.08860000  0.57216000  0.95650000  1.0
  C  C13  1  0.91146000  0.42787000  0.04347000  1.0
  C  C14  1  0.88699000  0.50595000  0.53511000  1.0
  C  C15  1  0.11298000  0.49405000  0.46492000  1.0
  O  O16  1  0.22966000  0.01059000  0.55401000  1.0
  O  O17  1  0.77030000  0.98940000  0.44599000  1.0
  O  O18  1  0.56078000  0.04766000  0.71248000  1.0
  O  O19  1  0.43920000  0.95233000  0.28753000  1.0
  O  O20  1  0.12442000  0.73981000  0.00947000  1.0
  O  O21  1  0.87569000  0.26026000  0.99051000  1.0
  O  O22  1  0.17979000  0.51519000  0.84065000  1.0
  O  O23  1  0.82027000  0.48483000  0.15932000  1.0
  O  O24  1  0.82899000  0.64281000  0.50646000  1.0
  O  O25  1  0.17098000  0.35717000  0.49356000  1.0
  O  O26  1  0.78124000  0.38378000  0.61689000  1.0
  O  O27  1  0.21874000  0.61624000  0.38316000  1.0
  O  O28  1  0.68883000  0.82211000  0.08410000  1.0
  O  O29  1  0.31116000  0.17788000  0.91590000  1.0
  O  O30  1  0.13131000  0.14206000  0.20935000  1.0
  O  O31  1  0.86866000  0.85795000  0.79063000  1.0
