# generated using pymatgen
data_BiMoH29(C8O)3
_symmetry_space_group_name_H-M   'P 1'
_cell_length_a   11.19120000
_cell_length_b   12.32090000
_cell_length_c   20.38490000
_cell_angle_alpha   104.66000000
_cell_angle_beta   89.99990000
_cell_angle_gamma   89.99960000
_symmetry_Int_Tables_number   1
_chemical_formula_structural   BiMoH29(C8O)3
_chemical_formula_sum   'Bi4 Mo4 H116 C96 O12'
_cell_volume   2719.27927706
_cell_formula_units_Z   4
loop_
 _symmetry_equiv_pos_site_id
 _symmetry_equiv_pos_as_xyz
  1  'x, y, z'
loop_
 _atom_site_type_symbol
 _atom_site_label
 _atom_site_symmetry_multiplicity
 _atom_site_fract_x
 _atom_site_fract_y
 _atom_site_fract_z
 _atom_site_occupancy
  Bi  Bi0  1  0.09675000  0.27057000  0.23123000  1.0
  Bi  Bi1  1  0.59675000  0.22943000  0.26877000  1.0
  Bi  Bi2  1  0.90325000  0.72943000  0.76877000  1.0
  Bi  Bi3  1  0.40325000  0.77057000  0.73123000  1.0
  Mo  Mo4  1  0.87502000  0.09522000  0.32728000  1.0
  Mo  Mo5  1  0.37502000  0.40477000  0.17272000  1.0
  Mo  Mo6  1  0.12498000  0.90477000  0.67272000  1.0
  Mo  Mo7  1  0.62498000  0.59523000  0.82728000  1.0
  H  H8  1  0.13756000  0.95959000  0.34566000  1.0
  H  H9  1  0.63756000  0.54041000  0.15434000  1.0
  H  H10  1  0.86244000  0.04041000  0.65434000  1.0
  H  H11  1  0.36245000  0.45959000  0.84566000  1.0
  H  H12  1  0.20339000  0.02890000  0.42421000  1.0
  H  H13  1  0.70339000  0.47110000  0.07578000  1.0
  H  H14  1  0.79661000  0.97110000  0.57579000  1.0
  H  H15  1  0.29661000  0.52891000  0.92421000  1.0
  H  H16  1  0.19533000  0.09757000  0.35816000  1.0
  H  H17  1  0.69533000  0.40243000  0.14184000  1.0
  H  H18  1  0.80467000  0.90243000  0.64184000  1.0
  H  H19  1  0.30467000  0.59757000  0.85816000  1.0
  H  H20  1  0.83954000  0.86617000  0.41622000  1.0
  H  H21  1  0.33954000  0.63383000  0.08378000  1.0
  H  H22  1  0.16046000  0.13383000  0.58378000  1.0
  H  H23  1  0.66046000  0.36617000  0.91622000  1.0
  H  H24  1  0.98323000  0.87655000  0.45409000  1.0
  H  H25  1  0.48322000  0.62345000  0.04591000  1.0
  H  H26  1  0.01677000  0.12345000  0.54591000  1.0
  H  H27  1  0.51677000  0.37655000  0.95409000  1.0
  H  H28  1  0.96830000  0.85513000  0.36465000  1.0
  H  H29  1  0.46830000  0.64487000  0.13535000  1.0
  H  H30  1  0.03170000  0.14487000  0.63535000  1.0
  H  H31  1  0.53170000  0.35513000  0.86465000  1.0
  H  H32  1  0.70273000  0.08184000  0.52084000  1.0
  H  H33  1  0.20273000  0.41816000  0.97916000  1.0
  H  H34  1  0.29726000  0.91816000  0.47916000  1.0
  H  H35  1  0.79727000  0.58184000  0.02084000  1.0
  H  H36  1  0.68745000  0.97949000  0.44217000  1.0
  H  H37  1  0.18745000  0.52051000  0.05783000  1.0
  H  H38  1  0.31255000  0.02051000  0.55783000  1.0
  H  H39  1  0.81255000  0.47949000  0.94217000  1.0
  H  H40  1  0.64132000  0.11970000  0.44961000  1.0
  H  H41  1  0.14131000  0.38030000  0.05039000  1.0
  H  H42  1  0.35869000  0.88030000  0.55039000  1.0
  H  H43  1  0.85869000  0.61969000  0.94960000  1.0
  H  H44  1  0.75361000  0.32160000  0.51675000  1.0
  H  H45  1  0.25361000  0.17840000  0.98325000  1.0
  H  H46  1  0.24639000  0.67840000  0.48325000  1.0
  H  H47  1  0.74639000  0.82160000  0.01675000  1.0
  H  H48  1  0.71705000  0.30530000  0.43079000  1.0
  H  H49  1  0.21704000  0.19470000  0.06920000  1.0
  H  H50  1  0.28295000  0.69470000  0.56920000  1.0
  H  H51  1  0.78295000  0.80530000  0.93079000  1.0
  H  H52  1  0.84313000  0.38770000  0.46613000  1.0
  H  H53  1  0.34313000  0.11230000  0.03387000  1.0
  H  H54  1  0.15687000  0.61229000  0.53387000  1.0
  H  H55  1  0.65687000  0.88770000  0.96613000  1.0
  H  H56  1  0.09214000  0.34996000  0.47328000  1.0
  H  H57  1  0.59214000  0.15004000  0.02672000  1.0
  H  H58  1  0.90786000  0.65004000  0.52672000  1.0
  H  H59  1  0.40787000  0.84996000  0.97329000  1.0
  H  H60  1  0.01962000  0.35890000  0.39746000  1.0
  H  H61  1  0.51962000  0.14110000  0.10254000  1.0
  H  H62  1  0.98038000  0.64110000  0.60254000  1.0
  H  H63  1  0.48038000  0.85890000  0.89746000  1.0
  H  H64  1  0.15041000  0.27555000  0.39434000  1.0
  H  H65  1  0.65041000  0.22445000  0.10566000  1.0
  H  H66  1  0.84959000  0.72445000  0.60566000  1.0
  H  H67  1  0.34959000  0.77556000  0.89434000  1.0
  H  H68  1  0.87065000  0.01889000  0.01017000  1.0
  H  H69  1  0.37065000  0.48112000  0.48983000  1.0
  H  H70  1  0.12935000  0.98111000  0.98983000  1.0
  H  H71  1  0.62935000  0.51888000  0.51017000  1.0
  H  H72  1  0.82263000  0.17731000  0.96060000  1.0
  H  H73  1  0.32263000  0.32269000  0.53940000  1.0
  H  H74  1  0.17737000  0.82269000  0.03940000  1.0
  H  H75  1  0.67737000  0.67731000  0.46060000  1.0
  H  H76  1  0.88002000  0.37270000  0.02194000  1.0
  H  H77  1  0.38001000  0.12730000  0.47807000  1.0
  H  H78  1  0.11999000  0.62730000  0.97806000  1.0
  H  H79  1  0.61999000  0.87269000  0.52194000  1.0
  H  H80  1  0.98138000  0.40667000  0.13352000  1.0
  H  H81  1  0.48137000  0.09333000  0.36648000  1.0
  H  H82  1  0.01863000  0.59333000  0.86648000  1.0
  H  H83  1  0.51862000  0.90666000  0.63352000  1.0
  H  H84  1  0.95942000  0.03003000  0.17818000  1.0
  H  H85  1  0.45943000  0.46997000  0.32182000  1.0
  H  H86  1  0.04058000  0.96997000  0.82182000  1.0
  H  H87  1  0.54057000  0.53002000  0.67818000  1.0
  H  H88  1  0.08770000  0.01195000  0.12577000  1.0
  H  H89  1  0.58770000  0.48805000  0.37423000  1.0
  H  H90  1  0.91230000  0.98805000  0.87423000  1.0
  H  H91  1  0.41229000  0.51195000  0.62577000  1.0
  H  H92  1  0.95298000  0.94354000  0.09399000  1.0
  H  H93  1  0.45299000  0.55646000  0.40601000  1.0
  H  H94  1  0.04701000  0.05646000  0.90601000  1.0
  H  H95  1  0.54701000  0.44354000  0.59399000  1.0
  H  H96  1  0.02000000  0.67609000  0.40088000  1.0
  H  H97  1  0.52000000  0.82390000  0.09912000  1.0
  H  H98  1  0.98000000  0.32391000  0.59912000  1.0
  H  H99  1  0.48000000  0.17609000  0.90089000  1.0
  H  H100  1  0.80322000  0.68266000  0.37745000  1.0
  H  H101  1  0.30322000  0.81734000  0.12255000  1.0
  H  H102  1  0.19678000  0.31734000  0.62255000  1.0
  H  H103  1  0.69678000  0.18266000  0.87745000  1.0
  H  H104  1  0.70724000  0.52736000  0.29058000  1.0
  H  H105  1  0.20723000  0.97265000  0.20942000  1.0
  H  H106  1  0.29277000  0.47265000  0.70942000  1.0
  H  H107  1  0.79276000  0.02736000  0.79058000  1.0
  H  H108  1  0.82971000  0.36409000  0.23083000  1.0
  H  H109  1  0.32971000  0.13592000  0.26916000  1.0
  H  H110  1  0.17029000  0.63592000  0.76916000  1.0
  H  H111  1  0.67029000  0.86408000  0.73083000  1.0
  H  H112  1  0.23152000  0.54267000  0.29820000  1.0
  H  H113  1  0.73152000  0.95733000  0.20179000  1.0
  H  H114  1  0.76848000  0.45733000  0.70180000  1.0
  H  H115  1  0.26848000  0.04267000  0.79821000  1.0
  H  H116  1  0.21730000  0.43992000  0.34456000  1.0
  H  H117  1  0.71730000  0.06009000  0.15544000  1.0
  H  H118  1  0.78270000  0.56009000  0.65544000  1.0
  H  H119  1  0.28270000  0.93991000  0.84456000  1.0
  H  H120  1  0.20572000  0.58391000  0.38682000  1.0
  H  H121  1  0.70573000  0.91609000  0.11318000  1.0
  H  H122  1  0.79427000  0.41609000  0.61318000  1.0
  H  H123  1  0.29428000  0.08391000  0.88682000  1.0
  C  C124  1  0.02761000  0.08776000  0.40887000  1.0
  C  C125  1  0.52760000  0.41224000  0.09113000  1.0
  C  C126  1  0.97239000  0.91224000  0.59113000  1.0
  C  C127  1  0.47239000  0.58776000  0.90887000  1.0
  C  C128  1  0.92892000  0.02245000  0.42268000  1.0
  C  C129  1  0.42892000  0.47755000  0.07732000  1.0
  C  C130  1  0.07108000  0.97755000  0.57732000  1.0
  C  C131  1  0.57108000  0.52245000  0.92268000  1.0
  C  C132  1  0.83138000  0.09728000  0.44564000  1.0
  C  C133  1  0.33137000  0.40272000  0.05436000  1.0
  C  C134  1  0.16863000  0.90271000  0.55436000  1.0
  C  C135  1  0.66863000  0.59728000  0.94564000  1.0
  C  C136  1  0.86998000  0.20902000  0.44737000  1.0
  C  C137  1  0.36997000  0.29098000  0.05263000  1.0
  C  C138  1  0.13002000  0.79098000  0.55263000  1.0
  C  C139  1  0.63002000  0.70902000  0.94737000  1.0
  C  C140  1  0.99141000  0.20347000  0.42559000  1.0
  C  C141  1  0.49141000  0.29653000  0.07441000  1.0
  C  C142  1  0.00859000  0.79653000  0.57441000  1.0
  C  C143  1  0.50859000  0.70347000  0.92559000  1.0
  C  C144  1  0.14669000  0.04120000  0.38263000  1.0
  C  C145  1  0.64669000  0.45880000  0.11737000  1.0
  C  C146  1  0.85330000  0.95880000  0.61737000  1.0
  C  C147  1  0.35331000  0.54120000  0.88263000  1.0
  C  C148  1  0.93021000  0.89869000  0.41393000  1.0
  C  C149  1  0.43020000  0.60131000  0.08607000  1.0
  C  C150  1  0.06980000  0.10130000  0.58607000  1.0
  C  C151  1  0.56980000  0.39869000  0.91393000  1.0
  C  C152  1  0.70959000  0.06768000  0.46537000  1.0
  C  C153  1  0.20959000  0.43232000  0.03464000  1.0
  C  C154  1  0.29040000  0.93232000  0.53463000  1.0
  C  C155  1  0.79041000  0.56768000  0.96536000  1.0
  C  C156  1  0.79268000  0.31135000  0.46606000  1.0
  C  C157  1  0.29268000  0.18865000  0.03394000  1.0
  C  C158  1  0.20731000  0.68865000  0.53394000  1.0
  C  C159  1  0.70732000  0.81135000  0.96606000  1.0
  C  C160  1  0.06687000  0.30165000  0.42197000  1.0
  C  C161  1  0.56687000  0.19835000  0.07803000  1.0
  C  C162  1  0.93313000  0.69834000  0.57803000  1.0
  C  C163  1  0.43313000  0.80166000  0.92197000  1.0
  C  C164  1  0.98561000  0.23183000  0.13448000  1.0
  C  C165  1  0.48561000  0.26817000  0.36552000  1.0
  C  C166  1  0.01439000  0.76817000  0.86552000  1.0
  C  C167  1  0.51438000  0.73183000  0.63448000  1.0
  C  C168  1  0.95555000  0.12104000  0.09967000  1.0
  C  C169  1  0.45555000  0.37897000  0.40033000  1.0
  C  C170  1  0.04446000  0.87897000  0.90033000  1.0
  C  C171  1  0.54445000  0.62103000  0.59967000  1.0
  C  C172  1  0.89500000  0.10413000  0.03753000  1.0
  C  C173  1  0.39500000  0.39588000  0.46247000  1.0
  C  C174  1  0.10500000  0.89588000  0.96247000  1.0
  C  C175  1  0.60500000  0.60412000  0.53753000  1.0
  C  C176  1  0.86808000  0.19341000  0.00941000  1.0
  C  C177  1  0.36808000  0.30660000  0.49059000  1.0
  C  C178  1  0.13192000  0.80659000  0.99059000  1.0
  C  C179  1  0.63192000  0.69340000  0.50941000  1.0
  C  C180  1  0.89972000  0.30242000  0.04369000  1.0
  C  C181  1  0.39972000  0.19758000  0.45631000  1.0
  C  C182  1  0.10028000  0.69758000  0.95631000  1.0
  C  C183  1  0.60028000  0.80242000  0.54369000  1.0
  C  C184  1  0.95722000  0.32122000  0.10644000  1.0
  C  C185  1  0.45722000  0.17878000  0.39356000  1.0
  C  C186  1  0.04278000  0.67878000  0.89356000  1.0
  C  C187  1  0.54278000  0.82122000  0.60644000  1.0
  C  C188  1  0.98983000  0.02164000  0.12593000  1.0
  C  C189  1  0.48983000  0.47836000  0.37407000  1.0
  C  C190  1  0.01017000  0.97836000  0.87407000  1.0
  C  C191  1  0.51017000  0.52164000  0.62593000  1.0
  C  C192  1  0.99447000  0.42967000  0.28004000  1.0
  C  C193  1  0.49446000  0.07033000  0.21996000  1.0
  C  C194  1  0.00553000  0.57033000  0.71996000  1.0
  C  C195  1  0.50553000  0.92967000  0.78004000  1.0
  C  C196  1  0.05005000  0.51849000  0.32753000  1.0
  C  C197  1  0.55005000  0.98151000  0.17246000  1.0
  C  C198  1  0.94995000  0.48151000  0.67247000  1.0
  C  C199  1  0.44995000  0.01849000  0.82754000  1.0
  C  C200  1  0.97846000  0.60781000  0.36294000  1.0
  C  C201  1  0.47846000  0.89219000  0.13706000  1.0
  C  C202  1  0.02154000  0.39219000  0.63706000  1.0
  C  C203  1  0.52154000  0.10781000  0.86294000  1.0
  C  C204  1  0.85617000  0.61122000  0.35014000  1.0
  C  C205  1  0.35617000  0.88878000  0.14986000  1.0
  C  C206  1  0.14383000  0.38878000  0.64986000  1.0
  C  C207  1  0.64383000  0.11122000  0.85014000  1.0
  C  C208  1  0.80233000  0.52435000  0.30176000  1.0
  C  C209  1  0.30233000  0.97566000  0.19823000  1.0
  C  C210  1  0.19767000  0.47565000  0.69823000  1.0
  C  C211  1  0.69767000  0.02435000  0.80176000  1.0
  C  C212  1  0.87183000  0.43333000  0.26768000  1.0
  C  C213  1  0.37183000  0.06667000  0.23231000  1.0
  C  C214  1  0.12817000  0.56667000  0.73231000  1.0
  C  C215  1  0.62817000  0.93333000  0.76768000  1.0
  C  C216  1  0.18257000  0.52123000  0.33999000  1.0
  C  C217  1  0.68257000  0.97877000  0.16001000  1.0
  C  C218  1  0.81743000  0.47877000  0.66001000  1.0
  C  C219  1  0.31743000  0.02123000  0.83999000  1.0
  O  O220  1  0.94825000  0.18242000  0.28172000  1.0
  O  O221  1  0.44825000  0.31758000  0.21828000  1.0
  O  O222  1  0.05175000  0.81758000  0.71828000  1.0
  O  O223  1  0.55175000  0.68242000  0.78172000  1.0
  O  O224  1  0.89691000  0.95931000  0.27913000  1.0
  O  O225  1  0.39690000  0.54069000  0.22086000  1.0
  O  O226  1  0.10310000  0.04069000  0.72086000  1.0
  O  O227  1  0.60310000  0.45931000  0.77914000  1.0
  O  O228  1  0.21800000  0.37661000  0.17819000  1.0
  O  O229  1  0.71800000  0.12338000  0.32181000  1.0
  O  O230  1  0.78200000  0.62340000  0.82181000  1.0
  O  O231  1  0.28200000  0.87661000  0.67819000  1.0
