# generated using pymatgen
data_ZnAsH6C6NO3
_symmetry_space_group_name_H-M   'P 1'
_cell_length_a   5.31446000
_cell_length_b   11.27980000
_cell_length_c   13.84638248
_cell_angle_alpha   105.90560314
_cell_angle_beta   101.03429306
_cell_angle_gamma   103.62050000
_symmetry_Int_Tables_number   1
_chemical_formula_structural   ZnAsH6C6NO3
_chemical_formula_sum   'Zn4 As4 H24 C24 N4 O12'
_cell_volume   746.15677983
_cell_formula_units_Z   4
loop_
 _symmetry_equiv_pos_site_id
 _symmetry_equiv_pos_as_xyz
  1  'x, y, z'
loop_
 _atom_site_type_symbol
 _atom_site_label
 _atom_site_symmetry_multiplicity
 _atom_site_fract_x
 _atom_site_fract_y
 _atom_site_fract_z
 _atom_site_occupancy
  Zn  Zn0  1  0.26864000  0.47234000  0.37553000  1.0
  Zn  Zn1  1  0.92118000  0.02781000  0.12451000  1.0
  Zn  Zn2  1  0.73136000  0.52767000  0.62447000  1.0
  Zn  Zn3  1  0.07881000  0.97219000  0.87549000  1.0
  As  As4  1  0.88959000  0.64815000  0.45301000  1.0
  As  As5  1  0.28894000  0.85193000  0.04703000  1.0
  As  As6  1  0.11041000  0.35185000  0.54699000  1.0
  As  As7  1  0.71106000  0.14807000  0.95297000  1.0
  H  H8  1  0.96518000  0.17677000  0.32195000  1.0
  H  H9  1  0.96711000  0.32324000  0.17799000  1.0
  H  H10  1  0.03481000  0.82323000  0.67805000  1.0
  H  H11  1  0.03290000  0.67676000  0.82201000  1.0
  H  H12  1  0.64932000  0.08377000  0.24758000  1.0
  H  H13  1  0.81827000  0.41613000  0.25235000  1.0
  H  H14  1  0.35067000  0.91623000  0.75242000  1.0
  H  H15  1  0.18174000  0.58387000  0.74765000  1.0
  H  H16  1  0.42944000  0.89924000  0.27024000  1.0
  H  H17  1  0.76031000  0.60079000  0.22976000  1.0
  H  H18  1  0.57055000  0.10076000  0.72976000  1.0
  H  H19  1  0.23970000  0.39921000  0.77024000  1.0
  H  H20  1  0.44444000  0.72445000  0.34499000  1.0
  H  H21  1  0.87550000  0.77558000  0.15500000  1.0
  H  H22  1  0.55554000  0.27554000  0.65501000  1.0
  H  H23  1  0.12450000  0.22442000  0.84499000  1.0
  H  H24  1  0.30726000  0.88981000  0.46494000  1.0
  H  H25  1  0.45302000  0.61007000  0.03491000  1.0
  H  H26  1  0.69273000  0.11018000  0.53506000  1.0
  H  H27  1  0.54699000  0.38993000  0.96509000  1.0
  H  H28  1  0.28818000  0.06544000  0.38970000  1.0
  H  H29  1  0.33326000  0.43439000  0.11011000  1.0
  H  H30  1  0.71180000  0.93456000  0.61029000  1.0
  H  H31  1  0.66675000  0.56562000  0.88989000  1.0
  C  C32  1  0.85758000  0.99044000  0.32247000  1.0
  C  C33  1  0.04514000  0.50954000  0.17749000  1.0
  C  C34  1  0.14241000  0.00956000  0.67753000  1.0
  C  C35  1  0.95488000  0.49046000  0.82252000  1.0
  C  C36  1  0.62140000  0.89583000  0.31199000  1.0
  C  C37  1  0.91402000  0.60421000  0.18802000  1.0
  C  C38  1  0.37859000  0.10417000  0.68801000  1.0
  C  C39  1  0.08599000  0.39580000  0.81198000  1.0
  C  C40  1  0.63024000  0.79804000  0.35444000  1.0
  C  C41  1  0.97833000  0.70198000  0.14556000  1.0
  C  C42  1  0.36975000  0.20196000  0.64556000  1.0
  C  C43  1  0.02167000  0.29802000  0.85444000  1.0
  C  C44  1  0.87767000  0.79573000  0.40898000  1.0
  C  C45  1  0.17351000  0.70425000  0.09098000  1.0
  C  C46  1  0.12232000  0.20427000  0.59102000  1.0
  C  C47  1  0.82650000  0.29575000  0.90902000  1.0
  C  C48  1  0.11469000  0.89208000  0.42241000  1.0
  C  C49  1  0.30074000  0.60786000  0.07749000  1.0
  C  C50  1  0.88530000  0.10792000  0.57759000  1.0
  C  C51  1  0.69927000  0.39214000  0.92251000  1.0
  C  C52  1  0.10502000  0.98956000  0.37941000  1.0
  C  C53  1  0.23643000  0.51037000  0.12047000  1.0
  C  C54  1  0.89496000  0.01044000  0.62059000  1.0
  C  C55  1  0.76358000  0.48963000  0.87953000  1.0
  N  N56  1  0.84556000  0.08448000  0.27200000  1.0
  N  N57  1  0.98950000  0.41552000  0.22797000  1.0
  N  N58  1  0.15444000  0.91551000  0.72801000  1.0
  N  N59  1  0.01051000  0.58448000  0.77203000  1.0
  O  O60  1  0.63725000  0.51437000  0.36343000  1.0
  O  O61  1  0.25970000  0.98562000  0.13673000  1.0
  O  O62  1  0.36276000  0.48563000  0.63657000  1.0
  O  O63  1  0.74030000  0.01438000  0.86327000  1.0
  O  O64  1  0.84319000  0.67537000  0.57672000  1.0
  O  O65  1  0.09156000  0.82468000  0.92338000  1.0
  O  O66  1  0.15681000  0.32463000  0.42328000  1.0
  O  O67  1  0.90845000  0.17533000  0.07662000  1.0
  O  O68  1  0.19977000  0.63029000  0.45225000  1.0
  O  O69  1  0.61774000  0.86992000  0.04774000  1.0
  O  O70  1  0.80023000  0.36972000  0.54775000  1.0
  O  O71  1  0.38226000  0.13009000  0.95226000  1.0
