# generated using pymatgen
data_CuH4C10(N3O)2
_symmetry_space_group_name_H-M   'P 1'
_cell_length_a   6.74992000
_cell_length_b   10.15760000
_cell_length_c   15.59830000
_cell_angle_alpha   90.00040000
_cell_angle_beta   89.99960000
_cell_angle_gamma   89.99990000
_symmetry_Int_Tables_number   1
_chemical_formula_structural   CuH4C10(N3O)2
_chemical_formula_sum   'Cu4 H16 C40 N24 O8'
_cell_volume   1069.46604618
_cell_formula_units_Z   4
loop_
 _symmetry_equiv_pos_site_id
 _symmetry_equiv_pos_as_xyz
  1  'x, y, z'
loop_
 _atom_site_type_symbol
 _atom_site_label
 _atom_site_symmetry_multiplicity
 _atom_site_fract_x
 _atom_site_fract_y
 _atom_site_fract_z
 _atom_site_occupancy
  Cu  Cu0  1  0.75001000  0.34138000  0.26267000  1.0
  Cu  Cu1  1  0.25000000  0.15862000  0.76266000  1.0
  Cu  Cu2  1  0.75000000  0.84138000  0.23733000  1.0
  Cu  Cu3  1  0.25000000  0.65862000  0.73733000  1.0
  H  H4  1  0.43614000  0.23397000  0.15122000  1.0
  H  H5  1  0.93613000  0.26603000  0.65121000  1.0
  H  H6  1  0.06387000  0.23396000  0.15121000  1.0
  H  H7  1  0.43613000  0.73397000  0.34879000  1.0
  H  H8  1  0.56387000  0.76603000  0.84879000  1.0
  H  H9  1  0.06387000  0.73397000  0.34878000  1.0
  H  H10  1  0.93613000  0.76603000  0.84878000  1.0
  H  H11  1  0.56386000  0.26603000  0.65121000  1.0
  H  H12  1  0.43844000  0.44569000  0.37983000  1.0
  H  H13  1  0.93843000  0.05431000  0.87982000  1.0
  H  H14  1  0.06157000  0.44568000  0.37983000  1.0
  H  H15  1  0.43844000  0.94569000  0.12018000  1.0
  H  H16  1  0.56156000  0.55430000  0.62018000  1.0
  H  H17  1  0.06156000  0.94569000  0.12017000  1.0
  H  H18  1  0.93843000  0.55430000  0.62018000  1.0
  H  H19  1  0.56156000  0.05431000  0.87982000  1.0
  C  C20  1  0.74999000  0.17046000  0.40392000  1.0
  C  C21  1  0.25000000  0.32956000  0.90392000  1.0
  C  C22  1  0.75000000  0.67046000  0.09608000  1.0
  C  C23  1  0.25000000  0.82955000  0.59607000  1.0
  C  C24  1  0.74999000  0.07629000  0.32979000  1.0
  C  C25  1  0.24999000  0.42371000  0.82979000  1.0
  C  C26  1  0.75001000  0.57630000  0.17021000  1.0
  C  C27  1  0.25000000  0.92371000  0.67021000  1.0
  C  C28  1  0.75000000  0.90319000  0.42992000  1.0
  C  C29  1  0.25000000  0.59682000  0.92992000  1.0
  C  C30  1  0.75000000  0.40319000  0.07008000  1.0
  C  C31  1  0.25000000  0.09681000  0.57008000  1.0
  C  C32  1  0.75000000  0.99462000  0.49673000  1.0
  C  C33  1  0.25001000  0.50539000  0.99673000  1.0
  C  C34  1  0.75001000  0.49462000  0.00327000  1.0
  C  C35  1  0.25000000  0.00538000  0.50327000  1.0
  C  C36  1  0.75001000  0.76583000  0.44667000  1.0
  C  C37  1  0.25002000  0.73419000  0.94667000  1.0
  C  C38  1  0.75001000  0.26582000  0.05333000  1.0
  C  C39  1  0.24998000  0.23417000  0.55333000  1.0
  C  C40  1  0.75001000  0.94840000  0.58284000  1.0
  C  C41  1  0.25000000  0.55159000  0.08284000  1.0
  C  C42  1  0.75000000  0.44840000  0.91716000  1.0
  C  C43  1  0.24999000  0.05160000  0.41716000  1.0
  C  C44  1  0.35281000  0.28285000  0.20175000  1.0
  C  C45  1  0.85280000  0.21715000  0.70175000  1.0
  C  C46  1  0.14719000  0.28285000  0.20175000  1.0
  C  C47  1  0.35281000  0.78285000  0.29825000  1.0
  C  C48  1  0.64719000  0.71715000  0.79825000  1.0
  C  C49  1  0.14719000  0.78285000  0.29825000  1.0
  C  C50  1  0.85281000  0.71715000  0.79825000  1.0
  C  C51  1  0.64719000  0.21715000  0.70175000  1.0
  C  C52  1  0.35315000  0.40112000  0.32812000  1.0
  C  C53  1  0.85315000  0.09888000  0.82812000  1.0
  C  C54  1  0.14685000  0.40112000  0.32813000  1.0
  C  C55  1  0.35315000  0.90112000  0.17187000  1.0
  C  C56  1  0.64685000  0.59887000  0.67188000  1.0
  C  C57  1  0.14685000  0.90112000  0.17187000  1.0
  C  C58  1  0.85314000  0.59887000  0.67188000  1.0
  C  C59  1  0.64686000  0.09888000  0.82813000  1.0
  N  N60  1  0.75000000  0.12697000  0.48480000  1.0
  N  N61  1  0.25000000  0.37304000  0.98480000  1.0
  N  N62  1  0.75001000  0.62696000  0.01520000  1.0
  N  N63  1  0.25000000  0.87303000  0.51520000  1.0
  N  N64  1  0.75000000  0.94566000  0.34682000  1.0
  N  N65  1  0.25000000  0.55435000  0.84682000  1.0
  N  N66  1  0.75001000  0.44566000  0.15319000  1.0
  N  N67  1  0.24999000  0.05434000  0.65318000  1.0
  N  N68  1  0.75001000  0.91105000  0.65368000  1.0
  N  N69  1  0.25000000  0.58895000  0.15368000  1.0
  N  N70  1  0.75000000  0.41105000  0.84632000  1.0
  N  N71  1  0.24999000  0.08895000  0.34632000  1.0
  N  N72  1  0.75001000  0.65267000  0.46100000  1.0
  N  N73  1  0.25002000  0.84735000  0.96100000  1.0
  N  N74  1  0.75000000  0.15266000  0.03900000  1.0
  N  N75  1  0.24998000  0.34734000  0.53899000  1.0
  N  N76  1  0.45393000  0.34277000  0.26448000  1.0
  N  N77  1  0.95392000  0.15723000  0.76448000  1.0
  N  N78  1  0.04608000  0.34276000  0.26448000  1.0
  N  N79  1  0.45392000  0.84277000  0.23552000  1.0
  N  N80  1  0.54608000  0.65723000  0.73552000  1.0
  N  N81  1  0.04608000  0.84277000  0.23552000  1.0
  N  N82  1  0.95392000  0.65723000  0.73552000  1.0
  N  N83  1  0.54607000  0.15724000  0.76448000  1.0
  O  O84  1  0.75000000  0.29427000  0.38748000  1.0
  O  O85  1  0.25000000  0.20573000  0.88748000  1.0
  O  O86  1  0.75001000  0.79427000  0.11252000  1.0
  O  O87  1  0.25000000  0.70573000  0.61252000  1.0
  O  O88  1  0.74999000  0.11726000  0.25319000  1.0
  O  O89  1  0.25000000  0.38274000  0.75319000  1.0
  O  O90  1  0.75001000  0.61726000  0.24682000  1.0
  O  O91  1  0.24999000  0.88274000  0.74681000  1.0
