# generated using pymatgen
data_CdH28C31N4O5
_symmetry_space_group_name_H-M   'P 1'
_cell_length_a   9.42418000
_cell_length_b   12.37340000
_cell_length_c   12.98040000
_cell_angle_alpha   78.96910000
_cell_angle_beta   73.92860000
_cell_angle_gamma   76.93610000
_symmetry_Int_Tables_number   1
_chemical_formula_structural   CdH28C31N4O5
_chemical_formula_sum   'Cd2 H56 C62 N8 O10'
_cell_volume   1403.36350614
_cell_formula_units_Z   2
loop_
 _symmetry_equiv_pos_site_id
 _symmetry_equiv_pos_as_xyz
  1  'x, y, z'
loop_
 _atom_site_type_symbol
 _atom_site_label
 _atom_site_symmetry_multiplicity
 _atom_site_fract_x
 _atom_site_fract_y
 _atom_site_fract_z
 _atom_site_occupancy
  Cd  Cd0  1  0.64412000  0.27828000  0.73450000  1.0
  Cd  Cd1  1  0.35587000  0.72172000  0.26550000  1.0
  H  H2  1  0.04621000  0.24055000  0.43501000  1.0
  H  H3  1  0.95379000  0.75945000  0.56499000  1.0
  H  H4  1  0.18937000  0.98585000  0.22217000  1.0
  H  H5  1  0.81064000  0.01414000  0.77784000  1.0
  H  H6  1  0.94952000  0.92002000  0.30175000  1.0
  H  H7  1  0.05048000  0.07997000  0.69825000  1.0
  H  H8  1  0.75481000  0.01554000  0.44999000  1.0
  H  H9  1  0.24518000  0.98446000  0.55000000  1.0
  H  H10  1  0.30374000  0.22244000  0.39078000  1.0
  H  H11  1  0.69626000  0.77756000  0.60923000  1.0
  H  H12  1  0.21367000  0.32027000  0.29673000  1.0
  H  H13  1  0.78633000  0.67972000  0.70327000  1.0
  H  H14  1  0.35685000  0.40416000  0.12942000  1.0
  H  H15  1  0.64315000  0.59584000  0.87059000  1.0
  H  H16  1  0.60228000  0.43498000  0.00800000  1.0
  H  H17  1  0.39771000  0.56502000  0.99200000  1.0
  H  H18  1  0.82749000  0.18395000  0.21751000  1.0
  H  H19  1  0.17251000  0.81606000  0.78249000  1.0
  H  H20  1  0.58288000  0.14785000  0.33398000  1.0
  H  H21  1  0.41712000  0.85216000  0.66603000  1.0
  H  H22  1  0.96548000  0.32854000  0.17268000  1.0
  H  H23  1  0.03453000  0.67148000  0.82731000  1.0
  H  H24  1  0.21284000  0.36976000  0.06585000  1.0
  H  H25  1  0.78717000  0.63024000  0.93414000  1.0
  H  H26  1  0.26827000  0.40429000  0.86441000  1.0
  H  H27  1  0.73173000  0.59572000  0.13558000  1.0
  H  H28  1  0.07547000  0.39218000  0.77183000  1.0
  H  H29  1  0.92452000  0.60783000  0.22816000  1.0
  H  H30  1  0.43879000  0.55590000  0.73842000  1.0
  H  H31  1  0.56123000  0.44409000  0.26158000  1.0
  H  H32  1  0.22877000  0.64009000  0.61498000  1.0
  H  H33  1  0.77125000  0.35992000  0.38502000  1.0
  H  H34  1  0.43386000  0.30716000  0.55922000  1.0
  H  H35  1  0.56615000  0.69284000  0.44078000  1.0
  H  H36  1  0.25918000  0.41015000  0.44473000  1.0
  H  H37  1  0.74083000  0.58985000  0.55527000  1.0
  H  H38  1  0.22871000  0.55832000  0.43056000  1.0
  H  H39  1  0.77129000  0.44169000  0.56944000  1.0
  H  H40  1  0.00786000  0.55426000  0.59487000  1.0
  H  H41  1  0.99214000  0.44574000  0.40514000  1.0
  H  H42  1  0.02610000  0.40893000  0.59523000  1.0
  H  H43  1  0.97391000  0.59106000  0.40477000  1.0
  H  H44  1  0.40963000  0.08869000  0.75354000  1.0
  H  H45  1  0.59037000  0.91130000  0.24646000  1.0
  H  H46  1  0.51415000  0.21244000  0.99937000  1.0
  H  H47  1  0.48584000  0.78756000  0.00062000  1.0
  H  H48  1  0.29299000  0.08562000  0.09361000  1.0
  H  H49  1  0.70701000  0.91438000  0.90638000  1.0
  H  H50  1  0.22033000  0.97565000  0.85724000  1.0
  H  H51  1  0.77966000  0.02435000  0.14276000  1.0
  H  H52  1  0.25015000  0.91249000  0.98598000  1.0
  H  H53  1  0.74983000  0.08752000  0.01402000  1.0
  H  H54  1  0.01240000  0.12008000  0.94376000  1.0
  H  H55  1  0.98760000  0.87993000  0.05624000  1.0
  H  H56  1  0.04777000  0.06333000  0.07193000  1.0
  H  H57  1  0.95222000  0.93668000  0.92807000  1.0
  C  C58  1  0.78338000  0.18350000  0.54385000  1.0
  C  C59  1  0.21661000  0.81649000  0.45615000  1.0
  C  C60  1  0.89036000  0.13404000  0.44812000  1.0
  C  C61  1  0.10963000  0.86596000  0.55188000  1.0
  C  C62  1  0.02587000  0.17325000  0.40112000  1.0
  C  C63  1  0.97413000  0.82675000  0.59888000  1.0
  C  C64  1  0.13223000  0.12189000  0.31782000  1.0
  C  C65  1  0.86778000  0.87810000  0.68218000  1.0
  C  C66  1  0.10331000  0.03017000  0.28268000  1.0
  C  C67  1  0.89669000  0.96982000  0.71733000  1.0
  C  C68  1  0.96776000  0.99298000  0.32857000  1.0
  C  C69  1  0.03224000  0.00701000  0.67143000  1.0
  C  C70  1  0.86004000  0.04498000  0.41092000  1.0
  C  C71  1  0.13996000  0.95502000  0.58908000  1.0
  C  C72  1  0.30205000  0.24577000  0.30457000  1.0
  C  C73  1  0.69795000  0.75422000  0.69543000  1.0
  C  C74  1  0.45177000  0.26925000  0.23638000  1.0
  C  C75  1  0.54823000  0.73075000  0.76362000  1.0
  C  C76  1  0.46005000  0.35138000  0.14522000  1.0
  C  C77  1  0.53995000  0.64862000  0.85478000  1.0
  C  C78  1  0.59828000  0.37041000  0.07831000  1.0
  C  C79  1  0.40171000  0.62959000  0.92170000  1.0
  C  C80  1  0.73332000  0.30978000  0.10199000  1.0
  C  C81  1  0.26668000  0.69023000  0.89801000  1.0
  C  C82  1  0.72441000  0.23102000  0.19627000  1.0
  C  C83  1  0.27560000  0.76899000  0.80373000  1.0
  C  C84  1  0.58603000  0.21020000  0.26177000  1.0
  C  C85  1  0.41398000  0.78981000  0.73823000  1.0
  C  C86  1  0.88044000  0.33239000  0.03383000  1.0
  C  C87  1  0.11956000  0.66761000  0.96618000  1.0
  C  C88  1  0.99077000  0.33999000  0.08451000  1.0
  C  C89  1  0.00923000  0.66002000  0.91548000  1.0
  C  C90  1  0.12942000  0.36451000  0.02454000  1.0
  C  C91  1  0.87058000  0.63550000  0.97546000  1.0
  C  C92  1  0.16049000  0.38394000  0.91191000  1.0
  C  C93  1  0.83951000  0.61606000  0.08808000  1.0
  C  C94  1  0.05217000  0.37767000  0.85996000  1.0
  C  C95  1  0.94782000  0.62234000  0.14003000  1.0
  C  C96  1  0.91319000  0.35070000  0.91949000  1.0
  C  C97  1  0.08680000  0.64930000  0.08051000  1.0
  C  C98  1  0.81067000  0.33159000  0.85685000  1.0
  C  C99  1  0.18931000  0.66843000  0.14315000  1.0
  C  C100  1  0.40527000  0.51654000  0.68354000  1.0
  C  C101  1  0.59474000  0.48346000  0.31646000  1.0
  C  C102  1  0.30088000  0.55894000  0.62341000  1.0
  C  C103  1  0.69913000  0.44106000  0.37659000  1.0
  C  C104  1  0.40521000  0.38521000  0.59311000  1.0
  C  C105  1  0.59480000  0.61479000  0.40689000  1.0
  C  C106  1  0.21276000  0.48267000  0.48883000  1.0
  C  C107  1  0.78725000  0.51733000  0.51117000  1.0
  C  C108  1  0.04587000  0.48782000  0.54246000  1.0
  C  C109  1  0.95414000  0.51218000  0.45754000  1.0
  C  C110  1  0.40758000  0.10705000  0.83242000  1.0
  C  C111  1  0.59242000  0.89294000  0.16758000  1.0
  C  C112  1  0.45916000  0.16798000  0.96221000  1.0
  C  C113  1  0.54084000  0.83202000  0.03779000  1.0
  C  C114  1  0.34969000  0.10496000  0.00968000  1.0
  C  C115  1  0.65031000  0.89504000  0.99031000  1.0
  C  C116  1  0.21272000  0.99242000  0.93878000  1.0
  C  C117  1  0.78727000  0.00759000  0.06123000  1.0
  C  C118  1  0.05173000  0.04187000  0.99256000  1.0
  C  C119  1  0.94826000  0.95814000  0.00743000  1.0
  N  N120  1  0.46929000  0.40814000  0.66405000  1.0
  N  N121  1  0.53072000  0.59186000  0.33594000  1.0
  N  N122  1  0.30267000  0.47477000  0.56629000  1.0
  N  N123  1  0.69734000  0.52523000  0.43372000  1.0
  N  N124  1  0.49430000  0.16864000  0.85165000  1.0
  N  N125  1  0.50570000  0.83136000  0.14835000  1.0
  N  N126  1  0.31820000  0.06698000  0.92671000  1.0
  N  N127  1  0.68181000  0.93302000  0.07329000  1.0
  O  O128  1  0.83380000  0.24861000  0.58659000  1.0
  O  O129  1  0.16618000  0.75138000  0.41342000  1.0
  O  O130  1  0.65362000  0.15957000  0.57971000  1.0
  O  O131  1  0.34638000  0.84042000  0.42029000  1.0
  O  O132  1  0.26812000  0.15349000  0.26766000  1.0
  O  O133  1  0.73189000  0.84650000  0.73235000  1.0
  O  O134  1  0.75676000  0.41225000  0.79329000  1.0
  O  O135  1  0.24326000  0.58776000  0.20669000  1.0
  O  O136  1  0.78730000  0.23185000  0.86737000  1.0
  O  O137  1  0.21267000  0.76817000  0.13265000  1.0
