# generated using pymatgen
data_ZnH5C18N2O6F5
_symmetry_space_group_name_H-M   'P 1'
_cell_length_a   9.96355000
_cell_length_b   11.24310000
_cell_length_c   23.80170000
_cell_angle_alpha   88.70340000
_cell_angle_beta   89.68480000
_cell_angle_gamma   89.20800000
_symmetry_Int_Tables_number   1
_chemical_formula_structural   ZnH5C18N2O6F5
_chemical_formula_sum   'Zn2 H10 C36 N4 O12 F10'
_cell_volume   2665.32147575
_cell_formula_units_Z   2
loop_
 _symmetry_equiv_pos_site_id
 _symmetry_equiv_pos_as_xyz
  1  'x, y, z'
loop_
 _atom_site_type_symbol
 _atom_site_label
 _atom_site_symmetry_multiplicity
 _atom_site_fract_x
 _atom_site_fract_y
 _atom_site_fract_z
 _atom_site_occupancy
  Zn  Zn0  1  0.37178000  0.50391000  0.49879000  1.0
  Zn  Zn1  1  0.64297000  0.50531000  0.50092000  1.0
  H  H2  1  0.71024000  0.53709000  0.78375000  1.0
  H  H3  1  0.71887000  0.46347000  0.21467000  1.0
  H  H4  1  0.70670000  0.53701000  0.67853000  1.0
  H  H5  1  0.70145000  0.89220000  0.49105000  1.0
  H  H6  1  0.39203000  0.90399000  0.48514000  1.0
  H  H7  1  0.87589000  0.63829000  0.55311000  1.0
  H  H8  1  0.89707000  0.44112000  0.47442000  1.0
  H  H9  1  0.50448000  0.79655000  0.94494000  1.0
  H  H10  1  0.29423000  0.52021000  0.32195000  1.0
  H  H11  1  0.28535000  0.46737000  0.78558000  1.0
  C  C12  1  0.50809000  0.27427000  0.50201000  1.0
  C  C13  1  0.49179000  0.28166000  0.97223000  1.0
  C  C14  1  0.49032000  0.28115000  0.03174000  1.0
  C  C15  1  0.49286000  0.38593000  0.06158000  1.0
  C  C16  1  0.49671000  0.49608000  0.03072000  1.0
  C  C17  1  0.49976000  0.60577000  0.05955000  1.0
  C  C18  1  0.50219000  0.71123000  0.02736000  1.0
  C  C19  1  0.50247000  0.71242000  0.96859000  1.0
  C  C20  1  0.49180000  0.38280000  0.12394000  1.0
  C  C21  1  0.50173000  0.60744000  0.12176000  1.0
  C  C22  1  0.38655000  0.50963000  0.24023000  1.0
  C  C23  1  0.50482000  0.49640000  0.39061000  1.0
  C  C24  1  0.38717000  0.50886000  0.29831000  1.0
  C  C25  1  0.50820000  0.49359000  0.32765000  1.0
  C  C26  1  0.62611000  0.47749000  0.29609000  1.0
  C  C27  1  0.62544000  0.47716000  0.23771000  1.0
  C  C28  1  0.50473000  0.49401000  0.20941000  1.0
  C  C29  1  0.37842000  0.48441000  0.76280000  1.0
  C  C30  1  0.37892000  0.48682000  0.70436000  1.0
  C  C31  1  0.49622000  0.50612000  0.67275000  1.0
  C  C32  1  0.61505000  0.52320000  0.70279000  1.0
  C  C33  1  0.61731000  0.52255000  0.76118000  1.0
  C  C34  1  0.50306000  0.73600000  0.49308000  1.0
  C  C35  1  0.49827000  0.50284000  0.79077000  1.0
  C  C36  1  0.60295000  0.93619000  0.48944000  1.0
  C  C37  1  0.49309000  0.86732000  0.48891000  1.0
  C  C38  1  0.60702000  0.06421000  0.48874000  1.0
  C  C39  1  0.50488000  0.14265000  0.49891000  1.0
  C  C40  1  0.07077000  0.57212000  0.52594000  1.0
  C  C41  1  0.92289000  0.57119000  0.52633000  1.0
  C  C42  1  0.50045000  0.50882000  0.60967000  1.0
  C  C43  1  0.50070000  0.61114000  0.87812000  1.0
  C  C44  1  0.49656000  0.38752000  0.87861000  1.0
  C  C45  1  0.49512000  0.38743000  0.94106000  1.0
  C  C46  1  0.49735000  0.49600000  0.97069000  1.0
  C  C47  1  0.50037000  0.60605000  0.94051000  1.0
  N  N48  1  0.49842000  0.50083000  0.85151000  1.0
  N  N49  1  0.50160000  0.49450000  0.14911000  1.0
  N  N50  1  0.15824000  0.50639000  0.50075000  1.0
  N  N51  1  0.84837000  0.50189000  0.49898000  1.0
  O  O52  1  0.39528000  0.32483000  0.51114000  1.0
  O  O53  1  0.49618000  0.29704000  0.85090000  1.0
  O  O54  1  0.48423000  0.29159000  0.15284000  1.0
  O  O55  1  0.50471000  0.69786000  0.14941000  1.0
  O  O56  1  0.62093000  0.32422000  0.49534000  1.0
  O  O57  1  0.39114000  0.47872000  0.41395000  1.0
  O  O58  1  0.61389000  0.51767000  0.41562000  1.0
  O  O59  1  0.39290000  0.68162000  0.48550000  1.0
  O  O60  1  0.61645000  0.68691000  0.50424000  1.0
  O  O61  1  0.39048000  0.52603000  0.58377000  1.0
  O  O62  1  0.61565000  0.49451000  0.58691000  1.0
  O  O63  1  0.50248000  0.70506000  0.85087000  1.0
  F  F64  1  0.48955000  0.17498000  0.94850000  1.0
  F  F65  1  0.25979000  0.46712000  0.67906000  1.0
  F  F66  1  0.73207000  0.10741000  0.47910000  1.0
  F  F67  1  0.38172000  0.09571000  0.50846000  1.0
  F  F68  1  0.12304000  0.65609000  0.55726000  1.0
  F  F69  1  0.09797000  0.41987000  0.46840000  1.0
  F  F70  1  0.48697000  0.17396000  0.05705000  1.0
  F  F71  1  0.50475000  0.81761000  0.05186000  1.0
  F  F72  1  0.26892000  0.52541000  0.21213000  1.0
  F  F73  1  0.74646000  0.45908000  0.32144000  1.0
