# generated using pymatgen
data_CdH6C4(SN4)2
_symmetry_space_group_name_H-M   'P 1'
_cell_length_a   5.30960000
_cell_length_b   7.82169000
_cell_length_c   11.48580000
_cell_angle_alpha   90.78120000
_cell_angle_beta   89.99960000
_cell_angle_gamma   89.99950000
_symmetry_Int_Tables_number   1
_chemical_formula_structural   CdH6C4(SN4)2
_chemical_formula_sum   'Cd2 H12 C8 S4 N16'
_cell_volume   476.96145642
_cell_formula_units_Z   2
loop_
 _symmetry_equiv_pos_site_id
 _symmetry_equiv_pos_as_xyz
  1  'x, y, z'
loop_
 _atom_site_type_symbol
 _atom_site_label
 _atom_site_symmetry_multiplicity
 _atom_site_fract_x
 _atom_site_fract_y
 _atom_site_fract_z
 _atom_site_occupancy
  Cd  Cd0  1  0.50000000  0.50000000  0.50000000  1.0
  Cd  Cd1  1  0.00000000  0.00000000  0.50000000  1.0
  H  H2  1  0.88804000  0.20154000  0.85145000  1.0
  H  H3  1  0.38805000  0.29845000  0.14854000  1.0
  H  H4  1  0.11196000  0.79847000  0.14855000  1.0
  H  H5  1  0.61195000  0.70155000  0.85146000  1.0
  H  H6  1  0.69409000  0.14128000  0.97265000  1.0
  H  H7  1  0.19410000  0.35871000  0.02734000  1.0
  H  H8  1  0.30592000  0.85873000  0.02735000  1.0
  H  H9  1  0.80590000  0.64128000  0.97265000  1.0
  H  H10  1  0.64169000  0.34103000  0.90018000  1.0
  H  H11  1  0.14170000  0.15897000  0.09981000  1.0
  H  H12  1  0.35831000  0.65898000  0.09982000  1.0
  H  H13  1  0.85830000  0.84103000  0.90019000  1.0
  C  C14  1  0.50560000  0.13284000  0.69286000  1.0
  C  C15  1  0.00561000  0.36716000  0.30715000  1.0
  C  C16  1  0.49440000  0.86716000  0.30714000  1.0
  C  C17  1  0.99439000  0.63284000  0.69285000  1.0
  C  C18  1  0.69918000  0.20718000  0.88919000  1.0
  C  C19  1  0.19919000  0.29282000  0.11082000  1.0
  C  C20  1  0.30082000  0.79282000  0.11081000  1.0
  C  C21  1  0.80080000  0.70719000  0.88918000  1.0
  S  S22  1  0.72215000  0.23817000  0.60928000  1.0
  S  S23  1  0.22214000  0.26185000  0.39071000  1.0
  S  S24  1  0.27785000  0.76183000  0.39072000  1.0
  S  S25  1  0.77786000  0.73815000  0.60928000  1.0
  N  N26  1  0.29804000  0.04296000  0.66298000  1.0
  N  N27  1  0.79804000  0.45705000  0.33701000  1.0
  N  N28  1  0.70196000  0.95704000  0.33702000  1.0
  N  N29  1  0.20196000  0.54295000  0.66299000  1.0
  N  N30  1  0.19799000  0.98109000  0.76218000  1.0
  N  N31  1  0.69800000  0.51892000  0.23781000  1.0
  N  N32  1  0.80200000  0.01891000  0.23782000  1.0
  N  N33  1  0.30200000  0.48108000  0.76219000  1.0
  N  N34  1  0.33192000  0.02785000  0.85191000  1.0
  N  N35  1  0.83194000  0.47215000  0.14809000  1.0
  N  N36  1  0.66807000  0.97216000  0.14810000  1.0
  N  N37  1  0.16806000  0.52785000  0.85191000  1.0
  N  N38  1  0.52451000  0.12196000  0.81082000  1.0
  N  N39  1  0.02456000  0.37803000  0.18915000  1.0
  N  N40  1  0.47549000  0.87804000  0.18918000  1.0
  N  N41  1  0.97545000  0.62197000  0.81084000  1.0
