# generated using pymatgen
data_Cu3H34C20S2I3(NO)2
_symmetry_space_group_name_H-M   'P 1'
_cell_length_a   11.02960000
_cell_length_b   11.27870000
_cell_length_c   12.34370046
_cell_angle_alpha   116.80628176
_cell_angle_beta   104.53902685
_cell_angle_gamma   90.31540000
_symmetry_Int_Tables_number   1
_chemical_formula_structural   Cu3H34C20S2I3(NO)2
_chemical_formula_sum   'Cu6 H68 C40 S4 I6 N4 O4'
_cell_volume   1314.06160408
_cell_formula_units_Z   2
loop_
 _symmetry_equiv_pos_site_id
 _symmetry_equiv_pos_as_xyz
  1  'x, y, z'
loop_
 _atom_site_type_symbol
 _atom_site_label
 _atom_site_symmetry_multiplicity
 _atom_site_fract_x
 _atom_site_fract_y
 _atom_site_fract_z
 _atom_site_occupancy
  Cu  Cu0  1  0.41829000  0.87510000  0.91808000  1.0
  Cu  Cu1  1  0.08124000  0.95792000  0.08187000  1.0
  Cu  Cu2  1  0.58172000  0.12491000  0.08194000  1.0
  Cu  Cu3  1  0.91877000  0.04208000  0.91813000  1.0
  Cu  Cu4  1  0.25030000  0.01653000  0.99959000  1.0
  Cu  Cu5  1  0.74969000  0.98347000  0.00041000  1.0
  H  H6  1  0.62250000  0.68633000  0.85451000  1.0
  H  H7  1  0.87717000  0.83370000  0.14707000  1.0
  H  H8  1  0.37750000  0.31368000  0.14550000  1.0
  H  H9  1  0.12284000  0.16630000  0.85293000  1.0
  H  H10  1  0.43908000  0.59704000  0.89194000  1.0
  H  H11  1  0.06079000  0.70946000  0.10995000  1.0
  H  H12  1  0.56092000  0.40297000  0.10807000  1.0
  H  H13  1  0.93921000  0.29054000  0.89005000  1.0
  H  H14  1  0.39982000  0.46119000  0.73623000  1.0
  H  H15  1  0.09963000  0.72756000  0.26558000  1.0
  H  H16  1  0.60018000  0.53881000  0.26377000  1.0
  H  H17  1  0.90037000  0.27244000  0.73442000  1.0
  H  H18  1  0.52025000  0.38892000  0.89046000  1.0
  H  H19  1  0.97931000  0.50189000  0.11118000  1.0
  H  H20  1  0.47976000  0.61108000  0.10955000  1.0
  H  H21  1  0.02069000  0.49811000  0.88882000  1.0
  H  H22  1  0.64495000  0.51995000  0.94774000  1.0
  H  H23  1  0.85497000  0.57497000  0.05327000  1.0
  H  H24  1  0.35505000  0.48006000  0.05227000  1.0
  H  H25  1  0.14502000  0.42503000  0.94673000  1.0
  H  H26  1  0.69870000  0.30668000  0.79490000  1.0
  H  H27  1  0.79994000  0.51215000  0.20572000  1.0
  H  H28  1  0.30131000  0.69332000  0.20510000  1.0
  H  H29  1  0.20006000  0.48785000  0.79428000  1.0
  H  H30  1  0.55643000  0.28426000  0.67881000  1.0
  H  H31  1  0.94200000  0.60574000  0.32224000  1.0
  H  H32  1  0.44357000  0.71575000  0.32120000  1.0
  H  H33  1  0.05800000  0.39426000  0.67776000  1.0
  H  H34  1  0.73282000  0.37517000  0.63595000  1.0
  H  H35  1  0.76542000  0.73716000  0.36431000  1.0
  H  H36  1  0.26718000  0.62483000  0.36405000  1.0
  H  H37  1  0.23458000  0.26284000  0.63569000  1.0
  H  H38  1  0.77580000  0.51158000  0.79112000  1.0
  H  H39  1  0.72367000  0.72040000  0.20930000  1.0
  H  H40  1  0.22420000  0.48843000  0.20888000  1.0
  H  H41  1  0.27633000  0.27960000  0.79070000  1.0
  H  H42  1  0.52696000  0.45466000  0.58400000  1.0
  H  H43  1  0.97219000  0.86975000  0.41741000  1.0
  H  H44  1  0.47304000  0.54534000  0.41600000  1.0
  H  H45  1  0.02781000  0.13025000  0.58259000  1.0
  H  H46  1  0.65449000  0.58316000  0.63925000  1.0
  H  H47  1  0.84517000  0.94301000  0.36226000  1.0
  H  H48  1  0.34551000  0.41685000  0.36076000  1.0
  H  H49  1  0.15483000  0.05698000  0.63774000  1.0
  H  H50  1  0.58064000  0.87864000  0.75061000  1.0
  H  H51  1  0.91984000  0.12919000  0.24871000  1.0
  H  H52  1  0.41936000  0.12136000  0.24939000  1.0
  H  H53  1  0.08016000  0.87080000  0.75129000  1.0
  H  H54  1  0.56293000  0.72843000  0.60794000  1.0
  H  H55  1  0.93591000  0.12098000  0.39163000  1.0
  H  H56  1  0.43707000  0.27157000  0.39207000  1.0
  H  H57  1  0.06410000  0.87902000  0.60838000  1.0
  H  H58  1  0.38321000  0.11378000  0.59273000  1.0
  H  H59  1  0.11747000  0.52223000  0.40727000  1.0
  H  H60  1  0.61679000  0.88621000  0.40727000  1.0
  H  H61  1  0.88253000  0.47777000  0.59272000  1.0
  H  H62  1  0.27800000  0.96277000  0.48618000  1.0
  H  H63  1  0.22211000  0.47863000  0.51498000  1.0
  H  H64  1  0.72200000  0.03724000  0.51383000  1.0
  H  H65  1  0.77789000  0.52137000  0.48502000  1.0
  H  H66  1  0.65291000  0.91285000  0.61679000  1.0
  H  H67  1  0.84701000  0.29604000  0.38408000  1.0
  H  H68  1  0.34709000  0.08716000  0.38322000  1.0
  H  H69  1  0.15299000  0.70396000  0.61592000  1.0
  H  H70  1  0.62040000  0.08150000  0.68003000  1.0
  H  H71  1  0.88010000  0.40132000  0.31974000  1.0
  H  H72  1  0.37960000  0.91850000  0.31998000  1.0
  H  H73  1  0.11990000  0.59867000  0.68025000  1.0
  C  C74  1  0.54697000  0.61275000  0.77312000  1.0
  C  C75  1  0.95266000  0.84139000  0.22852000  1.0
  C  C76  1  0.45303000  0.38726000  0.22689000  1.0
  C  C77  1  0.04735000  0.15861000  0.77148000  1.0
  C  C78  1  0.47933000  0.53030000  0.81644000  1.0
  C  C79  1  0.02029000  0.71682000  0.18530000  1.0
  C  C80  1  0.52067000  0.46971000  0.18357000  1.0
  C  C81  1  0.97971000  0.28318000  0.81470000  1.0
  C  C82  1  0.57054000  0.44990000  0.86221000  1.0
  C  C83  1  0.92894000  0.59020000  0.13911000  1.0
  C  C84  1  0.42947000  0.55011000  0.13780000  1.0
  C  C85  1  0.07106000  0.40980000  0.86089000  1.0
  C  C86  1  0.63060000  0.36089000  0.75958000  1.0
  C  C87  1  0.86817000  0.60194000  0.24131000  1.0
  C  C88  1  0.36940000  0.63912000  0.24043000  1.0
  C  C89  1  0.13183000  0.39805000  0.75868000  1.0
  C  C90  1  0.69494000  0.44191000  0.71326000  1.0
  C  C91  1  0.80401000  0.72817000  0.28747000  1.0
  C  C92  1  0.30506000  0.55810000  0.28674000  1.0
  C  C93  1  0.19599000  0.27184000  0.71253000  1.0
  C  C94  1  0.60366000  0.52312000  0.66789000  1.0
  C  C95  1  0.89574000  0.85506000  0.33356000  1.0
  C  C96  1  0.39634000  0.47688000  0.33211000  1.0
  C  C97  1  0.10426000  0.14494000  0.66644000  1.0
  C  C98  1  0.51087000  0.79683000  0.67028000  1.0
  C  C99  1  0.98884000  0.12780000  0.32969000  1.0
  C  C100  1  0.48913000  0.20318000  0.32973000  1.0
  C  C101  1  0.01115000  0.87219000  0.67031000  1.0
  C  C102  1  0.41322000  0.85148000  0.59895000  1.0
  C  C103  1  0.08664000  0.25397000  0.40099000  1.0
  C  C104  1  0.58678000  0.14851000  0.40105000  1.0
  C  C105  1  0.91335000  0.74603000  0.59900000  1.0
  C  C106  1  0.37512000  0.01114000  0.51553000  1.0
  C  C107  1  0.12500000  0.49662000  0.48487000  1.0
  C  C108  1  0.62488000  0.98886000  0.48448000  1.0
  C  C109  1  0.87500000  0.50337000  0.51512000  1.0
  C  C110  1  0.59470000  0.98224000  0.59571000  1.0
  C  C111  1  0.90546000  0.38645000  0.40456000  1.0
  C  C112  1  0.40530000  0.01775000  0.40429000  1.0
  C  C113  1  0.09454000  0.61354000  0.59543000  1.0
  S  S114  1  0.42824000  0.70771000  0.72756000  1.0
  S  S115  1  0.07144000  0.98257000  0.27383000  1.0
  S  S116  1  0.57176000  0.29230000  0.27245000  1.0
  S  S117  1  0.92856000  0.01743000  0.72617000  1.0
  I  I118  1  0.38216000  0.09407000  0.89332000  1.0
  I  I119  1  0.11980000  0.19999000  0.10475000  1.0
  I  I120  1  0.61784000  0.90594000  0.10669000  1.0
  I  I121  1  0.88020000  0.80002000  0.89526000  1.0
  I  I122  1  0.24859000  0.79054000  0.99980000  1.0
  I  I123  1  0.75140000  0.20946000  0.00020000  1.0
  N  N124  1  0.46024000  0.93659000  0.56435000  1.0
  N  N125  1  0.03986000  0.37298000  0.43632000  1.0
  N  N126  1  0.53977000  0.06341000  0.43566000  1.0
  N  N127  1  0.96014000  0.62702000  0.56368000  1.0
  O  O128  1  0.29762000  0.81906000  0.57445000  1.0
  O  O129  1  0.20222000  0.24669000  0.42478000  1.0
  O  O130  1  0.70238000  0.18093000  0.42555000  1.0
  O  O131  1  0.79778000  0.75332000  0.57522000  1.0
