# generated using pymatgen
data_AlH9C13SNO5
_symmetry_space_group_name_H-M   'P 1'
_cell_length_a   6.66449000
_cell_length_b   12.41172220
_cell_length_c   17.68230000
_cell_angle_alpha   98.47170350
_cell_angle_beta   99.45270000
_cell_angle_gamma   100.69588759
_symmetry_Int_Tables_number   1
_chemical_formula_structural   AlH9C13SNO5
_chemical_formula_sum   'Al2 H18 C26 S2 N2 O10'
_cell_volume   1393.65739258
_cell_formula_units_Z   2
loop_
 _symmetry_equiv_pos_site_id
 _symmetry_equiv_pos_as_xyz
  1  'x, y, z'
loop_
 _atom_site_type_symbol
 _atom_site_label
 _atom_site_symmetry_multiplicity
 _atom_site_fract_x
 _atom_site_fract_y
 _atom_site_fract_z
 _atom_site_occupancy
  Al  Al0  1  0.99802000  0.49834000  0.49952000  1.0
  Al  Al1  1  0.49800000  0.49820000  0.49977000  1.0
  H  H2  1  0.31699000  0.56315000  0.59693000  1.0
  H  H3  1  0.67828000  0.43336000  0.40242000  1.0
  H  H4  1  0.81300000  0.43986000  0.26259000  1.0
  H  H5  1  0.74601000  0.43351000  0.11874000  1.0
  H  H6  1  0.46566000  0.56561000  0.27450000  1.0
  H  H7  1  0.53547000  0.43516000  0.72728000  1.0
  H  H8  1  0.18586000  0.56119000  0.73509000  1.0
  H  H9  1  0.25876000  0.57117000  0.87929000  1.0
  H  H10  1  0.59697000  0.60899000  0.16146000  1.0
  H  H11  1  0.41686000  0.65656000  0.09493000  1.0
  H  H12  1  0.45980000  0.52093000  0.07195000  1.0
  H  H13  1  0.54909000  0.48531000  0.93029000  1.0
  H  H14  1  0.59186000  0.34941000  0.90860000  1.0
  H  H15  1  0.40928000  0.39523000  0.84194000  1.0
  H  H16  1  0.59157000  0.11829000  0.45582000  1.0
  H  H17  1  0.75400000  0.24643000  0.45861000  1.0
  H  H18  1  0.40448000  0.87841000  0.54380000  1.0
  H  H19  1  0.24167000  0.75029000  0.54077000  1.0
  C  C20  1  0.81681000  0.69767000  0.50751000  1.0
  C  C21  1  0.81481000  0.49462000  0.63736000  1.0
  C  C22  1  0.17925000  0.29910000  0.49178000  1.0
  C  C23  1  0.18209000  0.50326000  0.36208000  1.0
  C  C24  1  0.14388000  0.50256000  0.27670000  1.0
  C  C25  1  0.94001000  0.46671000  0.23325000  1.0
  C  C26  1  0.90274000  0.46404000  0.15348000  1.0
  C  C27  1  0.06666000  0.50206000  0.11604000  1.0
  C  C28  1  0.27341000  0.54061000  0.15992000  1.0
  C  C29  1  0.30834000  0.53762000  0.23953000  1.0
  C  C30  1  0.02343000  0.50255000  0.03511000  1.0
  C  C31  1  0.98541000  0.50337000  0.96517000  1.0
  C  C32  1  0.93958000  0.50255000  0.88412000  1.0
  C  C33  1  0.73172000  0.46309000  0.84135000  1.0
  C  C34  1  0.69361000  0.46398000  0.76146000  1.0
  C  C35  1  0.85594000  0.49786000  0.72301000  1.0
  C  C36  1  0.06067000  0.53505000  0.76544000  1.0
  C  C37  1  0.10123000  0.53975000  0.84540000  1.0
  C  C38  1  0.90515000  0.12223000  0.47814000  1.0
  C  C39  1  0.09091000  0.87465000  0.52138000  1.0
  C  C40  1  0.11335000  0.18311000  0.49566000  1.0
  C  C41  1  0.88265000  0.81374000  0.50374000  1.0
  C  C42  1  0.09594000  0.98755000  0.51204000  1.0
  C  C43  1  0.90021000  0.00941000  0.48766000  1.0
  C  C44  1  0.44681000  0.58408000  0.12057000  1.0
  C  C45  1  0.56051000  0.42098000  0.88212000  1.0
  S  S46  1  0.29384000  0.10377000  0.52494000  1.0
  S  S47  1  0.70224000  0.89318000  0.47462000  1.0
  N  N48  1  0.73466000  0.16211000  0.45375000  1.0
  N  N49  1  0.26125000  0.83463000  0.54575000  1.0
  O  O50  1  0.96575000  0.64650000  0.52389000  1.0
  O  O51  1  0.63843000  0.50947000  0.60547000  1.0
  O  O52  1  0.37353000  0.34432000  0.50332000  1.0
  O  O53  1  0.03441000  0.51920000  0.39706000  1.0
  O  O54  1  0.03051000  0.35028000  0.47504000  1.0
  O  O55  1  0.35722000  0.48701000  0.39408000  1.0
  O  O56  1  0.62259000  0.65235000  0.49628000  1.0
  O  O57  1  0.96158000  0.47809000  0.60205000  1.0
  O  O58  1  0.28478000  0.55048000  0.54036000  1.0
  O  O59  1  0.71115000  0.44606000  0.45898000  1.0
