# generated using pymatgen
data_CuH8AuC6(SN)2
_symmetry_space_group_name_H-M   'P 1'
_cell_length_a   6.75405000
_cell_length_b   9.06658000
_cell_length_c   9.06654000
_cell_angle_alpha   117.74100000
_cell_angle_beta   96.44860000
_cell_angle_gamma   96.44970000
_symmetry_Int_Tables_number   1
_chemical_formula_structural   CuH8AuC6(SN)2
_chemical_formula_sum   'Cu2 H16 Au2 C12 S4 N4'
_cell_volume   479.64751046
_cell_formula_units_Z   2
loop_
 _symmetry_equiv_pos_site_id
 _symmetry_equiv_pos_as_xyz
  1  'x, y, z'
loop_
 _atom_site_type_symbol
 _atom_site_label
 _atom_site_symmetry_multiplicity
 _atom_site_fract_x
 _atom_site_fract_y
 _atom_site_fract_z
 _atom_site_occupancy
  Cu  Cu0  1  0.24999000  0.62759000  0.37241000  1.0
  Cu  Cu1  1  0.75000000  0.37241000  0.62759000  1.0
  H  H2  1  0.69342000  0.49214000  0.26095000  1.0
  H  H3  1  0.80656000  0.73904000  0.50787000  1.0
  H  H4  1  0.30657000  0.50787000  0.73904000  1.0
  H  H5  1  0.19343000  0.26095000  0.49213000  1.0
  H  H6  1  0.46965000  0.35659000  0.11829000  1.0
  H  H7  1  0.03034000  0.88171000  0.64342000  1.0
  H  H8  1  0.53034000  0.64341000  0.88171000  1.0
  H  H9  1  0.96965000  0.11828000  0.35659000  1.0
  H  H10  1  0.78105000  0.32062000  0.98077000  1.0
  H  H11  1  0.71895000  0.01923000  0.67940000  1.0
  H  H12  1  0.21894000  0.67939000  0.01922000  1.0
  H  H13  1  0.28104000  0.98077000  0.32061000  1.0
  H  H14  1  0.80999000  0.53547000  0.02322000  1.0
  H  H15  1  0.69000000  0.97677000  0.46454000  1.0
  H  H16  1  0.19000000  0.46453000  0.97677000  1.0
  H  H17  1  0.31000000  0.02322000  0.53546000  1.0
  Au  Au18  1  0.00003000  0.00000000  0.00001000  1.0
  Au  Au19  1  0.50001000  0.00001000  0.99999000  1.0
  C  C20  1  0.07971000  0.24687000  0.15260000  1.0
  C  C21  1  0.42032000  0.84742000  0.75312000  1.0
  C  C22  1  0.92033000  0.75313000  0.84742000  1.0
  C  C23  1  0.57971000  0.15259000  0.24688000  1.0
  C  C24  1  0.58796000  0.46423000  0.14589000  1.0
  C  C25  1  0.91202000  0.85411000  0.53578000  1.0
  C  C26  1  0.41203000  0.53578000  0.85410000  1.0
  C  C27  1  0.08797000  0.14589000  0.46422000  1.0
  C  C28  1  0.69964000  0.42462000  0.99935000  1.0
  C  C29  1  0.80036000  0.00065000  0.57540000  1.0
  C  C30  1  0.30035000  0.57539000  0.00064000  1.0
  C  C31  1  0.19964000  0.99935000  0.42461000  1.0
  S  S32  1  0.47124000  0.64926000  0.20051000  1.0
  S  S33  1  0.02874000  0.79948000  0.35074000  1.0
  S  S34  1  0.52874000  0.35074000  0.79948000  1.0
  S  S35  1  0.97125000  0.20051000  0.64927000  1.0
  N  N36  1  0.12961000  0.39261000  0.24779000  1.0
  N  N37  1  0.37039000  0.75222000  0.60738000  1.0
  N  N38  1  0.87041000  0.60739000  0.75222000  1.0
  N  N39  1  0.62961000  0.24778000  0.39259000  1.0
