# generated using pymatgen
data_CoTe6H24C30(N3Cl)2
_symmetry_space_group_name_H-M   'P 1'
_cell_length_a   9.34777000
_cell_length_b   9.34797000
_cell_length_c   40.41510000
_cell_angle_alpha   90.02020000
_cell_angle_beta   89.98140000
_cell_angle_gamma   89.96410000
_symmetry_Int_Tables_number   1
_chemical_formula_structural   CoTe6H24C30(N3Cl)2
_chemical_formula_sum   'Co4 Te24 H96 C120 N24 Cl8'
_cell_volume   3531.57838980
_cell_formula_units_Z   4
loop_
 _symmetry_equiv_pos_site_id
 _symmetry_equiv_pos_as_xyz
  1  'x, y, z'
loop_
 _atom_site_type_symbol
 _atom_site_label
 _atom_site_symmetry_multiplicity
 _atom_site_fract_x
 _atom_site_fract_y
 _atom_site_fract_z
 _atom_site_occupancy
  Co  Co0  1  0.16235000  0.83692000  0.74987000  1.0
  Co  Co1  1  0.83695000  0.16231000  0.25013000  1.0
  Co  Co2  1  0.33750000  0.33764000  0.49996000  1.0
  Co  Co3  1  0.66298000  0.66230000  0.99988000  1.0
  Te  Te4  1  0.89314000  0.43908000  0.66137000  1.0
  Te  Te5  1  0.10750000  0.56104000  0.16149000  1.0
  Te  Te6  1  0.60777000  0.93969000  0.58846000  1.0
  Te  Te7  1  0.39269000  0.06108000  0.08848000  1.0
  Te  Te8  1  0.56064000  0.10749000  0.83842000  1.0
  Te  Te9  1  0.43939000  0.89308000  0.33860000  1.0
  Te  Te10  1  0.06096000  0.39245000  0.91153000  1.0
  Te  Te11  1  0.93967000  0.60795000  0.41155000  1.0
  Te  Te12  1  0.75920000  0.29602000  0.61110000  1.0
  Te  Te13  1  0.24072000  0.70493000  0.11128000  1.0
  Te  Te14  1  0.74109000  0.79557000  0.63860000  1.0
  Te  Te15  1  0.25916000  0.20496000  0.13870000  1.0
  Te  Te16  1  0.70466000  0.24082000  0.88862000  1.0
  Te  Te17  1  0.29618000  0.75918000  0.38885000  1.0
  Te  Te18  1  0.20456000  0.25921000  0.86126000  1.0
  Te  Te19  1  0.79569000  0.74107000  0.36137000  1.0
  Te  Te20  1  0.78108000  0.42530000  0.75224000  1.0
  Te  Te21  1  0.21865000  0.57431000  0.25213000  1.0
  Te  Te22  1  0.71879000  0.92532000  0.49781000  1.0
  Te  Te23  1  0.28111000  0.07407000  0.99796000  1.0
  Te  Te24  1  0.57417000  0.21896000  0.74787000  1.0
  Te  Te25  1  0.42528000  0.78085000  0.24777000  1.0
  Te  Te26  1  0.07455000  0.28101000  0.00226000  1.0
  Te  Te27  1  0.92524000  0.71870000  0.50231000  1.0
  H  H28  1  0.23330000  0.16056000  0.74247000  1.0
  H  H29  1  0.76589000  0.83866000  0.24246000  1.0
  H  H30  1  0.26732000  0.66244000  0.50728000  1.0
  H  H31  1  0.73417000  0.33840000  0.00755000  1.0
  H  H32  1  0.83859000  0.76571000  0.75753000  1.0
  H  H33  1  0.16077000  0.23337000  0.25754000  1.0
  H  H34  1  0.33926000  0.73348000  0.99248000  1.0
  H  H35  1  0.66221000  0.26768000  0.49272000  1.0
  H  H36  1  0.13677000  0.37678000  0.71366000  1.0
  H  H37  1  0.86286000  0.62282000  0.21354000  1.0
  H  H38  1  0.36369000  0.87823000  0.53633000  1.0
  H  H39  1  0.63726000  0.12268000  0.03644000  1.0
  H  H40  1  0.62261000  0.86278000  0.78639000  1.0
  H  H41  1  0.37706000  0.13670000  0.28632000  1.0
  H  H42  1  0.12305000  0.63676000  0.96372000  1.0
  H  H43  1  0.87809000  0.36407000  0.46370000  1.0
  H  H44  1  0.84745000  0.09372000  0.66175000  1.0
  H  H45  1  0.15221000  0.90659000  0.16187000  1.0
  H  H46  1  0.65297000  0.59417000  0.58798000  1.0
  H  H47  1  0.34774000  0.40673000  0.08813000  1.0
  H  H48  1  0.90616000  0.15229000  0.83806000  1.0
  H  H49  1  0.09403000  0.84743000  0.33824000  1.0
  H  H50  1  0.40633000  0.34716000  0.91181000  1.0
  H  H51  1  0.59411000  0.65324000  0.41199000  1.0
  H  H52  1  0.95426000  0.89325000  0.69303000  1.0
  H  H53  1  0.04460000  0.10678000  0.19315000  1.0
  H  H54  1  0.54693000  0.39437000  0.55635000  1.0
  H  H55  1  0.45532000  0.60678000  0.05689000  1.0
  H  H56  1  0.10649000  0.04454000  0.80687000  1.0
  H  H57  1  0.89350000  0.95434000  0.30699000  1.0
  H  H58  1  0.60677000  0.45419000  0.94302000  1.0
  H  H59  1  0.39424000  0.54720000  0.44359000  1.0
  H  H60  1  0.01670000  0.25918000  0.49605000  1.0
  H  H61  1  0.98213000  0.73859000  0.99644000  1.0
  H  H62  1  0.48229000  0.76132000  0.75347000  1.0
  H  H63  1  0.51761000  0.23865000  0.25357000  1.0
  H  H64  1  0.73841000  0.98221000  0.00348000  1.0
  H  H65  1  0.25920000  0.01687000  0.50387000  1.0
  H  H66  1  0.23875000  0.51782000  0.74645000  1.0
  H  H67  1  0.76125000  0.48209000  0.24654000  1.0
  H  H68  1  0.80643000  0.25315000  0.53414000  1.0
  H  H69  1  0.19238000  0.74731000  0.03432000  1.0
  H  H70  1  0.69285000  0.75245000  0.71555000  1.0
  H  H71  1  0.30737000  0.24739000  0.21568000  1.0
  H  H72  1  0.74734000  0.19264000  0.96558000  1.0
  H  H73  1  0.25315000  0.80654000  0.46581000  1.0
  H  H74  1  0.24720000  0.30757000  0.78433000  1.0
  H  H75  1  0.75257000  0.69266000  0.28445000  1.0
  H  H76  1  0.10675000  0.31353000  0.61496000  1.0
  H  H77  1  0.89331000  0.68599000  0.11541000  1.0
  H  H78  1  0.39397000  0.81487000  0.63451000  1.0
  H  H79  1  0.60654000  0.18586000  0.13461000  1.0
  H  H80  1  0.68527000  0.89368000  0.88451000  1.0
  H  H81  1  0.31386000  0.10667000  0.38496000  1.0
  H  H82  1  0.18579000  0.60671000  0.86541000  1.0
  H  H83  1  0.81483000  0.39384000  0.36551000  1.0
  H  H84  1  0.29899000  0.31153000  0.57426000  1.0
  H  H85  1  0.70068000  0.68473000  0.07479000  1.0
  H  H86  1  0.20115000  0.81564000  0.67513000  1.0
  H  H87  1  0.79914000  0.18466000  0.17522000  1.0
  H  H88  1  0.68439000  0.70096000  0.92513000  1.0
  H  H89  1  0.31191000  0.29897000  0.42564000  1.0
  H  H90  1  0.18483000  0.79938000  0.82480000  1.0
  H  H91  1  0.81543000  0.20096000  0.32488000  1.0
  H  H92  1  0.95126000  0.53394000  0.81214000  1.0
  H  H93  1  0.04858000  0.46514000  0.31200000  1.0
  H  H94  1  0.54861000  0.03498000  0.43802000  1.0
  H  H95  1  0.45136000  0.96528000  0.93801000  1.0
  H  H96  1  0.46554000  0.04879000  0.68797000  1.0
  H  H97  1  0.53357000  0.95110000  0.18785000  1.0
  H  H98  1  0.96612000  0.45143000  0.06222000  1.0
  H  H99  1  0.03472000  0.54858000  0.56212000  1.0
  H  H100  1  0.90071000  0.65332000  0.86576000  1.0
  H  H101  1  0.09913000  0.34638000  0.36566000  1.0
  H  H102  1  0.59917000  0.15378000  0.38435000  1.0
  H  H103  1  0.40080000  0.84672000  0.88430000  1.0
  H  H104  1  0.34669000  0.09922000  0.63431000  1.0
  H  H105  1  0.65301000  0.90062000  0.13423000  1.0
  H  H106  1  0.84675000  0.40097000  0.11583000  1.0
  H  H107  1  0.15392000  0.59912000  0.61574000  1.0
  H  H108  1  0.49470000  0.50564000  0.79649000  1.0
  H  H109  1  0.50510000  0.49444000  0.29639000  1.0
  H  H110  1  0.00524000  0.00551000  0.45359000  1.0
  H  H111  1  0.99481000  0.99431000  0.95372000  1.0
  H  H112  1  0.49432000  0.50533000  0.70358000  1.0
  H  H113  1  0.50578000  0.49452000  0.20351000  1.0
  H  H114  1  0.99417000  0.99488000  0.04644000  1.0
  H  H115  1  0.00551000  0.00514000  0.54652000  1.0
  H  H116  1  0.46331000  0.62374000  0.85119000  1.0
  H  H117  1  0.53658000  0.37678000  0.35111000  1.0
  H  H118  1  0.03661000  0.12325000  0.39887000  1.0
  H  H119  1  0.96337000  0.87691000  0.89895000  1.0
  H  H120  1  0.37668000  0.53667000  0.64886000  1.0
  H  H121  1  0.62386000  0.46323000  0.14881000  1.0
  H  H122  1  0.87615000  0.96356000  0.10114000  1.0
  H  H123  1  0.12361000  0.03652000  0.60120000  1.0
  C  C124  1  0.14691000  0.15156000  0.72448000  1.0
  C  C125  1  0.85237000  0.84794000  0.22450000  1.0
  C  C126  1  0.35366000  0.65312000  0.52526000  1.0
  C  C127  1  0.64768000  0.34778000  0.02551000  1.0
  C  C128  1  0.84779000  0.85226000  0.77548000  1.0
  C  C129  1  0.15177000  0.14693000  0.27552000  1.0
  C  C130  1  0.34831000  0.64696000  0.97450000  1.0
  C  C131  1  0.65296000  0.35406000  0.47474000  1.0
  C  C132  1  0.09291000  0.27147000  0.70830000  1.0
  C  C133  1  0.90664000  0.72825000  0.20828000  1.0
  C  C134  1  0.40745000  0.77273000  0.54158000  1.0
  C  C135  1  0.59345000  0.22814000  0.04171000  1.0
  C  C136  1  0.72802000  0.90657000  0.79166000  1.0
  C  C137  1  0.27173000  0.09288000  0.29167000  1.0
  C  C138  1  0.22840000  0.59283000  0.95837000  1.0
  C  C139  1  0.77260000  0.40784000  0.45843000  1.0
  C  C140  1  0.98253000  0.25400000  0.68532000  1.0
  C  C141  1  0.01732000  0.74597000  0.18536000  1.0
  C  C142  1  0.51777000  0.75485000  0.56456000  1.0
  C  C143  1  0.48274000  0.24598000  0.06463000  1.0
  C  C144  1  0.74564000  0.01735000  0.81456000  1.0
  C  C145  1  0.25430000  0.98248000  0.31465000  1.0
  C  C146  1  0.24593000  0.48225000  0.93541000  1.0
  C  C147  1  0.75476000  0.51819000  0.43544000  1.0
  C  C148  1  0.93229000  0.11571000  0.67956000  1.0
  C  C149  1  0.06729000  0.88435000  0.17966000  1.0
  C  C150  1  0.56819000  0.61651000  0.57016000  1.0
  C  C151  1  0.43271000  0.38439000  0.07034000  1.0
  C  C152  1  0.88400000  0.06731000  0.82028000  1.0
  C  C153  1  0.11602000  0.93226000  0.32042000  1.0
  C  C154  1  0.38427000  0.43206000  0.92962000  1.0
  C  C155  1  0.61641000  0.56854000  0.42982000  1.0
  C  C156  1  0.99199000  0.00230000  0.69691000  1.0
  C  C157  1  0.00711000  0.99762000  0.19701000  1.0
  C  C158  1  0.50886000  0.50345000  0.55264000  1.0
  C  C159  1  0.49286000  0.49760000  0.05301000  1.0
  C  C160  1  0.99735000  0.00707000  0.80298000  1.0
  C  C161  1  0.00257000  0.99203000  0.30310000  1.0
  C  C162  1  0.49767000  0.49189000  0.94692000  1.0
  C  C163  1  0.50332000  0.50918000  0.44733000  1.0
  C  C164  1  0.03056000  0.27072000  0.52268000  1.0
  C  C165  1  0.96840000  0.72717000  0.02307000  1.0
  C  C166  1  0.46882000  0.77277000  0.72684000  1.0
  C  C167  1  0.53137000  0.22721000  0.22694000  1.0
  C  C168  1  0.72703000  0.96869000  0.97685000  1.0
  C  C169  1  0.27076000  0.03067000  0.47725000  1.0
  C  C170  1  0.22728000  0.53157000  0.77307000  1.0
  C  C171  1  0.77269000  0.46863000  0.27317000  1.0
  C  C172  1  0.91367000  0.26877000  0.54409000  1.0
  C  C173  1  0.08546000  0.73080000  0.04438000  1.0
  C  C174  1  0.58593000  0.76914000  0.70552000  1.0
  C  C175  1  0.41430000  0.23083000  0.20563000  1.0
  C  C176  1  0.73070000  0.08574000  0.95553000  1.0
  C  C177  1  0.26877000  0.91375000  0.45585000  1.0
  C  C178  1  0.23076000  0.41451000  0.79438000  1.0
  C  C179  1  0.76914000  0.58575000  0.29448000  1.0
  C  C180  1  0.93743000  0.28713000  0.57806000  1.0
  C  C181  1  0.06215000  0.71285000  0.07838000  1.0
  C  C182  1  0.56264000  0.78743000  0.67153000  1.0
  C  C183  1  0.43764000  0.21279000  0.17163000  1.0
  C  C184  1  0.71252000  0.06239000  0.92154000  1.0
  C  C185  1  0.28726000  0.93744000  0.42187000  1.0
  C  C186  1  0.21268000  0.43784000  0.82838000  1.0
  C  C187  1  0.78749000  0.56246000  0.32847000  1.0
  C  C188  1  0.07863000  0.30030000  0.58896000  1.0
  C  C189  1  0.92112000  0.69865000  0.08936000  1.0
  C  C190  1  0.42165000  0.80193000  0.66054000  1.0
  C  C191  1  0.57870000  0.19857000  0.16065000  1.0
  C  C192  1  0.69810000  0.92139000  0.91055000  1.0
  C  C193  1  0.30052000  0.07862000  0.41097000  1.0
  C  C194  1  0.19855000  0.57889000  0.83937000  1.0
  C  C195  1  0.80186000  0.42148000  0.33947000  1.0
  C  C196  1  0.18883000  0.30084000  0.56589000  1.0
  C  C197  1  0.81068000  0.69625000  0.06634000  1.0
  C  C198  1  0.31118000  0.80417000  0.68356000  1.0
  C  C199  1  0.68913000  0.19615000  0.18367000  1.0
  C  C200  1  0.69581000  0.81099000  0.93357000  1.0
  C  C201  1  0.30105000  0.18886000  0.43404000  1.0
  C  C202  1  0.19628000  0.68934000  0.81636000  1.0
  C  C203  1  0.80402000  0.31100000  0.31645000  1.0
  C  C204  1  0.72661000  0.51231000  0.79947000  1.0
  C  C205  1  0.27318000  0.48734000  0.29934000  1.0
  C  C206  1  0.77332000  0.01271000  0.45065000  1.0
  C  C207  1  0.22676000  0.98732000  0.95071000  1.0
  C  C208  1  0.48745000  0.27342000  0.70063000  1.0
  C  C209  1  0.51222000  0.72643000  0.20053000  1.0
  C  C210  1  0.98764000  0.22678000  0.04948000  1.0
  C  C211  1  0.01264000  0.77326000  0.54946000  1.0
  C  C212  1  0.84113000  0.55339000  0.81962000  1.0
  C  C213  1  0.15871000  0.44604000  0.31950000  1.0
  C  C214  1  0.65878000  0.05411000  0.43052000  1.0
  C  C215  1  0.34123000  0.94616000  0.93052000  1.0
  C  C216  1  0.44633000  0.15890000  0.68047000  1.0
  C  C217  1  0.55314000  0.84099000  0.18038000  1.0
  C  C218  1  0.94664000  0.34132000  0.06967000  1.0
  C  C219  1  0.05399000  0.65873000  0.56959000  1.0
  C  C220  1  0.81236000  0.61993000  0.84981000  1.0
  C  C221  1  0.18750000  0.37976000  0.34970000  1.0
  C  C222  1  0.68754000  0.12041000  0.40032000  1.0
  C  C223  1  0.31244000  0.88000000  0.90029000  1.0
  C  C224  1  0.37999000  0.18762000  0.65027000  1.0
  C  C225  1  0.61973000  0.81226000  0.15019000  1.0
  C  C226  1  0.88007000  0.31259000  0.09985000  1.0
  C  C227  1  0.12050000  0.68747000  0.59978000  1.0
  C  C228  1  0.58781000  0.53734000  0.81093000  1.0
  C  C229  1  0.41199000  0.46260000  0.31083000  1.0
  C  C230  1  0.91212000  0.03744000  0.43916000  1.0
  C  C231  1  0.08794000  0.96258000  0.93925000  1.0
  C  C232  1  0.46259000  0.41220000  0.68915000  1.0
  C  C233  1  0.53740000  0.58764000  0.18907000  1.0
  C  C234  1  0.96253000  0.08800000  0.06091000  1.0
  C  C235  1  0.03748000  0.91205000  0.56094000  1.0
  C  C236  1  0.57070000  0.60325000  0.84170000  1.0
  C  C237  1  0.42914000  0.39695000  0.34161000  1.0
  C  C238  1  0.92920000  0.10311000  0.40838000  1.0
  C  C239  1  0.07080000  0.89708000  0.90844000  1.0
  C  C240  1  0.39697000  0.42927000  0.65835000  1.0
  C  C241  1  0.60327000  0.57061000  0.15830000  1.0
  C  C242  1  0.89668000  0.07094000  0.09168000  1.0
  C  C243  1  0.10332000  0.92913000  0.59170000  1.0
  N  N244  1  0.09776000  0.01796000  0.71929000  1.0
  N  N245  1  0.90130000  0.98167000  0.21939000  1.0
  N  N246  1  0.40325000  0.51949000  0.53023000  1.0
  N  N247  1  0.59869000  0.48155000  0.03064000  1.0
  N  N248  1  0.98150000  0.90121000  0.78061000  1.0
  N  N249  1  0.01817000  0.09781000  0.28072000  1.0
  N  N250  1  0.48196000  0.59778000  0.96930000  1.0
  N  N251  1  0.51932000  0.40360000  0.46975000  1.0
  N  N252  1  0.16632000  0.28943000  0.53302000  1.0
  N  N253  1  0.83287000  0.70683000  0.03347000  1.0
  N  N254  1  0.33333333  0.79327000  0.71643000  1.0
  N  N255  1  0.66692000  0.20680000  0.21655000  1.0
  N  N256  1  0.70659000  0.83325000  0.96643000  1.0
  N  N257  1  0.28955000  0.16641000  0.46691000  1.0
  N  N258  1  0.20699000  0.66713000  0.78348000  1.0
  N  N259  1  0.79314000  0.33319000  0.28359000  1.0
  N  N260  1  0.67965000  0.64535000  0.86109000  1.0
  N  N261  1  0.32021000  0.35474000  0.36102000  1.0
  N  N262  1  0.82025000  0.14535000  0.38899000  1.0
  N  N263  1  0.17972000  0.85502000  0.88899000  1.0
  N  N264  1  0.35483000  0.32029000  0.63895000  1.0
  N  N265  1  0.64530000  0.67959000  0.13890000  1.0
  N  N266  1  0.85461000  0.17991000  0.11111000  1.0
  N  N267  1  0.14563000  0.82017000  0.61108000  1.0
  Cl  Cl268  1  0.01860000  0.66313000  0.71767000  1.0
  Cl  Cl269  1  0.98094000  0.33740000  0.21780000  1.0
  Cl  Cl270  1  0.48399000  0.16425000  0.53198000  1.0
  Cl  Cl271  1  0.51886000  0.83741000  0.03225000  1.0
  Cl  Cl272  1  0.33743000  0.98115000  0.78225000  1.0
  Cl  Cl273  1  0.66321000  0.01839000  0.28235000  1.0
  Cl  Cl274  1  0.83678000  0.51829000  0.96769000  1.0
  Cl  Cl275  1  0.16444000  0.48417000  0.46798000  1.0
