# generated using pymatgen
data_ScH6C7(NO4)2
_symmetry_space_group_name_H-M   'P 1'
_cell_length_a   10.63240000
_cell_length_b   10.63180000
_cell_length_c   11.97690000
_cell_angle_alpha   105.07800000
_cell_angle_beta   112.85300000
_cell_angle_gamma   105.63800000
_symmetry_Int_Tables_number   1
_chemical_formula_structural   ScH6C7(NO4)2
_chemical_formula_sum   'Sc4 H24 C28 N8 O32'
_cell_volume   1095.20450582
_cell_formula_units_Z   4
loop_
 _symmetry_equiv_pos_site_id
 _symmetry_equiv_pos_as_xyz
  1  'x, y, z'
loop_
 _atom_site_type_symbol
 _atom_site_label
 _atom_site_symmetry_multiplicity
 _atom_site_fract_x
 _atom_site_fract_y
 _atom_site_fract_z
 _atom_site_occupancy
  Sc  Sc0  1  0.21913000  0.08045000  0.77357000  1.0
  Sc  Sc1  1  0.80718000  0.44527000  0.72623000  1.0
  Sc  Sc2  1  0.78087000  0.91955000  0.22644000  1.0
  Sc  Sc3  1  0.19283000  0.55474000  0.27378000  1.0
  H  H4  1  0.54910000  0.20834000  0.75716000  1.0
  H  H5  1  0.95145000  0.79121000  0.74282000  1.0
  H  H6  1  0.45090000  0.79166000  0.24283000  1.0
  H  H7  1  0.04855000  0.20878000  0.25718000  1.0
  H  H8  1  0.44697000  0.62998000  0.86730000  1.0
  H  H9  1  0.26343000  0.57930000  0.63326000  1.0
  H  H10  1  0.55301000  0.37001000  0.13266000  1.0
  H  H11  1  0.73658000  0.42070000  0.36676000  1.0
  H  H12  1  0.37948000  0.16243000  0.05539000  1.0
  H  H13  1  0.60669000  0.32421000  0.44432000  1.0
  H  H14  1  0.62052000  0.83757000  0.94462000  1.0
  H  H15  1  0.39331000  0.67580000  0.55569000  1.0
  H  H16  1  0.48761000  0.13365000  0.99205000  1.0
  H  H17  1  0.64157000  0.49573000  0.50824000  1.0
  H  H18  1  0.51239000  0.86634000  0.00795000  1.0
  H  H19  1  0.35842000  0.50427000  0.49176000  1.0
  H  H20  1  0.14518000  0.08656000  0.98588000  1.0
  H  H21  1  0.60014000  0.15920000  0.51343000  1.0
  H  H22  1  0.85481000  0.91343000  0.01412000  1.0
  H  H23  1  0.39987000  0.84080000  0.48657000  1.0
  H  H24  1  0.01275000  0.07329000  0.85863000  1.0
  H  H25  1  0.71468000  0.15361000  0.64007000  1.0
  H  H26  1  0.98724000  0.92672000  0.14137000  1.0
  H  H27  1  0.28532000  0.84639000  0.35993000  1.0
  C  C28  1  0.52648000  0.30276000  0.78075000  1.0
  C  C29  1  0.02230000  0.74509000  0.71922000  1.0
  C  C30  1  0.47352000  0.69724000  0.21924000  1.0
  C  C31  1  0.97771000  0.25491000  0.28079000  1.0
  C  C32  1  0.58234000  0.53749000  0.80762000  1.0
  C  C33  1  0.23035000  0.77427000  0.69266000  1.0
  C  C34  1  0.41766000  0.46251000  0.19236000  1.0
  C  C35  1  0.76966000  0.22574000  0.30735000  1.0
  C  C36  1  0.47068000  0.53705000  0.84037000  1.0
  C  C37  1  0.19728000  0.62985000  0.65997000  1.0
  C  C38  1  0.52931000  0.46294000  0.15961000  1.0
  C  C39  1  0.80272000  0.37015000  0.34004000  1.0
  C  C40  1  0.38712000  0.41015000  0.83842000  1.0
  C  C41  1  0.07212000  0.54809000  0.66155000  1.0
  C  C42  1  0.61287000  0.58984000  0.16155000  1.0
  C  C43  1  0.92789000  0.45191000  0.33845000  1.0
  C  C44  1  0.26264000  0.39576000  0.87274000  1.0
  C  C45  1  0.02321000  0.38923000  0.62702000  1.0
  C  C46  1  0.73735000  0.60424000  0.12724000  1.0
  C  C47  1  0.97679000  0.61075000  0.37297000  1.0
  C  C48  1  0.68173000  0.66535000  0.80234000  1.0
  C  C49  1  0.36353000  0.87907000  0.69809000  1.0
  C  C50  1  0.31827000  0.33467000  0.19767000  1.0
  C  C51  1  0.63647000  0.12092000  0.30192000  1.0
  C  C52  1  0.93712000  0.98231000  0.51725000  1.0
  C  C53  1  0.96516000  0.41985000  0.98272000  1.0
  C  C54  1  0.06287000  0.01768000  0.48274000  1.0
  C  C55  1  0.03486000  0.58016000  0.01729000  1.0
  N  N56  1  0.41463000  0.29338000  0.80850000  1.0
  N  N57  1  0.98518000  0.60546000  0.69135000  1.0
  N  N58  1  0.58536000  0.70661000  0.19149000  1.0
  N  N59  1  0.01483000  0.39454000  0.30866000  1.0
  N  N60  1  0.60962000  0.42001000  0.77767000  1.0
  N  N61  1  0.14265000  0.83139000  0.72239000  1.0
  N  N62  1  0.39038000  0.57998000  0.22232000  1.0
  N  N63  1  0.85735000  0.16861000  0.27762000  1.0
  O  O64  1  0.19145000  0.26770000  0.85683000  1.0
  O  O65  1  0.91103000  0.33403000  0.64293000  1.0
  O  O66  1  0.80855000  0.73230000  0.14315000  1.0
  O  O67  1  0.08896000  0.66595000  0.35707000  1.0
  O  O68  1  0.24130000  0.50371000  0.91395000  1.0
  O  O69  1  0.08980000  0.32660000  0.58569000  1.0
  O  O70  1  0.75869000  0.49629000  0.08604000  1.0
  O  O71  1  0.91020000  0.67338000  0.41430000  1.0
  O  O72  1  0.75593000  0.63805000  0.74548000  1.0
  O  O73  1  0.39272000  0.01011000  0.75453000  1.0
  O  O74  1  0.24409000  0.36196000  0.25453000  1.0
  O  O75  1  0.60729000  0.98989000  0.24547000  1.0
  O  O76  1  0.68520000  0.78719000  0.85271000  1.0
  O  O77  1  0.43540000  0.83230000  0.64817000  1.0
  O  O78  1  0.31481000  0.21281000  0.14731000  1.0
  O  O79  1  0.56460000  0.16770000  0.35184000  1.0
  O  O80  1  0.97603000  0.99847000  0.63612000  1.0
  O  O81  1  0.86271000  0.33981000  0.86375000  1.0
  O  O82  1  0.02397000  0.00152000  0.36389000  1.0
  O  O83  1  0.13730000  0.66021000  0.13625000  1.0
  O  O84  1  0.80569000  0.94065000  0.42330000  1.0
  O  O85  1  0.01726000  0.38245000  0.07674000  1.0
  O  O86  1  0.19431000  0.05935000  0.57670000  1.0
  O  O87  1  0.98275000  0.61757000  0.92326000  1.0
  O  O88  1  0.38514000  0.11203000  0.97392000  1.0
  O  O89  1  0.63822000  0.41126000  0.52608000  1.0
  O  O90  1  0.61485000  0.88798000  0.02608000  1.0
  O  O91  1  0.36178000  0.58875000  0.47392000  1.0
  O  O92  1  0.08478000  0.03226000  0.88842000  1.0
  O  O93  1  0.64385000  0.19600000  0.61094000  1.0
  O  O94  1  0.91521000  0.96775000  0.11159000  1.0
  O  O95  1  0.35615000  0.80400000  0.38906000  1.0
