# generated using pymatgen
data_CdH18C28(NO)4
_symmetry_space_group_name_H-M   'P 1'
_cell_length_a   10.46980000
_cell_length_b   11.52000000
_cell_length_c   12.06970000
_cell_angle_alpha   61.76270000
_cell_angle_beta   71.63600000
_cell_angle_gamma   65.63510000
_symmetry_Int_Tables_number   1
_chemical_formula_structural   CdH18C28(NO)4
_chemical_formula_sum   'Cd2 H36 C56 N8 O8'
_cell_volume   1155.18114392
_cell_formula_units_Z   2
loop_
 _symmetry_equiv_pos_site_id
 _symmetry_equiv_pos_as_xyz
  1  'x, y, z'
loop_
 _atom_site_type_symbol
 _atom_site_label
 _atom_site_symmetry_multiplicity
 _atom_site_fract_x
 _atom_site_fract_y
 _atom_site_fract_z
 _atom_site_occupancy
  Cd  Cd0  1  0.65355000  0.38028000  0.11296000  1.0
  Cd  Cd1  1  0.34645000  0.61972000  0.88704000  1.0
  H  H2  1  0.95781000  0.10562000  0.44259000  1.0
  H  H3  1  0.04219000  0.89438000  0.55742000  1.0
  H  H4  1  0.13466000  0.38741000  0.10197000  1.0
  H  H5  1  0.86534000  0.61259000  0.89803000  1.0
  H  H6  1  0.36630000  0.12990000  0.41986000  1.0
  H  H7  1  0.63370000  0.87011000  0.58014000  1.0
  H  H8  1  0.84459000  0.02036000  0.21526000  1.0
  H  H9  1  0.15541000  0.97964000  0.78473000  1.0
  H  H10  1  0.87029000  0.63597000  0.21450000  1.0
  H  H11  1  0.12971000  0.36403000  0.78550000  1.0
  H  H12  1  0.14391000  0.51427000  0.50421000  1.0
  H  H13  1  0.85609000  0.48573000  0.49579000  1.0
  H  H14  1  0.59471000  0.05617000  0.30723000  1.0
  H  H15  1  0.40529000  0.94383000  0.69276000  1.0
  H  H16  1  0.73667000  0.60882000  0.12796000  1.0
  H  H17  1  0.26333000  0.39118000  0.87204000  1.0
  H  H18  1  0.39332000  0.74064000  0.49024000  1.0
  H  H19  1  0.60668000  0.25937000  0.50976000  1.0
  H  H20  1  0.47201000  0.89752000  0.33670000  1.0
  H  H21  1  0.52799000  0.10249000  0.66330000  1.0
  H  H22  1  0.45746000  0.80987000  0.98226000  1.0
  H  H23  1  0.54254000  0.19013000  0.01774000  1.0
  H  H24  1  0.17237000  0.02391000  0.54331000  1.0
  H  H25  1  0.82763000  0.97609000  0.45670000  1.0
  H  H26  1  0.24199000  0.02778000  0.23212000  1.0
  H  H27  1  0.75801000  0.97222000  0.76788000  1.0
  H  H28  1  0.02611000  0.96828000  0.27486000  1.0
  H  H29  1  0.97389000  0.03172000  0.72514000  1.0
  H  H30  1  0.03251000  0.68139000  0.05110000  1.0
  H  H31  1  0.96749000  0.31861000  0.94890000  1.0
  H  H32  1  0.31750000  0.44188000  0.33359000  1.0
  H  H33  1  0.68250000  0.55812000  0.66641000  1.0
  H  H34  1  0.45346000  0.95321000  0.08910000  1.0
  H  H35  1  0.54655000  0.04679000  0.91090000  1.0
  H  H36  1  0.18601000  0.65819000  0.58105000  1.0
  H  H37  1  0.81399000  0.34181000  0.41895000  1.0
  C  C38  1  0.87513000  0.82560000  0.20730000  1.0
  C  C39  1  0.12487000  0.17440000  0.79270000  1.0
  C  C40  1  0.38372000  0.32112000  0.17995000  1.0
  C  C41  1  0.61628000  0.67888000  0.82005000  1.0
  C  C42  1  0.04505000  0.14799000  0.39124000  1.0
  C  C43  1  0.95494000  0.85201000  0.60876000  1.0
  C  C44  1  0.14308000  0.30794000  0.19836000  1.0
  C  C45  1  0.85692000  0.69206000  0.80164000  1.0
  C  C46  1  0.90594000  0.29130000  0.20898000  1.0
  C  C47  1  0.09406000  0.70869000  0.79102000  1.0
  C  C48  1  0.03398000  0.24928000  0.26706000  1.0
  C  C49  1  0.96602000  0.75072000  0.73294000  1.0
  C  C50  1  0.26345000  0.26314000  0.25343000  1.0
  C  C51  1  0.73655000  0.73686000  0.74657000  1.0
  C  C52  1  0.27287000  0.16169000  0.37806000  1.0
  C  C53  1  0.72712000  0.83831000  0.62194000  1.0
  C  C54  1  0.11904000  0.85711000  0.14842000  1.0
  C  C55  1  0.88097000  0.14289000  0.85158000  1.0
  C  C56  1  0.79772000  0.94247000  0.23613000  1.0
  C  C57  1  0.20228000  0.05753000  0.76386000  1.0
  C  C58  1  0.44962000  0.55673000  0.31168000  1.0
  C  C59  1  0.55038000  0.44327000  0.68832000  1.0
  C  C60  1  0.80896000  0.73089000  0.23034000  1.0
  C  C61  1  0.19104000  0.26911000  0.76966000  1.0
  C  C62  1  0.23701000  0.54920000  0.46064000  1.0
  C  C63  1  0.76299000  0.45080000  0.53936000  1.0
  C  C64  1  0.66297000  0.75869000  0.27364000  1.0
  C  C65  1  0.33703000  0.24131000  0.72635000  1.0
  C  C66  1  0.24185000  0.81151000  0.06769000  1.0
  C  C67  1  0.75815000  0.18849000  0.93231000  1.0
  C  C68  1  0.46984000  0.64381000  0.35318000  1.0
  C  C69  1  0.53016000  0.35619000  0.64682000  1.0
  C  C70  1  0.65477000  0.96330000  0.28751000  1.0
  C  C71  1  0.34523000  0.03670000  0.71249000  1.0
  C  C72  1  0.64228000  0.60391000  0.19855000  1.0
  C  C73  1  0.35772000  0.39609000  0.80145000  1.0
  C  C74  1  0.37688000  0.67991000  0.45217000  1.0
  C  C75  1  0.62312000  0.32009000  0.54783000  1.0
  C  C76  1  0.58557000  0.87428000  0.30445000  1.0
  C  C77  1  0.41442000  0.12573000  0.69555000  1.0
  C  C78  1  0.36357000  0.84665000  0.04330000  1.0
  C  C79  1  0.63643000  0.15335000  0.95670000  1.0
  C  C80  1  0.16387000  0.10391000  0.44708000  1.0
  C  C81  1  0.83613000  0.89609000  0.55292000  1.0
  C  C82  1  0.23948000  0.96830000  0.18511000  1.0
  C  C83  1  0.76052000  0.03170000  0.81489000  1.0
  C  C84  1  0.11693000  0.93494000  0.20985000  1.0
  C  C85  1  0.88307000  0.06506000  0.79015000  1.0
  C  C86  1  0.08475000  0.73096000  0.07259000  1.0
  C  C87  1  0.91525000  0.26904000  0.92740000  1.0
  C  C88  1  0.33200000  0.50909000  0.36515000  1.0
  C  C89  1  0.66800000  0.49091000  0.63485000  1.0
  C  C90  1  0.35997000  0.92604000  0.10291000  1.0
  C  C91  1  0.64003000  0.07396000  0.89709000  1.0
  C  C92  1  0.26034000  0.63152000  0.50414000  1.0
  C  C93  1  0.73966000  0.36848000  0.49586000  1.0
  N  N94  1  0.21618000  0.73277000  0.02315000  1.0
  N  N95  1  0.78382000  0.26722000  0.97685000  1.0
  N  N96  1  0.01960000  0.80365000  0.14946000  1.0
  N  N97  1  0.98040000  0.19635000  0.85054000  1.0
  N  N98  1  0.56026000  0.53353000  0.21617000  1.0
  N  N99  1  0.43974000  0.46646000  0.78383000  1.0
  N  N100  1  0.59511000  0.67202000  0.27852000  1.0
  N  N101  1  0.40488000  0.32799000  0.72148000  1.0
  O  O102  1  0.88495000  0.39950000  0.10577000  1.0
  O  O103  1  0.11505000  0.60050000  0.89423000  1.0
  O  O104  1  0.48810000  0.27662000  0.23881000  1.0
  O  O105  1  0.51190000  0.72338000  0.76119000  1.0
  O  O106  1  0.82291000  0.21747000  0.26589000  1.0
  O  O107  1  0.17710000  0.78253000  0.73412000  1.0
  O  O108  1  0.37921000  0.40695000  0.06544000  1.0
  O  O109  1  0.62079000  0.59306000  0.93456000  1.0
