# generated using pymatgen
data_ZnH3C11Br2N(O2F)2
_symmetry_space_group_name_H-M   'P 1'
_cell_length_a   9.83721000
_cell_length_b   11.00740000
_cell_length_c   11.01880000
_cell_angle_alpha   90.11780000
_cell_angle_beta   90.66700000
_cell_angle_gamma   90.54790000
_symmetry_Int_Tables_number   1
_chemical_formula_structural   ZnH3C11Br2N(O2F)2
_chemical_formula_sum   'Zn2 H6 C22 Br4 N2 O8 F4'
_cell_volume   1193.00066433
_cell_formula_units_Z   2
loop_
 _symmetry_equiv_pos_site_id
 _symmetry_equiv_pos_as_xyz
  1  'x, y, z'
loop_
 _atom_site_type_symbol
 _atom_site_label
 _atom_site_symmetry_multiplicity
 _atom_site_fract_x
 _atom_site_fract_y
 _atom_site_fract_z
 _atom_site_occupancy
  Zn  Zn0  1  0.35564000  0.50121000  0.49793000  1.0
  Zn  Zn1  1  0.64228000  0.50342000  0.50195000  1.0
  H  H2  1  0.73454000  0.89002000  0.49984000  1.0
  H  H3  1  0.73653000  0.11568000  0.51448000  1.0
  H  H4  1  0.67204000  0.56687000  0.12100000  1.0
  H  H5  1  0.67186000  0.58188000  0.89352000  1.0
  H  H6  1  0.13704000  0.43709000  0.67731000  1.0
  H  H7  1  0.13298000  0.56436000  0.32061000  1.0
  C  C8  1  0.47558000  0.48150000  0.26432000  1.0
  C  C9  1  0.47726000  0.50994000  0.73557000  1.0
  C  C10  1  0.93632000  0.46710000  0.59610000  1.0
  C  C11  1  0.93435000  0.54149000  0.40496000  1.0
  C  C12  1  0.07782000  0.46499000  0.59823000  1.0
  C  C13  1  0.07559000  0.53814000  0.40038000  1.0
  C  C14  1  0.51974000  0.73613000  0.48634000  1.0
  C  C15  1  0.52398000  0.26907000  0.51514000  1.0
  C  C16  1  0.39800000  0.93926000  0.49352000  1.0
  C  C17  1  0.39919000  0.06573000  0.50293000  1.0
  C  C18  1  0.51761000  0.87163000  0.49225000  1.0
  C  C19  1  0.51994000  0.13357000  0.51029000  1.0
  C  C20  1  0.63902000  0.93934000  0.50038000  1.0
  C  C21  1  0.64019000  0.06614000  0.50890000  1.0
  C  C22  1  0.24706000  0.07689000  0.50081000  1.0
  C  C23  1  0.24577000  0.92857000  0.48628000  1.0
  C  C24  1  0.58705000  0.53202000  0.06669000  1.0
  C  C25  1  0.58685000  0.54045000  0.94108000  1.0
  C  C26  1  0.47658000  0.49684000  0.87102000  1.0
  C  C27  1  0.47685000  0.47980000  0.12818000  1.0
  C  C28  1  0.36846000  0.44175000  0.93204000  1.0
  C  C29  1  0.36864000  0.43314000  0.05852000  1.0
  Br  Br30  1  0.17166000  0.13887000  0.65238000  1.0
  Br  Br31  1  0.17623000  0.86647000  0.33043000  1.0
  Br  Br32  1  0.17057000  0.16937000  0.36586000  1.0
  Br  Br33  1  0.15921000  0.83630000  0.61610000  1.0
  N  N34  1  0.14400000  0.50027000  0.49870000  1.0
  N  N35  1  0.86394000  0.50556000  0.50107000  1.0
  O  O36  1  0.35966000  0.48675000  0.31416000  1.0
  O  O37  1  0.36214000  0.51442000  0.68192000  1.0
  O  O38  1  0.59014000  0.48139000  0.31867000  1.0
  O  O39  1  0.59267000  0.51656000  0.68537000  1.0
  O  O40  1  0.40507000  0.68252000  0.48205000  1.0
  O  O41  1  0.40971000  0.32175000  0.51528000  1.0
  O  O42  1  0.63618000  0.68607000  0.48762000  1.0
  O  O43  1  0.64078000  0.32013000  0.51711000  1.0
  F  F44  1  0.26030000  0.39171000  0.87217000  1.0
  F  F45  1  0.26106000  0.37615000  0.10963000  1.0
  F  F46  1  0.86733000  0.42991000  0.69257000  1.0
  F  F47  1  0.86348000  0.58243000  0.30994000  1.0
