# generated using pymatgen
data_SnH17C11N5O3
_symmetry_space_group_name_H-M   'P 1'
_cell_length_a   10.84130000
_cell_length_b   11.89200000
_cell_length_c   12.12500000
_cell_angle_alpha   107.63900000
_cell_angle_beta   90.00000000
_cell_angle_gamma   90.00000000
_symmetry_Int_Tables_number   1
_chemical_formula_structural   SnH17C11N5O3
_chemical_formula_sum   'Sn4 H68 C44 N20 O12'
_cell_volume   1489.71745562
_cell_formula_units_Z   4
loop_
 _symmetry_equiv_pos_site_id
 _symmetry_equiv_pos_as_xyz
  1  'x, y, z'
loop_
 _atom_site_type_symbol
 _atom_site_label
 _atom_site_symmetry_multiplicity
 _atom_site_fract_x
 _atom_site_fract_y
 _atom_site_fract_z
 _atom_site_occupancy
  Sn  Sn0  1  0.91172000  0.04741000  0.30628000  1.0
  Sn  Sn1  1  0.41173000  0.95258000  0.19372000  1.0
  Sn  Sn2  1  0.08828000  0.95258000  0.69373000  1.0
  Sn  Sn3  1  0.58827000  0.04741000  0.80628000  1.0
  H  H4  1  0.10478000  0.51814000  0.26035000  1.0
  H  H5  1  0.60478000  0.48186000  0.23965000  1.0
  H  H6  1  0.89522000  0.48186000  0.73965000  1.0
  H  H7  1  0.39522000  0.51815000  0.76035000  1.0
  H  H8  1  0.20939000  0.66654000  0.06372000  1.0
  H  H9  1  0.70939000  0.33346000  0.43629000  1.0
  H  H10  1  0.79061000  0.33346000  0.93629000  1.0
  H  H11  1  0.29061000  0.66654000  0.56371000  1.0
  H  H12  1  0.25898000  0.59385000  0.16201000  1.0
  H  H13  1  0.75898000  0.40615000  0.33799000  1.0
  H  H14  1  0.74102000  0.40615000  0.83799000  1.0
  H  H15  1  0.24102000  0.59385000  0.66201000  1.0
  H  H16  1  0.88015000  0.85218000  0.06772000  1.0
  H  H17  1  0.38014000  0.14783000  0.43228000  1.0
  H  H18  1  0.11986000  0.14782000  0.93228000  1.0
  H  H19  1  0.61986000  0.85217000  0.56771000  1.0
  H  H20  1  0.79027000  0.89470000  0.96507000  1.0
  H  H21  1  0.29026000  0.10530000  0.53492000  1.0
  H  H22  1  0.20974000  0.10530000  0.03493000  1.0
  H  H23  1  0.70974000  0.89470000  0.46507000  1.0
  H  H24  1  0.66874000  0.70646000  0.92382000  1.0
  H  H25  1  0.16874000  0.29354000  0.57618000  1.0
  H  H26  1  0.33126000  0.29354000  0.07618000  1.0
  H  H27  1  0.83127000  0.70645000  0.42382000  1.0
  H  H28  1  0.82920000  0.68092000  0.89479000  1.0
  H  H29  1  0.32920000  0.31907000  0.60521000  1.0
  H  H30  1  0.17080000  0.31908000  0.10521000  1.0
  H  H31  1  0.67080000  0.68092000  0.39479000  1.0
  H  H32  1  0.57068000  0.60663000  0.06081000  1.0
  H  H33  1  0.07068000  0.39336000  0.43919000  1.0
  H  H34  1  0.42932000  0.39337000  0.93920000  1.0
  H  H35  1  0.92932000  0.60663000  0.56081000  1.0
  H  H36  1  0.98665000  0.05651000  0.09550000  1.0
  H  H37  1  0.48665000  0.94349000  0.40449000  1.0
  H  H38  1  0.01336000  0.94350000  0.90450000  1.0
  H  H39  1  0.51336000  0.05650000  0.59551000  1.0
  H  H40  1  0.02276000  0.19260000  0.20397000  1.0
  H  H41  1  0.52276000  0.80739000  0.29602000  1.0
  H  H42  1  0.97725000  0.80740000  0.79603000  1.0
  H  H43  1  0.47724000  0.19260000  0.70398000  1.0
  H  H44  1  0.86883000  0.16509000  0.14962000  1.0
  H  H45  1  0.36882000  0.83491000  0.35037000  1.0
  H  H46  1  0.13118000  0.83491000  0.85038000  1.0
  H  H47  1  0.63118000  0.16509000  0.64963000  1.0
  H  H48  1  0.99128000  0.87722000  0.39205000  1.0
  H  H49  1  0.49127000  0.12278000  0.10795000  1.0
  H  H50  1  0.00872000  0.12277000  0.60794000  1.0
  H  H51  1  0.50872000  0.87722000  0.89205000  1.0
  H  H52  1  0.04307000  0.84346000  0.24528000  1.0
  H  H53  1  0.54307000  0.15655000  0.25472000  1.0
  H  H54  1  0.95692000  0.15654000  0.75472000  1.0
  H  H55  1  0.45692000  0.84346000  0.74528000  1.0
  H  H56  1  0.88709000  0.81293000  0.27592000  1.0
  H  H57  1  0.38708000  0.18707000  0.22407000  1.0
  H  H58  1  0.11291000  0.18707000  0.72407000  1.0
  H  H59  1  0.61291000  0.81293000  0.77593000  1.0
  H  H60  1  0.70704000  0.14842000  0.42577000  1.0
  H  H61  1  0.20705000  0.85158000  0.07423000  1.0
  H  H62  1  0.29296000  0.85158000  0.57423000  1.0
  H  H63  1  0.79295000  0.14842000  0.92577000  1.0
  H  H64  1  0.84246000  0.23029000  0.49171000  1.0
  H  H65  1  0.34246000  0.76971000  0.00829000  1.0
  H  H66  1  0.15754000  0.76971000  0.50829000  1.0
  H  H67  1  0.65753000  0.23029000  0.99171000  1.0
  H  H68  1  0.80494000  0.09546000  0.51776000  1.0
  H  H69  1  0.30494000  0.90454000  0.98224000  1.0
  H  H70  1  0.19506000  0.90454000  0.48224000  1.0
  H  H71  1  0.69506000  0.09546000  0.01777000  1.0
  C  C72  1  0.86939000  0.61402000  0.09023000  1.0
  C  C73  1  0.36939000  0.38598000  0.40977000  1.0
  C  C74  1  0.13060000  0.38598000  0.90977000  1.0
  C  C75  1  0.63061000  0.61403000  0.59023000  1.0
  C  C76  1  0.82821000  0.55031000  0.16320000  1.0
  C  C77  1  0.32821000  0.44970000  0.33680000  1.0
  C  C78  1  0.17179000  0.44970000  0.83680000  1.0
  C  C79  1  0.67179000  0.55030000  0.66320000  1.0
  C  C80  1  0.06789000  0.60549000  0.13470000  1.0
  C  C81  1  0.56788000  0.39451000  0.36531000  1.0
  C  C82  1  0.93211000  0.39451000  0.86531000  1.0
  C  C83  1  0.43212000  0.60549000  0.63470000  1.0
  C  C84  1  0.78836000  0.84469000  0.02811000  1.0
  C  C85  1  0.28836000  0.15532000  0.47189000  1.0
  C  C86  1  0.21164000  0.15532000  0.97189000  1.0
  C  C87  1  0.71165000  0.84468000  0.52811000  1.0
  C  C88  1  0.91683000  0.51190000  0.23047000  1.0
  C  C89  1  0.41682000  0.48810000  0.26953000  1.0
  C  C90  1  0.08317000  0.48810000  0.76953000  1.0
  C  C91  1  0.58318000  0.51191000  0.73047000  1.0
  C  C92  1  0.76051000  0.71557000  0.96323000  1.0
  C  C93  1  0.26051000  0.28443000  0.53677000  1.0
  C  C94  1  0.23949000  0.28443000  0.03677000  1.0
  C  C95  1  0.73949000  0.71557000  0.46323000  1.0
  C  C96  1  0.66548000  0.59659000  0.08479000  1.0
  C  C97  1  0.16549000  0.40342000  0.41521000  1.0
  C  C98  1  0.33451000  0.40342000  0.91521000  1.0
  C  C99  1  0.83452000  0.59658000  0.58480000  1.0
  C  C100  1  0.95212000  0.12467000  0.17192000  1.0
  C  C101  1  0.45212000  0.87533000  0.32807000  1.0
  C  C102  1  0.04788000  0.87534000  0.82808000  1.0
  C  C103  1  0.54788000  0.12466000  0.67193000  1.0
  C  C104  1  0.96494000  0.87347000  0.30382000  1.0
  C  C105  1  0.46494000  0.12653000  0.19617000  1.0
  C  C106  1  0.03506000  0.12653000  0.69617000  1.0
  C  C107  1  0.53505000  0.87347000  0.80383000  1.0
  C  C108  1  0.80259000  0.14238000  0.45272000  1.0
  C  C109  1  0.30259000  0.85762000  0.04727000  1.0
  C  C110  1  0.19741000  0.85762000  0.54727000  1.0
  C  C111  1  0.69741000  0.14238000  0.95273000  1.0
  C  C112  1  0.69098000  0.90112000  0.11851000  1.0
  C  C113  1  0.19098000  0.09888000  0.38149000  1.0
  C  C114  1  0.30902000  0.09888000  0.88149000  1.0
  C  C115  1  0.80902000  0.90112000  0.61851000  1.0
  N  N116  1  0.98554000  0.64239000  0.07102000  1.0
  N  N117  1  0.48553000  0.35761000  0.42898000  1.0
  N  N118  1  0.01446000  0.35761000  0.92898000  1.0
  N  N119  1  0.51446000  0.64239000  0.57102000  1.0
  N  N120  1  0.03634000  0.54516000  0.21103000  1.0
  N  N121  1  0.53634000  0.45484000  0.28897000  1.0
  N  N122  1  0.96366000  0.45484000  0.78897000  1.0
  N  N123  1  0.46366000  0.54516000  0.71103000  1.0
  N  N124  1  0.76385000  0.64312000  0.04096000  1.0
  N  N125  1  0.26385000  0.35688000  0.45904000  1.0
  N  N126  1  0.23615000  0.35688000  0.95904000  1.0
  N  N127  1  0.73615000  0.64312000  0.54096000  1.0
  N  N128  1  0.18791000  0.63072000  0.12711000  1.0
  N  N129  1  0.68791000  0.36928000  0.37289000  1.0
  N  N130  1  0.81208000  0.36928000  0.87289000  1.0
  N  N131  1  0.31209000  0.63072000  0.62711000  1.0
  N  N132  1  0.70106000  0.54004000  0.15799000  1.0
  N  N133  1  0.20106000  0.45996000  0.34201000  1.0
  N  N134  1  0.29894000  0.45996000  0.84201000  1.0
  N  N135  1  0.79894000  0.54004000  0.65799000  1.0
  O  O136  1  0.89884000  0.45675000  0.30253000  1.0
  O  O137  1  0.39885000  0.54325000  0.19748000  1.0
  O  O138  1  0.10115000  0.54324000  0.69747000  1.0
  O  O139  1  0.60116000  0.45675000  0.80252000  1.0
  O  O140  1  0.57934000  0.87137000  0.08861000  1.0
  O  O141  1  0.07933000  0.12863000  0.41138000  1.0
  O  O142  1  0.42067000  0.12863000  0.91139000  1.0
  O  O143  1  0.92067000  0.87137000  0.58862000  1.0
  O  O144  1  0.72030000  0.97373000  0.21515000  1.0
  O  O145  1  0.22030000  0.02627000  0.28484000  1.0
  O  O146  1  0.27970000  0.02627000  0.78484000  1.0
  O  O147  1  0.77970000  0.97373000  0.71515000  1.0
