# generated using pymatgen
data_ZnH20C28(N3O2)2
_symmetry_space_group_name_H-M   'P 1'
_cell_length_a   13.85340005
_cell_length_b   13.85340000
_cell_length_c   24.10010000
_cell_angle_alpha   76.88400000
_cell_angle_beta   76.88294887
_cell_angle_gamma   61.57800035
_symmetry_Int_Tables_number   1
_chemical_formula_structural   ZnH20C28(N3O2)2
_chemical_formula_sum   'Zn4 H80 C112 N24 O16'
_cell_volume   3923.22143021
_cell_formula_units_Z   4
loop_
 _symmetry_equiv_pos_site_id
 _symmetry_equiv_pos_as_xyz
  1  'x, y, z'
loop_
 _atom_site_type_symbol
 _atom_site_label
 _atom_site_symmetry_multiplicity
 _atom_site_fract_x
 _atom_site_fract_y
 _atom_site_fract_z
 _atom_site_occupancy
  Zn  Zn0  1  0.03153000  0.26764000  0.88897000  1.0
  Zn  Zn1  1  0.73235000  0.96850000  0.61103000  1.0
  Zn  Zn2  1  0.96848000  0.73236000  0.11102000  1.0
  Zn  Zn3  1  0.26765000  0.03151000  0.38897000  1.0
  H  H4  1  0.76372000  0.03301000  0.86306000  1.0
  H  H5  1  0.96699000  0.23628000  0.63694000  1.0
  H  H6  1  0.23627000  0.96699000  0.13693000  1.0
  H  H7  1  0.03301000  0.76373000  0.36306000  1.0
  H  H8  1  0.86146000  0.71463000  0.81439000  1.0
  H  H9  1  0.28536000  0.13855000  0.68560000  1.0
  H  H10  1  0.13853000  0.28536000  0.18561000  1.0
  H  H11  1  0.71464000  0.86143000  0.31441000  1.0
  H  H12  1  0.95704000  0.73479000  0.96865000  1.0
  H  H13  1  0.26520000  0.04298000  0.53133000  1.0
  H  H14  1  0.04297000  0.26521000  0.03134000  1.0
  H  H15  1  0.73481000  0.95702000  0.46867000  1.0
  H  H16  1  0.84434000  0.81897000  0.72278000  1.0
  H  H17  1  0.18105000  0.15566000  0.77721000  1.0
  H  H18  1  0.15563000  0.18103000  0.27722000  1.0
  H  H19  1  0.81895000  0.84435000  0.22278000  1.0
  H  H20  1  0.56550000  0.12987000  0.70724000  1.0
  H  H21  1  0.87014000  0.43448000  0.79277000  1.0
  H  H22  1  0.43447000  0.87014000  0.29277000  1.0
  H  H23  1  0.12986000  0.56553000  0.20722000  1.0
  H  H24  1  0.61231000  0.08049000  0.81946000  1.0
  H  H25  1  0.91951000  0.38766000  0.68055000  1.0
  H  H26  1  0.38767000  0.91949000  0.18055000  1.0
  H  H27  1  0.08049000  0.61233000  0.31945000  1.0
  H  H28  1  0.88335000  0.54129000  0.86655000  1.0
  H  H29  1  0.45872000  0.11663000  0.63346000  1.0
  H  H30  1  0.11664000  0.45871000  0.13346000  1.0
  H  H31  1  0.54129000  0.88337000  0.36654000  1.0
  H  H32  1  0.17587000  0.35322000  0.94191000  1.0
  H  H33  1  0.64680000  0.82411000  0.55808000  1.0
  H  H34  1  0.82413000  0.64679000  0.05808000  1.0
  H  H35  1  0.35321000  0.17588000  0.44192000  1.0
  H  H36  1  0.10516000  0.57775000  0.94665000  1.0
  H  H37  1  0.42227000  0.89483000  0.55334000  1.0
  H  H38  1  0.89485000  0.42226000  0.05334000  1.0
  H  H39  1  0.57774000  0.10515000  0.44667000  1.0
  H  H40  1  0.78190000  0.02993000  0.96789000  1.0
  H  H41  1  0.97006000  0.21810000  0.53210000  1.0
  H  H42  1  0.21810000  0.97006000  0.03210000  1.0
  H  H43  1  0.02994000  0.78191000  0.46790000  1.0
  H  H44  1  0.88056000  0.90652000  0.00275000  1.0
  H  H45  1  0.09349000  0.11942000  0.49725000  1.0
  H  H46  1  0.11942000  0.09348000  0.99725000  1.0
  H  H47  1  0.90651000  0.88059000  0.50275000  1.0
  H  H48  1  0.84242000  0.17494000  0.92773000  1.0
  H  H49  1  0.82507000  0.15757000  0.57227000  1.0
  H  H50  1  0.15758000  0.82505000  0.07227000  1.0
  H  H51  1  0.17493000  0.84243000  0.42772000  1.0
  H  H52  1  0.18901000  0.99111000  0.89305000  1.0
  H  H53  1  0.00887000  0.81099000  0.60694000  1.0
  H  H54  1  0.81098000  0.00888000  0.10694000  1.0
  H  H55  1  0.99111000  0.18903000  0.39306000  1.0
  H  H56  1  0.09519000  0.84436000  0.93789000  1.0
  H  H57  1  0.15564000  0.90479000  0.56211000  1.0
  H  H58  1  0.90480000  0.15564000  0.06210000  1.0
  H  H59  1  0.84435000  0.09522000  0.43789000  1.0
  H  H60  1  0.65794000  0.45556000  0.90180000  1.0
  H  H61  1  0.54443000  0.34207000  0.59821000  1.0
  H  H62  1  0.34207000  0.54443000  0.09822000  1.0
  H  H63  1  0.45557000  0.65793000  0.40179000  1.0
  H  H64  1  0.45917000  0.55710000  0.88610000  1.0
  H  H65  1  0.44288000  0.54087000  0.61390000  1.0
  H  H66  1  0.54087000  0.44288000  0.11391000  1.0
  H  H67  1  0.55712000  0.45915000  0.38609000  1.0
  H  H68  1  0.25885000  0.64086000  0.92661000  1.0
  H  H69  1  0.35915000  0.74117000  0.57339000  1.0
  H  H70  1  0.74118000  0.35914000  0.07339000  1.0
  H  H71  1  0.64085000  0.25884000  0.42661000  1.0
  H  H72  1  0.28433000  0.16616000  0.99260000  1.0
  H  H73  1  0.83385000  0.71566000  0.50740000  1.0
  H  H74  1  0.71565000  0.83385000  0.00740000  1.0
  H  H75  1  0.16616000  0.28433000  0.49261000  1.0
  H  H76  1  0.36553000  0.14554000  0.07945000  1.0
  H  H77  1  0.85449000  0.63445000  0.42056000  1.0
  H  H78  1  0.63446000  0.85446000  0.92055000  1.0
  H  H79  1  0.14552000  0.36556000  0.57946000  1.0
  H  H80  1  0.52395000  0.04506000  0.13709000  1.0
  H  H81  1  0.95496000  0.47602000  0.36292000  1.0
  H  H82  1  0.47605000  0.95494000  0.86291000  1.0
  H  H83  1  0.04503000  0.52398000  0.63709000  1.0
  C  C84  1  0.80478000  0.94283000  0.87211000  1.0
  C  C85  1  0.05718000  0.19520000  0.62788000  1.0
  C  C86  1  0.19521000  0.05717000  0.12788000  1.0
  C  C87  1  0.94283000  0.80479000  0.37212000  1.0
  C  C88  1  0.80397000  0.87920000  0.83498000  1.0
  C  C89  1  0.12080000  0.19602000  0.66501000  1.0
  C  C90  1  0.19601000  0.12080000  0.16502000  1.0
  C  C91  1  0.87921000  0.80398000  0.33498000  1.0
  C  C92  1  0.86034000  0.76345000  0.84438000  1.0
  C  C93  1  0.23655000  0.13966000  0.65561000  1.0
  C  C94  1  0.13966000  0.23654000  0.15562000  1.0
  C  C95  1  0.76345000  0.86033000  0.34439000  1.0
  C  C96  1  0.91626000  0.71221000  0.89241000  1.0
  C  C97  1  0.28779000  0.08376000  0.60758000  1.0
  C  C98  1  0.08375000  0.28778000  0.10759000  1.0
  C  C99  1  0.71221000  0.91625000  0.39242000  1.0
  C  C100  1  0.91455000  0.77494000  0.93087000  1.0
  C  C101  1  0.22507000  0.08545000  0.56912000  1.0
  C  C102  1  0.08545000  0.22507000  0.06912000  1.0
  C  C103  1  0.77493000  0.91456000  0.43088000  1.0
  C  C104  1  0.85963000  0.89039000  0.92031000  1.0
  C  C105  1  0.10962000  0.14037000  0.57968000  1.0
  C  C106  1  0.14036000  0.10962000  0.07968000  1.0
  C  C107  1  0.89039000  0.85963000  0.42032000  1.0
  C  C108  1  0.77490000  0.89633000  0.73449000  1.0
  C  C109  1  0.10367000  0.22509000  0.76552000  1.0
  C  C110  1  0.22509000  0.10366000  0.26551000  1.0
  C  C111  1  0.89633000  0.77492000  0.23448000  1.0
  C  C112  1  0.63020000  0.05770000  0.72785000  1.0
  C  C113  1  0.94231000  0.36978000  0.77216000  1.0
  C  C114  1  0.36978000  0.94230000  0.27216000  1.0
  C  C115  1  0.05769000  0.63023000  0.22784000  1.0
  C  C116  1  0.65398000  0.03601000  0.78279000  1.0
  C  C117  1  0.96399000  0.34600000  0.71722000  1.0
  C  C118  1  0.34600000  0.96399000  0.21722000  1.0
  C  C119  1  0.03602000  0.65399000  0.28278000  1.0
  C  C120  1  0.95560000  0.51941000  0.88602000  1.0
  C  C121  1  0.48057000  0.04440000  0.61397000  1.0
  C  C122  1  0.04440000  0.48058000  0.11398000  1.0
  C  C123  1  0.51943000  0.95560000  0.38603000  1.0
  C  C124  1  0.10519000  0.42652000  0.92665000  1.0
  C  C125  1  0.57348000  0.89481000  0.57334000  1.0
  C  C126  1  0.89482000  0.57347000  0.07334000  1.0
  C  C127  1  0.42653000  0.10518000  0.42666000  1.0
  C  C128  1  0.07224000  0.53607000  0.92879000  1.0
  C  C129  1  0.46394000  0.92776000  0.57120000  1.0
  C  C130  1  0.92777000  0.46393000  0.07121000  1.0
  C  C131  1  0.53607000  0.07223000  0.42880000  1.0
  C  C132  1  0.86230000  0.95740000  0.96087000  1.0
  C  C133  1  0.04259000  0.13769000  0.53913000  1.0
  C  C134  1  0.13769000  0.04260000  0.03912000  1.0
  C  C135  1  0.95741000  0.86231000  0.46087000  1.0
  C  C136  1  0.92480000  0.10624000  0.92379000  1.0
  C  C137  1  0.89376000  0.07519000  0.57620000  1.0
  C  C138  1  0.07519000  0.89376000  0.07620000  1.0
  C  C139  1  0.10623000  0.92483000  0.42379000  1.0
  C  C140  1  0.10317000  0.00750000  0.90711000  1.0
  C  C141  1  0.99250000  0.89682000  0.59289000  1.0
  C  C142  1  0.89682000  0.99250000  0.09288000  1.0
  C  C143  1  0.00749000  0.10319000  0.40711000  1.0
  C  C144  1  0.05872000  0.93408000  0.92781000  1.0
  C  C145  1  0.06593000  0.94126000  0.57218000  1.0
  C  C146  1  0.94127000  0.06592000  0.07217000  1.0
  C  C147  1  0.93406000  0.05875000  0.42782000  1.0
  C  C148  1  0.83140000  0.35061000  0.96157000  1.0
  C  C149  1  0.64940000  0.16861000  0.53843000  1.0
  C  C150  1  0.16862000  0.64940000  0.03843000  1.0
  C  C151  1  0.35060000  0.83140000  0.46157000  1.0
  C  C152  1  0.71035000  0.40318000  0.98494000  1.0
  C  C153  1  0.59682000  0.28965000  0.51506000  1.0
  C  C154  1  0.28967000  0.59681000  0.01507000  1.0
  C  C155  1  0.40319000  0.71035000  0.48494000  1.0
  C  C156  1  0.63102000  0.45368000  0.94806000  1.0
  C  C157  1  0.54631000  0.36900000  0.55194000  1.0
  C  C158  1  0.36902000  0.54630000  0.05194000  1.0
  C  C159  1  0.45370000  0.63100000  0.44806000  1.0
  C  C160  1  0.51665000  0.50201000  0.96945000  1.0
  C  C161  1  0.49800000  0.48335000  0.53055000  1.0
  C  C162  1  0.48337000  0.49798000  0.03055000  1.0
  C  C163  1  0.50202000  0.51664000  0.46944000  1.0
  C  C164  1  0.43358000  0.55423000  0.93252000  1.0
  C  C165  1  0.44577000  0.56644000  0.56749000  1.0
  C  C166  1  0.56644000  0.44577000  0.06749000  1.0
  C  C167  1  0.55423000  0.43358000  0.43251000  1.0
  C  C168  1  0.32299000  0.60044000  0.95468000  1.0
  C  C169  1  0.39956000  0.67704000  0.54532000  1.0
  C  C170  1  0.67705000  0.39955000  0.04532000  1.0
  C  C171  1  0.60045000  0.32297000  0.45468000  1.0
  C  C172  1  0.27418000  0.12132000  0.89082000  1.0
  C  C173  1  0.87868000  0.72582000  0.60919000  1.0
  C  C174  1  0.72580000  0.87871000  0.10918000  1.0
  C  C175  1  0.12132000  0.27417000  0.39083000  1.0
  C  C176  1  0.37074000  0.06633000  0.92484000  1.0
  C  C177  1  0.93368000  0.62926000  0.57516000  1.0
  C  C178  1  0.62924000  0.93367000  0.07516000  1.0
  C  C179  1  0.06633000  0.37074000  0.42486000  1.0
  C  C180  1  0.36172000  0.09883000  0.97681000  1.0
  C  C181  1  0.90117000  0.63829000  0.52320000  1.0
  C  C182  1  0.63828000  0.90116000  0.02319000  1.0
  C  C183  1  0.09883000  0.36172000  0.47682000  1.0
  C  C184  1  0.44981000  0.04522000  0.01029000  1.0
  C  C185  1  0.95478000  0.55018000  0.48972000  1.0
  C  C186  1  0.55018000  0.95478000  0.98971000  1.0
  C  C187  1  0.04523000  0.44982000  0.51029000  1.0
  C  C188  1  0.44208000  0.07671000  0.06396000  1.0
  C  C189  1  0.92331000  0.55789000  0.43605000  1.0
  C  C190  1  0.55790000  0.92329000  0.93604000  1.0
  C  C191  1  0.07671000  0.44209000  0.56397000  1.0
  C  C192  1  0.52898000  0.02195000  0.09580000  1.0
  C  C193  1  0.97803000  0.47101000  0.40421000  1.0
  C  C194  1  0.47101000  0.97803000  0.90420000  1.0
  C  C195  1  0.02196000  0.52899000  0.59581000  1.0
  N  N196  1  0.70593000  0.97029000  0.69851000  1.0
  N  N197  1  0.02972000  0.29407000  0.80149000  1.0
  N  N198  1  0.29405000  0.02972000  0.30149000  1.0
  N  N199  1  0.97028000  0.70595000  0.19851000  1.0
  N  N200  1  0.74636000  0.93313000  0.78663000  1.0
  N  N201  1  0.06688000  0.25364000  0.71337000  1.0
  N  N202  1  0.25362000  0.06687000  0.21337000  1.0
  N  N203  1  0.93312000  0.74637000  0.28663000  1.0
  N  N204  1  0.03168000  0.41738000  0.90023000  1.0
  N  N205  1  0.58261000  0.96833000  0.59977000  1.0
  N  N206  1  0.96833000  0.58261000  0.09977000  1.0
  N  N207  1  0.41740000  0.03167000  0.40023000  1.0
  N  N208  1  0.97700000  0.59505000  0.90225000  1.0
  N  N209  1  0.40496000  0.02300000  0.59774000  1.0
  N  N210  1  0.02300000  0.40496000  0.09775000  1.0
  N  N211  1  0.59505000  0.97699000  0.40226000  1.0
  N  N212  1  0.01884000  0.11475000  0.90519000  1.0
  N  N213  1  0.88524000  0.98116000  0.59481000  1.0
  N  N214  1  0.98115000  0.88525000  0.09480000  1.0
  N  N215  1  0.11475000  0.01885000  0.40518000  1.0
  N  N216  1  0.94536000  0.99833000  0.93814000  1.0
  N  N217  1  0.00166000  0.05463000  0.56186000  1.0
  N  N218  1  0.05464000  0.00165000  0.06185000  1.0
  N  N219  1  0.99833000  0.94538000  0.43814000  1.0
  O  O220  1  0.90177000  0.30477000  0.99633000  1.0
  O  O221  1  0.69522000  0.09824000  0.50367000  1.0
  O  O222  1  0.09824000  0.69523000  0.00367000  1.0
  O  O223  1  0.30478000  0.90177000  0.49633000  1.0
  O  O224  1  0.85692000  0.35323000  0.90666000  1.0
  O  O225  1  0.64676000  0.14311000  0.59334000  1.0
  O  O226  1  0.14309000  0.64677000  0.09333000  1.0
  O  O227  1  0.35325000  0.85690000  0.40666000  1.0
  O  O228  1  0.18178000  0.18751000  0.91776000  1.0
  O  O229  1  0.81249000  0.81822000  0.58224000  1.0
  O  O230  1  0.81820000  0.81250000  0.08224000  1.0
  O  O231  1  0.18752000  0.18178000  0.41777000  1.0
  O  O232  1  0.28817000  0.09813000  0.84134000  1.0
  O  O233  1  0.90187000  0.71183000  0.65866000  1.0
  O  O234  1  0.71181000  0.90191000  0.15865000  1.0
  O  O235  1  0.09812000  0.28815000  0.34136000  1.0
