# generated using pymatgen
data_MgH(CO)5
_symmetry_space_group_name_H-M   'P 1'
_cell_length_a   6.88778000
_cell_length_b   15.19120000
_cell_length_c   15.19460000
_cell_angle_alpha   117.75400000
_cell_angle_beta   98.69120000
_cell_angle_gamma   98.69400000
_symmetry_Int_Tables_number   1
_chemical_formula_structural   MgH(CO)5
_chemical_formula_sum   'Mg6 H6 C30 O30'
_cell_volume   1345.47214548
_cell_formula_units_Z   6
loop_
 _symmetry_equiv_pos_site_id
 _symmetry_equiv_pos_as_xyz
  1  'x, y, z'
loop_
 _atom_site_type_symbol
 _atom_site_label
 _atom_site_symmetry_multiplicity
 _atom_site_fract_x
 _atom_site_fract_y
 _atom_site_fract_z
 _atom_site_occupancy
  Mg  Mg0  1  0.52606000  0.41048000  0.73347000  1.0
  Mg  Mg1  1  0.79260000  0.26656000  0.67703000  1.0
  Mg  Mg2  1  0.11562000  0.32304000  0.58959000  1.0
  Mg  Mg3  1  0.47394000  0.58952000  0.26653000  1.0
  Mg  Mg4  1  0.20740000  0.73344000  0.32297000  1.0
  Mg  Mg5  1  0.88438000  0.67696000  0.41041000  1.0
  H  H6  1  0.18750000  0.53388000  0.55589000  1.0
  H  H7  1  0.63164000  0.44403000  0.97804000  1.0
  H  H8  1  0.65364000  0.02202000  0.46607000  1.0
  H  H9  1  0.81250000  0.46612000  0.44411000  1.0
  H  H10  1  0.36836000  0.55596000  0.02195000  1.0
  H  H11  1  0.34636000  0.97798000  0.53393000  1.0
  C  C12  1  0.74374000  0.38996000  0.56371000  1.0
  C  C13  1  0.17998000  0.43638000  0.82626000  1.0
  C  C14  1  0.35379000  0.17376000  0.61012000  1.0
  C  C15  1  0.25626000  0.61004000  0.43629000  1.0
  C  C16  1  0.82002000  0.56361000  0.17374000  1.0
  C  C17  1  0.64621000  0.82624000  0.38988000  1.0
  C  C18  1  0.61520000  0.44694000  0.53400000  1.0
  C  C19  1  0.08113000  0.46608000  0.91295000  1.0
  C  C20  1  0.16821000  0.08706000  0.55312000  1.0
  C  C21  1  0.38480000  0.55306000  0.46600000  1.0
  C  C22  1  0.91887000  0.53392000  0.08705000  1.0
  C  C23  1  0.83179000  0.91294000  0.44688000  1.0
  C  C24  1  0.43454000  0.46635000  0.56761000  1.0
  C  C25  1  0.86689000  0.43241000  0.89875000  1.0
  C  C26  1  0.96820000  0.10127000  0.53368000  1.0
  C  C27  1  0.56546000  0.53365000  0.43239000  1.0
  C  C28  1  0.13310000  0.56759000  0.10125000  1.0
  C  C29  1  0.03180000  0.89873000  0.46632000  1.0
  C  C30  1  0.32541000  0.51883000  0.53140000  1.0
  C  C31  1  0.79403000  0.46855000  0.98745000  1.0
  C  C32  1  0.80660000  0.01257000  0.48112000  1.0
  C  C33  1  0.67459000  0.48117000  0.46860000  1.0
  C  C34  1  0.20597000  0.53145000  0.01255000  1.0
  C  C35  1  0.19340000  0.98743000  0.51888000  1.0
  C  C36  1  0.78638000  0.64048000  0.90571000  1.0
  C  C37  1  0.88081000  0.09432000  0.73469000  1.0
  C  C38  1  0.14597000  0.26529000  0.35976000  1.0
  C  C39  1  0.21362000  0.35952000  0.09429000  1.0
  C  C40  1  0.11919000  0.90568000  0.26531000  1.0
  C  C41  1  0.85403000  0.73470000  0.64024000  1.0
  O  O42  1  0.69126000  0.35794000  0.62379000  1.0
  O  O43  1  0.06744000  0.37632000  0.73418000  1.0
  O  O44  1  0.33333333  0.26587000  0.64212000  1.0
  O  O45  1  0.30874000  0.64206000  0.37621000  1.0
  O  O46  1  0.93256000  0.62368000  0.26582000  1.0
  O  O47  1  0.66663000  0.73413000  0.35787000  1.0
  O  O48  1  0.90069000  0.37364000  0.53027000  1.0
  O  O49  1  0.37036000  0.46983000  0.84337000  1.0
  O  O50  1  0.52707000  0.15665000  0.62647000  1.0
  O  O51  1  0.09931000  0.62636000  0.46973000  1.0
  O  O52  1  0.62964000  0.53017000  0.15663000  1.0
  O  O53  1  0.47293000  0.84335000  0.37353000  1.0
  O  O54  1  0.36395000  0.43707000  0.63001000  1.0
  O  O55  1  0.73386000  0.37003000  0.80709000  1.0
  O  O56  1  0.92688000  0.19297000  0.56301000  1.0
  O  O57  1  0.63605000  0.56293000  0.36999000  1.0
  O  O58  1  0.26614000  0.62997000  0.19291000  1.0
  O  O59  1  0.07312000  0.80703000  0.43698000  1.0
  O  O60  1  0.83842000  0.70745000  0.99124000  1.0
  O  O61  1  0.84718000  0.00875000  0.71607000  1.0
  O  O62  1  0.13084000  0.28384000  0.29278000  1.0
  O  O63  1  0.16159000  0.29256000  0.00877000  1.0
  O  O64  1  0.15282000  0.99126000  0.28394000  1.0
  O  O65  1  0.86916000  0.71616000  0.70722000  1.0
  O  O66  1  0.73543000  0.57556000  0.81832000  1.0
  O  O67  1  0.91740000  0.18175000  0.75722000  1.0
  O  O68  1  0.16015000  0.24284000  0.42470000  1.0
  O  O69  1  0.26458000  0.42445000  0.18169000  1.0
  O  O70  1  0.08261000  0.81826000  0.24278000  1.0
  O  O71  1  0.83985000  0.75716000  0.57531000  1.0
