# generated using pymatgen
data_H6PbC14(NO2)2
_symmetry_space_group_name_H-M   'P 1'
_cell_length_a   10.87490000
_cell_length_b   15.17810000
_cell_length_c   17.29860000
_cell_angle_alpha   91.61050000
_cell_angle_beta   108.19300000
_cell_angle_gamma   90.01290000
_symmetry_Int_Tables_number   1
_chemical_formula_structural   H6PbC14(NO2)2
_chemical_formula_sum   'H48 Pb8 C112 N16 O32'
_cell_volume   2711.38266339
_cell_formula_units_Z   8
loop_
 _symmetry_equiv_pos_site_id
 _symmetry_equiv_pos_as_xyz
  1  'x, y, z'
loop_
 _atom_site_type_symbol
 _atom_site_label
 _atom_site_symmetry_multiplicity
 _atom_site_fract_x
 _atom_site_fract_y
 _atom_site_fract_z
 _atom_site_occupancy
  H  H0  1  0.23166000  0.16947000  0.75423000  1.0
  H  H1  1  0.47719000  0.33093000  0.24598000  1.0
  H  H2  1  0.76835000  0.83053000  0.24577000  1.0
  H  H3  1  0.52279000  0.66907000  0.75403000  1.0
  H  H4  1  0.19536000  0.25553000  0.87076000  1.0
  H  H5  1  0.32475000  0.24506000  0.12945000  1.0
  H  H6  1  0.80465000  0.74446000  0.12925000  1.0
  H  H7  1  0.67523000  0.75494000  0.87055000  1.0
  H  H8  1  0.38307000  0.34459000  0.96438000  1.0
  H  H9  1  0.41899000  0.15578000  0.03577000  1.0
  H  H10  1  0.61694000  0.65540000  0.03562000  1.0
  H  H11  1  0.58099000  0.84422000  0.96423000  1.0
  H  H12  1  0.95379000  0.33557000  0.88293000  1.0
  H  H13  1  0.07038000  0.16473000  0.11629000  1.0
  H  H14  1  0.04622000  0.66442000  0.11706000  1.0
  H  H15  1  0.92960000  0.83527000  0.88370000  1.0
  H  H16  1  0.96246000  0.24836000  0.75720000  1.0
  H  H17  1  0.20445000  0.25171000  0.24203000  1.0
  H  H18  1  0.03754000  0.75164000  0.24279000  1.0
  H  H19  1  0.79553000  0.74830000  0.75795000  1.0
  H  H20  1  0.76744000  0.15596000  0.68146000  1.0
  H  H21  1  0.08521000  0.34404000  0.31815000  1.0
  H  H22  1  0.23257000  0.84404000  0.31855000  1.0
  H  H23  1  0.91478000  0.65596000  0.68184000  1.0
  H  H24  1  0.61827000  0.47863000  0.15332000  1.0
  H  H25  1  0.46601000  0.02129000  0.84686000  1.0
  H  H26  1  0.38174000  0.52137000  0.84669000  1.0
  H  H27  1  0.53397000  0.97871000  0.15314000  1.0
  H  H28  1  0.02118000  0.55179000  0.21985000  1.0
  H  H29  1  0.80237000  0.94776000  0.78003000  1.0
  H  H30  1  0.97883000  0.44821000  0.78015000  1.0
  H  H31  1  0.19761000  0.05224000  0.21997000  1.0
  H  H32  1  0.04096000  0.47372000  0.09428000  1.0
  H  H33  1  0.94725000  0.02602000  0.90541000  1.0
  H  H34  1  0.95905000  0.52627000  0.90572000  1.0
  H  H35  1  0.05273000  0.97397000  0.09459000  1.0
  H  H36  1  0.82582000  0.83263000  0.57553000  1.0
  H  H37  1  0.24950000  0.66730000  0.42456000  1.0
  H  H38  1  0.17420000  0.16738000  0.42448000  1.0
  H  H39  1  0.75051000  0.33270000  0.57543000  1.0
  H  H40  1  0.18329000  0.97627000  0.61509000  1.0
  H  H41  1  0.56764000  0.52357000  0.38520000  1.0
  H  H42  1  0.81672000  0.02373000  0.38491000  1.0
  H  H43  1  0.43236000  0.47642000  0.61479000  1.0
  H  H44  1  0.82846000  0.11610000  0.58646000  1.0
  H  H45  1  0.24072000  0.38382000  0.41328000  1.0
  H  H46  1  0.17155000  0.88391000  0.41354000  1.0
  H  H47  1  0.75928000  0.61618000  0.58672000  1.0
  Pb  Pb48  1  0.44406000  0.12938000  0.63604000  1.0
  Pb  Pb49  1  0.80745000  0.37059000  0.36415000  1.0
  Pb  Pb50  1  0.55594000  0.87062000  0.36396000  1.0
  Pb  Pb51  1  0.19255000  0.62942000  0.63586000  1.0
  Pb  Pb52  1  0.86063000  0.67134000  0.42839000  1.0
  Pb  Pb53  1  0.43325000  0.82879000  0.57183000  1.0
  Pb  Pb54  1  0.13939000  0.32866000  0.57161000  1.0
  Pb  Pb55  1  0.56676000  0.17121000  0.42817000  1.0
  C  C56  1  0.31020000  0.20744000  0.79686000  1.0
  C  C57  1  0.51322000  0.29291000  0.20329000  1.0
  C  C58  1  0.68981000  0.79255000  0.20314000  1.0
  C  C59  1  0.48677000  0.70709000  0.79672000  1.0
  C  C60  1  0.29032000  0.25587000  0.86208000  1.0
  C  C61  1  0.42832000  0.24458000  0.13807000  1.0
  C  C62  1  0.70969000  0.74413000  0.13793000  1.0
  C  C63  1  0.57167000  0.75542000  0.86193000  1.0
  C  C64  1  0.39223000  0.30489000  0.91307000  1.0
  C  C65  1  0.47933000  0.19547000  0.08701000  1.0
  C  C66  1  0.60778000  0.69510000  0.08693000  1.0
  C  C67  1  0.52066000  0.80453000  0.91299000  1.0
  C  C68  1  0.51253000  0.30356000  0.89866000  1.0
  C  C69  1  0.61392000  0.19674000  0.10128000  1.0
  C  C70  1  0.48748000  0.69643000  0.10135000  1.0
  C  C71  1  0.38606000  0.80326000  0.89872000  1.0
  C  C72  1  0.62430000  0.35111000  0.95271000  1.0
  C  C73  1  0.67175000  0.14917000  0.04711000  1.0
  C  C74  1  0.37571000  0.64889000  0.04729000  1.0
  C  C75  1  0.32824000  0.85083000  0.95289000  1.0
  C  C76  1  0.74614000  0.34830000  0.93641000  1.0
  C  C77  1  0.80972000  0.15204000  0.06321000  1.0
  C  C78  1  0.25387000  0.65170000  0.06360000  1.0
  C  C79  1  0.19026000  0.84797000  0.93679000  1.0
  C  C80  1  0.75601000  0.29822000  0.86545000  1.0
  C  C81  1  0.89026000  0.20215000  0.13409000  1.0
  C  C82  1  0.24400000  0.70177000  0.13455000  1.0
  C  C83  1  0.10972000  0.79785000  0.86591000  1.0
  C  C84  1  0.87152000  0.29687000  0.84502000  1.0
  C  C85  1  0.02603000  0.20343000  0.15433000  1.0
  C  C86  1  0.12849000  0.70313000  0.15497000  1.0
  C  C87  1  0.97395000  0.79657000  0.84566000  1.0
  C  C88  1  0.87703000  0.24782000  0.77747000  1.0
  C  C89  1  0.09889000  0.25233000  0.22190000  1.0
  C  C90  1  0.12298000  0.75217000  0.22253000  1.0
  C  C91  1  0.90109000  0.74768000  0.77809000  1.0
  C  C92  1  0.76754000  0.19815000  0.73342000  1.0
  C  C93  1  0.03346000  0.30194000  0.26617000  1.0
  C  C94  1  0.23247000  0.80185000  0.26658000  1.0
  C  C95  1  0.96653000  0.69807000  0.73383000  1.0
  C  C96  1  0.64819000  0.24950000  0.81511000  1.0
  C  C97  1  0.83272000  0.25077000  0.18462000  1.0
  C  C98  1  0.35182000  0.75050000  0.18489000  1.0
  C  C99  1  0.16727000  0.74923000  0.81538000  1.0
  C  C100  1  0.52394000  0.25271000  0.83149000  1.0
  C  C101  1  0.69225000  0.24754000  0.16841000  1.0
  C  C102  1  0.47606000  0.74728000  0.16851000  1.0
  C  C103  1  0.30773000  0.75246000  0.83159000  1.0
  C  C104  1  0.71771000  0.43540000  0.06852000  1.0
  C  C105  1  0.64979000  0.06464000  0.93140000  1.0
  C  C106  1  0.28230000  0.56459000  0.93148000  1.0
  C  C107  1  0.35018000  0.93536000  0.06860000  1.0
  C  C108  1  0.70993000  0.47904000  0.14021000  1.0
  C  C109  1  0.57065000  0.02090000  0.85984000  1.0
  C  C110  1  0.29008000  0.52095000  0.85979000  1.0
  C  C111  1  0.42933000  0.97909000  0.14016000  1.0
  C  C112  1  0.81789000  0.52045000  0.19287000  1.0
  C  C113  1  0.62610000  0.97941000  0.80714000  1.0
  C  C114  1  0.18211000  0.47955000  0.80713000  1.0
  C  C115  1  0.37387000  0.02059000  0.19286000  1.0
  C  C116  1  0.93803000  0.51917000  0.17607000  1.0
  C  C117  1  0.76289000  0.98058000  0.82379000  1.0
  C  C118  1  0.06198000  0.48083000  0.82393000  1.0
  C  C119  1  0.23708000  0.01941000  0.17620000  1.0
  C  C120  1  0.94947000  0.47600000  0.10768000  1.0
  C  C121  1  0.84245000  0.02383000  0.89208000  1.0
  C  C122  1  0.05054000  0.52399000  0.89232000  1.0
  C  C123  1  0.15753000  0.97617000  0.10792000  1.0
  C  C124  1  0.83982000  0.43301000  0.05209000  1.0
  C  C125  1  0.78820000  0.06705000  0.94765000  1.0
  C  C126  1  0.16018000  0.56698000  0.94791000  1.0
  C  C127  1  0.21177000  0.93295000  0.05235000  1.0
  C  C128  1  0.80888000  0.56669000  0.26869000  1.0
  C  C129  1  0.54157000  0.93311000  0.73143000  1.0
  C  C130  1  0.19113000  0.43331000  0.73131000  1.0
  C  C131  1  0.45841000  0.06689000  0.26857000  1.0
  C  C132  1  0.81209000  0.97398000  0.58228000  1.0
  C  C133  1  0.22877000  0.52594000  0.41765000  1.0
  C  C134  1  0.18792000  0.02602000  0.41773000  1.0
  C  C135  1  0.77123000  0.47407000  0.58234000  1.0
  C  C136  1  0.87821000  0.89504000  0.58309000  1.0
  C  C137  1  0.29429000  0.60487000  0.41701000  1.0
  C  C138  1  0.12180000  0.10497000  0.41692000  1.0
  C  C139  1  0.70572000  0.39513000  0.58298000  1.0
  C  C140  1  0.01162000  0.89570000  0.59502000  1.0
  C  C141  1  0.41590000  0.60419000  0.40517000  1.0
  C  C142  1  0.98839000  0.10431000  0.40498000  1.0
  C  C143  1  0.58411000  0.39581000  0.59482000  1.0
  C  C144  1  0.07923000  0.97608000  0.60499000  1.0
  C  C145  1  0.47356000  0.52379000  0.39524000  1.0
  C  C146  1  0.92078000  0.02393000  0.39501000  1.0
  C  C147  1  0.52645000  0.47620000  0.60476000  1.0
  C  C148  1  0.01186000  0.05544000  0.60045000  1.0
  C  C149  1  0.41057000  0.44446000  0.39971000  1.0
  C  C150  1  0.98814000  0.94457000  0.39955000  1.0
  C  C151  1  0.58944000  0.55554000  0.60029000  1.0
  C  C152  1  0.87909000  0.05372000  0.59000000  1.0
  C  C153  1  0.28802000  0.44619000  0.40995000  1.0
  C  C154  1  0.12092000  0.94628000  0.41001000  1.0
  C  C155  1  0.71199000  0.55380000  0.59004000  1.0
  C  C156  1  0.67143000  0.97340000  0.57595000  1.0
  C  C157  1  0.09422000  0.52657000  0.42365000  1.0
  C  C158  1  0.32859000  0.02660000  0.42406000  1.0
  C  C159  1  0.90578000  0.47343000  0.57634000  1.0
  C  C160  1  0.07512000  0.14347000  0.60273000  1.0
  C  C161  1  0.47150000  0.35641000  0.39748000  1.0
  C  C162  1  0.92489000  0.85654000  0.39727000  1.0
  C  C163  1  0.52850000  0.64358000  0.60252000  1.0
  C  C164  1  0.07847000  0.80937000  0.59559000  1.0
  C  C165  1  0.48215000  0.69056000  0.40447000  1.0
  C  C166  1  0.92154000  0.19064000  0.40441000  1.0
  C  C167  1  0.51787000  0.30944000  0.59552000  1.0
  N  N168  1  0.42302000  0.20589000  0.78165000  1.0
  N  N169  1  0.64113000  0.29435000  0.21840000  1.0
  N  N170  1  0.57698000  0.79411000  0.21834000  1.0
  N  N171  1  0.35886000  0.70566000  0.78160000  1.0
  N  N172  1  0.65680000  0.19916000  0.75139000  1.0
  N  N173  1  0.90488000  0.30097000  0.24837000  1.0
  N  N174  1  0.34321000  0.80084000  0.24861000  1.0
  N  N175  1  0.09511000  0.69903000  0.75162000  1.0
  N  N176  1  0.61138000  0.39453000  0.01762000  1.0
  N  N177  1  0.59420000  0.10561000  0.98233000  1.0
  N  N178  1  0.38863000  0.60546000  0.98238000  1.0
  N  N179  1  0.40578000  0.89439000  0.01767000  1.0
  N  N180  1  0.85120000  0.38940000  0.98537000  1.0
  N  N181  1  0.86598000  0.11083000  0.01422000  1.0
  N  N182  1  0.14881000  0.61059000  0.01463000  1.0
  N  N183  1  0.13400000  0.88917000  0.98578000  1.0
  O  O184  1  0.87686000  0.63698000  0.29173000  1.0
  O  O185  1  0.58655000  0.86286000  0.70831000  1.0
  O  O186  1  0.12315000  0.36302000  0.70827000  1.0
  O  O187  1  0.41343000  0.13714000  0.29169000  1.0
  O  O188  1  0.73608000  0.53407000  0.30563000  1.0
  O  O189  1  0.43196000  0.96565000  0.69466000  1.0
  O  O190  1  0.26393000  0.46592000  0.69438000  1.0
  O  O191  1  0.56802000  0.03435000  0.30534000  1.0
  O  O192  1  0.60267000  0.90874000  0.53491000  1.0
  O  O193  1  0.06625000  0.59109000  0.46483000  1.0
  O  O194  1  0.39735000  0.09127000  0.46509000  1.0
  O  O195  1  0.93376000  0.40892000  0.53517000  1.0
  O  O196  1  0.63256000  0.03562000  0.61200000  1.0
  O  O197  1  0.01940000  0.46457000  0.38723000  1.0
  O  O198  1  0.36745000  0.96437000  0.38801000  1.0
  O  O199  1  0.98060000  0.53545000  0.61276000  1.0
  O  O200  1  0.00403000  0.21157000  0.59740000  1.0
  O  O201  1  0.40578000  0.28835000  0.40303000  1.0
  O  O202  1  0.99597000  0.78844000  0.40260000  1.0
  O  O203  1  0.59422000  0.71165000  0.59698000  1.0
  O  O204  1  0.19446000  0.14861000  0.60795000  1.0
  O  O205  1  0.58552000  0.35123000  0.39204000  1.0
  O  O206  1  0.80556000  0.85140000  0.39207000  1.0
  O  O207  1  0.41447000  0.64877000  0.60795000  1.0
  O  O208  1  0.00683000  0.73972000  0.57500000  1.0
  O  O209  1  0.43099000  0.76018000  0.42512000  1.0
  O  O210  1  0.99317000  0.26029000  0.42500000  1.0
  O  O211  1  0.56902000  0.23982000  0.57487000  1.0
  O  O212  1  0.20124000  0.80656000  0.61881000  1.0
  O  O213  1  0.58165000  0.69340000  0.38106000  1.0
  O  O214  1  0.79877000  0.19344000  0.38120000  1.0
  O  O215  1  0.41835000  0.30659000  0.61893000  1.0
