# generated using pymatgen
data_Dy3H40C68N7O19
_symmetry_space_group_name_H-M   'P 1'
_cell_length_a   10.31030000
_cell_length_b   19.04530000
_cell_length_c   19.70900000
_cell_angle_alpha   78.20920000
_cell_angle_beta   76.60680000
_cell_angle_gamma   81.42110000
_symmetry_Int_Tables_number   1
_chemical_formula_structural   Dy3H40C68N7O19
_chemical_formula_sum   'Dy6 H80 C136 N14 O38'
_cell_volume   3664.28635674
_cell_formula_units_Z   2
loop_
 _symmetry_equiv_pos_site_id
 _symmetry_equiv_pos_as_xyz
  1  'x, y, z'
loop_
 _atom_site_type_symbol
 _atom_site_label
 _atom_site_symmetry_multiplicity
 _atom_site_fract_x
 _atom_site_fract_y
 _atom_site_fract_z
 _atom_site_occupancy
  Dy  Dy0  1  0.36626000  0.94157000  0.57202000  1.0
  Dy  Dy1  1  0.81488000  0.48073000  0.56913000  1.0
  Dy  Dy2  1  0.84960000  0.58121000  0.96099000  1.0
  Dy  Dy3  1  0.63374000  0.05843000  0.42798000  1.0
  Dy  Dy4  1  0.18512000  0.51928000  0.43087000  1.0
  Dy  Dy5  1  0.15041000  0.41879000  0.03901000  1.0
  H  H6  1  0.88903000  0.00483000  0.56184000  1.0
  H  H7  1  0.57241000  0.00192000  0.74831000  1.0
  H  H8  1  0.74206000  0.99331000  0.82265000  1.0
  H  H9  1  0.98675000  0.98755000  0.76547000  1.0
  H  H10  1  0.69898000  0.72938000  0.53582000  1.0
  H  H11  1  0.01970000  0.71036000  0.35558000  1.0
  H  H12  1  0.96288000  0.83967000  0.30351000  1.0
  H  H13  1  0.77436000  0.91305000  0.36919000  1.0
  H  H14  1  0.99761000  0.48104000  0.25053000  1.0
  H  H15  1  0.65237000  0.58705000  0.17052000  1.0
  H  H16  1  0.53387000  0.60459000  0.29312000  1.0
  H  H17  1  0.65077000  0.56053000  0.39416000  1.0
  H  H18  1  0.60758000  0.42424000  0.00540000  1.0
  H  H19  1  0.51252000  0.21553000  0.99508000  1.0
  H  H20  1  0.75111000  0.16496000  0.99767000  1.0
  H  H21  1  0.91696000  0.24633000  0.00240000  1.0
  H  H22  1  0.16099000  0.87817000  0.49562000  1.0
  H  H23  1  0.02802000  0.77551000  0.50442000  1.0
  H  H24  1  0.03028000  0.67245000  0.60708000  1.0
  H  H25  1  0.10455000  0.62046000  0.72093000  1.0
  H  H26  1  0.21748000  0.63264000  0.81435000  1.0
  H  H27  1  0.35296000  0.70386000  0.86075000  1.0
  H  H28  1  0.47537000  0.81292000  0.84157000  1.0
  H  H29  1  0.48216000  0.90145000  0.72705000  1.0
  H  H30  1  0.64853000  0.40979000  0.47388000  1.0
  H  H31  1  0.55003000  0.29927000  0.47011000  1.0
  H  H32  1  0.55025000  0.19490000  0.57109000  1.0
  H  H33  1  0.60525000  0.14460000  0.69053000  1.0
  H  H34  1  0.68477000  0.16215000  0.79458000  1.0
  H  H35  1  0.76797000  0.24468000  0.85669000  1.0
  H  H36  1  0.84123000  0.36549000  0.85235000  1.0
  H  H37  1  0.84927000  0.45683000  0.74014000  1.0
  H  H38  1  0.00088000  0.74017000  0.89111000  1.0
  H  H39  1  0.01323000  0.84765000  0.79230000  1.0
  H  H40  1  0.88832000  0.85301000  0.69596000  1.0
  H  H41  1  0.73851000  0.79465000  0.64542000  1.0
  H  H42  1  0.59047000  0.69883000  0.66012000  1.0
  H  H43  1  0.47783000  0.59531000  0.73778000  1.0
  H  H44  1  0.46680000  0.49865000  0.84749000  1.0
  H  H45  1  0.62718000  0.49421000  0.92503000  1.0
  H  H46  1  0.11097000  0.99517000  0.43816000  1.0
  H  H47  1  0.42758000  0.99808000  0.25169000  1.0
  H  H48  1  0.25794000  0.00669000  0.17735000  1.0
  H  H49  1  0.01325000  0.01245000  0.23453000  1.0
  H  H50  1  0.30102000  0.27062000  0.46418000  1.0
  H  H51  1  0.98030000  0.28964000  0.64442000  1.0
  H  H52  1  0.03713000  0.16033000  0.69649000  1.0
  H  H53  1  0.22564000  0.08695000  0.63081000  1.0
  H  H54  1  0.00239000  0.51896000  0.74947000  1.0
  H  H55  1  0.34763000  0.41295000  0.82947000  1.0
  H  H56  1  0.46613000  0.39541000  0.70688000  1.0
  H  H57  1  0.34923000  0.43947000  0.60583000  1.0
  H  H58  1  0.39242000  0.57576000  0.99460000  1.0
  H  H59  1  0.48748000  0.78447000  0.00493000  1.0
  H  H60  1  0.24889000  0.83504000  0.00233000  1.0
  H  H61  1  0.08304000  0.75367000  0.99760000  1.0
  H  H62  1  0.83901000  0.12183000  0.50438000  1.0
  H  H63  1  0.97198000  0.22449000  0.49558000  1.0
  H  H64  1  0.96972000  0.32755000  0.39292000  1.0
  H  H65  1  0.89545000  0.37954000  0.27907000  1.0
  H  H66  1  0.78252000  0.36736000  0.18565000  1.0
  H  H67  1  0.64705000  0.29614000  0.13925000  1.0
  H  H68  1  0.52463000  0.18708000  0.15843000  1.0
  H  H69  1  0.51784000  0.09855000  0.27295000  1.0
  H  H70  1  0.35147000  0.59021000  0.52612000  1.0
  H  H71  1  0.44997000  0.70073000  0.52989000  1.0
  H  H72  1  0.44975000  0.80510000  0.42891000  1.0
  H  H73  1  0.39475000  0.85540000  0.30947000  1.0
  H  H74  1  0.31523000  0.83785000  0.20542000  1.0
  H  H75  1  0.23203000  0.75532000  0.14331000  1.0
  H  H76  1  0.15876000  0.63452000  0.14765000  1.0
  H  H77  1  0.15073000  0.54317000  0.25986000  1.0
  H  H78  1  0.99912000  0.25983000  0.10889000  1.0
  H  H79  1  0.98677000  0.15235000  0.20770000  1.0
  H  H80  1  0.11168000  0.14699000  0.30404000  1.0
  H  H81  1  0.26150000  0.20535000  0.35458000  1.0
  H  H82  1  0.40952000  0.30117000  0.33988000  1.0
  H  H83  1  0.52217000  0.40469000  0.26222000  1.0
  H  H84  1  0.53319000  0.50135000  0.15251000  1.0
  H  H85  1  0.37282000  0.50579000  0.07497000  1.0
  C  C86  1  0.95222000  0.99467000  0.66078000  1.0
  C  C87  1  0.85646000  0.00276000  0.61893000  1.0
  C  C88  1  0.71974000  0.00572000  0.65038000  1.0
  C  C89  1  0.67904000  0.00068000  0.72406000  1.0
  C  C90  1  0.77426000  0.99578000  0.76551000  1.0
  C  C91  1  0.91051000  0.99273000  0.73405000  1.0
  C  C92  1  0.09842000  0.98567000  0.62726000  1.0
  C  C93  1  0.61999000  0.01451000  0.60357000  1.0
  C  C94  1  0.72690000  0.82662000  0.45752000  1.0
  C  C95  1  0.75708000  0.75391000  0.48534000  1.0
  C  C96  1  0.86348000  0.71254000  0.44872000  1.0
  C  C97  1  0.93798000  0.74370000  0.38337000  1.0
  C  C98  1  0.90568000  0.81559000  0.35462000  1.0
  C  C99  1  0.80049000  0.85704000  0.39162000  1.0
  C  C100  1  0.61633000  0.87131000  0.49781000  1.0
  C  C101  1  0.89699000  0.63504000  0.47875000  1.0
  C  C102  1  0.83296000  0.52022000  0.32839000  1.0
  C  C103  1  0.89652000  0.50888000  0.26009000  1.0
  C  C104  1  0.83045000  0.53150000  0.20369000  1.0
  C  C105  1  0.70083000  0.56786000  0.21554000  1.0
  C  C106  1  0.63604000  0.57810000  0.28381000  1.0
  C  C107  1  0.70090000  0.55377000  0.34039000  1.0
  C  C108  1  0.90481000  0.49725000  0.38847000  1.0
  C  C109  1  0.89657000  0.51564000  0.13137000  1.0
  C  C110  1  0.77301000  0.34067000  0.00279000  1.0
  C  C111  1  0.64017000  0.36797000  0.00139000  1.0
  C  C112  1  0.54713000  0.32345000  0.99755000  1.0
  C  C113  1  0.58684000  0.24991000  0.99694000  1.0
  C  C114  1  0.71973000  0.22214000  0.99855000  1.0
  C  C115  1  0.81296000  0.26721000  0.00132000  1.0
  C  C116  1  0.86924000  0.39090000  0.00646000  1.0
  C  C117  1  0.40625000  0.35637000  0.99616000  1.0
  C  C118  1  0.15857000  0.83294000  0.53963000  1.0
  C  C119  1  0.08457000  0.77504000  0.54486000  1.0
  C  C120  1  0.08620000  0.71849000  0.60118000  1.0
  C  C121  1  0.15939000  0.72108000  0.65293000  1.0
  C  C122  1  0.23031000  0.78213000  0.64363000  1.0
  C  C123  1  0.15927000  0.66666667  0.71474000  1.0
  C  C124  1  0.22244000  0.67334000  0.76635000  1.0
  C  C125  1  0.29321000  0.73445000  0.75939000  1.0
  C  C126  1  0.35666000  0.74422000  0.81255000  1.0
  C  C127  1  0.42376000  0.80433000  0.80202000  1.0
  C  C128  1  0.42780000  0.85408000  0.73830000  1.0
  C  C129  1  0.30043000  0.78840000  0.69723000  1.0
  C  C130  1  0.64437000  0.36477000  0.51804000  1.0
  C  C131  1  0.58899000  0.30213000  0.51616000  1.0
  C  C132  1  0.58836000  0.24507000  0.57199000  1.0
  C  C133  1  0.63922000  0.25177000  0.63086000  1.0
  C  C134  1  0.68962000  0.31773000  0.62908000  1.0
  C  C135  1  0.64041000  0.19556000  0.69132000  1.0
  C  C136  1  0.68436000  0.20528000  0.74868000  1.0
  C  C137  1  0.72998000  0.27226000  0.75014000  1.0
  C  C138  1  0.77075000  0.28619000  0.80935000  1.0
  C  C139  1  0.81149000  0.35269000  0.80711000  1.0
  C  C140  1  0.81507000  0.40434000  0.74470000  1.0
  C  C141  1  0.73505000  0.32828000  0.68980000  1.0
  C  C142  1  0.94612000  0.74504000  0.84892000  1.0
  C  C143  1  0.95278000  0.80496000  0.79342000  1.0
  C  C144  1  0.88455000  0.80778000  0.74021000  1.0
  C  C145  1  0.80796000  0.75116000  0.74340000  1.0
  C  C146  1  0.80519000  0.69355000  0.80243000  1.0
  C  C147  1  0.73256000  0.75075000  0.69092000  1.0
  C  C148  1  0.65111000  0.69803000  0.69887000  1.0
  C  C149  1  0.63931000  0.64181000  0.75979000  1.0
  C  C150  1  0.54480000  0.59122000  0.77402000  1.0
  C  C151  1  0.53903000  0.53818000  0.83361000  1.0
  C  C152  1  0.62837000  0.53574000  0.87816000  1.0
  C  C153  1  0.72037000  0.63753000  0.81008000  1.0
  C  C154  1  0.04778000  0.00533000  0.33922000  1.0
  C  C155  1  0.14353000  0.99724000  0.38107000  1.0
  C  C156  1  0.28025000  0.99428000  0.34962000  1.0
  C  C157  1  0.32096000  0.99932000  0.27594000  1.0
  C  C158  1  0.22574000  0.00422000  0.23449000  1.0
  C  C159  1  0.08949000  0.00728000  0.26595000  1.0
  C  C160  1  0.90158000  0.01433000  0.37274000  1.0
  C  C161  1  0.38000000  0.98549000  0.39643000  1.0
  C  C162  1  0.27311000  0.17337000  0.54248000  1.0
  C  C163  1  0.24293000  0.24609000  0.51466000  1.0
  C  C164  1  0.13652000  0.28746000  0.55128000  1.0
  C  C165  1  0.06203000  0.25630000  0.61663000  1.0
  C  C166  1  0.09432000  0.18441000  0.64538000  1.0
  C  C167  1  0.19951000  0.14296000  0.60838000  1.0
  C  C168  1  0.38368000  0.12869000  0.50219000  1.0
  C  C169  1  0.10301000  0.36496000  0.52125000  1.0
  C  C170  1  0.16703000  0.47978000  0.67161000  1.0
  C  C171  1  0.10347000  0.49111000  0.73991000  1.0
  C  C172  1  0.16955000  0.46850000  0.79631000  1.0
  C  C173  1  0.29917000  0.43214000  0.78446000  1.0
  C  C174  1  0.36396000  0.42190000  0.71619000  1.0
  C  C175  1  0.29910000  0.44623000  0.65960000  1.0
  C  C176  1  0.09519000  0.50275000  0.61153000  1.0
  C  C177  1  0.10344000  0.48436000  0.86863000  1.0
  C  C178  1  0.22700000  0.65933000  0.99721000  1.0
  C  C179  1  0.35984000  0.63203000  0.99861000  1.0
  C  C180  1  0.45288000  0.67655000  0.00245000  1.0
  C  C181  1  0.41316000  0.75009000  0.00306000  1.0
  C  C182  1  0.28027000  0.77786000  0.00145000  1.0
  C  C183  1  0.18705000  0.73279000  0.99867000  1.0
  C  C184  1  0.13076000  0.60910000  0.99354000  1.0
  C  C185  1  0.59375000  0.64363000  0.00384000  1.0
  C  C186  1  0.84143000  0.16706000  0.46037000  1.0
  C  C187  1  0.91543000  0.22496000  0.45514000  1.0
  C  C188  1  0.91380000  0.28151000  0.39882000  1.0
  C  C189  1  0.84061000  0.27892000  0.34707000  1.0
  C  C190  1  0.76969000  0.21787000  0.35637000  1.0
  C  C191  1  0.84073000  0.33328000  0.28526000  1.0
  C  C192  1  0.77756000  0.32666000  0.23365000  1.0
  C  C193  1  0.70680000  0.26555000  0.24061000  1.0
  C  C194  1  0.64334000  0.25577000  0.18744000  1.0
  C  C195  1  0.57625000  0.19567000  0.19797000  1.0
  C  C196  1  0.57221000  0.14592000  0.26170000  1.0
  C  C197  1  0.69957000  0.21160000  0.30277000  1.0
  C  C198  1  0.35563000  0.63523000  0.48196000  1.0
  C  C199  1  0.41101000  0.69787000  0.48385000  1.0
  C  C200  1  0.41164000  0.75492000  0.42801000  1.0
  C  C201  1  0.36078000  0.74823000  0.36914000  1.0
  C  C202  1  0.31038000  0.68227000  0.37092000  1.0
  C  C203  1  0.35960000  0.80443000  0.30868000  1.0
  C  C204  1  0.31564000  0.79472000  0.25132000  1.0
  C  C205  1  0.27002000  0.72774000  0.24986000  1.0
  C  C206  1  0.22925000  0.71381000  0.19065000  1.0
  C  C207  1  0.18851000  0.64731000  0.19290000  1.0
  C  C208  1  0.18492000  0.59566000  0.25530000  1.0
  C  C209  1  0.26496000  0.67172000  0.31020000  1.0
  C  C210  1  0.05388000  0.25496000  0.15108000  1.0
  C  C211  1  0.04722000  0.19504000  0.20658000  1.0
  C  C212  1  0.11545000  0.19222000  0.25979000  1.0
  C  C213  1  0.19204000  0.24884000  0.25660000  1.0
  C  C214  1  0.19480000  0.30646000  0.19757000  1.0
  C  C215  1  0.26744000  0.24925000  0.30908000  1.0
  C  C216  1  0.34889000  0.30197000  0.30113000  1.0
  C  C217  1  0.36069000  0.35819000  0.24021000  1.0
  C  C218  1  0.45520000  0.40878000  0.22598000  1.0
  C  C219  1  0.46097000  0.46182000  0.16639000  1.0
  C  C220  1  0.37163000  0.46426000  0.12184000  1.0
  C  C221  1  0.27962000  0.36247000  0.18992000  1.0
  N  N222  1  0.78004000  0.39251000  0.68740000  1.0
  N  N223  1  0.69402000  0.37260000  0.57250000  1.0
  N  N224  1  0.23016000  0.83652000  0.58693000  1.0
  N  N225  1  0.36805000  0.84700000  0.68733000  1.0
  N  N226  1  0.87513000  0.69065000  0.85376000  1.0
  N  N227  1  0.71551000  0.58397000  0.86783000  1.0
  N  N228  1  0.55408000  0.55350000  0.61068000  1.0
  N  N229  1  0.21996000  0.60749000  0.31260000  1.0
  N  N230  1  0.30597000  0.62740000  0.42750000  1.0
  N  N231  1  0.76984000  0.16348000  0.41307000  1.0
  N  N232  1  0.63196000  0.15300000  0.31267000  1.0
  N  N233  1  0.12487000  0.30935000  0.14624000  1.0
  N  N234  1  0.28449000  0.41603000  0.13217000  1.0
  N  N235  1  0.44592000  0.44651000  0.38931000  1.0
  O  O236  1  0.13472000  0.98948000  0.56054000  1.0
  O  O237  1  0.18526000  0.97222000  0.66698000  1.0
  O  O238  1  0.51862000  0.97875000  0.62592000  1.0
  O  O239  1  0.64623000  0.05717000  0.54477000  1.0
  O  O240  1  0.52806000  0.84052000  0.54653000  1.0
  O  O241  1  0.61073000  0.94021000  0.48244000  1.0
  O  O242  1  0.81234000  0.60484000  0.52957000  1.0
  O  O243  1  0.00872000  0.60339000  0.45086000  1.0
  O  O244  1  0.83313000  0.48831000  0.45087000  1.0
  O  O245  1  0.03277000  0.48895000  0.37397000  1.0
  O  O246  1  0.85544000  0.55533000  0.07896000  1.0
  O  O247  1  0.98821000  0.46277000  0.12799000  1.0
  O  O248  1  0.83963000  0.45782000  0.98632000  1.0
  O  O249  1  0.97358000  0.36255000  0.03002000  1.0
  O  O250  1  0.31091000  0.31614000  0.01367000  1.0
  O  O251  1  0.38466000  0.42507000  0.98107000  1.0
  O  O252  1  0.58260000  0.52959000  0.55244000  1.0
  O  O253  1  0.63859000  0.53250000  0.65183000  1.0
  O  O254  1  0.45155000  0.59451000  0.62761000  1.0
  O  O255  1  0.86527000  0.01052000  0.43946000  1.0
  O  O256  1  0.81474000  0.02778000  0.33302000  1.0
  O  O257  1  0.48138000  0.02125000  0.37408000  1.0
  O  O258  1  0.35376000  0.94283000  0.45523000  1.0
  O  O259  1  0.47195000  0.15947000  0.45348000  1.0
  O  O260  1  0.38927000  0.05979000  0.51756000  1.0
  O  O261  1  0.18766000  0.39516000  0.47043000  1.0
  O  O262  1  0.99128000  0.39660000  0.54914000  1.0
  O  O263  1  0.16688000  0.51169000  0.54913000  1.0
  O  O264  1  0.96723000  0.51106000  0.62602000  1.0
  O  O265  1  0.14456000  0.44466000  0.92104000  1.0
  O  O266  1  0.01180000  0.53723000  0.87201000  1.0
  O  O267  1  0.16037000  0.54218000  0.01368000  1.0
  O  O268  1  0.02642000  0.63745000  0.96998000  1.0
  O  O269  1  0.68909000  0.68386000  0.98633000  1.0
  O  O270  1  0.61534000  0.57493000  0.01893000  1.0
  O  O271  1  0.41740000  0.47041000  0.44756000  1.0
  O  O272  1  0.36142000  0.46750000  0.34817000  1.0
  O  O273  1  0.54845000  0.40549000  0.37239000  1.0
