# generated using pymatgen
data_CoH22C29(NO2)3
_symmetry_space_group_name_H-M   'P 1'
_cell_length_a   16.79460000
_cell_length_b   21.24670000
_cell_length_c   21.24396188
_cell_angle_alpha   81.03070427
_cell_angle_beta   66.74831421
_cell_angle_gamma   66.74050000
_symmetry_Int_Tables_number   1
_chemical_formula_structural   CoH22C29(NO2)3
_chemical_formula_sum   'Co8 H176 C232 N24 O48'
_cell_volume   6398.73158706
_cell_formula_units_Z   8
loop_
 _symmetry_equiv_pos_site_id
 _symmetry_equiv_pos_as_xyz
  1  'x, y, z'
loop_
 _atom_site_type_symbol
 _atom_site_label
 _atom_site_symmetry_multiplicity
 _atom_site_fract_x
 _atom_site_fract_y
 _atom_site_fract_z
 _atom_site_occupancy
  Co  Co0  1  0.10694000  0.75774000  0.53944000  1.0
  Co  Co1  1  0.40420000  0.74235000  0.96067000  1.0
  Co  Co2  1  0.36497000  0.53947000  0.74233000  1.0
  Co  Co3  1  0.64652000  0.96071000  0.75769000  1.0
  Co  Co4  1  0.89306000  0.24226000  0.46056000  1.0
  Co  Co5  1  0.59578000  0.25765000  0.03934000  1.0
  Co  Co6  1  0.63503000  0.46053000  0.25767000  1.0
  Co  Co7  1  0.35348000  0.03929000  0.24231000  1.0
  H  H8  1  0.97366000  0.86525000  0.64769000  1.0
  H  H9  1  0.92365000  0.88011000  0.77152000  1.0
  H  H10  1  0.11222000  0.67141000  0.77862000  1.0
  H  H11  1  0.15652000  0.66661000  0.65308000  1.0
  H  H12  1  0.79208000  0.87650000  0.99676000  1.0
  H  H13  1  0.83864000  0.85575000  0.87355000  1.0
  H  H14  1  0.10975000  0.71956000  0.87398000  1.0
  H  H15  1  0.04934000  0.74340000  0.99860000  1.0
  H  H16  1  0.08208000  0.86107000  0.41932000  1.0
  H  H17  1  0.15064000  0.85986000  0.29362000  1.0
  H  H18  1  0.31452000  0.64515000  0.30585000  1.0
  H  H19  1  0.23574000  0.65525000  0.43255000  1.0
  H  H20  1  0.84711000  0.45037000  0.54600000  1.0
  H  H21  1  0.67483000  0.48416000  0.57568000  1.0
  H  H22  1  0.62739000  0.49526000  0.78823000  1.0
  H  H23  1  0.80055000  0.46206000  0.75826000  1.0
  H  H24  1  0.09599000  0.42561000  0.60183000  1.0
  H  H25  1  0.15658000  0.52171000  0.56968000  1.0
  H  H26  1  0.88577000  0.66426000  0.58076000  1.0
  H  H27  1  0.82298000  0.57142000  0.61659000  1.0
  H  H28  1  0.95928000  0.85890000  0.51036000  1.0
  H  H29  1  0.03002000  0.88208000  0.52390000  1.0
  H  H30  1  0.48634000  0.63488000  0.85230000  1.0
  H  H31  1  0.57544000  0.61990000  0.72855000  1.0
  H  H32  1  0.56222000  0.82868000  0.72154000  1.0
  H  H33  1  0.47607000  0.83352000  0.84701000  1.0
  H  H34  1  0.66628000  0.62367000  0.50302000  1.0
  H  H35  1  0.56873000  0.64418000  0.62622000  1.0
  H  H36  1  0.70345000  0.78066000  0.62650000  1.0
  H  H37  1  0.79161000  0.75704000  0.50191000  1.0
  H  H38  1  0.36274000  0.63901000  0.08087000  1.0
  H  H39  1  0.30383000  0.64038000  0.20661000  1.0
  H  H40  1  0.26556000  0.85508000  0.19429000  1.0
  H  H41  1  0.32379000  0.84486000  0.06760000  1.0
  H  H42  1  0.84413000  0.04949000  0.95364000  1.0
  H  H43  1  0.73515000  0.01576000  0.92398000  1.0
  H  H44  1  0.91102000  0.00471000  0.71142000  1.0
  H  H45  1  0.02102000  0.03795000  0.74138000  1.0
  H  H46  1  0.12347000  0.07440000  0.89824000  1.0
  H  H47  1  0.24792000  0.97846000  0.93056000  1.0
  H  H48  1  0.13102000  0.83568000  0.91930000  1.0
  H  H49  1  0.01142000  0.92837000  0.88321000  1.0
  H  H50  1  0.32882000  0.64098000  0.98980000  1.0
  H  H51  1  0.43624000  0.61805000  0.97614000  1.0
  H  H52  1  0.33892000  0.64772000  0.63497000  1.0
  H  H53  1  0.30416000  0.77151000  0.62002000  1.0
  H  H54  1  0.28383000  0.77860000  0.82883000  1.0
  H  H55  1  0.32312000  0.65312000  0.83370000  1.0
  H  H56  1  0.16921000  0.99679000  0.62364000  1.0
  H  H57  1  0.19487000  0.87359000  0.64440000  1.0
  H  H58  1  0.33003000  0.87381000  0.78063000  1.0
  H  H59  1  0.29358000  0.99840000  0.75677000  1.0
  H  H60  1  0.44369000  0.41922000  0.63889000  1.0
  H  H61  1  0.51066000  0.29351000  0.64026000  1.0
  H  H62  1  0.45972000  0.30590000  0.85504000  1.0
  H  H63  1  0.39138000  0.43260000  0.84477000  1.0
  H  H64  1  0.79786000  0.54634000  0.04919000  1.0
  H  H65  1  0.65905000  0.57592000  0.01569000  1.0
  H  H66  1  0.62184000  0.78859000  0.00516000  1.0
  H  H67  1  0.76191000  0.75875000  0.03824000  1.0
  H  H68  1  0.02152000  0.60188000  0.07424000  1.0
  H  H69  1  0.17827000  0.56953000  0.97832000  1.0
  H  H70  1  0.05026000  0.58076000  0.83547000  1.0
  H  H71  1  0.89456000  0.61685000  0.92811000  1.0
  H  H72  1  0.31849000  0.51039000  0.64115000  1.0
  H  H73  1  0.41239000  0.52392000  0.61795000  1.0
  H  H74  1  0.62120000  0.85254000  0.86525000  1.0
  H  H75  1  0.69522000  0.72879000  0.88035000  1.0
  H  H76  1  0.89053000  0.72150000  0.67147000  1.0
  H  H77  1  0.80928000  0.84693000  0.66651000  1.0
  H  H78  1  0.78913000  0.50330000  0.87668000  1.0
  H  H79  1  0.71248000  0.62657000  0.85623000  1.0
  H  H80  1  0.98370000  0.62627000  0.71954000  1.0
  H  H81  1  0.04792000  0.50169000  0.74324000  1.0
  H  H82  1  0.50138000  0.08087000  0.86108000  1.0
  H  H83  1  0.44398000  0.20658000  0.85975000  1.0
  H  H84  1  0.62096000  0.19429000  0.64524000  1.0
  H  H85  1  0.66899000  0.06758000  0.65541000  1.0
  H  H86  1  0.39352000  0.95364000  0.45022000  1.0
  H  H87  1  0.25072000  0.92417000  0.48390000  1.0
  H  H88  1  0.41508000  0.71160000  0.49542000  1.0
  H  H89  1  0.55842000  0.74135000  0.46232000  1.0
  H  H90  1  0.69764000  0.89801000  0.42562000  1.0
  H  H91  1  0.72614000  0.93049000  0.52154000  1.0
  H  H92  1  0.46663000  0.91913000  0.66432000  1.0
  H  H93  1  0.43978000  0.88287000  0.57165000  1.0
  H  H94  1  0.46985000  0.98967000  0.85875000  1.0
  H  H95  1  0.55389000  0.97632000  0.88214000  1.0
  H  H96  1  0.02633000  0.13475000  0.35231000  1.0
  H  H97  1  0.07634000  0.11989000  0.22848000  1.0
  H  H98  1  0.88778000  0.32859000  0.22138000  1.0
  H  H99  1  0.84348000  0.33333333  0.34692000  1.0
  H  H100  1  0.20792000  0.12350000  0.00324000  1.0
  H  H101  1  0.16136000  0.14425000  0.12645000  1.0
  H  H102  1  0.89025000  0.28045000  0.12602000  1.0
  H  H103  1  0.95066000  0.25661000  0.00140000  1.0
  H  H104  1  0.91791000  0.13893000  0.58069000  1.0
  H  H105  1  0.84935000  0.14014000  0.70638000  1.0
  H  H106  1  0.68547000  0.35485000  0.69415000  1.0
  H  H107  1  0.76427000  0.34475000  0.56744000  1.0
  H  H108  1  0.15289000  0.54962000  0.45400000  1.0
  H  H109  1  0.32518000  0.51584000  0.42432000  1.0
  H  H110  1  0.37261000  0.50474000  0.21177000  1.0
  H  H111  1  0.19945000  0.53794000  0.24174000  1.0
  H  H112  1  0.90402000  0.57438000  0.39817000  1.0
  H  H113  1  0.84343000  0.47828000  0.43032000  1.0
  H  H114  1  0.11423000  0.33574000  0.41924000  1.0
  H  H115  1  0.17703000  0.42857000  0.38341000  1.0
  H  H116  1  0.04072000  0.14110000  0.48963000  1.0
  H  H117  1  0.96998000  0.11792000  0.47610000  1.0
  H  H118  1  0.51366000  0.36512000  0.14770000  1.0
  H  H119  1  0.42455000  0.38010000  0.27146000  1.0
  H  H120  1  0.43777000  0.17132000  0.27847000  1.0
  H  H121  1  0.52393000  0.16648000  0.15299000  1.0
  H  H122  1  0.33372000  0.37633000  0.49699000  1.0
  H  H123  1  0.43128000  0.35581000  0.37378000  1.0
  H  H124  1  0.29655000  0.21933000  0.37351000  1.0
  H  H125  1  0.20839000  0.24296000  0.49810000  1.0
  H  H126  1  0.63726000  0.36099000  0.91913000  1.0
  H  H127  1  0.69617000  0.35962000  0.79339000  1.0
  H  H128  1  0.73443000  0.14492000  0.80571000  1.0
  H  H129  1  0.67621000  0.15515000  0.93240000  1.0
  H  H130  1  0.15587000  0.95052000  0.04635000  1.0
  H  H131  1  0.26485000  0.98424000  0.07602000  1.0
  H  H132  1  0.08897000  0.99530000  0.28858000  1.0
  H  H133  1  0.97897000  0.96205000  0.25862000  1.0
  H  H134  1  0.87653000  0.92560000  0.10175000  1.0
  H  H135  1  0.75208000  0.02153000  0.06943000  1.0
  H  H136  1  0.86897000  0.16432000  0.08069000  1.0
  H  H137  1  0.98858000  0.07163000  0.11678000  1.0
  H  H138  1  0.67116000  0.35902000  0.01021000  1.0
  H  H139  1  0.56376000  0.38195000  0.02386000  1.0
  H  H140  1  0.66108000  0.35229000  0.36503000  1.0
  H  H141  1  0.69584000  0.22849000  0.37998000  1.0
  H  H142  1  0.71617000  0.22140000  0.17117000  1.0
  H  H143  1  0.67688000  0.34688000  0.16630000  1.0
  H  H144  1  0.83079000  0.00321000  0.37636000  1.0
  H  H145  1  0.80513000  0.12641000  0.35560000  1.0
  H  H146  1  0.66998000  0.12619000  0.21937000  1.0
  H  H147  1  0.70642000  0.00160000  0.24323000  1.0
  H  H148  1  0.55631000  0.58077000  0.36111000  1.0
  H  H149  1  0.48935000  0.70649000  0.35974000  1.0
  H  H150  1  0.54028000  0.69410000  0.14496000  1.0
  H  H151  1  0.60862000  0.56740000  0.15523000  1.0
  H  H152  1  0.20215000  0.45366000  0.95080000  1.0
  H  H153  1  0.34095000  0.42409000  0.98431000  1.0
  H  H154  1  0.37815000  0.21142000  0.99484000  1.0
  H  H155  1  0.23810000  0.24126000  0.96175000  1.0
  H  H156  1  0.97849000  0.39812000  0.92575000  1.0
  H  H157  1  0.82174000  0.43047000  0.02167000  1.0
  H  H158  1  0.94975000  0.41924000  0.16453000  1.0
  H  H159  1  0.10544000  0.38315000  0.07189000  1.0
  H  H160  1  0.68152000  0.48961000  0.35884000  1.0
  H  H161  1  0.58762000  0.47608000  0.38204000  1.0
  H  H162  1  0.37880000  0.14746000  0.13475000  1.0
  H  H163  1  0.30479000  0.27121000  0.11965000  1.0
  H  H164  1  0.10947000  0.27850000  0.32853000  1.0
  H  H165  1  0.19073000  0.15306000  0.33349000  1.0
  H  H166  1  0.21087000  0.49670000  0.12332000  1.0
  H  H167  1  0.28753000  0.37343000  0.14377000  1.0
  H  H168  1  0.01630000  0.37373000  0.28046000  1.0
  H  H169  1  0.95208000  0.49831000  0.25676000  1.0
  H  H170  1  0.49862000  0.91913000  0.13892000  1.0
  H  H171  1  0.55602000  0.79342000  0.14025000  1.0
  H  H172  1  0.37905000  0.80570000  0.35476000  1.0
  H  H173  1  0.33101000  0.93242000  0.34459000  1.0
  H  H174  1  0.60646000  0.04636000  0.54980000  1.0
  H  H175  1  0.74928000  0.07582000  0.51611000  1.0
  H  H176  1  0.58492000  0.28839000  0.50458000  1.0
  H  H177  1  0.44158000  0.25865000  0.53768000  1.0
  H  H178  1  0.30236000  0.10198000  0.57439000  1.0
  H  H179  1  0.27387000  0.06949000  0.47846000  1.0
  H  H180  1  0.53336000  0.08087000  0.33568000  1.0
  H  H181  1  0.56021000  0.11714000  0.42836000  1.0
  H  H182  1  0.53015000  0.01033000  0.14125000  1.0
  H  H183  1  0.44611000  0.02367000  0.11786000  1.0
  C  C184  1  0.00355000  0.82367000  0.67824000  1.0
  C  C185  1  0.97461000  0.83120000  0.74821000  1.0
  C  C186  1  0.01184000  0.77690000  0.78761000  1.0
  C  C187  1  0.07939000  0.71645000  0.75244000  1.0
  C  C188  1  0.10474000  0.71291000  0.68187000  1.0
  C  C189  1  0.86226000  0.84124000  0.96817000  1.0
  C  C190  1  0.88870000  0.83030000  0.89868000  1.0
  C  C191  1  0.97972000  0.78608000  0.86217000  1.0
  C  C192  1  0.03813000  0.75393000  0.89932000  1.0
  C  C193  1  0.00438000  0.76785000  0.96915000  1.0
  C  C194  1  0.13292000  0.81342000  0.39278000  1.0
  C  C195  1  0.17280000  0.81306000  0.32193000  1.0
  C  C196  1  0.23885000  0.75182000  0.28767000  1.0
  C  C197  1  0.26237000  0.69411000  0.32859000  1.0
  C  C198  1  0.21904000  0.69903000  0.39939000  1.0
  C  C199  1  0.05822000  0.65659000  0.55647000  1.0
  C  C200  1  0.53933000  0.51407000  0.70113000  1.0
  C  C201  1  0.83129000  0.45485000  0.65077000  1.0
  C  C202  1  0.79819000  0.45994000  0.59872000  1.0
  C  C203  1  0.70296000  0.47906000  0.61530000  1.0
  C  C204  1  0.64144000  0.49213000  0.68356000  1.0
  C  C205  1  0.67648000  0.48484000  0.73546000  1.0
  C  C206  1  0.77167000  0.46626000  0.71930000  1.0
  C  C207  1  0.95598000  0.49317000  0.61260000  1.0
  C  C208  1  0.05057000  0.47836000  0.59809000  1.0
  C  C209  1  0.08383000  0.53154000  0.57961000  1.0
  C  C210  1  0.02463000  0.59904000  0.57367000  1.0
  C  C211  1  0.93123000  0.61214000  0.58622000  1.0
  C  C212  1  0.89615000  0.55998000  0.60613000  1.0
  C  C213  1  0.50528000  0.67644000  0.82179000  1.0
  C  C214  1  0.55411000  0.66884000  0.75185000  1.0
  C  C215  1  0.57656000  0.72313000  0.71250000  1.0
  C  C216  1  0.54827000  0.78363000  0.74769000  1.0
  C  C217  1  0.49938000  0.78722000  0.81822000  1.0
  C  C218  1  0.67243000  0.65893000  0.53176000  1.0
  C  C219  1  0.61838000  0.66972000  0.60125000  1.0
  C  C220  1  0.62845000  0.71394000  0.63795000  1.0
  C  C221  1  0.69173000  0.74625000  0.60101000  1.0
  C  C222  1  0.74174000  0.73249000  0.53119000  1.0
  C  C223  1  0.33928000  0.68670000  0.10741000  1.0
  C  C224  1  0.30769000  0.68714000  0.17829000  1.0
  C  C225  1  0.27820000  0.74842000  0.21252000  1.0
  C  C226  1  0.28515000  0.80607000  0.17156000  1.0
  C  C227  1  0.31764000  0.80109000  0.10075000  1.0
  C  C228  1  0.27144000  0.84354000  0.94373000  1.0
  C  C229  1  0.75462000  0.98594000  0.79863000  1.0
  C  C230  1  0.93735000  0.04501000  0.84886000  1.0
  C  C231  1  0.85738000  0.03990000  0.90093000  1.0
  C  C232  1  0.79776000  0.02084000  0.88438000  1.0
  C  C233  1  0.81746000  0.00777000  0.81613000  1.0
  C  C234  1  0.89703000  0.01508000  0.76420000  1.0
  C  C235  1  0.95752000  0.03367000  0.78033000  1.0
  C  C236  1  0.06202000  0.00671000  0.88731000  1.0
  C  C237  1  0.12712000  0.02162000  0.90199000  1.0
  C  C238  1  0.19501000  0.96855000  0.92058000  1.0
  C  C239  1  0.19745000  0.90101000  0.92651000  1.0
  C  C240  1  0.12981000  0.88779000  0.91386000  1.0
  C  C241  1  0.06257000  0.93986000  0.89379000  1.0
  C  C242  1  0.32732000  0.67826000  0.67653000  1.0
  C  C243  1  0.30611000  0.74821000  0.66897000  1.0
  C  C244  1  0.28912000  0.78758000  0.72328000  1.0
  C  C245  1  0.29605000  0.75243000  0.78378000  1.0
  C  C246  1  0.31772000  0.68189000  0.78737000  1.0
  C  C247  1  0.20414000  0.96815000  0.65889000  1.0
  C  C248  1  0.21956000  0.89868000  0.66983000  1.0
  C  C249  1  0.26636000  0.86212000  0.71407000  1.0
  C  C250  1  0.29274000  0.89919000  0.74625000  1.0
  C  C251  1  0.27295000  0.96901000  0.73233000  1.0
  C  C252  1  0.44679000  0.39271000  0.68658000  1.0
  C  C253  1  0.48613000  0.32184000  0.68703000  1.0
  C  C254  1  0.49081000  0.28766000  0.74834000  1.0
  C  C255  1  0.45666000  0.32864000  0.80602000  1.0
  C  C256  1  0.41843000  0.39943000  0.80101000  1.0
  C  C257  1  0.21501000  0.55640000  0.84337000  1.0
  C  C258  1  0.55312000  0.70131000  0.98603000  1.0
  C  C259  1  0.78606000  0.65118000  0.04491000  1.0
  C  C260  1  0.75827000  0.59904000  0.03974000  1.0
  C  C261  1  0.68201000  0.61555000  0.02082000  1.0
  C  C262  1  0.63333000  0.68382000  0.00792000  1.0
  C  C263  1  0.66079000  0.73581000  0.01536000  1.0
  C  C264  1  0.73746000  0.71973000  0.03386000  1.0
  C  C265  1  0.94917000  0.61279000  0.00652000  1.0
  C  C266  1  0.02892000  0.59811000  0.02146000  1.0
  C  C267  1  0.11540000  0.57953000  0.96838000  1.0
  C  C268  1  0.12380000  0.57358000  0.90083000  1.0
  C  C269  1  0.04355000  0.58622000  0.88759000  1.0
  C  C270  1  0.95626000  0.60628000  0.93965000  1.0
  C  C271  1  0.68165000  0.82196000  0.82372000  1.0
  C  C272  1  0.72283000  0.75203000  0.83138000  1.0
  C  C273  1  0.79942000  0.71260000  0.77712000  1.0
  C  C274  1  0.83161000  0.74769000  0.71653000  1.0
  C  C275  1  0.78632000  0.81822000  0.71288000  1.0
  C  C276  1  0.83066000  0.53194000  0.84142000  1.0
  C  C277  1  0.78762000  0.60147000  0.83065000  1.0
  C  C278  1  0.84198000  0.63805000  0.78636000  1.0
  C  C279  1  0.93747000  0.60092000  0.75402000  1.0
  C  C280  1  0.97355000  0.53107000  0.76780000  1.0
  C  C281  1  0.52580000  0.10739000  0.81343000  1.0
  C  C282  1  0.49469000  0.17827000  0.81301000  1.0
  C  C283  1  0.52667000  0.21250000  0.75180000  1.0
  C  C284  1  0.59144000  0.17155000  0.69419000  1.0
  C  C285  1  0.61897000  0.10075000  0.69913000  1.0
  C  C286  1  0.61471000  0.94375000  0.65651000  1.0
  C  C287  1  0.24014000  0.79883000  0.51406000  1.0
  C  C288  1  0.48205000  0.84885000  0.45494000  1.0
  C  C289  1  0.39707000  0.90097000  0.45990000  1.0
  C  C290  1  0.31832000  0.88452000  0.47895000  1.0
  C  C291  1  0.32479000  0.81631000  0.49214000  1.0
  C  C292  1  0.41158000  0.76434000  0.48497000  1.0
  C  C293  1  0.49070000  0.78036000  0.46643000  1.0
  C  C294  1  0.56856000  0.88711000  0.49327000  1.0
  C  C295  1  0.64852000  0.90182000  0.47840000  1.0
  C  C296  1  0.66335000  0.92046000  0.53148000  1.0
  C  C297  1  0.59830000  0.92642000  0.59901000  1.0
  C  C298  1  0.51751000  0.91369000  0.61220000  1.0
  C  C299  1  0.50238000  0.89354000  0.56012000  1.0
  C  C300  1  0.99644000  0.17633000  0.32176000  1.0
  C  C301  1  0.02539000  0.16880000  0.25179000  1.0
  C  C302  1  0.98816000  0.22310000  0.21239000  1.0
  C  C303  1  0.92059000  0.28355000  0.24757000  1.0
  C  C304  1  0.89525000  0.28709000  0.31814000  1.0
  C  C305  1  0.13774000  0.15876000  0.03183000  1.0
  C  C306  1  0.11130000  0.16971000  0.10132000  1.0
  C  C307  1  0.02028000  0.21392000  0.13783000  1.0
  C  C308  1  0.96187000  0.24607000  0.10068000  1.0
  C  C309  1  0.99562000  0.23215000  0.03085000  1.0
  C  C310  1  0.86708000  0.18658000  0.60722000  1.0
  C  C311  1  0.82719000  0.18694000  0.67807000  1.0
  C  C312  1  0.76115000  0.24818000  0.71233000  1.0
  C  C313  1  0.73764000  0.30588000  0.67140000  1.0
  C  C314  1  0.78097000  0.30097000  0.60060000  1.0
  C  C315  1  0.94178000  0.34341000  0.44353000  1.0
  C  C316  1  0.46067000  0.48593000  0.29887000  1.0
  C  C317  1  0.16871000  0.54515000  0.34923000  1.0
  C  C318  1  0.20181000  0.54006000  0.40128000  1.0
  C  C319  1  0.29704000  0.52094000  0.38470000  1.0
  C  C320  1  0.35856000  0.50787000  0.31644000  1.0
  C  C321  1  0.32352000  0.51516000  0.26454000  1.0
  C  C322  1  0.22833000  0.53374000  0.28069000  1.0
  C  C323  1  0.04403000  0.50683000  0.38740000  1.0
  C  C324  1  0.94944000  0.52163000  0.40191000  1.0
  C  C325  1  0.91619000  0.46845000  0.42038000  1.0
  C  C326  1  0.97538000  0.40095000  0.42633000  1.0
  C  C327  1  0.06879000  0.38785000  0.41377000  1.0
  C  C328  1  0.10386000  0.44001000  0.39387000  1.0
  C  C329  1  0.49471000  0.32356000  0.17822000  1.0
  C  C330  1  0.44589000  0.33116000  0.24816000  1.0
  C  C331  1  0.42343000  0.27687000  0.28751000  1.0
  C  C332  1  0.45173000  0.21637000  0.25231000  1.0
  C  C333  1  0.50062000  0.21278000  0.18178000  1.0
  C  C334  1  0.32758000  0.34107000  0.46824000  1.0
  C  C335  1  0.38162000  0.33028000  0.39876000  1.0
  C  C336  1  0.37156000  0.28606000  0.36205000  1.0
  C  C337  1  0.30827000  0.25375000  0.39900000  1.0
  C  C338  1  0.25826000  0.26751000  0.46882000  1.0
  C  C339  1  0.66071000  0.31331000  0.89259000  1.0
  C  C340  1  0.69231000  0.31287000  0.82171000  1.0
  C  C341  1  0.72180000  0.25159000  0.78747000  1.0
  C  C342  1  0.71484000  0.19393000  0.82844000  1.0
  C  C343  1  0.68235000  0.19891000  0.89925000  1.0
  C  C344  1  0.72855000  0.15646000  0.05627000  1.0
  C  C345  1  0.24538000  0.01406000  0.20137000  1.0
  C  C346  1  0.06266000  0.95500000  0.15113000  1.0
  C  C347  1  0.14263000  0.96010000  0.09906000  1.0
  C  C348  1  0.20225000  0.97916000  0.11561000  1.0
  C  C349  1  0.18254000  0.99223000  0.18387000  1.0
  C  C350  1  0.10297000  0.98493000  0.23580000  1.0
  C  C351  1  0.04248000  0.96634000  0.21967000  1.0
  C  C352  1  0.93798000  0.99329000  0.11268000  1.0
  C  C353  1  0.87288000  0.97837000  0.09800000  1.0
  C  C354  1  0.80499000  0.03145000  0.07942000  1.0
  C  C355  1  0.80255000  0.09899000  0.07348000  1.0
  C  C356  1  0.87019000  0.11221000  0.08613000  1.0
  C  C357  1  0.93742000  0.06014000  0.10620000  1.0
  C  C358  1  0.67268000  0.32174000  0.32347000  1.0
  C  C359  1  0.69390000  0.25179000  0.33103000  1.0
  C  C360  1  0.71089000  0.21242000  0.27672000  1.0
  C  C361  1  0.70396000  0.24757000  0.21622000  1.0
  C  C362  1  0.68228000  0.31811000  0.21263000  1.0
  C  C363  1  0.79586000  0.03185000  0.34111000  1.0
  C  C364  1  0.78044000  0.10132000  0.33017000  1.0
  C  C365  1  0.73364000  0.13787000  0.28593000  1.0
  C  C366  1  0.70725000  0.10081000  0.25376000  1.0
  C  C367  1  0.72704000  0.03099000  0.26768000  1.0
  C  C368  1  0.55321000  0.60728000  0.31342000  1.0
  C  C369  1  0.51387000  0.67816000  0.31297000  1.0
  C  C370  1  0.50919000  0.71234000  0.25166000  1.0
  C  C371  1  0.54333000  0.67136000  0.19399000  1.0
  C  C372  1  0.58157000  0.60057000  0.19899000  1.0
  C  C373  1  0.78500000  0.44360000  0.15662000  1.0
  C  C374  1  0.44688000  0.29870000  0.01397000  1.0
  C  C375  1  0.21395000  0.34883000  0.95508000  1.0
  C  C376  1  0.24173000  0.40097000  0.96025000  1.0
  C  C377  1  0.31798000  0.38446000  0.97918000  1.0
  C  C378  1  0.36666000  0.31620000  0.99208000  1.0
  C  C379  1  0.33922000  0.26420000  0.98463000  1.0
  C  C380  1  0.26254000  0.28028000  0.96613000  1.0
  C  C381  1  0.05083000  0.38722000  0.99348000  1.0
  C  C382  1  0.97108000  0.40190000  0.97853000  1.0
  C  C383  1  0.88461000  0.42047000  0.03161000  1.0
  C  C384  1  0.87621000  0.42642000  0.09916000  1.0
  C  C385  1  0.95646000  0.41378000  0.11240000  1.0
  C  C386  1  0.04374000  0.39373000  0.06035000  1.0
  C  C387  1  0.31835000  0.17804000  0.17628000  1.0
  C  C388  1  0.27717000  0.24796000  0.16862000  1.0
  C  C389  1  0.20057000  0.28740000  0.22289000  1.0
  C  C390  1  0.16839000  0.25231000  0.28347000  1.0
  C  C391  1  0.21367000  0.18178000  0.28713000  1.0
  C  C392  1  0.16935000  0.46806000  0.15858000  1.0
  C  C393  1  0.21239000  0.39853000  0.16935000  1.0
  C  C394  1  0.15802000  0.36195000  0.21364000  1.0
  C  C395  1  0.06253000  0.39908000  0.24598000  1.0
  C  C396  1  0.02645000  0.46893000  0.23220000  1.0
  C  C397  1  0.47420000  0.89260000  0.18657000  1.0
  C  C398  1  0.50531000  0.82173000  0.18699000  1.0
  C  C399  1  0.47332000  0.78750000  0.24821000  1.0
  C  C400  1  0.40855000  0.82845000  0.30582000  1.0
  C  C401  1  0.38103000  0.89925000  0.30087000  1.0
  C  C402  1  0.38528000  0.05625000  0.34350000  1.0
  C  C403  1  0.75985000  0.20117000  0.48594000  1.0
  C  C404  1  0.51795000  0.15115000  0.54506000  1.0
  C  C405  1  0.60292000  0.09903000  0.54011000  1.0
  C  C406  1  0.68167000  0.11548000  0.52106000  1.0
  C  C407  1  0.67521000  0.18369000  0.50786000  1.0
  C  C408  1  0.58843000  0.23566000  0.51503000  1.0
  C  C409  1  0.50929000  0.21964000  0.53357000  1.0
  C  C410  1  0.43143000  0.11289000  0.50674000  1.0
  C  C411  1  0.35147000  0.09818000  0.52161000  1.0
  C  C412  1  0.33666000  0.07954000  0.46852000  1.0
  C  C413  1  0.40171000  0.07358000  0.40099000  1.0
  C  C414  1  0.48248000  0.08632000  0.38781000  1.0
  C  C415  1  0.49762000  0.10647000  0.43988000  1.0
  N  N416  1  0.06742000  0.76531000  0.64460000  1.0
  N  N417  1  0.91816000  0.81121000  0.00392000  1.0
  N  N418  1  0.15366000  0.75759000  0.43209000  1.0
  N  N419  1  0.47715000  0.73482000  0.85546000  1.0
  N  N420  1  0.73385000  0.68913000  0.49623000  1.0
  N  N421  1  0.34360000  0.74250000  0.06808000  1.0
  N  N422  1  0.33279000  0.64462000  0.73494000  1.0
  N  N423  1  0.23006000  0.00382000  0.68897000  1.0
  N  N424  1  0.41174000  0.43206000  0.74239000  1.0
  N  N425  1  0.71182000  0.85554000  0.76526000  1.0
  N  N426  1  0.92220000  0.49624000  0.81118000  1.0
  N  N427  1  0.58610000  0.06807000  0.75766000  1.0
  N  N428  1  0.93257000  0.23469000  0.35540000  1.0
  N  N429  1  0.08184000  0.18879000  0.99608000  1.0
  N  N430  1  0.84634000  0.24241000  0.56791000  1.0
  N  N431  1  0.52285000  0.26519000  0.14454000  1.0
  N  N432  1  0.26615000  0.31087000  0.50378000  1.0
  N  N433  1  0.65639000  0.25751000  0.93192000  1.0
  N  N434  1  0.66721000  0.35538000  0.26506000  1.0
  N  N435  1  0.76994000  0.99618000  0.31103000  1.0
  N  N436  1  0.58827000  0.56794000  0.25761000  1.0
  N  N437  1  0.28819000  0.14445000  0.23474000  1.0
  N  N438  1  0.07781000  0.50376000  0.18882000  1.0
  N  N439  1  0.41390000  0.93192000  0.24234000  1.0
  O  O440  1  0.00165000  0.71788000  0.55346000  1.0
  O  O441  1  0.14274000  0.64634000  0.54664000  1.0
  O  O442  1  0.48517000  0.52394000  0.76390000  1.0
  O  O443  1  0.50705000  0.52232000  0.65368000  1.0
  O  O444  1  0.92592000  0.43899000  0.63420000  1.0
  O  O445  1  0.98500000  0.85924000  0.54401000  1.0
  O  O446  1  0.27290000  0.78226000  0.94711000  1.0
  O  O447  1  0.33616000  0.85380000  0.95317000  1.0
  O  O448  1  0.77290000  0.97606000  0.73589000  1.0
  O  O449  1  0.68314000  0.97782000  0.84615000  1.0
  O  O450  1  0.99959000  0.06085000  0.86548000  1.0
  O  O451  1  0.38839000  0.64074000  0.95608000  1.0
  O  O452  1  0.21987000  0.55325000  0.78205000  1.0
  O  O453  1  0.28916000  0.54676000  0.85374000  1.0
  O  O454  1  0.50887000  0.76404000  0.97598000  1.0
  O  O455  1  0.52899000  0.65382000  0.97801000  1.0
  O  O456  1  0.86495000  0.63465000  0.06065000  1.0
  O  O457  1  0.34452000  0.54406000  0.64071000  1.0
  O  O458  1  0.55496000  0.94708000  0.71777000  1.0
  O  O459  1  0.68957000  0.95332000  0.64629000  1.0
  O  O460  1  0.24860000  0.73609000  0.52403000  1.0
  O  O461  1  0.16055000  0.84631000  0.52215000  1.0
  O  O462  1  0.56021000  0.86532000  0.43913000  1.0
  O  O463  1  0.52917000  0.95612000  0.85920000  1.0
  O  O464  1  0.99834000  0.28211000  0.44655000  1.0
  O  O465  1  0.85727000  0.35365000  0.45336000  1.0
  O  O466  1  0.51483000  0.47606000  0.23610000  1.0
  O  O467  1  0.49295000  0.47768000  0.34632000  1.0
  O  O468  1  0.07409000  0.56101000  0.36580000  1.0
  O  O469  1  0.01501000  0.14076000  0.45598000  1.0
  O  O470  1  0.72709000  0.21774000  0.05288000  1.0
  O  O471  1  0.66381000  0.14620000  0.04685000  1.0
  O  O472  1  0.22711000  0.02394000  0.26411000  1.0
  O  O473  1  0.31687000  0.02218000  0.15385000  1.0
  O  O474  1  0.00041000  0.93915000  0.13452000  1.0
  O  O475  1  0.61161000  0.35925000  0.04392000  1.0
  O  O476  1  0.78013000  0.44675000  0.21795000  1.0
  O  O477  1  0.71084000  0.45324000  0.14626000  1.0
  O  O478  1  0.49112000  0.23597000  0.02402000  1.0
  O  O479  1  0.47099000  0.34620000  0.02200000  1.0
  O  O480  1  0.13506000  0.36536000  0.93934000  1.0
  O  O481  1  0.65549000  0.45594000  0.35928000  1.0
  O  O482  1  0.44504000  0.05291000  0.28223000  1.0
  O  O483  1  0.31042000  0.04668000  0.35372000  1.0
  O  O484  1  0.75140000  0.26391000  0.47597000  1.0
  O  O485  1  0.83945000  0.15369000  0.47785000  1.0
  O  O486  1  0.43979000  0.13468000  0.56087000  1.0
  O  O487  1  0.47084000  0.04388000  0.14080000  1.0
