# generated using pymatgen
data_KH7C7SO5
_symmetry_space_group_name_H-M   'P 1'
_cell_length_a   6.37945000
_cell_length_b   10.02871172
_cell_length_c   16.17410000
_cell_angle_alpha   84.19672964
_cell_angle_beta   90.00220000
_cell_angle_gamma   71.45239438
_symmetry_Int_Tables_number   1
_chemical_formula_structural   KH7C7SO5
_chemical_formula_sum   'K4 H28 C28 S4 O20'
_cell_volume   975.43745228
_cell_formula_units_Z   4
loop_
 _symmetry_equiv_pos_site_id
 _symmetry_equiv_pos_as_xyz
  1  'x, y, z'
loop_
 _atom_site_type_symbol
 _atom_site_label
 _atom_site_symmetry_multiplicity
 _atom_site_fract_x
 _atom_site_fract_y
 _atom_site_fract_z
 _atom_site_occupancy
  K  K0  1  0.25039000  0.98802000  0.90297000  1.0
  K  K1  1  0.23798000  0.01217000  0.59723000  1.0
  K  K2  1  0.74960000  0.01199000  0.09704000  1.0
  K  K3  1  0.76205000  0.98782000  0.40277000  1.0
  H  H4  1  0.57136000  0.80289000  0.75488000  1.0
  H  H5  1  0.37324000  0.19717000  0.74545000  1.0
  H  H6  1  0.42864000  0.19711000  0.24512000  1.0
  H  H7  1  0.62676000  0.80283000  0.25456000  1.0
  H  H8  1  0.26719000  0.43776000  0.94291000  1.0
  H  H9  1  0.70450000  0.56241000  0.55717000  1.0
  H  H10  1  0.73282000  0.56223000  0.05709000  1.0
  H  H11  1  0.29550000  0.43759000  0.44283000  1.0
  H  H12  1  0.82243000  0.57174000  0.76610000  1.0
  H  H13  1  0.39307000  0.42819000  0.73439000  1.0
  H  H14  1  0.17756000  0.42827000  0.23390000  1.0
  H  H15  1  0.60694000  0.57181000  0.26561000  1.0
  H  H16  1  0.87518000  0.31804000  0.81143000  1.0
  H  H17  1  0.19262000  0.68188000  0.68892000  1.0
  H  H18  1  0.12481000  0.68197000  0.18856000  1.0
  H  H19  1  0.80738000  0.31812000  0.31109000  1.0
  H  H20  1  0.94306000  0.61736000  0.91624000  1.0
  H  H21  1  0.55944000  0.38310000  0.58382000  1.0
  H  H22  1  0.05695000  0.38264000  0.08376000  1.0
  H  H23  1  0.44056000  0.61689000  0.41618000  1.0
  H  H24  1  0.07543000  0.64636000  0.00847000  1.0
  H  H25  1  0.72101000  0.35388000  0.49164000  1.0
  H  H26  1  0.92456000  0.35364000  0.99153000  1.0
  H  H27  1  0.27900000  0.64611000  0.50836000  1.0
  H  H28  1  0.87909000  0.79157000  0.94759000  1.0
  H  H29  1  0.66946000  0.20886000  0.55255000  1.0
  H  H30  1  0.12091000  0.20843000  0.05241000  1.0
  H  H31  1  0.33054000  0.79114000  0.44745000  1.0
  C  C32  1  0.57220000  0.36451000  0.87915000  1.0
  C  C33  1  0.93622000  0.63561000  0.62104000  1.0
  C  C34  1  0.42779000  0.63549000  0.12085000  1.0
  C  C35  1  0.06378000  0.36439000  0.37896000  1.0
  C  C36  1  0.38596000  0.46904000  0.90392000  1.0
  C  C37  1  0.85436000  0.53114000  0.59628000  1.0
  C  C38  1  0.61403000  0.53097000  0.09608000  1.0
  C  C39  1  0.14564000  0.46886000  0.40372000  1.0
  C  C40  1  0.35487000  0.61079000  0.87709000  1.0
  C  C41  1  0.96476000  0.38935000  0.62315000  1.0
  C  C42  1  0.64513000  0.38921000  0.12291000  1.0
  C  C43  1  0.03526000  0.61064000  0.37684000  1.0
  C  C44  1  0.51212000  0.64789000  0.82557000  1.0
  C  C45  1  0.15895000  0.35216000  0.67477000  1.0
  C  C46  1  0.48787000  0.35212000  0.17443000  1.0
  C  C47  1  0.84105000  0.64784000  0.32523000  1.0
  C  C48  1  0.70038000  0.54207000  0.80424000  1.0
  C  C49  1  0.24144000  0.45791000  0.69617000  1.0
  C  C50  1  0.29961000  0.45793000  0.19576000  1.0
  C  C51  1  0.75858000  0.54208000  0.30383000  1.0
  C  C52  1  0.73063000  0.39996000  0.83020000  1.0
  C  C53  1  0.13001000  0.60002000  0.67006000  1.0
  C  C54  1  0.26936000  0.60005000  0.16980000  1.0
  C  C55  1  0.86999000  0.39998000  0.32994000  1.0
  C  C56  1  0.00990000  0.69070000  0.94516000  1.0
  C  C57  1  0.69963000  0.30966000  0.55496000  1.0
  C  C58  1  0.99010000  0.30930000  0.05484000  1.0
  C  C59  1  0.30037000  0.69034000  0.44504000  1.0
  S  S60  1  0.59772000  0.18375000  0.90362000  1.0
  S  S61  1  0.78143000  0.81637000  0.59640000  1.0
  S  S62  1  0.40229000  0.81625000  0.09638000  1.0
  S  S63  1  0.21857000  0.18363000  0.40360000  1.0
  O  O64  1  0.17867000  0.72174000  0.89551000  1.0
  O  O65  1  0.89935000  0.27850000  0.60467000  1.0
  O  O66  1  0.82133000  0.27826000  0.10449000  1.0
  O  O67  1  0.10065000  0.72150000  0.39533000  1.0
  O  O68  1  0.46969000  0.78733000  0.79973000  1.0
  O  O69  1  0.25573000  0.21272000  0.70069000  1.0
  O  O70  1  0.53031000  0.21267000  0.20027000  1.0
  O  O71  1  0.74428000  0.78728000  0.29931000  1.0
  O  O72  1  0.44328000  0.17596000  0.97010000  1.0
  O  O73  1  0.61927000  0.82421000  0.52987000  1.0
  O  O74  1  0.55671000  0.82405000  0.02990000  1.0
  O  O75  1  0.38073000  0.17579000  0.47013000  1.0
  O  O76  1  0.82975000  0.10964000  0.92956000  1.0
  O  O77  1  0.93982000  0.89012000  0.57050000  1.0
  O  O78  1  0.17025000  0.89036000  0.07044000  1.0
  O  O79  1  0.06019000  0.10987000  0.42950000  1.0
  O  O80  1  0.53727000  0.13409000  0.82647000  1.0
  O  O81  1  0.67115000  0.86621000  0.67349000  1.0
  O  O82  1  0.46272000  0.86591000  0.17354000  1.0
  O  O83  1  0.32886000  0.13378000  0.32652000  1.0
