# generated using pymatgen
data_ZnH16C27N2O7
_symmetry_space_group_name_H-M   'P 1'
_cell_length_a   9.51695000
_cell_length_b   11.05570000
_cell_length_c   28.09150000
_cell_angle_alpha   88.30440000
_cell_angle_beta   88.34490000
_cell_angle_gamma   87.79380000
_symmetry_Int_Tables_number   1
_chemical_formula_structural   ZnH16C27N2O7
_chemical_formula_sum   'Zn2 H32 C54 N4 O14'
_cell_volume   2951.06733860
_cell_formula_units_Z   2
loop_
 _symmetry_equiv_pos_site_id
 _symmetry_equiv_pos_as_xyz
  1  'x, y, z'
loop_
 _atom_site_type_symbol
 _atom_site_label
 _atom_site_symmetry_multiplicity
 _atom_site_fract_x
 _atom_site_fract_y
 _atom_site_fract_z
 _atom_site_occupancy
  Zn  Zn0  1  0.64137000  0.49532000  0.49725000  1.0
  Zn  Zn1  1  0.35941000  0.50520000  0.50303000  1.0
  H  H2  1  0.28784000  0.46220000  0.65613000  1.0
  H  H3  1  0.71323000  0.53119000  0.34432000  1.0
  H  H4  1  0.52263000  0.19740000  0.88067000  1.0
  H  H5  1  0.50833000  0.80285000  0.11956000  1.0
  H  H6  1  0.26951000  0.47821000  0.35251000  1.0
  H  H7  1  0.72874000  0.52745000  0.64756000  1.0
  H  H8  1  0.26458000  0.47419000  0.26292000  1.0
  H  H9  1  0.73385000  0.53225000  0.73715000  1.0
  H  H10  1  0.47557000  0.19747000  0.12598000  1.0
  H  H11  1  0.49539000  0.80499000  0.87416000  1.0
  H  H12  1  0.48571000  0.19400000  0.03784000  1.0
  H  H13  1  0.49204000  0.80830000  0.96231000  1.0
  H  H14  1  0.51306000  0.19345000  0.96889000  1.0
  H  H15  1  0.51332000  0.80714000  0.03131000  1.0
  H  H16  1  0.27824000  0.12208000  0.51073000  1.0
  H  H17  1  0.72454000  0.87842000  0.48959000  1.0
  H  H18  1  0.27612000  0.89460000  0.51075000  1.0
  H  H19  1  0.72667000  0.10594000  0.48958000  1.0
  H  H20  1  0.13511000  0.63956000  0.44948000  1.0
  H  H21  1  0.86562000  0.36100000  0.55077000  1.0
  H  H22  1  0.13504000  0.36920000  0.55497000  1.0
  H  H23  1  0.86559000  0.63163000  0.44544000  1.0
  H  H24  1  0.16496000  0.33356000  0.72214000  1.0
  H  H25  1  0.11341000  0.48520000  0.70459000  1.0
  H  H26  1  0.00617000  0.52307000  0.78436000  1.0
  H  H27  1  0.93681000  0.38883000  0.76202000  1.0
  H  H28  1  0.06790000  0.37810000  0.80606000  1.0
  H  H29  1  0.88958000  0.49676000  0.29455000  1.0
  H  H30  1  0.84118000  0.65188000  0.28164000  1.0
  H  H31  1  0.93279000  0.62301000  0.19620000  1.0
  H  H32  1  0.06613000  0.59919000  0.23898000  1.0
  H  H33  1  0.99048000  0.47271000  0.21270000  1.0
  C  C34  1  0.50352000  0.26226000  0.50034000  1.0
  C  C35  1  0.49915000  0.73823000  0.49999000  1.0
  C  C36  1  0.50198000  0.49284000  0.59419000  1.0
  C  C37  1  0.49741000  0.50706000  0.40611000  1.0
  C  C38  1  0.51946000  0.38794000  0.82148000  1.0
  C  C39  1  0.49263000  0.61294000  0.17872000  1.0
  C  C40  1  0.50749000  0.61475000  0.81895000  1.0
  C  C41  1  0.48025000  0.38698000  0.18117000  1.0
  C  C42  1  0.63667000  0.51706000  0.71897000  1.0
  C  C43  1  0.36230000  0.48675000  0.28116000  1.0
  C  C44  1  0.63417000  0.51396000  0.66947000  1.0
  C  C45  1  0.36472000  0.48933000  0.33068000  1.0
  C  C46  1  0.38387000  0.47711000  0.67478000  1.0
  C  C47  1  0.61657000  0.51911000  0.32561000  1.0
  C  C48  1  0.38612000  0.48049000  0.72441000  1.0
  C  C49  1  0.61432000  0.51626000  0.27597000  1.0
  C  C50  1  0.51441000  0.50031000  0.74615000  1.0
  C  C51  1  0.48529000  0.50047000  0.25406000  1.0
  C  C52  1  0.50868000  0.50113000  0.89819000  1.0
  C  C53  1  0.49252000  0.50036000  0.10197000  1.0
  C  C54  1  0.51488000  0.39022000  0.87411000  1.0
  C  C55  1  0.49639000  0.61079000  0.12608000  1.0
  C  C56  1  0.51702000  0.28144000  0.90010000  1.0
  C  C57  1  0.50439000  0.71923000  0.10011000  1.0
  C  C58  1  0.50564000  0.61218000  0.87170000  1.0
  C  C59  1  0.48462000  0.38969000  0.12843000  1.0
  C  C60  1  0.50742000  0.49415000  0.64747000  1.0
  C  C61  1  0.49215000  0.50551000  0.35282000  1.0
  C  C62  1  0.49632000  0.38785000  0.02732000  1.0
  C  C63  1  0.50151000  0.61381000  0.97283000  1.0
  C  C64  1  0.50202000  0.61346000  0.02493000  1.0
  C  C65  1  0.50452000  0.38790000  0.97523000  1.0
  C  C66  1  0.49692000  0.50056000  0.05099000  1.0
  C  C67  1  0.50500000  0.50095000  0.94917000  1.0
  C  C68  1  0.48800000  0.28084000  0.05504000  1.0
  C  C69  1  0.49733000  0.72122000  0.94511000  1.0
  C  C70  1  0.48193000  0.28135000  0.10477000  1.0
  C  C71  1  0.49904000  0.72079000  0.89537000  1.0
  C  C72  1  0.51148000  0.28066000  0.94983000  1.0
  C  C73  1  0.50696000  0.72021000  0.05036000  1.0
  C  C74  1  0.37533000  0.06768000  0.50622000  1.0
  C  C75  1  0.62750000  0.93283000  0.49417000  1.0
  C  C76  1  0.37407000  0.94196000  0.50607000  1.0
  C  C77  1  0.62875000  0.05856000  0.49431000  1.0
  C  C78  1  0.50017000  0.87366000  0.50003000  1.0
  C  C79  1  0.50264000  0.12685000  0.50037000  1.0
  C  C80  1  0.07311000  0.57825000  0.47191000  1.0
  C  C81  1  0.92764000  0.42238000  0.52839000  1.0
  C  C82  1  0.07314000  0.42721000  0.53078000  1.0
  C  C83  1  0.92760000  0.57352000  0.46955000  1.0
  C  C84  1  0.14483000  0.42609000  0.73505000  1.0
  C  C85  1  0.03242000  0.42948000  0.77429000  1.0
  C  C86  1  0.85817000  0.56199000  0.26597000  1.0
  C  C87  1  0.96827000  0.56409000  0.22598000  1.0
  N  N88  1  0.51703000  0.50137000  0.79727000  1.0
  N  N89  1  0.48301000  0.50000000  0.20294000  1.0
  N  N90  1  0.85703000  0.49557000  0.49777000  1.0
  N  N91  1  0.14374000  0.50508000  0.50254000  1.0
  O  O92  1  0.62288000  0.31114000  0.49788000  1.0
  O  O93  1  0.37979000  0.68930000  0.50280000  1.0
  O  O94  1  0.61796000  0.68119000  0.49727000  1.0
  O  O95  1  0.38462000  0.31929000  0.50262000  1.0
  O  O96  1  0.61899000  0.49098000  0.57089000  1.0
  O  O97  1  0.38031000  0.51018000  0.42936000  1.0
  O  O98  1  0.61862000  0.50446000  0.42447000  1.0
  O  O99  1  0.38073000  0.49453000  0.57589000  1.0
  O  O100  1  0.52583000  0.29347000  0.79934000  1.0
  O  O101  1  0.49644000  0.70701000  0.20088000  1.0
  O  O102  1  0.47449000  0.29250000  0.20525000  1.0
  O  O103  1  0.50156000  0.70930000  0.79479000  1.0
  O  O104  1  0.27235000  0.46729000  0.75443000  1.0
  O  O105  1  0.72874000  0.52677000  0.24611000  1.0
