# generated using pymatgen
data_CoH10(CO2)4
_symmetry_space_group_name_H-M   'P 1'
_cell_length_a   5.28359000
_cell_length_b   7.02543000
_cell_length_c   12.25080000
_cell_angle_alpha   89.59600000
_cell_angle_beta   88.87710000
_cell_angle_gamma   67.90590000
_symmetry_Int_Tables_number   1
_chemical_formula_structural   CoH10(CO2)4
_chemical_formula_sum   'Co2 H20 C8 O16'
_cell_volume   421.26951727
_cell_formula_units_Z   2
loop_
 _symmetry_equiv_pos_site_id
 _symmetry_equiv_pos_as_xyz
  1  'x, y, z'
loop_
 _atom_site_type_symbol
 _atom_site_label
 _atom_site_symmetry_multiplicity
 _atom_site_fract_x
 _atom_site_fract_y
 _atom_site_fract_z
 _atom_site_occupancy
  Co  Co0  1  0.97771000  0.04476000  0.25000000  1.0
  Co  Co1  1  0.02678000  0.94618000  0.74991000  1.0
  H  H2  1  0.68453000  0.60302000  0.44659000  1.0
  H  H3  1  0.71215000  0.60322000  0.05350000  1.0
  H  H4  1  0.31964000  0.39777000  0.55618000  1.0
  H  H5  1  0.28228000  0.39748000  0.94375000  1.0
  H  H6  1  0.41182000  0.09246000  0.14998000  1.0
  H  H7  1  0.49593000  0.09290000  0.35018000  1.0
  H  H8  1  0.59128000  0.89882000  0.85209000  1.0
  H  H9  1  0.50961000  0.89906000  0.64779000  1.0
  H  H10  1  0.29221000  0.93609000  0.09124000  1.0
  H  H11  1  0.77192000  0.93610000  0.40876000  1.0
  H  H12  1  0.69136000  0.07059000  0.90511000  1.0
  H  H13  1  0.23771000  0.07079000  0.59488000  1.0
  H  H14  1  0.55797000  0.40578000  0.19303000  1.0
  H  H15  1  0.03815000  0.40534000  0.30731000  1.0
  H  H16  1  0.44585000  0.59002000  0.80716000  1.0
  H  H17  1  0.96486000  0.58957000  0.69270000  1.0
  H  H18  1  0.67903000  0.28226000  0.08279000  1.0
  H  H19  1  0.03899000  0.28228000  0.41749000  1.0
  H  H20  1  0.31585000  0.71661000  0.91668000  1.0
  H  H21  1  0.96754000  0.71641000  0.58327000  1.0
  C  C22  1  0.24482000  0.72430000  0.42023000  1.0
  C  C23  1  0.03053000  0.72461000  0.07963000  1.0
  C  C24  1  0.76024000  0.27875000  0.58252000  1.0
  C  C25  1  0.96051000  0.27868000  0.91749000  1.0
  C  C26  1  0.49838000  0.57847000  0.46850000  1.0
  C  C27  1  0.92291000  0.57855000  0.03152000  1.0
  C  C28  1  0.50514000  0.42328000  0.53429000  1.0
  C  C29  1  0.07124000  0.42315000  0.96574000  1.0
  O  O30  1  0.27554000  0.83025000  0.33965000  1.0
  O  O31  1  0.89338000  0.83107000  0.16003000  1.0
  O  O32  1  0.73129000  0.16981000  0.66198000  1.0
  O  O33  1  0.09780000  0.17028000  0.83771000  1.0
  O  O34  1  0.01111000  0.73584000  0.45855000  1.0
  O  O35  1  0.25292000  0.73586000  0.04135000  1.0
  O  O36  1  0.99221000  0.27281000  0.54524000  1.0
  O  O37  1  0.73493000  0.27239000  0.95504000  1.0
  O  O38  1  0.24500000  0.07070000  0.13094000  1.0
  O  O39  1  0.68471000  0.07075000  0.36911000  1.0
  O  O40  1  0.75069000  0.93036000  0.87129000  1.0
  O  O41  1  0.31875000  0.93045000  0.62853000  1.0
  O  O42  1  0.63736000  0.26732000  0.16329000  1.0
  O  O43  1  0.09625000  0.26695000  0.33706000  1.0
  O  O44  1  0.35984000  0.72912000  0.83568000  1.0
  O  O45  1  0.91130000  0.72874000  0.66428000  1.0
