# generated using pymatgen
data_ZnH13C10N5O4
_symmetry_space_group_name_H-M   'P 1'
_cell_length_a   7.18515000
_cell_length_b   9.13761000
_cell_length_c   19.02520000
_cell_angle_alpha   90.00000000
_cell_angle_beta   90.89610000
_cell_angle_gamma   90.00000000
_symmetry_Int_Tables_number   1
_chemical_formula_structural   ZnH13C10N5O4
_chemical_formula_sum   'Zn4 H52 C40 N20 O16'
_cell_volume   1248.94861388
_cell_formula_units_Z   4
loop_
 _symmetry_equiv_pos_site_id
 _symmetry_equiv_pos_as_xyz
  1  'x, y, z'
loop_
 _atom_site_type_symbol
 _atom_site_label
 _atom_site_symmetry_multiplicity
 _atom_site_fract_x
 _atom_site_fract_y
 _atom_site_fract_z
 _atom_site_occupancy
  Zn  Zn0  1  0.66176000  0.29704000  0.83950000  1.0
  Zn  Zn1  1  0.33824000  0.79704000  0.16050000  1.0
  Zn  Zn2  1  0.39908000  0.79253000  0.66535000  1.0
  Zn  Zn3  1  0.60091000  0.29253000  0.33465000  1.0
  H  H4  1  0.78172000  0.30570000  0.67563000  1.0
  H  H5  1  0.21828000  0.80570000  0.32437000  1.0
  H  H6  1  0.49019000  0.60685000  0.79959000  1.0
  H  H7  1  0.50981000  0.10685000  0.20041000  1.0
  H  H8  1  0.74372000  0.43834000  0.54993000  1.0
  H  H9  1  0.25628000  0.93834000  0.45007000  1.0
  H  H10  1  0.68275000  0.62696000  0.54952000  1.0
  H  H11  1  0.31725000  0.12696000  0.45048000  1.0
  H  H12  1  0.35245000  0.57501000  0.54054000  1.0
  H  H13  1  0.64755000  0.07501000  0.45946000  1.0
  H  H14  1  0.23539000  0.39898000  0.73172000  1.0
  H  H15  1  0.76461000  0.89898000  0.26828000  1.0
  H  H16  1  0.92117000  0.35987000  0.93163000  1.0
  H  H17  1  0.07882000  0.85987000  0.06837000  1.0
  H  H18  1  0.93920000  0.18599000  0.90988000  1.0
  H  H19  1  0.06080000  0.68599000  0.09012000  1.0
  H  H20  1  0.21275000  0.30165000  0.86917000  1.0
  H  H21  1  0.78725000  0.80164000  0.13083000  1.0
  H  H22  1  0.07602000  0.44727000  0.83384000  1.0
  H  H23  1  0.92398000  0.94727000  0.16616000  1.0
  H  H24  1  0.44945000  0.26266000  0.57027000  1.0
  H  H25  1  0.55055000  0.76266000  0.42973000  1.0
  H  H26  1  0.03778000  0.19006000  0.64091000  1.0
  H  H27  1  0.96223000  0.69006000  0.35909000  1.0
  H  H28  1  0.28191000  0.15428000  0.64877000  1.0
  H  H29  1  0.71810000  0.65428000  0.35123000  1.0
  H  H30  1  0.60053000  0.10170000  0.70479000  1.0
  H  H31  1  0.39947000  0.60170000  0.29521000  1.0
  H  H32  1  0.29354000  0.95004000  0.94693000  1.0
  H  H33  1  0.70646000  0.45004000  0.05307000  1.0
  H  H34  1  0.34737000  0.13824000  0.94529000  1.0
  H  H35  1  0.65263000  0.63823000  0.05471000  1.0
  H  H36  1  0.66825000  0.10105000  0.97687000  1.0
  H  H37  1  0.33175000  0.60106000  0.02313000  1.0
  H  H38  1  0.29967000  0.80235000  0.82646000  1.0
  H  H39  1  0.70033000  0.30234000  0.17354000  1.0
  H  H40  1  0.09622000  0.81195000  0.59284000  1.0
  H  H41  1  0.90377000  0.31195000  0.40716000  1.0
  H  H42  1  0.09741000  0.65434000  0.63394000  1.0
  H  H43  1  0.90259000  0.15434000  0.36606000  1.0
  H  H44  1  0.83453000  0.80051000  0.67048000  1.0
  H  H45  1  0.16547000  0.30051000  0.32952000  1.0
  H  H46  1  0.99099000  0.94320000  0.69475000  1.0
  H  H47  1  0.00900000  0.44319000  0.30525000  1.0
  H  H48  1  0.89415000  0.93664000  0.80697000  1.0
  H  H49  1  0.10585000  0.43664000  0.19303000  1.0
  H  H50  1  0.60908000  0.78594000  0.94003000  1.0
  H  H51  1  0.39091000  0.28594000  0.05997000  1.0
  H  H52  1  0.07304000  0.74243000  0.90262000  1.0
  H  H53  1  0.92696000  0.24243000  0.09738000  1.0
  H  H54  1  0.84197000  0.67315000  0.89013000  1.0
  H  H55  1  0.15803000  0.17315000  0.10987000  1.0
  C  C56  1  0.69922000  0.40055000  0.68890000  1.0
  C  C57  1  0.30078000  0.90055000  0.31111000  1.0
  C  C58  1  0.63016000  0.50907000  0.64543000  1.0
  C  C59  1  0.36984000  0.00907000  0.35457000  1.0
  C  C60  1  0.54665000  0.55426000  0.75351000  1.0
  C  C61  1  0.45335000  0.05425000  0.24649000  1.0
  C  C62  1  0.47395000  0.46861000  0.45250000  1.0
  C  C63  1  0.52605000  0.96862000  0.54750000  1.0
  C  C64  1  0.63951000  0.51797000  0.56738000  1.0
  C  C65  1  0.36049000  0.01797000  0.43262000  1.0
  C  C66  1  0.44783000  0.48361000  0.53174000  1.0
  C  C67  1  0.55216000  0.98361000  0.46826000  1.0
  C  C68  1  0.07796000  0.32886000  0.84405000  1.0
  C  C69  1  0.92204000  0.82886000  0.15595000  1.0
  C  C70  1  0.06330000  0.24804000  0.77437000  1.0
  C  C71  1  0.93670000  0.74804000  0.22563000  1.0
  C  C72  1  0.17443000  0.23952000  0.65253000  1.0
  C  C73  1  0.82558000  0.73952000  0.34747000  1.0
  C  C74  1  0.20979000  0.36452000  0.60112000  1.0
  C  C75  1  0.79022000  0.86452000  0.39888000  1.0
  C  C76  1  0.53523000  0.05227000  0.74988000  1.0
  C  C77  1  0.46477000  0.55226000  0.25012000  1.0
  C  C78  1  0.43524000  0.01261000  0.85624000  1.0
  C  C79  1  0.56476000  0.51261000  0.14376000  1.0
  C  C80  1  0.40135000  0.02929000  0.93267000  1.0
  C  C81  1  0.59865000  0.52929000  0.06733000  1.0
  C  C82  1  0.57736000  0.00492000  0.97951000  1.0
  C  C83  1  0.42263000  0.50492000  0.02049000  1.0
  C  C84  1  0.50854000  0.99050000  0.05473000  1.0
  C  C85  1  0.49146000  0.49050000  0.94527000  1.0
  C  C86  1  0.37702000  0.89992000  0.81326000  1.0
  C  C87  1  0.62299000  0.39992000  0.18674000  1.0
  C  C88  1  0.97704000  0.82395000  0.68973000  1.0
  C  C89  1  0.02296000  0.32395000  0.31027000  1.0
  C  C90  1  0.99874000  0.75284000  0.76165000  1.0
  C  C91  1  0.00126000  0.25284000  0.23835000  1.0
  C  C92  1  0.85864000  0.89245000  0.93476000  1.0
  C  C93  1  0.14136000  0.39245000  0.06524000  1.0
  C  C94  1  0.92952000  0.77156000  0.88692000  1.0
  C  C95  1  0.07048000  0.27157000  0.11308000  1.0
  N  N96  1  0.64684000  0.42968000  0.75701000  1.0
  N  N97  1  0.35316000  0.92968000  0.24299000  1.0
  N  N98  1  0.53183000  0.60585000  0.68718000  1.0
  N  N99  1  0.46817000  0.10585000  0.31282000  1.0
  N  N100  1  0.17064000  0.30129000  0.72309000  1.0
  N  N101  1  0.82937000  0.80129000  0.27691000  1.0
  N  N102  1  0.92053000  0.29011000  0.88947000  1.0
  N  N103  1  0.07947000  0.79011000  0.11053000  1.0
  N  N104  1  0.36773000  0.35498000  0.56432000  1.0
  N  N105  1  0.63227000  0.85498000  0.43568000  1.0
  N  N106  1  0.53777000  0.10832000  0.81546000  1.0
  N  N107  1  0.46223000  0.60832000  0.18454000  1.0
  N  N108  1  0.43855000  0.92616000  0.74598000  1.0
  N  N109  1  0.56145000  0.42616000  0.25402000  1.0
  N  N110  1  0.11723000  0.76573000  0.64129000  1.0
  N  N111  1  0.88277000  0.26573000  0.35871000  1.0
  N  N112  1  0.92392000  0.82836000  0.81513000  1.0
  N  N113  1  0.07608000  0.32836000  0.18487000  1.0
  N  N114  1  0.68074000  0.88013000  0.95395000  1.0
  N  N115  1  0.31925000  0.38013000  0.04605000  1.0
  O  O116  1  0.52145000  0.33988000  0.43169000  1.0
  O  O117  1  0.47854000  0.83988000  0.56831000  1.0
  O  O118  1  0.45581000  0.57931000  0.41405000  1.0
  O  O119  1  0.54419000  0.07931000  0.58595000  1.0
  O  O120  1  0.95812000  0.14027000  0.76612000  1.0
  O  O121  1  0.04188000  0.64027000  0.23388000  1.0
  O  O122  1  0.09943000  0.46990000  0.59733000  1.0
  O  O123  1  0.90057000  0.96990000  0.40268000  1.0
  O  O124  1  0.48922000  0.85885000  0.07733000  1.0
  O  O125  1  0.51077000  0.35885000  0.92267000  1.0
  O  O126  1  0.07829000  0.63271000  0.76931000  1.0
  O  O127  1  0.92171000  0.13271000  0.23069000  1.0
  O  O128  1  0.96087000  0.99929000  0.95067000  1.0
  O  O129  1  0.03913000  0.49929000  0.04933000  1.0
  O  O130  1  0.46499000  0.10498000  0.08696000  1.0
  O  O131  1  0.53501000  0.60498000  0.91304000  1.0
