# generated using pymatgen
data_NiPH4CO4
_symmetry_space_group_name_H-M   'P 1'
_cell_length_a   4.69566000
_cell_length_b   5.59537000
_cell_length_c   15.32420000
_cell_angle_alpha   98.83540000
_cell_angle_beta   90.00000000
_cell_angle_gamma   90.00000000
_symmetry_Int_Tables_number   1
_chemical_formula_structural   NiPH4CO4
_chemical_formula_sum   'Ni4 P4 H16 C4 O16'
_cell_volume   397.84963417
_cell_formula_units_Z   4
loop_
 _symmetry_equiv_pos_site_id
 _symmetry_equiv_pos_as_xyz
  1  'x, y, z'
loop_
 _atom_site_type_symbol
 _atom_site_label
 _atom_site_symmetry_multiplicity
 _atom_site_fract_x
 _atom_site_fract_y
 _atom_site_fract_z
 _atom_site_occupancy
  Ni  Ni0  1  0.89131000  0.49474000  0.73836000  1.0
  Ni  Ni1  1  0.39130000  0.00527000  0.76164000  1.0
  Ni  Ni2  1  0.10869000  0.50527000  0.26164000  1.0
  Ni  Ni3  1  0.60869000  0.99473000  0.23836000  1.0
  P  P4  1  0.46731000  0.54685000  0.85966000  1.0
  P  P5  1  0.96731000  0.95315000  0.64034000  1.0
  P  P6  1  0.53272000  0.45316000  0.14034000  1.0
  P  P7  1  0.03272000  0.04684000  0.35966000  1.0
  H  H8  1  0.46882000  0.32104000  0.64223000  1.0
  H  H9  1  0.96882000  0.17896000  0.85777000  1.0
  H  H10  1  0.53118000  0.67896000  0.35777000  1.0
  H  H11  1  0.03118000  0.82104000  0.14223000  1.0
  H  H12  1  0.48426000  0.59988000  0.64021000  1.0
  H  H13  1  0.98426000  0.90012000  0.85979000  1.0
  H  H14  1  0.51574000  0.40012000  0.35979000  1.0
  H  H15  1  0.01574000  0.09988000  0.14021000  1.0
  H  H16  1  0.78927000  0.61339000  0.97918000  1.0
  H  H17  1  0.28927000  0.88661000  0.52082000  1.0
  H  H18  1  0.21073000  0.38661000  0.02082000  1.0
  H  H19  1  0.71073000  0.11339000  0.47918000  1.0
  H  H20  1  0.46956000  0.77719000  0.00344000  1.0
  H  H21  1  0.96957000  0.72280000  0.49656000  1.0
  H  H22  1  0.53043000  0.22281000  0.99656000  1.0
  H  H23  1  0.03043000  0.27719000  0.50344000  1.0
  C  C24  1  0.55599000  0.59929000  0.97538000  1.0
  C  C25  1  0.05599000  0.90071000  0.52462000  1.0
  C  C26  1  0.44400000  0.40071000  0.02462000  1.0
  C  C27  1  0.94401000  0.09929000  0.47538000  1.0
  O  O28  1  0.61682000  0.74899000  0.81529000  1.0
  O  O29  1  0.11682000  0.75101000  0.68471000  1.0
  O  O30  1  0.38318000  0.25101000  0.18471000  1.0
  O  O31  1  0.88317000  0.24899000  0.31529000  1.0
  O  O32  1  0.61690000  0.30579000  0.81600000  1.0
  O  O33  1  0.11690000  0.19421000  0.68400000  1.0
  O  O34  1  0.38310000  0.69422000  0.18400000  1.0
  O  O35  1  0.88310000  0.80578000  0.31600000  1.0
  O  O36  1  0.14497000  0.54184000  0.84933000  1.0
  O  O37  1  0.64497000  0.95816000  0.65067000  1.0
  O  O38  1  0.85500000  0.45817000  0.15067000  1.0
  O  O39  1  0.35500000  0.04183000  0.34933000  1.0
  O  O40  1  0.60236000  0.45244000  0.63437000  1.0
  O  O41  1  0.10236000  0.04756000  0.86563000  1.0
  O  O42  1  0.39764000  0.54756000  0.36563000  1.0
  O  O43  1  0.89764000  0.95244000  0.13437000  1.0
