# generated using pymatgen
data_AlH6(C5O3)2
_symmetry_space_group_name_H-M   'P 1'
_cell_length_a   6.66012000
_cell_length_b   14.13130000
_cell_length_c   18.89540000
_cell_angle_alpha   101.09100000
_cell_angle_beta   89.99580000
_cell_angle_gamma   89.99860000
_symmetry_Int_Tables_number   1
_chemical_formula_structural   AlH6(C5O3)2
_chemical_formula_sum   'Al4 H24 C40 O24'
_cell_volume   1745.14770164
_cell_formula_units_Z   4
loop_
 _symmetry_equiv_pos_site_id
 _symmetry_equiv_pos_as_xyz
  1  'x, y, z'
loop_
 _atom_site_type_symbol
 _atom_site_label
 _atom_site_symmetry_multiplicity
 _atom_site_fract_x
 _atom_site_fract_y
 _atom_site_fract_z
 _atom_site_occupancy
  Al  Al0  1  0.90790000  0.50070000  0.50424000  1.0
  Al  Al1  1  0.40789000  0.49930000  0.49577000  1.0
  Al  Al2  1  0.36971000  0.00042000  0.99786000  1.0
  Al  Al3  1  0.86973000  0.99956000  0.00215000  1.0
  H  H4  1  0.43085000  0.18732000  0.19100000  1.0
  H  H5  1  0.93086000  0.81268000  0.80898000  1.0
  H  H6  1  0.98070000  0.23879000  0.18671000  1.0
  H  H7  1  0.48065000  0.76125000  0.81328000  1.0
  H  H8  1  0.43402000  0.31366000  0.30274000  1.0
  H  H9  1  0.93395000  0.68629000  0.69725000  1.0
  H  H10  1  0.88732000  0.29328000  0.64123000  1.0
  H  H11  1  0.38755000  0.70668000  0.35886000  1.0
  H  H12  1  0.48836000  0.40122000  0.67992000  1.0
  H  H13  1  0.98854000  0.59874000  0.32000000  1.0
  H  H14  1  0.76508000  0.16406000  0.70508000  1.0
  H  H15  1  0.26513000  0.83592000  0.29499000  1.0
  H  H16  1  0.52923000  0.31079000  0.78034000  1.0
  H  H17  1  0.02925000  0.68916000  0.21958000  1.0
  H  H18  1  0.38912000  0.19696000  0.85353000  1.0
  H  H19  1  0.88906000  0.80301000  0.14644000  1.0
  H  H20  1  0.97764000  0.15811000  0.28866000  1.0
  H  H21  1  0.47799000  0.84207000  0.71139000  1.0
  H  H22  1  0.83449000  0.97855000  0.81508000  1.0
  H  H23  1  0.33440000  0.02140000  0.18497000  1.0
  H  H24  1  0.66656000  0.38045000  0.45959000  1.0
  H  H25  1  0.16645000  0.61955000  0.54042000  1.0
  H  H26  1  0.62419000  0.11626000  0.98049000  1.0
  H  H27  1  0.12417000  0.88370000  0.01950000  1.0
  C  C28  1  0.66529000  0.59363000  0.40493000  1.0
  C  C29  1  0.16505000  0.40635000  0.59509000  1.0
  C  C30  1  0.65132000  0.63094000  0.60282000  1.0
  C  C31  1  0.15144000  0.36911000  0.39719000  1.0
  C  C32  1  0.28881000  0.21928000  0.21292000  1.0
  C  C33  1  0.78881000  0.78072000  0.78708000  1.0
  C  C34  1  0.12359000  0.20347000  0.17052000  1.0
  C  C35  1  0.62355000  0.79654000  0.82948000  1.0
  C  C36  1  0.29255000  0.27803000  0.28424000  1.0
  C  C37  1  0.79254000  0.72200000  0.71575000  1.0
  C  C38  1  0.13300000  0.29309000  0.33043000  1.0
  C  C39  1  0.63301000  0.70701000  0.66955000  1.0
  C  C40  1  0.18325000  0.35311000  0.65596000  1.0
  C  C41  1  0.68342000  0.64686000  0.34404000  1.0
  C  C42  1  0.10139000  0.13020000  0.83480000  1.0
  C  C43  1  0.60127000  0.86974000  0.16518000  1.0
  C  C44  1  0.89966000  0.17444000  0.73872000  1.0
  C  C45  1  0.39966000  0.82552000  0.26132000  1.0
  C  C46  1  0.92386000  0.11883000  0.79089000  1.0
  C  C47  1  0.42375000  0.88109000  0.20911000  1.0
  C  C48  1  0.25282000  0.19094000  0.82107000  1.0
  C  C49  1  0.75274000  0.80903000  0.17891000  1.0
  C  C50  1  0.23312000  0.24624000  0.76636000  1.0
  C  C51  1  0.73313000  0.75374000  0.23362000  1.0
  C  C52  1  0.04945000  0.24007000  0.72579000  1.0
  C  C53  1  0.54949000  0.75989000  0.27423000  1.0
  C  C54  1  0.02682000  0.29637000  0.67189000  1.0
  C  C55  1  0.52697000  0.70361000  0.32815000  1.0
  C  C56  1  0.36670000  0.35733000  0.69484000  1.0
  C  C57  1  0.86683000  0.64262000  0.30512000  1.0
  C  C58  1  0.38935000  0.30673000  0.74979000  1.0
  C  C59  1  0.88939000  0.69323000  0.25017000  1.0
  C  C60  1  0.62241000  0.86538000  0.89916000  1.0
  C  C61  1  0.12241000  0.13459000  0.10084000  1.0
  C  C62  1  0.61637000  0.91603000  0.10084000  1.0
  C  C63  1  0.11647000  0.08395000  0.89917000  1.0
  C  C64  1  0.94751000  0.23379000  0.31658000  1.0
  C  C65  1  0.44767000  0.76646000  0.68335000  1.0
  C  C66  1  0.77744000  0.03988000  0.79206000  1.0
  C  C67  1  0.27732000  0.96006000  0.20799000  1.0
  O  O68  1  0.48869000  0.60175000  0.57140000  1.0
  O  O69  1  0.98894000  0.39803000  0.42881000  1.0
  O  O70  1  0.83058000  0.57447000  0.43278000  1.0
  O  O71  1  0.33027000  0.42519000  0.56702000  1.0
  O  O72  1  0.82605000  0.60024000  0.58284000  1.0
  O  O73  1  0.32613000  0.40004000  0.41700000  1.0
  O  O74  1  0.98926000  0.42625000  0.57567000  1.0
  O  O75  1  0.48947000  0.57405000  0.42455000  1.0
  O  O76  1  0.65768000  0.44033000  0.49491000  1.0
  O  O77  1  0.15775000  0.55966000  0.50511000  1.0
  O  O78  1  0.78915000  0.93216000  0.07682000  1.0
  O  O79  1  0.28924000  0.06783000  0.92319000  1.0
  O  O80  1  0.44945000  0.89257000  0.92425000  1.0
  O  O81  1  0.94943000  0.10743000  0.07576000  1.0
  O  O82  1  0.44957000  0.93324000  0.07250000  1.0
  O  O83  1  0.94966000  0.06672000  0.92751000  1.0
  O  O84  1  0.29115000  0.10677000  0.07253000  1.0
  O  O85  1  0.79116000  0.89318000  0.92747000  1.0
  O  O86  1  0.62038000  0.05697000  0.99898000  1.0
  O  O87  1  0.12038000  0.94299000  0.00101000  1.0
  O  O88  1  0.77566000  0.25937000  0.33468000  1.0
  O  O89  1  0.27581000  0.74106000  0.66515000  1.0
  O  O90  1  0.60789000  0.03741000  0.76620000  1.0
  O  O91  1  0.10775000  0.96251000  0.23384000  1.0
