# generated using pymatgen
data_NiH18C24S2(N4O3)2
_symmetry_space_group_name_H-M   'P 1'
_cell_length_a   7.41867000
_cell_length_b   15.60530000
_cell_length_c   17.09980000
_cell_angle_alpha   89.99990000
_cell_angle_beta   91.75020000
_cell_angle_gamma   89.99990000
_symmetry_Int_Tables_number   1
_chemical_formula_structural   NiH18C24S2(N4O3)2
_chemical_formula_sum   'Ni2 H36 C48 S4 N16 O12'
_cell_volume   1978.73006952
_cell_formula_units_Z   2
loop_
 _symmetry_equiv_pos_site_id
 _symmetry_equiv_pos_as_xyz
  1  'x, y, z'
loop_
 _atom_site_type_symbol
 _atom_site_label
 _atom_site_symmetry_multiplicity
 _atom_site_fract_x
 _atom_site_fract_y
 _atom_site_fract_z
 _atom_site_occupancy
  Ni  Ni0  1  0.00000000  0.00000000  0.00000000  1.0
  Ni  Ni1  1  0.00000000  0.50000000  0.50000000  1.0
  H  H2  1  0.88228000  0.13858000  0.70501000  1.0
  H  H3  1  0.11773000  0.63858000  0.79499000  1.0
  H  H4  1  0.11773000  0.86142000  0.29499000  1.0
  H  H5  1  0.88227000  0.36142000  0.20501000  1.0
  H  H6  1  0.49821000  0.34693000  0.71049000  1.0
  H  H7  1  0.50179000  0.84693000  0.78951000  1.0
  H  H8  1  0.50179000  0.65307000  0.28951000  1.0
  H  H9  1  0.49821000  0.15307000  0.21049000  1.0
  H  H10  1  0.34974000  0.27620000  0.82003000  1.0
  H  H11  1  0.65026000  0.77620000  0.67997000  1.0
  H  H12  1  0.65026000  0.72380000  0.17997000  1.0
  H  H13  1  0.34974000  0.22380000  0.32003000  1.0
  H  H14  1  0.62157000  0.14220000  0.99962000  1.0
  H  H15  1  0.37843000  0.64220000  0.50038000  1.0
  H  H16  1  0.37843000  0.85780000  0.00038000  1.0
  H  H17  1  0.62157000  0.35780000  0.49962000  1.0
  H  H18  1  0.36482000  0.06685000  0.06914000  1.0
  H  H19  1  0.63518000  0.56684000  0.43086000  1.0
  H  H20  1  0.63518000  0.93316000  0.93086000  1.0
  H  H21  1  0.36482000  0.43315000  0.56914000  1.0
  H  H22  1  0.16827000  0.08434000  0.84219000  1.0
  H  H23  1  0.83173000  0.58434000  0.65780000  1.0
  H  H24  1  0.83173000  0.91566000  0.15781000  1.0
  H  H25  1  0.16828000  0.41566000  0.34219000  1.0
  H  H26  1  0.81256000  0.42936000  0.66826000  1.0
  H  H27  1  0.18743000  0.92935000  0.83174000  1.0
  H  H28  1  0.18744000  0.57065000  0.33174000  1.0
  H  H29  1  0.81257000  0.07065000  0.16826000  1.0
  H  H30  1  0.99334000  0.31406000  0.47267000  1.0
  H  H31  1  0.00668000  0.81406000  0.02733000  1.0
  H  H32  1  0.00667000  0.68594000  0.52733000  1.0
  H  H33  1  0.99332000  0.18594000  0.97267000  1.0
  H  H34  1  0.86277000  0.18603000  0.54783000  1.0
  H  H35  1  0.13725000  0.68603000  0.95218000  1.0
  H  H36  1  0.13724000  0.81397000  0.45218000  1.0
  H  H37  1  0.86275000  0.31397000  0.04782000  1.0
  C  C38  1  0.53013000  0.16827000  0.82640000  1.0
  C  C39  1  0.46987000  0.66827000  0.67360000  1.0
  C  C40  1  0.46987000  0.83173000  0.17360000  1.0
  C  C41  1  0.53013000  0.33173000  0.32640000  1.0
  C  C42  1  0.68121000  0.13055000  0.79187000  1.0
  C  C43  1  0.31879000  0.63055000  0.70813000  1.0
  C  C44  1  0.31879000  0.86945000  0.20813000  1.0
  C  C45  1  0.68121000  0.36945000  0.29187000  1.0
  C  C46  1  0.76434000  0.16944000  0.72904000  1.0
  C  C47  1  0.23566000  0.66944000  0.77096000  1.0
  C  C48  1  0.23566000  0.83056000  0.27096000  1.0
  C  C49  1  0.76434000  0.33056000  0.22904000  1.0
  C  C50  1  0.70177000  0.24792000  0.69902000  1.0
  C  C51  1  0.29824000  0.74792000  0.80098000  1.0
  C  C52  1  0.29824000  0.75208000  0.30098000  1.0
  C  C53  1  0.70176000  0.25208000  0.19902000  1.0
  C  C54  1  0.55127000  0.28611000  0.73269000  1.0
  C  C55  1  0.44873000  0.78612000  0.76731000  1.0
  C  C56  1  0.44873000  0.71388000  0.26731000  1.0
  C  C57  1  0.55127000  0.21389000  0.23269000  1.0
  C  C58  1  0.46710000  0.24607000  0.79458000  1.0
  C  C59  1  0.53290000  0.74607000  0.70542000  1.0
  C  C60  1  0.53290000  0.75393000  0.20542000  1.0
  C  C61  1  0.46709000  0.25393000  0.29458000  1.0
  C  C62  1  0.43655000  0.13015000  0.89289000  1.0
  C  C63  1  0.56345000  0.63015000  0.60711000  1.0
  C  C64  1  0.56345000  0.86985000  0.10711000  1.0
  C  C65  1  0.43655000  0.36985000  0.39289000  1.0
  C  C66  1  0.49622000  0.12321000  0.97080000  1.0
  C  C67  1  0.50378000  0.62321000  0.52920000  1.0
  C  C68  1  0.50378000  0.87679000  0.02920000  1.0
  C  C69  1  0.49622000  0.37679000  0.47080000  1.0
  C  C70  1  0.26255000  0.09367000  0.89131000  1.0
  C  C71  1  0.73744000  0.59367000  0.60869000  1.0
  C  C72  1  0.73744000  0.90633000  0.10869000  1.0
  C  C73  1  0.26256000  0.40633000  0.39131000  1.0
  C  C74  1  0.79535000  0.28951000  0.63499000  1.0
  C  C75  1  0.20466000  0.78951000  0.86501000  1.0
  C  C76  1  0.20466000  0.71049000  0.36502000  1.0
  C  C77  1  0.79534000  0.21049000  0.13499000  1.0
  C  C78  1  0.83736000  0.37751000  0.62790000  1.0
  C  C79  1  0.16264000  0.87751000  0.87209000  1.0
  C  C80  1  0.16264000  0.62249000  0.37210000  1.0
  C  C81  1  0.83736000  0.12249000  0.12791000  1.0
  C  C82  1  0.86552000  0.25174000  0.56845000  1.0
  C  C83  1  0.13449000  0.75174000  0.93155000  1.0
  C  C84  1  0.13449000  0.74826000  0.43155000  1.0
  C  C85  1  0.86550000  0.24826000  0.06845000  1.0
  S  S86  1  0.78377000  0.03396000  0.82833000  1.0
  S  S87  1  0.21623000  0.53396000  0.67167000  1.0
  S  S88  1  0.21622000  0.96604000  0.17167000  1.0
  S  S89  1  0.78377000  0.46604000  0.32833000  1.0
  N  N90  1  0.36441000  0.08481000  0.01043000  1.0
  N  N91  1  0.63559000  0.58481000  0.48957000  1.0
  N  N92  1  0.63558000  0.91519000  0.98957000  1.0
  N  N93  1  0.36442000  0.41519000  0.51043000  1.0
  N  N94  1  0.22129000  0.06569000  0.96303000  1.0
  N  N95  1  0.77871000  0.56569000  0.53697000  1.0
  N  N96  1  0.77871000  0.93431000  0.03697000  1.0
  N  N97  1  0.22129000  0.43431000  0.46303000  1.0
  N  N98  1  0.92634000  0.39220000  0.56227000  1.0
  N  N99  1  0.07367000  0.89220000  0.93773000  1.0
  N  N100  1  0.07367000  0.60780000  0.43773000  1.0
  N  N101  1  0.92633000  0.10780000  0.06227000  1.0
  N  N102  1  0.94248000  0.31521000  0.52717000  1.0
  N  N103  1  0.05753000  0.81521000  0.97283000  1.0
  N  N104  1  0.05753000  0.68479000  0.47283000  1.0
  N  N105  1  0.94247000  0.18479000  0.02717000  1.0
  O  O106  1  0.64142000  0.96889000  0.83592000  1.0
  O  O107  1  0.35859000  0.46889000  0.66408000  1.0
  O  O108  1  0.35858000  0.03111000  0.16408000  1.0
  O  O109  1  0.64142000  0.53111000  0.33592000  1.0
  O  O110  1  0.85668000  0.06163000  0.90703000  1.0
  O  O111  1  0.14332000  0.56162000  0.59297000  1.0
  O  O112  1  0.14332000  0.93837000  0.09297000  1.0
  O  O113  1  0.85668000  0.43837000  0.40702000  1.0
  O  O114  1  0.92436000  0.01120000  0.77458000  1.0
  O  O115  1  0.07564000  0.51120000  0.72542000  1.0
  O  O116  1  0.07563000  0.98879000  0.22541000  1.0
  O  O117  1  0.92436000  0.48880000  0.27458000  1.0
