# generated using pymatgen
data_CuH2C2BrN
_symmetry_space_group_name_H-M   'P 1'
_cell_length_a   3.84987000
_cell_length_b   7.30776000
_cell_length_c   13.43460000
_cell_angle_alpha   89.99730000
_cell_angle_beta   89.99980000
_cell_angle_gamma   91.50660000
_symmetry_Int_Tables_number   1
_chemical_formula_structural   CuH2C2BrN
_chemical_formula_sum   'Cu4 H8 C8 Br4 N4'
_cell_volume   377.83737927
_cell_formula_units_Z   4
loop_
 _symmetry_equiv_pos_site_id
 _symmetry_equiv_pos_as_xyz
  1  'x, y, z'
loop_
 _atom_site_type_symbol
 _atom_site_label
 _atom_site_symmetry_multiplicity
 _atom_site_fract_x
 _atom_site_fract_y
 _atom_site_fract_z
 _atom_site_occupancy
  Cu  Cu0  1  0.69621000  0.87092000  0.96591000  1.0
  Cu  Cu1  1  0.69635000  0.87090000  0.53407000  1.0
  Cu  Cu2  1  0.30373000  0.12908000  0.03410000  1.0
  Cu  Cu3  1  0.30375000  0.12908000  0.46592000  1.0
  H  H4  1  0.81031000  0.95061000  0.75001000  1.0
  H  H5  1  0.18969000  0.04940000  0.25001000  1.0
  H  H6  1  0.31816000  0.53127000  0.91074000  1.0
  H  H7  1  0.31827000  0.53126000  0.58926000  1.0
  H  H8  1  0.68178000  0.46872000  0.08926000  1.0
  H  H9  1  0.68177000  0.46875000  0.41073000  1.0
  H  H10  1  0.14510000  0.37439000  0.75000000  1.0
  H  H11  1  0.85491000  0.62560000  0.24999000  1.0
  C  C12  1  0.66300000  0.82087000  0.74999000  1.0
  C  C13  1  0.33697000  0.17912000  0.25000000  1.0
  C  C14  1  0.39070000  0.58812000  0.83851000  1.0
  C  C15  1  0.39075000  0.58810000  0.66150000  1.0
  C  C16  1  0.60926000  0.41189000  0.16149000  1.0
  C  C17  1  0.60926000  0.41189000  0.33851000  1.0
  C  C18  1  0.29411000  0.50314000  0.75000000  1.0
  C  C19  1  0.70589000  0.49687000  0.24999000  1.0
  Br  Br20  1  0.82215000  0.20533000  0.92416000  1.0
  Br  Br21  1  0.82211000  0.20528000  0.57584000  1.0
  Br  Br22  1  0.17786000  0.79469000  0.07583000  1.0
  Br  Br23  1  0.17795000  0.79469000  0.42414000  1.0
  N  N24  1  0.57696000  0.74805000  0.83875000  1.0
  N  N25  1  0.57706000  0.74806000  0.66125000  1.0
  N  N26  1  0.42297000  0.25195000  0.16126000  1.0
  N  N27  1  0.42299000  0.25196000  0.33876000  1.0
