# generated using pymatgen
data_LiH11C12SO5
_symmetry_space_group_name_H-M   'P 1'
_cell_length_a   6.05117000
_cell_length_b   10.59670000
_cell_length_c   10.79280000
_cell_angle_alpha   74.00050000
_cell_angle_beta   89.66740000
_cell_angle_gamma   74.22140000
_symmetry_Int_Tables_number   1
_chemical_formula_structural   LiH11C12SO5
_chemical_formula_sum   'Li2 H22 C24 S2 O10'
_cell_volume   638.39511611
_cell_formula_units_Z   2
loop_
 _symmetry_equiv_pos_site_id
 _symmetry_equiv_pos_as_xyz
  1  'x, y, z'
loop_
 _atom_site_type_symbol
 _atom_site_label
 _atom_site_symmetry_multiplicity
 _atom_site_fract_x
 _atom_site_fract_y
 _atom_site_fract_z
 _atom_site_occupancy
  Li  Li0  1  0.25495000  0.56854000  0.61391000  1.0
  Li  Li1  1  0.74504000  0.43147000  0.38609000  1.0
  H  H2  1  0.64409000  0.60720000  0.64768000  1.0
  H  H3  1  0.35593000  0.39280000  0.35232000  1.0
  H  H4  1  0.69280000  0.46580000  0.60951000  1.0
  H  H5  1  0.30721000  0.53420000  0.39049000  1.0
  H  H6  1  0.06315000  0.37148000  0.63802000  1.0
  H  H7  1  0.93684000  0.62852000  0.36198000  1.0
  H  H8  1  0.46220000  0.74412000  0.35300000  1.0
  H  H9  1  0.53781000  0.25587000  0.64699000  1.0
  H  H10  1  0.45158000  0.98949000  0.27102000  1.0
  H  H11  1  0.54843000  0.01050000  0.72899000  1.0
  H  H12  1  0.73316000  0.10790000  0.34541000  1.0
  H  H13  1  0.26684000  0.89210000  0.65458000  1.0
  H  H14  1  0.74558000  0.86105000  0.42817000  1.0
  H  H15  1  0.25442000  0.13895000  0.57182000  1.0
  H  H16  1  0.42536000  0.34724000  0.10439000  1.0
  H  H17  1  0.57464000  0.65277000  0.89561000  1.0
  H  H18  1  0.45588000  0.41684000  0.86450000  1.0
  H  H19  1  0.54411000  0.58317000  0.13550000  1.0
  H  H20  1  0.86172000  0.28119000  0.81048000  1.0
  H  H21  1  0.13828000  0.71880000  0.18953000  1.0
  H  H22  1  0.83100000  0.21305000  0.04608000  1.0
  H  H23  1  0.16900000  0.78695000  0.95393000  1.0
  C  C24  1  0.10299000  0.78649000  0.39461000  1.0
  C  C25  1  0.89701000  0.21350000  0.60538000  1.0
  C  C26  1  0.30326000  0.82415000  0.35066000  1.0
  C  C27  1  0.69675000  0.17586000  0.64933000  1.0
  C  C28  1  0.29712000  0.96094000  0.30495000  1.0
  C  C29  1  0.70288000  0.03906000  0.69505000  1.0
  C  C30  1  0.09168000  0.06227000  0.30342000  1.0
  C  C31  1  0.90832000  0.93773000  0.69656000  1.0
  C  C32  1  0.89066000  0.02779000  0.34537000  1.0
  C  C33  1  0.10934000  0.97221000  0.65462000  1.0
  C  C34  1  0.89734000  0.89063000  0.39071000  1.0
  C  C35  1  0.10267000  0.10938000  0.60928000  1.0
  C  C36  1  0.12603000  0.27711000  0.08860000  1.0
  C  C37  1  0.87397000  0.72289000  0.91140000  1.0
  C  C38  1  0.30355000  0.33315000  0.03892000  1.0
  C  C39  1  0.69646000  0.66685000  0.96107000  1.0
  C  C40  1  0.32087000  0.37157000  0.90598000  1.0
  C  C41  1  0.67914000  0.62842000  0.09403000  1.0
  C  C42  1  0.16111000  0.35406000  0.82256000  1.0
  C  C43  1  0.83885000  0.64595000  0.17743000  1.0
  C  C44  1  0.98494000  0.29609000  0.87407000  1.0
  C  C45  1  0.01503000  0.70392000  0.12595000  1.0
  C  C46  1  0.96769000  0.25790000  0.00659000  1.0
  C  C47  1  0.03229000  0.74211000  0.99340000  1.0
  S  S48  1  0.09304000  0.23399000  0.25580000  1.0
  S  S49  1  0.90697000  0.76600000  0.74421000  1.0
  O  O50  1  0.10714000  0.65433000  0.43786000  1.0
  O  O51  1  0.89286000  0.34566000  0.56214000  1.0
  O  O52  1  0.57374000  0.53781000  0.63526000  1.0
  O  O53  1  0.42625000  0.46219000  0.36475000  1.0
  O  O54  1  0.18164000  0.39521000  0.69339000  1.0
  O  O55  1  0.81836000  0.60480000  0.30661000  1.0
  O  O56  1  0.29398000  0.24752000  0.31993000  1.0
  O  O57  1  0.70603000  0.75247000  0.68007000  1.0
  O  O58  1  0.86542000  0.31466000  0.27670000  1.0
  O  O59  1  0.13459000  0.68534000  0.72332000  1.0
