# generated using pymatgen
data_Zn2H27C52N2Cl5O8
_symmetry_space_group_name_H-M   'P 1'
_cell_length_a   13.47030000
_cell_length_b   18.02170900
_cell_length_c   19.65500000
_cell_angle_alpha   90.58666757
_cell_angle_beta   90.69320000
_cell_angle_gamma   110.95570873
_symmetry_Int_Tables_number   1
_chemical_formula_structural   Zn2H27C52N2Cl5O8
_chemical_formula_sum   'Zn2 H27 C52 N2 Cl5 O8'
_cell_volume   4454.94267259
_cell_formula_units_Z   1
loop_
 _symmetry_equiv_pos_site_id
 _symmetry_equiv_pos_as_xyz
  1  'x, y, z'
loop_
 _atom_site_type_symbol
 _atom_site_label
 _atom_site_symmetry_multiplicity
 _atom_site_fract_x
 _atom_site_fract_y
 _atom_site_fract_z
 _atom_site_occupancy
  Zn  Zn0  1  0.93442000  0.42212000  0.50049000  1.0
  Zn  Zn1  1  0.06691000  0.57906000  0.50240000  1.0
  H  H2  1  0.82740000  0.68328000  0.42998000  1.0
  H  H3  1  0.12491000  0.60704000  0.15701000  1.0
  H  H4  1  0.02501000  0.38447000  0.93678000  1.0
  H  H5  1  0.99070000  0.61304000  0.93919000  1.0
  H  H6  1  0.10386000  0.62451000  0.84671000  1.0
  H  H7  1  0.91552000  0.37601000  0.71494000  1.0
  H  H8  1  0.46411000  0.65793000  0.39327000  1.0
  H  H9  1  0.91457000  0.37453000  0.84177000  1.0
  H  H10  1  0.71422000  0.34786000  0.44320000  1.0
  H  H11  1  0.91058000  0.26681000  0.56145000  1.0
  H  H12  1  0.54289000  0.07782000  0.60840000  1.0
  H  H13  1  0.40888000  0.94109000  0.60543000  1.0
  H  H14  1  0.45857000  0.92342000  0.39061000  1.0
  H  H15  1  0.59279000  0.06009000  0.39361000  1.0
  H  H16  1  0.65943000  0.70490000  0.39830000  1.0
  H  H17  1  0.29144000  0.65278000  0.55473000  1.0
  H  H18  1  0.64745000  0.45697000  0.51137000  1.0
  H  H19  1  0.50763000  0.37197000  0.52177000  1.0
  H  H20  1  0.12710000  0.61063000  0.28432000  1.0
  H  H21  1  0.86802000  0.38676000  0.28440000  1.0
  H  H22  1  0.01595000  0.38098000  0.06222000  1.0
  H  H23  1  0.98446000  0.61031000  0.06506000  1.0
  H  H24  1  0.10028000  0.62510000  0.71975000  1.0
  H  H25  1  0.08833000  0.73419000  0.44335000  1.0
  H  H26  1  0.16956000  0.31071000  0.53712000  1.0
  H  H27  1  0.33252000  0.27504000  0.55044000  1.0
  H  H28  1  0.29025000  0.56197000  0.42622000  1.0
  C  C29  1  0.00521000  0.50104000  0.63362000  1.0
  C  C30  1  0.44762000  0.46181000  0.48617000  1.0
  C  C31  1  0.35392000  0.47995000  0.47463000  1.0
  C  C32  1  0.55073000  0.52064000  0.46996000  1.0
  C  C33  1  0.55612000  0.59266000  0.43780000  1.0
  C  C34  1  0.45937000  0.60457000  0.42103000  1.0
  C  C35  1  0.36277000  0.55137000  0.43928000  1.0
  C  C36  1  0.64688000  0.51029000  0.48622000  1.0
  C  C37  1  0.74981000  0.63892000  0.44068000  1.0
  C  C38  1  0.25422000  0.42504000  0.49642000  1.0
  C  C39  1  0.07004000  0.56117000  0.25591000  1.0
  C  C40  1  0.15665000  0.44666000  0.49817000  1.0
  C  C41  1  0.06806000  0.55892000  0.18517000  1.0
  C  C42  1  0.99593000  0.49476000  0.14781000  1.0
  C  C43  1  0.92372000  0.43293000  0.18529000  1.0
  C  C44  1  0.92469000  0.43465000  0.25616000  1.0
  C  C45  1  0.99835000  0.49856000  0.29193000  1.0
  C  C46  1  0.00960000  0.43170000  0.03528000  1.0
  C  C47  1  0.01419000  0.43360000  0.96464000  1.0
  C  C48  1  0.00768000  0.49874000  0.92855000  1.0
  C  C49  1  0.99817000  0.56259000  0.96608000  1.0
  C  C50  1  0.99416000  0.56094000  0.03685000  1.0
  C  C51  1  0.99958000  0.49943000  0.36819000  1.0
  C  C52  1  0.99887000  0.49519000  0.07261000  1.0
  C  C53  1  0.06101000  0.56998000  0.81807000  1.0
  C  C54  1  0.06010000  0.57061000  0.74727000  1.0
  C  C55  1  0.00769000  0.50062000  0.70979000  1.0
  C  C56  1  0.95665000  0.42997000  0.74457000  1.0
  C  C57  1  0.95722000  0.42943000  0.81531000  1.0
  C  C58  1  0.00913000  0.49948000  0.85345000  1.0
  C  C59  1  0.72400000  0.29766000  0.46911000  1.0
  C  C60  1  0.64359000  0.22284000  0.46895000  1.0
  C  C61  1  0.65843000  0.15888000  0.50268000  1.0
  C  C62  1  0.84365000  0.55171000  0.49025000  1.0
  C  C63  1  0.75669000  0.17628000  0.53705000  1.0
  C  C64  1  0.83384000  0.25240000  0.53557000  1.0
  C  C65  1  0.52459000  0.04392000  0.56069000  1.0
  C  C66  1  0.44935000  0.96717000  0.55901000  1.0
  C  C67  1  0.42502000  0.92325000  0.49787000  1.0
  C  C68  1  0.47699000  0.95724000  0.43836000  1.0
  C  C69  1  0.55229000  0.03401000  0.44002000  1.0
  C  C70  1  0.57671000  0.07786000  0.50120000  1.0
  C  C71  1  0.24381000  0.82461000  0.46440000  1.0
  C  C72  1  0.16661000  0.74862000  0.46717000  1.0
  C  C73  1  0.65672000  0.65043000  0.42336000  1.0
  C  C74  1  0.27990000  0.70323000  0.53036000  1.0
  C  C75  1  0.36011000  0.77815000  0.52950000  1.0
  C  C76  1  0.34355000  0.84207000  0.49683000  1.0
  C  C77  1  0.74503000  0.56790000  0.47251000  1.0
  C  C78  1  0.24719000  0.35187000  0.52212000  1.0
  C  C79  1  0.33870000  0.33259000  0.53010000  1.0
  C  C80  1  0.43718000  0.38727000  0.51368000  1.0
  N  N81  1  0.81685000  0.31091000  0.50167000  1.0
  N  N82  1  0.18525000  0.69011000  0.50016000  1.0
  Cl  Cl83  1  0.82680000  0.35315000  0.14429000  1.0
  Cl  Cl84  1  0.52520000  0.21134000  0.42776000  1.0
  Cl  Cl85  1  0.78627000  0.10393000  0.58040000  1.0
  Cl  Cl86  1  0.21271000  0.89692000  0.42202000  1.0
  Cl  Cl87  1  0.48032000  0.79004000  0.56825000  1.0
  O  O88  1  0.96590000  0.43375000  0.60307000  1.0
  O  O89  1  0.04223000  0.56840000  0.60487000  1.0
  O  O90  1  0.06674000  0.39183000  0.48679000  1.0
  O  O91  1  0.17099000  0.51862000  0.51384000  1.0
  O  O92  1  0.92941000  0.44172000  0.39736000  1.0
  O  O93  1  0.07063000  0.55777000  0.39821000  1.0
  O  O94  1  0.83063000  0.48217000  0.51122000  1.0
  O  O95  1  0.93364000  0.60713000  0.48247000  1.0
