# generated using pymatgen
data_HoH25C17(N3O4)2
_symmetry_space_group_name_H-M   'P 1'
_cell_length_a   8.58619000
_cell_length_b   11.00870000
_cell_length_c   13.41200000
_cell_angle_alpha   101.49800000
_cell_angle_beta   107.65900000
_cell_angle_gamma   106.53100000
_symmetry_Int_Tables_number   1
_chemical_formula_structural   HoH25C17(N3O4)2
_chemical_formula_sum   'Ho2 H50 C34 N12 O16'
_cell_volume   1099.99625827
_cell_formula_units_Z   2
loop_
 _symmetry_equiv_pos_site_id
 _symmetry_equiv_pos_as_xyz
  1  'x, y, z'
loop_
 _atom_site_type_symbol
 _atom_site_label
 _atom_site_symmetry_multiplicity
 _atom_site_fract_x
 _atom_site_fract_y
 _atom_site_fract_z
 _atom_site_occupancy
  Ho  Ho0  1  0.25750000  0.11004000  0.06156000  1.0
  Ho  Ho1  1  0.74250000  0.88996000  0.93844000  1.0
  H  H2  1  0.20221000  0.53132000  0.04353000  1.0
  H  H3  1  0.79779000  0.46868000  0.95648000  1.0
  H  H4  1  0.05307000  0.43817000  0.20840000  1.0
  H  H5  1  0.94693000  0.56183000  0.79160000  1.0
  H  H6  1  0.12665000  0.70338000  0.14941000  1.0
  H  H7  1  0.87334000  0.29662000  0.85058000  1.0
  H  H8  1  0.15690000  0.69170000  0.28408000  1.0
  H  H9  1  0.84309000  0.30830000  0.71592000  1.0
  H  H10  1  0.94328000  0.62946000  0.18257000  1.0
  H  H11  1  0.05672000  0.37054000  0.81742000  1.0
  H  H12  1  0.83677000  0.39956000  0.32989000  1.0
  H  H13  1  0.16324000  0.60044000  0.67010000  1.0
  H  H14  1  0.87242000  0.12733000  0.26324000  1.0
  H  H15  1  0.12758000  0.87267000  0.73676000  1.0
  H  H16  1  0.13958000  0.40654000  0.42473000  1.0
  H  H17  1  0.86041000  0.59346000  0.57527000  1.0
  H  H18  1  0.18632000  0.29863000  0.32917000  1.0
  H  H19  1  0.81368000  0.70136000  0.67083000  1.0
  H  H20  1  0.14451000  0.24911000  0.43786000  1.0
  H  H21  1  0.85550000  0.75089000  0.56214000  1.0
  H  H22  1  0.88128000  0.85881000  0.21771000  1.0
  H  H23  1  0.11871000  0.14119000  0.78229000  1.0
  H  H24  1  0.24701000  0.00463000  0.40493000  1.0
  H  H25  1  0.75299000  0.99537000  0.59507000  1.0
  H  H26  1  0.90111000  0.79086000  0.38548000  1.0
  H  H27  1  0.09889000  0.20914000  0.61452000  1.0
  H  H28  1  0.05803000  0.91965000  0.50975000  1.0
  H  H29  1  0.94197000  0.08035000  0.49025000  1.0
  H  H30  1  0.11750000  0.79256000  0.45105000  1.0
  H  H31  1  0.88250000  0.20744000  0.54896000  1.0
  H  H32  1  0.11302000  0.81972000  0.94754000  1.0
  H  H33  1  0.88698000  0.18029000  0.05246000  1.0
  H  H34  1  0.32771000  0.85633000  0.99942000  1.0
  H  H35  1  0.67228000  0.14367000  0.00058000  1.0
  H  H36  1  0.40672000  0.02716000  0.90061000  1.0
  H  H37  1  0.59328000  0.97284000  0.09938000  1.0
  H  H38  1  0.41768000  0.17074000  0.88982000  1.0
  H  H39  1  0.58232000  0.82926000  0.11017000  1.0
  H  H40  1  0.48214000  0.58601000  0.57574000  1.0
  H  H41  1  0.51786000  0.41399000  0.42426000  1.0
  H  H42  1  0.51672000  0.75283000  0.62828000  1.0
  H  H43  1  0.48327000  0.24717000  0.37172000  1.0
  H  H44  1  0.52188000  0.03441000  0.41946000  1.0
  H  H45  1  0.47812000  0.96559000  0.58054000  1.0
  H  H46  1  0.53802000  0.98984000  0.29155000  1.0
  H  H47  1  0.46198000  0.01017000  0.70845000  1.0
  H  H48  1  0.61086000  0.59050000  0.08960000  1.0
  H  H49  1  0.38914000  0.40951000  0.91040000  1.0
  H  H50  1  0.55747000  0.45408000  0.22108000  1.0
  H  H51  1  0.44253000  0.54592000  0.77892000  1.0
  C  C52  1  0.17697000  0.33760000  0.06880000  1.0
  C  C53  1  0.82304000  0.66240000  0.93120000  1.0
  C  C54  1  0.15601000  0.46679000  0.08882000  1.0
  C  C55  1  0.84399000  0.53322000  0.91119000  1.0
  C  C56  1  0.09387000  0.50735000  0.16465000  1.0
  C  C57  1  0.90613000  0.49266000  0.83535000  1.0
  C  C58  1  0.07992000  0.63965000  0.19563000  1.0
  C  C59  1  0.92008000  0.36035000  0.80437000  1.0
  C  C60  1  0.61516000  0.22251000  0.21356000  1.0
  C  C61  1  0.38484000  0.77748000  0.78644000  1.0
  C  C62  1  0.79926000  0.29344000  0.28889000  1.0
  C  C63  1  0.20075000  0.70656000  0.71111000  1.0
  C  C64  1  0.91731000  0.23393000  0.30664000  1.0
  C  C65  1  0.08269000  0.76607000  0.69336000  1.0
  C  C66  1  0.10575000  0.30208000  0.37900000  1.0
  C  C67  1  0.89425000  0.69792000  0.62100000  1.0
  C  C68  1  0.09732000  0.99679000  0.19613000  1.0
  C  C69  1  0.90267000  0.00321000  0.80387000  1.0
  C  C70  1  0.01839000  0.92597000  0.26115000  1.0
  C  C71  1  0.98161000  0.07403000  0.73885000  1.0
  C  C72  1  0.11006000  0.93536000  0.36519000  1.0
  C  C73  1  0.88993000  0.06464000  0.63481000  1.0
  C  C74  1  0.04038000  0.85512000  0.42994000  1.0
  C  C75  1  0.95962000  0.14488000  0.57006000  1.0
  C  C76  1  0.49446000  0.69496000  0.47043000  1.0
  C  C77  1  0.50554000  0.30505000  0.52957000  1.0
  C  C78  1  0.53518000  0.62774000  0.31498000  1.0
  C  C79  1  0.46482000  0.37226000  0.68502000  1.0
  C  C80  1  0.54444000  0.74819000  0.29203000  1.0
  C  C81  1  0.45556000  0.25182000  0.70797000  1.0
  C  C82  1  0.52828000  0.84667000  0.37039000  1.0
  C  C83  1  0.47173000  0.15334000  0.62961000  1.0
  C  C84  1  0.58547000  0.62485000  0.16275000  1.0
  C  C85  1  0.41453000  0.37516000  0.83724000  1.0
  N  N86  1  0.50348000  0.81686000  0.45904000  1.0
  N  N87  1  0.49652000  0.18314000  0.54096000  1.0
  N  N88  1  0.46725000  0.67106000  0.56088000  1.0
  N  N89  1  0.53275000  0.32895000  0.43911000  1.0
  N  N90  1  0.50802000  0.59469000  0.40078000  1.0
  N  N91  1  0.49198000  0.40532000  0.59922000  1.0
  N  N92  1  0.54051000  0.96874000  0.36234000  1.0
  N  N93  1  0.45949000  0.03126000  0.63766000  1.0
  N  N94  1  0.57532000  0.74343000  0.19544000  1.0
  N  N95  1  0.42468000  0.25657000  0.80456000  1.0
  N  N96  1  0.56440000  0.55235000  0.23269000  1.0
  N  N97  1  0.43560000  0.44766000  0.76731000  1.0
  O  O98  1  0.11217000  0.25148000  0.11296000  1.0
  O  O99  1  0.88783000  0.74852000  0.88704000  1.0
  O  O100  1  0.26346000  0.31005000  0.01098000  1.0
  O  O101  1  0.73654000  0.68995000  0.98902000  1.0
  O  O102  1  0.54778000  0.09573000  0.16686000  1.0
  O  O103  1  0.45222000  0.90426000  0.83314000  1.0
  O  O104  1  0.51492000  0.28951000  0.19302000  1.0
  O  O105  1  0.48508000  0.71048000  0.80698000  1.0
  O  O106  1  0.25710000  0.07559000  0.23343000  1.0
  O  O107  1  0.74290000  0.92441000  0.76657000  1.0
  O  O108  1  0.00047000  0.97472000  0.09404000  1.0
  O  O109  1  0.99952000  0.02528000  0.90596000  1.0
  O  O110  1  0.23056000  0.88656000  0.99999000  1.0
  O  O111  1  0.76944000  0.11344000  0.00001000  1.0
  O  O112  1  0.41897000  0.11642000  0.94439000  1.0
  O  O113  1  0.58103000  0.88358000  0.05561000  1.0
