# generated using pymatgen
data_CuH14C18N6Cl
_symmetry_space_group_name_H-M   'P 1'
_cell_length_a   8.02652000
_cell_length_b   8.31799000
_cell_length_c   12.73750000
_cell_angle_alpha   85.42760000
_cell_angle_beta   78.56620000
_cell_angle_gamma   77.17000000
_symmetry_Int_Tables_number   1
_chemical_formula_structural   CuH14C18N6Cl
_chemical_formula_sum   'Cu2 H28 C36 N12 Cl2'
_cell_volume   812.15810928
_cell_formula_units_Z   2
loop_
 _symmetry_equiv_pos_site_id
 _symmetry_equiv_pos_as_xyz
  1  'x, y, z'
loop_
 _atom_site_type_symbol
 _atom_site_label
 _atom_site_symmetry_multiplicity
 _atom_site_fract_x
 _atom_site_fract_y
 _atom_site_fract_z
 _atom_site_occupancy
  Cu  Cu0  1  0.04826000  0.36449000  0.56993000  1.0
  Cu  Cu1  1  0.95174000  0.63551000  0.43007000  1.0
  H  H2  1  0.36458000  0.46473000  0.67137000  1.0
  H  H3  1  0.63543000  0.53527000  0.32863000  1.0
  H  H4  1  0.82088000  0.51254000  0.76246000  1.0
  H  H5  1  0.17913000  0.48745000  0.23753000  1.0
  H  H6  1  0.93773000  0.66126000  0.91547000  1.0
  H  H7  1  0.06227000  0.33874000  0.08453000  1.0
  H  H8  1  0.13863000  0.60375000  0.02178000  1.0
  H  H9  1  0.86136000  0.39625000  0.97822000  1.0
  H  H10  1  0.33054000  0.70094000  0.12155000  1.0
  H  H11  1  0.66945000  0.29906000  0.87845000  1.0
  H  H12  1  0.67255000  0.77285000  0.82381000  1.0
  H  H13  1  0.32745000  0.22714000  0.17620000  1.0
  H  H14  1  0.48723000  0.66626000  0.72318000  1.0
  H  H15  1  0.51277000  0.33374000  0.27682000  1.0
  H  H16  1  0.52387000  0.88399000  0.32325000  1.0
  H  H17  1  0.47614000  0.11601000  0.67675000  1.0
  H  H18  1  0.70715000  0.99850000  0.42379000  1.0
  H  H19  1  0.29285000  0.00150000  0.57621000  1.0
  H  H20  1  0.10020000  0.98390000  0.13750000  1.0
  H  H21  1  0.89980000  0.01610000  0.86250000  1.0
  H  H22  1  0.91255000  0.87954000  0.03721000  1.0
  H  H23  1  0.08744000  0.12047000  0.96279000  1.0
  H  H24  1  0.81567000  0.22193000  0.45684000  1.0
  H  H25  1  0.18433000  0.77807000  0.54316000  1.0
  H  H26  1  0.36042000  0.15465000  0.40354000  1.0
  H  H27  1  0.63958000  0.84537000  0.59646000  1.0
  H  H28  1  0.27539000  0.95379000  0.26532000  1.0
  H  H29  1  0.72463000  0.04620000  0.73468000  1.0
  C  C30  1  0.23128000  0.49806000  0.71511000  1.0
  C  C31  1  0.76872000  0.50194000  0.28489000  1.0
  C  C32  1  0.95029000  0.52455000  0.76902000  1.0
  C  C33  1  0.04972000  0.47545000  0.23098000  1.0
  C  C34  1  0.00792000  0.59497000  0.84461000  1.0
  C  C35  1  0.99208000  0.40503000  0.15538000  1.0
  C  C36  1  0.29791000  0.63367000  0.86581000  1.0
  C  C37  1  0.70208000  0.36633000  0.13420000  1.0
  C  C38  1  0.25396000  0.64412000  0.97794000  1.0
  C  C39  1  0.74604000  0.35588000  0.02207000  1.0
  C  C40  1  0.36044000  0.69890000  0.03422000  1.0
  C  C41  1  0.63955000  0.30110000  0.96578000  1.0
  C  C42  1  0.51308000  0.74564000  0.97796000  1.0
  C  C43  1  0.48691000  0.25435000  0.02205000  1.0
  C  C44  1  0.55549000  0.73435000  0.86624000  1.0
  C  C45  1  0.44451000  0.26564000  0.13376000  1.0
  C  C46  1  0.45007000  0.67804000  0.80969000  1.0
  C  C47  1  0.54993000  0.32195000  0.19032000  1.0
  C  C48  1  0.70341000  0.88095000  0.17372000  1.0
  C  C49  1  0.29659000  0.11905000  0.82627000  1.0
  C  C50  1  0.64741000  0.91275000  0.28304000  1.0
  C  C51  1  0.35259000  0.08725000  0.71695000  1.0
  C  C52  1  0.75039000  0.97338000  0.33906000  1.0
  C  C53  1  0.24962000  0.02661000  0.66094000  1.0
  C  C54  1  0.91271000  0.00053000  0.28609000  1.0
  C  C55  1  0.08730000  0.99946000  0.71390000  1.0
  C  C56  1  0.97301000  0.96361000  0.17780000  1.0
  C  C57  1  0.02699000  0.03638000  0.82219000  1.0
  C  C58  1  0.86867000  0.90491000  0.12185000  1.0
  C  C59  1  0.13133000  0.09509000  0.87815000  1.0
  C  C60  1  0.95184000  0.17461000  0.42380000  1.0
  C  C61  1  0.04816000  0.82539000  0.57620000  1.0
  C  C62  1  0.23484000  0.13727000  0.39345000  1.0
  C  C63  1  0.76515000  0.86273000  0.60655000  1.0
  C  C64  1  0.19518000  0.04170000  0.32285000  1.0
  C  C65  1  0.80482000  0.95831000  0.67716000  1.0
  N  N66  1  0.08977000  0.46476000  0.68905000  1.0
  N  N67  1  0.91023000  0.53523000  0.31095000  1.0
  N  N68  1  0.18630000  0.57782000  0.81025000  1.0
  N  N69  1  0.81370000  0.42218000  0.18975000  1.0
  N  N70  1  0.63395000  0.79936000  0.02573000  1.0
  N  N71  1  0.36604000  0.20064000  0.97427000  1.0
  N  N72  1  0.58331000  0.82869000  0.12469000  1.0
  N  N73  1  0.41669000  0.17132000  0.87531000  1.0
  N  N74  1  0.01501000  0.06732000  0.34237000  1.0
  N  N75  1  0.98499000  0.93268000  0.65762000  1.0
  N  N76  1  0.08219000  0.21930000  0.45575000  1.0
  N  N77  1  0.91781000  0.78070000  0.54425000  1.0
  Cl  Cl78  1  0.71185000  0.39574000  0.61847000  1.0
  Cl  Cl79  1  0.28815000  0.60426000  0.38153000  1.0
