# generated using pymatgen
data_ZnH3C4(NO)4
_symmetry_space_group_name_H-M   'P 1'
_cell_length_a   12.99490000
_cell_length_b   13.83860000
_cell_length_c   16.94440000
_cell_angle_alpha   90.00020000
_cell_angle_beta   90.00040000
_cell_angle_gamma   90.00000000
_symmetry_Int_Tables_number   1
_chemical_formula_structural   ZnH3C4(NO)4
_chemical_formula_sum   'Zn16 H48 C64 N64 O64'
_cell_volume   3047.13217728
_cell_formula_units_Z   16
loop_
 _symmetry_equiv_pos_site_id
 _symmetry_equiv_pos_as_xyz
  1  'x, y, z'
loop_
 _atom_site_type_symbol
 _atom_site_label
 _atom_site_symmetry_multiplicity
 _atom_site_fract_x
 _atom_site_fract_y
 _atom_site_fract_z
 _atom_site_occupancy
  Zn  Zn0  1  0.97679000  0.40831000  0.57406000  1.0
  Zn  Zn1  1  0.02321000  0.09170000  0.07406000  1.0
  Zn  Zn2  1  0.47679000  0.59169000  0.92594000  1.0
  Zn  Zn3  1  0.52321000  0.90831000  0.42594000  1.0
  Zn  Zn4  1  0.02321000  0.59169000  0.42593000  1.0
  Zn  Zn5  1  0.97679000  0.90831000  0.92594000  1.0
  Zn  Zn6  1  0.52322000  0.40831000  0.07407000  1.0
  Zn  Zn7  1  0.47679000  0.09170000  0.57406000  1.0
  Zn  Zn8  1  0.92643000  0.47837000  0.90599000  1.0
  Zn  Zn9  1  0.07357000  0.02163000  0.40599000  1.0
  Zn  Zn10  1  0.42644000  0.52163000  0.59401000  1.0
  Zn  Zn11  1  0.57357000  0.97837000  0.09401000  1.0
  Zn  Zn12  1  0.07357000  0.52163000  0.09401000  1.0
  Zn  Zn13  1  0.92643000  0.97838000  0.59401000  1.0
  Zn  Zn14  1  0.57356000  0.47837000  0.40599000  1.0
  Zn  Zn15  1  0.42644000  0.02163000  0.90599000  1.0
  H  H16  1  0.94179000  0.19716000  0.65450000  1.0
  H  H17  1  0.05820000  0.30284000  0.15450000  1.0
  H  H18  1  0.44180000  0.80284000  0.84550000  1.0
  H  H19  1  0.55821000  0.69716000  0.34551000  1.0
  H  H20  1  0.05820000  0.80284000  0.34551000  1.0
  H  H21  1  0.94180000  0.69716000  0.84550000  1.0
  H  H22  1  0.55823000  0.19716000  0.15449000  1.0
  H  H23  1  0.44179000  0.30284000  0.65449000  1.0
  H  H24  1  0.74278000  0.35307000  0.50310000  1.0
  H  H25  1  0.25723000  0.14693000  0.00310000  1.0
  H  H26  1  0.24278000  0.64693000  0.99691000  1.0
  H  H27  1  0.75722000  0.85307000  0.49691000  1.0
  H  H28  1  0.25723000  0.64692000  0.49690000  1.0
  H  H29  1  0.74278000  0.85307000  0.99691000  1.0
  H  H30  1  0.75722000  0.35307000  0.00310000  1.0
  H  H31  1  0.24278000  0.14693000  0.50310000  1.0
  H  H32  1  0.05832000  0.23208000  0.36354000  1.0
  H  H33  1  0.94167000  0.26792000  0.86354000  1.0
  H  H34  1  0.55833000  0.76792000  0.13646000  1.0
  H  H35  1  0.44168000  0.73208000  0.63647000  1.0
  H  H36  1  0.94168000  0.76793000  0.63647000  1.0
  H  H37  1  0.05833000  0.73208000  0.13647000  1.0
  H  H38  1  0.44169000  0.23208000  0.86353000  1.0
  H  H39  1  0.55832000  0.26792000  0.36353000  1.0
  H  H40  1  0.05959000  0.34118000  0.41191000  1.0
  H  H41  1  0.94041000  0.15882000  0.91191000  1.0
  H  H42  1  0.55959000  0.65882000  0.08809000  1.0
  H  H43  1  0.44041000  0.84118000  0.58809000  1.0
  H  H44  1  0.94041000  0.65882000  0.58809000  1.0
  H  H45  1  0.05959000  0.84118000  0.08809000  1.0
  H  H46  1  0.44043000  0.34118000  0.91191000  1.0
  H  H47  1  0.55959000  0.15882000  0.41191000  1.0
  H  H48  1  0.72174000  0.61683000  0.32276000  1.0
  H  H49  1  0.27825000  0.88317000  0.82276000  1.0
  H  H50  1  0.22175000  0.38317000  0.17724000  1.0
  H  H51  1  0.77826000  0.11683000  0.67724000  1.0
  H  H52  1  0.27825000  0.38316000  0.67723000  1.0
  H  H53  1  0.72175000  0.11683000  0.17724000  1.0
  H  H54  1  0.77824000  0.61683000  0.82276000  1.0
  H  H55  1  0.22175000  0.88317000  0.32276000  1.0
  H  H56  1  0.84329000  0.65934000  0.34264000  1.0
  H  H57  1  0.15670000  0.84067000  0.84264000  1.0
  H  H58  1  0.34330000  0.34066000  0.15737000  1.0
  H  H59  1  0.65670000  0.15934000  0.65736000  1.0
  H  H60  1  0.15670000  0.34066000  0.65736000  1.0
  H  H61  1  0.84330000  0.15934000  0.15736000  1.0
  H  H62  1  0.65669000  0.65933000  0.84264000  1.0
  H  H63  1  0.34330000  0.84066000  0.34264000  1.0
  C  C64  1  0.97303000  0.41188000  0.74560000  1.0
  C  C65  1  0.02696000  0.08813000  0.24560000  1.0
  C  C66  1  0.47305000  0.58812000  0.75440000  1.0
  C  C67  1  0.52697000  0.91187000  0.25440000  1.0
  C  C68  1  0.02696000  0.58812000  0.25440000  1.0
  C  C69  1  0.97305000  0.91188000  0.75440000  1.0
  C  C70  1  0.52696000  0.41188000  0.24560000  1.0
  C  C71  1  0.47304000  0.08812000  0.74560000  1.0
  C  C72  1  0.92218000  0.50902000  0.72175000  1.0
  C  C73  1  0.07781000  0.99097000  0.22176000  1.0
  C  C74  1  0.42220000  0.49097000  0.77825000  1.0
  C  C75  1  0.57782000  0.00902000  0.27825000  1.0
  C  C76  1  0.07781000  0.49097000  0.27825000  1.0
  C  C77  1  0.92220000  0.00903000  0.77825000  1.0
  C  C78  1  0.57781000  0.50903000  0.22175000  1.0
  C  C79  1  0.42219000  0.99097000  0.72175000  1.0
  C  C80  1  0.02981000  0.22074000  0.47964000  1.0
  C  C81  1  0.97018000  0.27926000  0.97965000  1.0
  C  C82  1  0.52982000  0.77926000  0.02035000  1.0
  C  C83  1  0.47019000  0.72074000  0.52036000  1.0
  C  C84  1  0.97018000  0.77926000  0.52036000  1.0
  C  C85  1  0.02982000  0.72074000  0.02035000  1.0
  C  C86  1  0.47020000  0.22075000  0.97964000  1.0
  C  C87  1  0.52981000  0.27926000  0.47964000  1.0
  C  C88  1  0.97115000  0.18940000  0.59510000  1.0
  C  C89  1  0.02884000  0.31060000  0.09510000  1.0
  C  C90  1  0.47116000  0.81060000  0.90490000  1.0
  C  C91  1  0.52885000  0.68940000  0.40491000  1.0
  C  C92  1  0.02884000  0.81060000  0.40491000  1.0
  C  C93  1  0.97116000  0.68940000  0.90490000  1.0
  C  C94  1  0.52887000  0.18940000  0.09509000  1.0
  C  C95  1  0.47115000  0.31060000  0.59509000  1.0
  C  C96  1  0.79749000  0.54717000  0.40952000  1.0
  C  C97  1  0.20250000  0.95283000  0.90952000  1.0
  C  C98  1  0.29750000  0.45283000  0.09049000  1.0
  C  C99  1  0.70250000  0.04717000  0.59048000  1.0
  C  C100  1  0.20251000  0.45282000  0.59047000  1.0
  C  C101  1  0.79750000  0.04717000  0.09049000  1.0
  C  C102  1  0.70250000  0.54716000  0.90952000  1.0
  C  C103  1  0.29750000  0.95283000  0.40952000  1.0
  C  C104  1  0.77690000  0.41672000  0.47643000  1.0
  C  C105  1  0.22310000  0.08328000  0.97644000  1.0
  C  C106  1  0.27690000  0.58328000  0.02357000  1.0
  C  C107  1  0.72310000  0.91672000  0.52357000  1.0
  C  C108  1  0.22310000  0.58327000  0.52356000  1.0
  C  C109  1  0.77690000  0.91672000  0.02357000  1.0
  C  C110  1  0.72310000  0.41672000  0.97643000  1.0
  C  C111  1  0.27690000  0.08328000  0.47643000  1.0
  C  C112  1  0.70991000  0.66612000  0.63455000  1.0
  C  C113  1  0.29009000  0.83388000  0.13455000  1.0
  C  C114  1  0.20990000  0.33387000  0.86545000  1.0
  C  C115  1  0.79008000  0.16612000  0.36545000  1.0
  C  C116  1  0.29009000  0.33388000  0.36545000  1.0
  C  C117  1  0.70989000  0.16614000  0.86546000  1.0
  C  C118  1  0.79008000  0.66613000  0.13456000  1.0
  C  C119  1  0.20991000  0.83389000  0.63456000  1.0
  C  C120  1  0.68985000  0.89272000  0.79230000  1.0
  C  C121  1  0.31015000  0.60726000  0.29230000  1.0
  C  C122  1  0.18986000  0.10727000  0.70769000  1.0
  C  C123  1  0.81014000  0.39272000  0.20770000  1.0
  C  C124  1  0.31014000  0.10728000  0.20769000  1.0
  C  C125  1  0.68985000  0.39273000  0.70770000  1.0
  C  C126  1  0.81013000  0.89273000  0.29230000  1.0
  C  C127  1  0.18985000  0.60727000  0.79230000  1.0
  N  N128  1  0.99579000  0.26399000  0.54708000  1.0
  N  N129  1  0.00420000  0.23601000  0.04708000  1.0
  N  N130  1  0.49581000  0.73601000  0.95292000  1.0
  N  N131  1  0.50421000  0.76399000  0.45293000  1.0
  N  N132  1  0.00420000  0.73601000  0.45293000  1.0
  N  N133  1  0.99580000  0.76399000  0.95292000  1.0
  N  N134  1  0.50422000  0.26399000  0.04707000  1.0
  N  N135  1  0.49579000  0.23601000  0.54707000  1.0
  N  N136  1  0.98788000  0.10460000  0.56101000  1.0
  N  N137  1  0.01211000  0.39540000  0.06101000  1.0
  N  N138  1  0.48789000  0.89540000  0.93899000  1.0
  N  N139  1  0.51212000  0.60460000  0.43900000  1.0
  N  N140  1  0.01211000  0.89540000  0.43899000  1.0
  N  N141  1  0.98789000  0.60460000  0.93899000  1.0
  N  N142  1  0.51213000  0.10460000  0.06100000  1.0
  N  N143  1  0.48788000  0.39540000  0.56101000  1.0
  N  N144  1  0.02626000  0.12372000  0.48629000  1.0
  N  N145  1  0.97373000  0.37628000  0.98630000  1.0
  N  N146  1  0.52627000  0.87628000  0.01370000  1.0
  N  N147  1  0.47374000  0.62372000  0.51371000  1.0
  N  N148  1  0.97373000  0.87628000  0.51371000  1.0
  N  N149  1  0.02627000  0.62372000  0.01371000  1.0
  N  N150  1  0.47375000  0.12372000  0.98629000  1.0
  N  N151  1  0.52626000  0.37628000  0.48629000  1.0
  N  N152  1  0.06773000  0.26805000  0.41561000  1.0
  N  N153  1  0.93226000  0.23195000  0.91561000  1.0
  N  N154  1  0.56774000  0.73195000  0.08439000  1.0
  N  N155  1  0.43227000  0.76805000  0.58439000  1.0
  N  N156  1  0.93226000  0.73195000  0.58440000  1.0
  N  N157  1  0.06774000  0.76805000  0.08439000  1.0
  N  N158  1  0.43228000  0.26805000  0.91561000  1.0
  N  N159  1  0.56773000  0.23195000  0.41560000  1.0
  N  N160  1  0.87226000  0.44555000  0.49020000  1.0
  N  N161  1  0.12775000  0.05445000  0.99021000  1.0
  N  N162  1  0.37226000  0.55445000  0.00980000  1.0
  N  N163  1  0.62774000  0.94555000  0.50980000  1.0
  N  N164  1  0.12775000  0.55444000  0.50979000  1.0
  N  N165  1  0.87226000  0.94555000  0.00980000  1.0
  N  N166  1  0.62774000  0.44554000  0.99021000  1.0
  N  N167  1  0.37226000  0.05445000  0.49020000  1.0
  N  N168  1  0.88636000  0.52981000  0.44753000  1.0
  N  N169  1  0.11364000  0.97019000  0.94754000  1.0
  N  N170  1  0.38637000  0.47019000  0.05247000  1.0
  N  N171  1  0.61364000  0.02981000  0.55247000  1.0
  N  N172  1  0.11364000  0.47018000  0.55246000  1.0
  N  N173  1  0.88637000  0.02981000  0.05247000  1.0
  N  N174  1  0.61363000  0.52980000  0.94753000  1.0
  N  N175  1  0.38637000  0.97019000  0.44753000  1.0
  N  N176  1  0.72665000  0.47711000  0.42631000  1.0
  N  N177  1  0.27336000  0.02289000  0.92632000  1.0
  N  N178  1  0.22665000  0.52289000  0.07369000  1.0
  N  N179  1  0.77335000  0.97711000  0.57369000  1.0
  N  N180  1  0.27336000  0.52288000  0.57368000  1.0
  N  N181  1  0.72665000  0.97711000  0.07369000  1.0
  N  N182  1  0.77335000  0.47711000  0.92631000  1.0
  N  N183  1  0.22665000  0.02289000  0.42631000  1.0
  N  N184  1  0.77945000  0.62514000  0.36333000  1.0
  N  N185  1  0.22054000  0.87486000  0.86333000  1.0
  N  N186  1  0.27946000  0.37486000  0.13667000  1.0
  N  N187  1  0.72055000  0.12514000  0.63667000  1.0
  N  N188  1  0.22055000  0.37485000  0.63666000  1.0
  N  N189  1  0.77946000  0.12514000  0.13667000  1.0
  N  N190  1  0.72054000  0.62514000  0.86333000  1.0
  N  N191  1  0.27946000  0.87486000  0.36333000  1.0
  O  O192  1  0.00237000  0.35635000  0.69109000  1.0
  O  O193  1  0.99763000  0.14365000  0.19109000  1.0
  O  O194  1  0.50237000  0.64365000  0.80891000  1.0
  O  O195  1  0.49764000  0.85635000  0.30891000  1.0
  O  O196  1  0.99763000  0.64365000  0.30891000  1.0
  O  O197  1  0.00237000  0.85635000  0.80891000  1.0
  O  O198  1  0.49763000  0.35635000  0.19109000  1.0
  O  O199  1  0.50237000  0.14365000  0.69109000  1.0
  O  O200  1  0.91550000  0.52548000  0.64825000  1.0
  O  O201  1  0.08449000  0.97451000  0.14826000  1.0
  O  O202  1  0.41551000  0.47451000  0.85174000  1.0
  O  O203  1  0.58450000  0.02549000  0.35174000  1.0
  O  O204  1  0.08449000  0.47451000  0.35174000  1.0
  O  O205  1  0.91551000  0.02549000  0.85174000  1.0
  O  O206  1  0.58449000  0.52549000  0.14826000  1.0
  O  O207  1  0.41550000  0.97451000  0.64826000  1.0
  O  O208  1  0.89199000  0.56212000  0.77757000  1.0
  O  O209  1  0.10799000  0.93788000  0.27757000  1.0
  O  O210  1  0.39201000  0.43787000  0.72243000  1.0
  O  O211  1  0.60800000  0.06212000  0.22243000  1.0
  O  O212  1  0.10799000  0.43787000  0.22242000  1.0
  O  O213  1  0.89202000  0.06213000  0.72242000  1.0
  O  O214  1  0.60799000  0.56213000  0.27757000  1.0
  O  O215  1  0.39200000  0.93788000  0.77757000  1.0
  O  O216  1  0.98276000  0.39279000  0.81867000  1.0
  O  O217  1  0.01723000  0.10721000  0.31867000  1.0
  O  O218  1  0.48278000  0.60721000  0.68133000  1.0
  O  O219  1  0.51724000  0.89279000  0.18133000  1.0
  O  O220  1  0.01723000  0.60721000  0.18133000  1.0
  O  O221  1  0.98278000  0.89279000  0.68133000  1.0
  O  O222  1  0.51722000  0.39279000  0.31867000  1.0
  O  O223  1  0.48277000  0.10721000  0.81867000  1.0
  O  O224  1  0.71838000  0.72177000  0.68666000  1.0
  O  O225  1  0.28163000  0.77822000  0.18666000  1.0
  O  O226  1  0.21837000  0.27822000  0.81334000  1.0
  O  O227  1  0.78162000  0.22178000  0.31334000  1.0
  O  O228  1  0.28162000  0.27822000  0.31334000  1.0
  O  O229  1  0.71835000  0.22179000  0.81335000  1.0
  O  O230  1  0.78161000  0.72179000  0.18667000  1.0
  O  O231  1  0.21838000  0.77823000  0.68666000  1.0
  O  O232  1  0.70042000  0.61061000  0.58265000  1.0
  O  O233  1  0.29957000  0.88939000  0.08266000  1.0
  O  O234  1  0.20042000  0.38938000  0.91735000  1.0
  O  O235  1  0.79956000  0.11061000  0.41734000  1.0
  O  O236  1  0.29957000  0.38939000  0.41735000  1.0
  O  O237  1  0.70041000  0.11062000  0.91735000  1.0
  O  O238  1  0.79956000  0.61061000  0.08266000  1.0
  O  O239  1  0.20042000  0.88940000  0.58266000  1.0
  O  O240  1  0.73864000  0.85080000  0.83966000  1.0
  O  O241  1  0.26136000  0.64917000  0.33965000  1.0
  O  O242  1  0.23864000  0.14919000  0.66033000  1.0
  O  O243  1  0.76135000  0.35081000  0.16035000  1.0
  O  O244  1  0.26135000  0.14919000  0.16034000  1.0
  O  O245  1  0.73864000  0.35082000  0.66035000  1.0
  O  O246  1  0.76135000  0.85081000  0.33965000  1.0
  O  O247  1  0.23864000  0.64919000  0.83965000  1.0
  O  O248  1  0.64179000  0.93494000  0.74477000  1.0
  O  O249  1  0.35821000  0.56504000  0.24477000  1.0
  O  O250  1  0.14179000  0.06506000  0.75522000  1.0
  O  O251  1  0.85820000  0.43495000  0.25523000  1.0
  O  O252  1  0.35820000  0.06505000  0.25522000  1.0
  O  O253  1  0.64179000  0.43495000  0.75523000  1.0
  O  O254  1  0.85820000  0.93496000  0.24477000  1.0
  O  O255  1  0.14179000  0.56505000  0.74477000  1.0
