# generated using pymatgen
data_Al3H18C24BrO14
_symmetry_space_group_name_H-M   'P 1'
_cell_length_a   11.01182916
_cell_length_b   11.33940000
_cell_length_c   19.29250000
_cell_angle_alpha   95.67440000
_cell_angle_beta   95.47170934
_cell_angle_gamma   64.51178255
_symmetry_Int_Tables_number   1
_chemical_formula_structural   Al3H18C24BrO14
_chemical_formula_sum   'Al6 H36 C48 Br2 O28'
_cell_volume   2160.14943137
_cell_formula_units_Z   2
loop_
 _symmetry_equiv_pos_site_id
 _symmetry_equiv_pos_as_xyz
  1  'x, y, z'
loop_
 _atom_site_type_symbol
 _atom_site_label
 _atom_site_symmetry_multiplicity
 _atom_site_fract_x
 _atom_site_fract_y
 _atom_site_fract_z
 _atom_site_occupancy
  Al  Al0  1  0.05363000  0.38536000  0.73233000  1.0
  Al  Al1  1  0.29763000  0.92065000  0.25186000  1.0
  Al  Al2  1  0.08588000  0.65387000  0.74565000  1.0
  Al  Al3  1  0.58841000  0.92390000  0.26847000  1.0
  Al  Al4  1  0.33761000  0.40179000  0.75494000  1.0
  Al  Al5  1  0.57885000  0.66208000  0.24456000  1.0
  H  H6  1  0.74836000  0.88100000  0.44922000  1.0
  H  H7  1  0.44617000  0.28898000  0.55937000  1.0
  H  H8  1  0.69197000  0.56613000  0.42940000  1.0
  H  H9  1  0.80385000  0.49046000  0.53763000  1.0
  H  H10  1  0.44264000  0.25854000  0.43716000  1.0
  H  H11  1  0.24218000  0.88956000  0.05179000  1.0
  H  H12  1  0.10597000  0.78710000  0.94241000  1.0
  H  H13  1  0.12186000  0.25006000  0.53814000  1.0
  H  H14  1  0.13873000  0.81220000  0.06357000  1.0
  H  H15  1  0.21527000  0.85867000  0.93061000  1.0
  H  H16  1  0.49211000  0.75517000  0.03820000  1.0
  H  H17  1  0.19971000  0.54235000  0.95700000  1.0
  H  H18  1  0.46692000  0.71380000  0.91888000  1.0
  H  H19  1  0.24117000  0.56666000  0.07646000  1.0
  H  H20  1  0.41606000  0.47225000  0.06777000  1.0
  H  H21  1  0.53049000  0.54391000  0.92909000  1.0
  H  H22  1  0.37365000  0.44243000  0.94832000  1.0
  H  H23  1  0.56622000  0.58495000  0.04864000  1.0
  H  H24  1  0.92260000  0.79314000  0.44285000  1.0
  H  H25  1  0.18919000  0.09291000  0.56837000  1.0
  H  H26  1  0.92814000  0.80449000  0.56560000  1.0
  H  H27  1  0.26294000  0.99415000  0.45830000  1.0
  H  H28  1  0.75759000  0.83402000  0.56717000  1.0
  H  H29  1  0.05056000  0.44054000  0.51934000  1.0
  H  H30  1  0.16495000  0.14834000  0.42538000  1.0
  H  H31  1  0.61769000  0.72937000  0.46434000  1.0
  H  H32  1  0.27113000  0.38110000  0.54783000  1.0
  H  H33  1  0.69373000  0.64590000  0.57303000  1.0
  H  H34  1  0.26586000  0.31284000  0.42939000  1.0
  H  H35  1  0.58465000  0.03580000  0.48421000  1.0
  H  H36  1  0.93218000  0.46305000  0.40960000  1.0
  H  H37  1  0.54280000  0.07273000  0.60200000  1.0
  H  H38  1  0.08524000  0.57745000  0.51064000  1.0
  H  H39  1  0.52088000  0.91665000  0.48073000  1.0
  H  H40  1  0.90869000  0.29839000  0.76168000  1.0
  H  H41  1  0.08000000  0.05628000  0.28739000  1.0
  C  C42  1  0.29896000  0.23764000  0.64987000  1.0
  C  C43  1  0.35285000  0.28395000  0.53701000  1.0
  C  C44  1  0.71343000  0.64129000  0.46130000  1.0
  C  C45  1  0.94726000  0.55029000  0.42882000  1.0
  C  C46  1  0.46214000  0.05777000  0.57024000  1.0
  C  C47  1  0.81371000  0.67340000  0.42346000  1.0
  C  C48  1  0.32957000  0.18113000  0.57548000  1.0
  C  C49  1  0.75454000  0.70291000  0.34915000  1.0
  C  C50  1  0.89256000  0.62906000  0.55470000  1.0
  C  C51  1  0.37625000  0.10489000  0.44438000  1.0
  C  C52  1  0.77122000  0.59613000  0.53501000  1.0
  C  C53  1  0.35844000  0.24780000  0.45768000  1.0
  C  C54  1  0.00573000  0.54250000  0.50509000  1.0
  C  C55  1  0.49560000  0.02066000  0.49316000  1.0
  C  C56  1  0.22785000  0.80009000  0.03724000  1.0
  C  C57  1  0.20721000  0.78103000  0.95708000  1.0
  C  C58  1  0.47656000  0.66543000  0.02706000  1.0
  C  C59  1  0.30121000  0.53818000  0.96889000  1.0
  C  C60  1  0.32770000  0.55696000  0.04840000  1.0
  C  C61  1  0.45557000  0.64030000  0.94755000  1.0
  C  C62  1  0.30750000  0.59797000  0.66333000  1.0
  C  C63  1  0.39421000  0.69171000  0.34211000  1.0
  C  C64  1  0.35144000  0.68165000  0.06457000  1.0
  C  C65  1  0.85168000  0.77314000  0.54148000  1.0
  C  C66  1  0.31306000  0.64716000  0.93072000  1.0
  C  C67  1  0.78253000  0.71972000  0.09180000  1.0
  C  C68  1  0.30249000  0.21927000  0.91642000  1.0
  C  C69  1  0.83772000  0.68179000  0.96247000  1.0
  C  C70  1  0.35298000  0.16121000  0.04478000  1.0
  C  C71  1  0.24748000  0.09701000  0.46335000  1.0
  C  C72  1  0.80896000  0.70230000  0.03035000  1.0
  C  C73  1  0.32752000  0.19248000  0.97761000  1.0
  C  C74  1  0.86344000  0.66167000  0.90086000  1.0
  C  C75  1  0.37500000  0.13104000  0.10545000  1.0
  C  C76  1  0.94403000  0.59741000  0.62991000  1.0
  C  C77  1  0.40643000  0.05581000  0.36880000  1.0
  C  C78  1  0.27140000  0.26771000  0.84757000  1.0
  C  C79  1  0.72930000  0.74125000  0.15957000  1.0
  C  C80  1  0.29065000  0.61587000  0.85415000  1.0
  C  C81  1  0.37946000  0.69998000  0.14215000  1.0
  C  C82  1  0.91579000  0.62691000  0.83219000  1.0
  C  C83  1  0.39460000  0.07191000  0.17083000  1.0
  C  C84  1  0.38079000  0.65423000  0.40913000  1.0
  C  C85  1  0.34523000  0.62059000  0.59866000  1.0
  C  C86  1  0.36030000  0.62929000  0.53771000  1.0
  C  C87  1  0.37295000  0.64130000  0.47045000  1.0
  C  C88  1  0.83379000  0.78931000  0.46229000  1.0
  C  C89  1  0.21230000  0.15681000  0.53807000  1.0
  Br  Br90  1  0.07825000  0.54994000  0.36465000  1.0
  Br  Br91  1  0.45390000  0.91010000  0.61492000  1.0
  O  O92  1  0.96738000  0.48570000  0.64861000  1.0
  O  O93  1  0.29684000  0.79752000  0.17611000  1.0
  O  O94  1  0.18507000  0.69445000  0.82112000  1.0
  O  O95  1  0.94980000  0.70997000  0.80841000  1.0
  O  O96  1  0.31100000  0.02719000  0.18030000  1.0
  O  O97  1  0.15970000  0.48133000  0.74551000  1.0
  O  O98  1  0.49085000  0.83392000  0.25563000  1.0
  O  O99  1  0.52579000  0.02869000  0.34994000  1.0
  O  O100  1  0.18528000  0.26150000  0.67058000  1.0
  O  O101  1  0.73067000  0.81421000  0.32802000  1.0
  O  O102  1  0.38886000  0.26693000  0.68550000  1.0
  O  O103  1  0.72085000  0.61850000  0.31398000  1.0
  O  O104  1  0.38477000  0.49142000  0.69102000  1.0
  O  O105  1  0.49387000  0.60985000  0.30745000  1.0
  O  O106  1  0.19482000  0.68300000  0.68495000  1.0
  O  O107  1  0.31042000  0.80432000  0.32602000  1.0
  O  O108  1  0.96290000  0.68701000  0.66992000  1.0
  O  O109  1  0.31585000  0.04070000  0.32898000  1.0
  O  O110  1  0.93003000  0.51762000  0.80301000  1.0
  O  O111  1  0.49664000  0.06454000  0.21208000  1.0
  O  O112  1  0.15537000  0.29380000  0.81944000  1.0
  O  O113  1  0.70416000  0.85182000  0.19268000  1.0
  O  O114  1  0.36690000  0.28434000  0.82231000  1.0
  O  O115  1  0.37500000  0.50628000  0.82723000  1.0
  O  O116  1  0.70506000  0.64964000  0.17914000  1.0
  O  O117  1  0.49147000  0.61422000  0.16910000  1.0
  O  O118  1  0.95292000  0.30007000  0.72110000  1.0
  O  O119  1  0.12131000  0.99695000  0.24817000  1.0
