# generated using pymatgen
data_AgH10C12N5O3F4
_symmetry_space_group_name_H-M   'P 1'
_cell_length_a   7.70676000
_cell_length_b   12.53650000
_cell_length_c   16.23780000
_cell_angle_alpha   87.27830000
_cell_angle_beta   76.72590000
_cell_angle_gamma   78.06500000
_symmetry_Int_Tables_number   1
_chemical_formula_structural   AgH10C12N5O3F4
_chemical_formula_sum   'Ag4 H40 C48 N20 O12 F16'
_cell_volume   1493.90571008
_cell_formula_units_Z   4
loop_
 _symmetry_equiv_pos_site_id
 _symmetry_equiv_pos_as_xyz
  1  'x, y, z'
loop_
 _atom_site_type_symbol
 _atom_site_label
 _atom_site_symmetry_multiplicity
 _atom_site_fract_x
 _atom_site_fract_y
 _atom_site_fract_z
 _atom_site_occupancy
  Ag  Ag0  1  0.77742000  0.46230000  0.99661000  1.0
  Ag  Ag1  1  0.22555000  0.03788000  0.99664000  1.0
  Ag  Ag2  1  0.22258000  0.53770000  0.00338000  1.0
  Ag  Ag3  1  0.77445000  0.96212000  0.00336000  1.0
  H  H4  1  0.72548000  0.64073000  0.09701000  1.0
  H  H5  1  0.17754000  0.85933000  0.09732000  1.0
  H  H6  1  0.27452000  0.35926000  0.90299000  1.0
  H  H7  1  0.82246000  0.14067000  0.90268000  1.0
  H  H8  1  0.72903000  0.77801000  0.09998000  1.0
  H  H9  1  0.17139000  0.72207000  0.09996000  1.0
  H  H10  1  0.27097000  0.22199000  0.90002000  1.0
  H  H11  1  0.82861000  0.27793000  0.90004000  1.0
  H  H12  1  0.87095000  0.88635000  0.82591000  1.0
  H  H13  1  0.30377000  0.61323000  0.82573000  1.0
  H  H14  1  0.12906000  0.11364000  0.17409000  1.0
  H  H15  1  0.69623000  0.38677000  0.17427000  1.0
  H  H16  1  0.87661000  0.54158000  0.82112000  1.0
  H  H17  1  0.30182000  0.95809000  0.82143000  1.0
  H  H18  1  0.12340000  0.45842000  0.17888000  1.0
  H  H19  1  0.69817000  0.04191000  0.17857000  1.0
  H  H20  1  0.91918000  0.82695000  0.37031000  1.0
  H  H21  1  0.71057000  0.67343000  0.37133000  1.0
  H  H22  1  0.08082000  0.17305000  0.62970000  1.0
  H  H23  1  0.28943000  0.32657000  0.62867000  1.0
  H  H24  1  0.16040000  0.79664000  0.33471000  1.0
  H  H25  1  0.50555000  0.70328000  0.33429000  1.0
  H  H26  1  0.83960000  0.20336000  0.66529000  1.0
  H  H27  1  0.49445000  0.29671000  0.66571000  1.0
  H  H28  1  0.05807000  0.87998000  0.42552000  1.0
  H  H29  1  0.51775000  0.62004000  0.42530000  1.0
  H  H30  1  0.94193000  0.12002000  0.57448000  1.0
  H  H31  1  0.48224000  0.37995000  0.57470000  1.0
  H  H32  1  0.25750000  0.58731000  0.36673000  1.0
  H  H33  1  0.37642000  0.91307000  0.36617000  1.0
  H  H34  1  0.74250000  0.41269000  0.63327000  1.0
  H  H35  1  0.62358000  0.08692000  0.63382000  1.0
  H  H36  1  0.03468000  0.61588000  0.34829000  1.0
  H  H37  1  0.61683000  0.88402000  0.34901000  1.0
  H  H38  1  0.96532000  0.38412000  0.65171000  1.0
  H  H39  1  0.38316000  0.11597000  0.65099000  1.0
  H  H40  1  0.07652000  0.54235000  0.44049000  1.0
  H  H41  1  0.48417000  0.95767000  0.44086000  1.0
  H  H42  1  0.92348000  0.45766000  0.55952000  1.0
  H  H43  1  0.51582000  0.04233000  0.55913000  1.0
  C  C44  1  0.80304000  0.70974000  0.98123000  1.0
  C  C45  1  0.21579000  0.79017000  0.98123000  1.0
  C  C46  1  0.19696000  0.29026000  0.01877000  1.0
  C  C47  1  0.78421000  0.20983000  0.01877000  1.0
  C  C48  1  0.85808000  0.80772000  0.85576000  1.0
  C  C49  1  0.28673000  0.69191000  0.85569000  1.0
  C  C50  1  0.14193000  0.19228000  0.14424000  1.0
  C  C51  1  0.71327000  0.30809000  0.14431000  1.0
  C  C52  1  0.88254000  0.71438000  0.80701000  1.0
  C  C53  1  0.31093000  0.78518000  0.80708000  1.0
  C  C54  1  0.11747000  0.28562000  0.19299000  1.0
  C  C55  1  0.68907000  0.21483000  0.19292000  1.0
  C  C56  1  0.86330000  0.61858000  0.85292000  1.0
  C  C57  1  0.28373000  0.88111000  0.85310000  1.0
  C  C58  1  0.13670000  0.38142000  0.14708000  1.0
  C  C59  1  0.71626000  0.11890000  0.14690000  1.0
  C  C60  1  0.93094000  0.71570000  0.71443000  1.0
  C  C61  1  0.35512000  0.78391000  0.71448000  1.0
  C  C62  1  0.06908000  0.28430000  0.28557000  1.0
  C  C63  1  0.64488000  0.21609000  0.28552000  1.0
  C  C64  1  0.84930000  0.79829000  0.66603000  1.0
  C  C65  1  0.48480000  0.70139000  0.66666667  1.0
  C  C66  1  0.15071000  0.20171000  0.33397000  1.0
  C  C67  1  0.51520000  0.29862000  0.33340000  1.0
  C  C68  1  0.89031000  0.79737000  0.57831000  1.0
  C  C69  1  0.53144000  0.70245000  0.57890000  1.0
  C  C70  1  0.10970000  0.20263000  0.42169000  1.0
  C  C71  1  0.46856000  0.29755000  0.42110000  1.0
  C  C72  1  0.02368000  0.71505000  0.53003000  1.0
  C  C73  1  0.44675000  0.78491000  0.53006000  1.0
  C  C74  1  0.97633000  0.28496000  0.46997000  1.0
  C  C75  1  0.55325000  0.21509000  0.46994000  1.0
  C  C76  1  0.11218000  0.63510000  0.57959000  1.0
  C  C77  1  0.30902000  0.86477000  0.57904000  1.0
  C  C78  1  0.88784000  0.36490000  0.42041000  1.0
  C  C79  1  0.69098000  0.13523000  0.42096000  1.0
  C  C80  1  0.06408000  0.63415000  0.66710000  1.0
  C  C81  1  0.26961000  0.86557000  0.66659000  1.0
  C  C82  1  0.93593000  0.36584000  0.33290000  1.0
  C  C83  1  0.73039000  0.13443000  0.33341000  1.0
  C  C84  1  0.04843000  0.80923000  0.39128000  1.0
  C  C85  1  0.56088000  0.69089000  0.39139000  1.0
  C  C86  1  0.95157000  0.19077000  0.60872000  1.0
  C  C87  1  0.43912000  0.30910000  0.60861000  1.0
  C  C88  1  0.11246000  0.60847000  0.39793000  1.0
  C  C89  1  0.49010000  0.89162000  0.39809000  1.0
  C  C90  1  0.88754000  0.39153000  0.60207000  1.0
  C  C91  1  0.50989000  0.10837000  0.60191000  1.0
  N  N92  1  0.82594000  0.61534000  0.93769000  1.0
  N  N93  1  0.23613000  0.88452000  0.93782000  1.0
  N  N94  1  0.17406000  0.38466000  0.06231000  1.0
  N  N95  1  0.76386000  0.11549000  0.06219000  1.0
  N  N96  1  0.76768000  0.70686000  0.06578000  1.0
  N  N97  1  0.16661000  0.79320000  0.06574000  1.0
  N  N98  1  0.23232000  0.29314000  0.93422000  1.0
  N  N99  1  0.83338000  0.20680000  0.93426000  1.0
  N  N100  1  0.82033000  0.80621000  0.94054000  1.0
  N  N101  1  0.23942000  0.69359000  0.94043000  1.0
  N  N102  1  0.17967000  0.19379000  0.05946000  1.0
  N  N103  1  0.76057000  0.30641000  0.05957000  1.0
  N  N104  1  0.06527000  0.71160000  0.44367000  1.0
  N  N105  1  0.49149000  0.78849000  0.44373000  1.0
  N  N106  1  0.93474000  0.28841000  0.55633000  1.0
  N  N107  1  0.50850000  0.21151000  0.55627000  1.0
  N  N108  1  0.58779000  0.40668000  0.84256000  1.0
  N  N109  1  0.56801000  0.09336000  0.84276000  1.0
  N  N110  1  0.41220000  0.59332000  0.15745000  1.0
  N  N111  1  0.43199000  0.90664000  0.15724000  1.0
  O  O112  1  0.53456000  0.43019000  0.92191000  1.0
  O  O113  1  0.54266000  0.06996000  0.92215000  1.0
  O  O114  1  0.46544000  0.56981000  0.07809000  1.0
  O  O115  1  0.45733000  0.93004000  0.07785000  1.0
  O  O116  1  0.75712000  0.37969000  0.81095000  1.0
  O  O117  1  0.43025000  0.12057000  0.81052000  1.0
  O  O118  1  0.24288000  0.62031000  0.18905000  1.0
  O  O119  1  0.56975000  0.87944000  0.18948000  1.0
  O  O120  1  0.47104000  0.40998000  0.79918000  1.0
  O  O121  1  0.72740000  0.08975000  0.79995000  1.0
  O  O122  1  0.52895000  0.59002000  0.20082000  1.0
  O  O123  1  0.27260000  0.91025000  0.20005000  1.0
  F  F124  1  0.71342000  0.87896000  0.70588000  1.0
  F  F125  1  0.58050000  0.62061000  0.70704000  1.0
  F  F126  1  0.28659000  0.12104000  0.29412000  1.0
  F  F127  1  0.41950000  0.37939000  0.29296000  1.0
  F  F128  1  0.78777000  0.87466000  0.53850000  1.0
  F  F129  1  0.67316000  0.62506000  0.53975000  1.0
  F  F130  1  0.21225000  0.12535000  0.46150000  1.0
  F  F131  1  0.32683000  0.37494000  0.46025000  1.0
  F  F132  1  0.25803000  0.55979000  0.54070000  1.0
  F  F133  1  0.20231000  0.94019000  0.53951000  1.0
  F  F134  1  0.74199000  0.44022000  0.45929000  1.0
  F  F135  1  0.79768000  0.05981000  0.46049000  1.0
  F  F136  1  0.16136000  0.55431000  0.70797000  1.0
  F  F137  1  0.13177000  0.94535000  0.70685000  1.0
  F  F138  1  0.83864000  0.44569000  0.29203000  1.0
  F  F139  1  0.86824000  0.05465000  0.29315000  1.0
