# generated using pymatgen
data_ZnH23C23N2ClO6
_symmetry_space_group_name_H-M   'P 1'
_cell_length_a   7.75173000
_cell_length_b   8.58959000
_cell_length_c   35.88606522
_cell_angle_alpha   96.03677753
_cell_angle_beta   89.99979010
_cell_angle_gamma   89.99920000
_symmetry_Int_Tables_number   1
_chemical_formula_structural   ZnH23C23N2ClO6
_chemical_formula_sum   'Zn4 H92 C92 N8 Cl4 O24'
_cell_volume   2376.19387838
_cell_formula_units_Z   4
loop_
 _symmetry_equiv_pos_site_id
 _symmetry_equiv_pos_as_xyz
  1  'x, y, z'
loop_
 _atom_site_type_symbol
 _atom_site_label
 _atom_site_symmetry_multiplicity
 _atom_site_fract_x
 _atom_site_fract_y
 _atom_site_fract_z
 _atom_site_occupancy
  Zn  Zn0  1  0.27856000  0.28934000  0.69944000  1.0
  Zn  Zn1  1  0.77856000  0.21067000  0.80056000  1.0
  Zn  Zn2  1  0.72144000  0.71066000  0.30056000  1.0
  Zn  Zn3  1  0.22144000  0.78933000  0.19944000  1.0
  H  H4  1  0.87397000  0.53927000  0.52124000  1.0
  H  H5  1  0.37396000  0.96073000  0.97876000  1.0
  H  H6  1  0.12604000  0.46074000  0.47876000  1.0
  H  H7  1  0.62603000  0.03927000  0.02124000  1.0
  H  H8  1  0.14895000  0.46388000  0.55082000  1.0
  H  H9  1  0.64895000  0.03611000  0.94918000  1.0
  H  H10  1  0.85105000  0.53613000  0.44918000  1.0
  H  H11  1  0.35105000  0.96388000  0.05082000  1.0
  H  H12  1  0.22730000  0.57825000  0.61515000  1.0
  H  H13  1  0.72730000  0.92173000  0.88485000  1.0
  H  H14  1  0.77271000  0.42175000  0.38485000  1.0
  H  H15  1  0.27270000  0.07826000  0.11515000  1.0
  H  H16  1  0.04100000  0.77482000  0.65029000  1.0
  H  H17  1  0.54099000  0.72516000  0.84971000  1.0
  H  H18  1  0.95900000  0.22518000  0.34971000  1.0
  H  H19  1  0.45900000  0.27483000  0.15029000  1.0
  H  H20  1  0.52579000  0.90943000  0.51834000  1.0
  H  H21  1  0.02579000  0.59057000  0.98166000  1.0
  H  H22  1  0.47421000  0.09056000  0.48166000  1.0
  H  H23  1  0.97422000  0.40944000  0.01834000  1.0
  H  H24  1  0.66717000  0.75947000  0.50001000  1.0
  H  H25  1  0.16718000  0.74053000  0.99999000  1.0
  H  H26  1  0.33282000  0.24053000  0.49999000  1.0
  H  H27  1  0.83283000  0.25948000  0.00001000  1.0
  H  H28  1  0.75306000  0.92901000  0.52606000  1.0
  H  H29  1  0.25306000  0.57099000  0.97394000  1.0
  H  H30  1  0.24694000  0.07097000  0.47393000  1.0
  H  H31  1  0.74695000  0.42902000  0.02606000  1.0
  H  H32  1  0.47488000  0.57554000  0.57990000  1.0
  H  H33  1  0.97488000  0.92446000  0.92010000  1.0
  H  H34  1  0.52512000  0.42445000  0.42010000  1.0
  H  H35  1  0.02511000  0.07555000  0.07990000  1.0
  H  H36  1  0.53276000  0.54481000  0.53193000  1.0
  H  H37  1  0.03276000  0.95519000  0.96807000  1.0
  H  H38  1  0.46724000  0.45518000  0.46807000  1.0
  H  H39  1  0.96724000  0.04481000  0.03193000  1.0
  H  H40  1  0.36724000  0.68190000  0.54645000  1.0
  H  H41  1  0.86724000  0.81811000  0.95355000  1.0
  H  H42  1  0.63276000  0.31810000  0.45355000  1.0
  H  H43  1  0.13276000  0.18190000  0.04645000  1.0
  H  H44  1  0.66873000  0.07252000  0.65422000  1.0
  H  H45  1  0.16874000  0.42748000  0.84578000  1.0
  H  H46  1  0.33127000  0.92748000  0.34578000  1.0
  H  H47  1  0.83126000  0.57252000  0.15422000  1.0
  H  H48  1  0.87696000  0.99271000  0.65873000  1.0
  H  H49  1  0.37696000  0.50729000  0.84127000  1.0
  H  H50  1  0.12304000  0.00730000  0.34127000  1.0
  H  H51  1  0.62303000  0.49270000  0.15873000  1.0
  H  H52  1  0.74965000  0.77028000  0.68963000  1.0
  H  H53  1  0.24966000  0.72973000  0.81038000  1.0
  H  H54  1  0.25035000  0.22972000  0.31037000  1.0
  H  H55  1  0.75035000  0.27027000  0.18963000  1.0
  H  H56  1  0.54089000  0.84932000  0.68527000  1.0
  H  H57  1  0.04089000  0.65070000  0.81474000  1.0
  H  H58  1  0.45911000  0.15069000  0.31473000  1.0
  H  H59  1  0.95911000  0.34930000  0.18526000  1.0
  H  H60  1  0.68774000  0.91796000  0.74945000  1.0
  H  H61  1  0.18773000  0.58204000  0.75055000  1.0
  H  H62  1  0.31227000  0.08204000  0.25055000  1.0
  H  H63  1  0.81227000  0.41796000  0.24945000  1.0
  H  H64  1  0.84137000  0.02626000  0.72765000  1.0
  H  H65  1  0.34138000  0.47375000  0.77235000  1.0
  H  H66  1  0.15863000  0.97375000  0.27235000  1.0
  H  H67  1  0.65863000  0.52625000  0.22765000  1.0
  H  H68  1  0.43560000  0.02737000  0.63231000  1.0
  H  H69  1  0.93560000  0.47264000  0.86769000  1.0
  H  H70  1  0.56440000  0.97263000  0.36769000  1.0
  H  H71  1  0.06439000  0.52736000  0.13231000  1.0
  H  H72  1  0.31055000  0.93475000  0.55150000  1.0
  H  H73  1  0.81054000  0.56525000  0.94850000  1.0
  H  H74  1  0.68945000  0.06525000  0.44850000  1.0
  H  H75  1  0.18944000  0.43475000  0.05150000  1.0
  H  H76  1  0.73832000  0.34247000  0.60580000  1.0
  H  H77  1  0.23832000  0.15754000  0.89420000  1.0
  H  H78  1  0.26169000  0.65753000  0.39419000  1.0
  H  H79  1  0.76168000  0.84245000  0.10580000  1.0
  H  H80  1  0.06917000  0.05195000  0.53145000  1.0
  H  H81  1  0.56917000  0.44804000  0.96855000  1.0
  H  H82  1  0.93083000  0.94804000  0.46855000  1.0
  H  H83  1  0.43081000  0.55197000  0.03145000  1.0
  H  H84  1  0.80140000  0.45164000  0.70580000  1.0
  H  H85  1  0.30142000  0.04836000  0.79420000  1.0
  H  H86  1  0.19859000  0.54836000  0.29420000  1.0
  H  H87  1  0.69859000  0.95163000  0.20580000  1.0
  H  H88  1  0.67701000  0.35006000  0.66905000  1.0
  H  H89  1  0.17701000  0.14994000  0.83095000  1.0
  H  H90  1  0.32299000  0.64994000  0.33095000  1.0
  H  H91  1  0.82299000  0.85005000  0.16905000  1.0
  H  H92  1  0.79821000  0.51934000  0.65994000  1.0
  H  H93  1  0.29824000  0.98066000  0.84006000  1.0
  H  H94  1  0.20178000  0.48066000  0.34006000  1.0
  H  H95  1  0.70177000  0.01934000  0.15994000  1.0
  C  C96  1  0.59044000  0.87573000  0.59470000  1.0
  C  C97  1  0.09044000  0.62428000  0.90531000  1.0
  C  C98  1  0.40956000  0.12427000  0.40530000  1.0
  C  C99  1  0.90955000  0.37572000  0.09469000  1.0
  C  C100  1  0.62866000  0.76336000  0.55972000  1.0
  C  C101  1  0.12865000  0.73664000  0.94028000  1.0
  C  C102  1  0.37135000  0.23664000  0.44028000  1.0
  C  C103  1  0.87135000  0.26337000  0.05972000  1.0
  C  C104  1  0.80131000  0.69689000  0.56954000  1.0
  C  C105  1  0.30131000  0.80310000  0.93046000  1.0
  C  C106  1  0.19869000  0.30311000  0.43046000  1.0
  C  C107  1  0.69869000  0.19690000  0.06954000  1.0
  C  C108  1  0.90934000  0.59076000  0.54927000  1.0
  C  C109  1  0.40934000  0.90923000  0.95073000  1.0
  C  C110  1  0.09066000  0.40923000  0.45073000  1.0
  C  C111  1  0.59065000  0.09077000  0.04927000  1.0
  C  C112  1  0.06387000  0.54972000  0.56591000  1.0
  C  C113  1  0.56386000  0.95028000  0.93409000  1.0
  C  C114  1  0.93614000  0.45030000  0.43410000  1.0
  C  C115  1  0.43613000  0.04971000  0.06590000  1.0
  C  C116  1  0.10926000  0.61430000  0.60200000  1.0
  C  C117  1  0.60927000  0.88568000  0.89800000  1.0
  C  C118  1  0.89074000  0.38570000  0.39800000  1.0
  C  C119  1  0.39074000  0.11431000  0.10200000  1.0
  C  C120  1  0.00331000  0.72393000  0.62239000  1.0
  C  C121  1  0.50332000  0.77605000  0.87761000  1.0
  C  C122  1  0.99669000  0.27607000  0.37761000  1.0
  C  C123  1  0.49668000  0.22394000  0.12239000  1.0
  C  C124  1  0.85047000  0.76284000  0.60523000  1.0
  C  C125  1  0.35047000  0.73716000  0.89478000  1.0
  C  C126  1  0.14953000  0.23716000  0.39477000  1.0
  C  C127  1  0.64953000  0.26284000  0.10522000  1.0
  C  C128  1  0.64454000  0.84724000  0.52399000  1.0
  C  C129  1  0.14454000  0.65276000  0.97601000  1.0
  C  C130  1  0.35546000  0.15276000  0.47601000  1.0
  C  C131  1  0.85546000  0.34724000  0.02399000  1.0
  C  C132  1  0.49112000  0.63360000  0.55432000  1.0
  C  C133  1  0.99111000  0.86641000  0.94569000  1.0
  C  C134  1  0.50889000  0.36640000  0.44568000  1.0
  C  C135  1  0.00888000  0.13359000  0.05431000  1.0
  C  C136  1  0.73968000  0.96310000  0.65542000  1.0
  C  C137  1  0.23969000  0.53690000  0.84458000  1.0
  C  C138  1  0.26032000  0.03691000  0.34458000  1.0
  C  C139  1  0.76031000  0.46310000  0.15542000  1.0
  C  C140  1  0.67792000  0.88016000  0.68862000  1.0
  C  C141  1  0.17792000  0.61984000  0.81138000  1.0
  C  C142  1  0.32208000  0.11984000  0.31138000  1.0
  C  C143  1  0.82208000  0.38015000  0.18862000  1.0
  C  C144  1  0.70671000  0.98479000  0.72521000  1.0
  C  C145  1  0.20672000  0.51521000  0.77479000  1.0
  C  C146  1  0.29329000  0.01521000  0.27479000  1.0
  C  C147  1  0.79328000  0.48479000  0.22521000  1.0
  C  C148  1  0.59003000  0.12777000  0.73091000  1.0
  C  C149  1  0.09003000  0.37225000  0.76909000  1.0
  C  C150  1  0.40997000  0.87224000  0.26909000  1.0
  C  C151  1  0.90997000  0.62775000  0.23091000  1.0
  C  C152  1  0.44368000  0.96918000  0.60393000  1.0
  C  C153  1  0.94368000  0.53082000  0.89607000  1.0
  C  C154  1  0.55632000  0.03082000  0.39607000  1.0
  C  C155  1  0.05632000  0.46918000  0.10393000  1.0
  C  C156  1  0.30850000  0.99160000  0.58019000  1.0
  C  C157  1  0.80850000  0.50840000  0.91981000  1.0
  C  C158  1  0.69150000  0.00840000  0.41981000  1.0
  C  C159  1  0.19150000  0.49160000  0.08019000  1.0
  C  C160  1  0.12251000  0.16266000  0.62600000  1.0
  C  C161  1  0.62250000  0.33734000  0.87400000  1.0
  C  C162  1  0.87750000  0.83733000  0.37399000  1.0
  C  C163  1  0.37749000  0.66266000  0.12600000  1.0
  C  C164  1  0.96766000  0.25720000  0.63131000  1.0
  C  C165  1  0.46766000  0.24279000  0.86869000  1.0
  C  C166  1  0.03234000  0.74280000  0.36869000  1.0
  C  C167  1  0.53234000  0.75720000  0.13131000  1.0
  C  C168  1  0.85504000  0.27239000  0.60231000  1.0
  C  C169  1  0.35504000  0.22761000  0.89769000  1.0
  C  C170  1  0.14496000  0.72760000  0.39768000  1.0
  C  C171  1  0.64495000  0.77239000  0.10231000  1.0
  C  C172  1  0.89644000  0.19903000  0.56623000  1.0
  C  C173  1  0.39645000  0.30097000  0.93377000  1.0
  C  C174  1  0.10356000  0.80097000  0.43377000  1.0
  C  C175  1  0.60354000  0.69903000  0.06623000  1.0
  C  C176  1  0.04339000  0.10843000  0.55948000  1.0
  C  C177  1  0.54340000  0.39157000  0.94053000  1.0
  C  C178  1  0.95662000  0.89157000  0.44052000  1.0
  C  C179  1  0.45660000  0.60843000  0.05947000  1.0
  C  C180  1  0.15890000  0.08710000  0.58884000  1.0
  C  C181  1  0.65889000  0.41290000  0.91116000  1.0
  C  C182  1  0.84111000  0.91290000  0.41115000  1.0
  C  C183  1  0.34110000  0.58709000  0.08884000  1.0
  C  C184  1  0.79642000  0.41609000  0.67564000  1.0
  C  C185  1  0.29643000  0.08391000  0.82436000  1.0
  C  C186  1  0.20357000  0.58391000  0.32436000  1.0
  C  C187  1  0.70357000  0.91609000  0.17564000  1.0
  N  N188  1  0.72199000  0.87021000  0.61909000  1.0
  N  N189  1  0.22199000  0.62978000  0.88091000  1.0
  N  N190  1  0.27801000  0.12979000  0.38091000  1.0
  N  N191  1  0.77800000  0.37022000  0.11909000  1.0
  N  N192  1  0.78269000  0.22277000  0.53585000  1.0
  N  N193  1  0.28269000  0.27723000  0.96415000  1.0
  N  N194  1  0.21731000  0.77723000  0.46415000  1.0
  N  N195  1  0.71730000  0.72278000  0.03585000  1.0
  Cl  Cl196  1  0.36128000  0.51983000  0.68243000  1.0
  Cl  Cl197  1  0.86128000  0.98019000  0.81758000  1.0
  Cl  Cl198  1  0.63873000  0.48018000  0.31758000  1.0
  Cl  Cl199  1  0.13872000  0.01981000  0.18242000  1.0
  O  O200  1  0.47161000  0.13890000  0.70690000  1.0
  O  O201  1  0.97162000  0.36111000  0.79310000  1.0
  O  O202  1  0.52839000  0.86110000  0.29310000  1.0
  O  O203  1  0.02838000  0.63889000  0.20690000  1.0
  O  O204  1  0.61359000  0.22956000  0.75908000  1.0
  O  O205  1  0.11359000  0.27044000  0.74092000  1.0
  O  O206  1  0.38641000  0.77044000  0.24092000  1.0
  O  O207  1  0.88641000  0.72956000  0.25908000  1.0
  O  O208  1  0.22021000  0.14348000  0.65399000  1.0
  O  O209  1  0.72020000  0.35652000  0.84601000  1.0
  O  O210  1  0.77979000  0.85652000  0.34601000  1.0
  O  O211  1  0.27979000  0.64348000  0.15399000  1.0
  O  O212  1  0.94640000  0.32115000  0.66720000  1.0
  O  O213  1  0.44641000  0.17885000  0.83280000  1.0
  O  O214  1  0.05360000  0.67885000  0.33280000  1.0
  O  O215  1  0.55359000  0.82114000  0.16720000  1.0
  O  O216  1  0.63857000  0.28374000  0.54328000  1.0
  O  O217  1  0.13858000  0.21626000  0.95672000  1.0
  O  O218  1  0.36143000  0.71625000  0.45672000  1.0
  O  O219  1  0.86142000  0.78374000  0.04328000  1.0
  O  O220  1  0.83198000  0.18234000  0.50284000  1.0
  O  O221  1  0.33200000  0.31766000  0.99716000  1.0
  O  O222  1  0.16801000  0.81766000  0.49716000  1.0
  O  O223  1  0.66800000  0.68236000  0.00284000  1.0
