# generated using pymatgen
data_Y3H20(C14O9)2
_symmetry_space_group_name_H-M   'P 1'
_cell_length_a   11.49110000
_cell_length_b   11.93450000
_cell_length_c   12.88130000
_cell_angle_alpha   85.60200000
_cell_angle_beta   66.93130000
_cell_angle_gamma   72.04920000
_symmetry_Int_Tables_number   1
_chemical_formula_structural   Y3H20(C14O9)2
_chemical_formula_sum   'Y6 H40 C56 O36'
_cell_volume   1544.20895759
_cell_formula_units_Z   2
loop_
 _symmetry_equiv_pos_site_id
 _symmetry_equiv_pos_as_xyz
  1  'x, y, z'
loop_
 _atom_site_type_symbol
 _atom_site_label
 _atom_site_symmetry_multiplicity
 _atom_site_fract_x
 _atom_site_fract_y
 _atom_site_fract_z
 _atom_site_occupancy
  Y  Y0  1  0.58438000  0.55927000  0.35787000  1.0
  Y  Y1  1  0.41561000  0.44073000  0.64214000  1.0
  Y  Y2  1  0.54503000  0.85528000  0.23529000  1.0
  Y  Y3  1  0.45497000  0.14472000  0.76471000  1.0
  Y  Y4  1  0.54395000  0.23861000  0.38283000  1.0
  Y  Y5  1  0.45605000  0.76139000  0.61716000  1.0
  H  H6  1  0.16888000  0.56605000  0.40445000  1.0
  H  H7  1  0.83113000  0.43395000  0.59555000  1.0
  H  H8  1  0.94041000  0.57977000  0.42131000  1.0
  H  H9  1  0.05960000  0.42022000  0.57868000  1.0
  H  H10  1  0.93114000  0.88614000  0.22320000  1.0
  H  H11  1  0.06887000  0.11386000  0.77679000  1.0
  H  H12  1  0.15743000  0.87344000  0.20678000  1.0
  H  H13  1  0.84257000  0.12656000  0.79321000  1.0
  H  H14  1  0.84512000  0.46802000  0.18955000  1.0
  H  H15  1  0.15488000  0.53198000  0.81045000  1.0
  H  H16  1  0.92745000  0.66943000  0.89112000  1.0
  H  H17  1  0.07255000  0.33057000  0.10888000  1.0
  H  H18  1  0.93512000  0.07249000  0.38483000  1.0
  H  H19  1  0.06488000  0.92751000  0.61517000  1.0
  H  H20  1  0.16408000  0.98876000  0.38616000  1.0
  H  H21  1  0.83592000  0.01124000  0.61384000  1.0
  H  H22  1  0.21938000  0.33210000  0.32989000  1.0
  H  H23  1  0.78062000  0.66791000  0.67012000  1.0
  H  H24  1  0.99153000  0.41459000  0.32359000  1.0
  H  H25  1  0.00847000  0.58541000  0.67642000  1.0
  H  H26  1  0.71448000  0.44841000  0.02436000  1.0
  H  H27  1  0.28552000  0.55159000  0.97564000  1.0
  H  H28  1  0.30516000  0.45847000  0.15226000  1.0
  H  H29  1  0.69484000  0.54153000  0.84774000  1.0
  H  H30  1  0.88321000  0.18350000  0.12374000  1.0
  H  H31  1  0.11679000  0.81650000  0.87626000  1.0
  H  H32  1  0.87295000  0.86523000  0.99745000  1.0
  H  H33  1  0.12705000  0.13477000  0.00255000  1.0
  H  H34  1  0.38802000  0.78095000  0.43763000  1.0
  H  H35  1  0.61198000  0.21905000  0.56237000  1.0
  H  H36  1  0.37428000  0.47047000  0.43670000  1.0
  H  H37  1  0.62572000  0.52953000  0.56330000  1.0
  H  H38  1  0.42862000  0.03960000  0.08565000  1.0
  H  H39  1  0.57138000  0.96041000  0.91435000  1.0
  H  H40  1  0.34755000  0.94832000  0.13337000  1.0
  H  H41  1  0.65245000  0.05168000  0.86662000  1.0
  H  H42  1  0.66822000  0.96323000  0.37442000  1.0
  H  H43  1  0.33178000  0.03677000  0.62558000  1.0
  H  H44  1  0.60515000  0.02031000  0.50030000  1.0
  H  H45  1  0.39485000  0.97969000  0.49970000  1.0
  C  C46  1  0.31618000  0.70976000  0.29374000  1.0
  C  C47  1  0.68382000  0.29024000  0.70627000  1.0
  C  C48  1  0.17896000  0.71816000  0.30364000  1.0
  C  C49  1  0.82105000  0.28184000  0.69636000  1.0
  C  C50  1  0.11655000  0.63575000  0.36450000  1.0
  C  C51  1  0.88346000  0.36425000  0.63549000  1.0
  C  C52  1  0.98964000  0.64307000  0.37385000  1.0
  C  C53  1  0.01037000  0.35692000  0.62615000  1.0
  C  C54  1  0.92188000  0.73265000  0.32250000  1.0
  C  C55  1  0.07812000  0.26734000  0.67750000  1.0
  C  C56  1  0.98288000  0.81643000  0.26344000  1.0
  C  C57  1  0.01711000  0.18357000  0.73656000  1.0
  C  C58  1  0.11011000  0.80892000  0.25402000  1.0
  C  C59  1  0.88989000  0.19108000  0.74598000  1.0
  C  C60  1  0.78920000  0.73337000  0.32602000  1.0
  C  C61  1  0.21080000  0.26663000  0.67398000  1.0
  C  C62  1  0.73716000  0.66484000  0.09358000  1.0
  C  C63  1  0.26284000  0.33516000  0.90642000  1.0
  C  C64  1  0.87124000  0.57773000  0.04480000  1.0
  C  C65  1  0.12876000  0.42227000  0.95520000  1.0
  C  C66  1  0.91186000  0.48220000  0.10622000  1.0
  C  C67  1  0.08814000  0.51780000  0.89378000  1.0
  C  C68  1  0.96018000  0.59518000  0.93824000  1.0
  C  C69  1  0.03982000  0.40482000  0.06176000  1.0
  C  C70  1  0.81012000  0.30049000  0.36882000  1.0
  C  C71  1  0.18988000  0.69951000  0.63119000  1.0
  C  C72  1  0.95065000  0.24854000  0.35693000  1.0
  C  C73  1  0.04935000  0.75146000  0.64307000  1.0
  C  C74  1  0.99892000  0.12790000  0.37182000  1.0
  C  C75  1  0.00108000  0.87210000  0.62818000  1.0
  C  C76  1  0.12527000  0.08184000  0.37279000  1.0
  C  C77  1  0.87473000  0.91816000  0.62721000  1.0
  C  C78  1  0.20140000  0.15736000  0.36169000  1.0
  C  C79  1  0.79860000  0.84264000  0.63832000  1.0
  C  C80  1  0.15583000  0.27684000  0.34129000  1.0
  C  C81  1  0.84417000  0.72317000  0.65872000  1.0
  C  C82  1  0.03097000  0.32186000  0.33756000  1.0
  C  C83  1  0.96903000  0.67815000  0.66244000  1.0
  C  C84  1  0.32634000  0.11353000  0.38123000  1.0
  C  C85  1  0.67366000  0.88647000  0.61877000  1.0
  C  C86  1  0.52171000  0.39580000  0.20304000  1.0
  C  C87  1  0.47829000  0.60420000  0.79695000  1.0
  C  C88  1  0.51073000  0.44940000  0.09814000  1.0
  C  C89  1  0.48927000  0.55061000  0.90186000  1.0
  C  C90  1  0.62104000  0.47218000  0.01284000  1.0
  C  C91  1  0.37896000  0.52782000  0.98716000  1.0
  C  C92  1  0.38971000  0.47690000  0.08495000  1.0
  C  C93  1  0.61029000  0.52310000  0.91505000  1.0
  C  C94  1  0.71949000  0.05479000  0.14495000  1.0
  C  C95  1  0.28051000  0.94521000  0.85505000  1.0
  C  C96  1  0.86369000  0.02751000  0.06750000  1.0
  C  C97  1  0.13631000  0.97249000  0.93250000  1.0
  C  C98  1  0.93551000  0.10326000  0.06927000  1.0
  C  C99  1  0.06449000  0.89674000  0.93072000  1.0
  C  C100  1  0.92929000  0.92399000  0.99746000  1.0
  C  C101  1  0.07071000  0.07601000  0.00253000  1.0
  O  O102  1  0.37663000  0.62140000  0.33493000  1.0
  O  O103  1  0.62337000  0.37860000  0.66507000  1.0
  O  O104  1  0.36383000  0.79308000  0.24694000  1.0
  O  O105  1  0.63617000  0.20692000  0.75306000  1.0
  O  O106  1  0.75423000  0.64206000  0.35694000  1.0
  O  O107  1  0.24577000  0.35794000  0.64307000  1.0
  O  O108  1  0.72161000  0.82646000  0.29272000  1.0
  O  O109  1  0.27839000  0.17354000  0.70728000  1.0
  O  O110  1  0.65303000  0.64628000  0.19045000  1.0
  O  O111  1  0.34697000  0.35372000  0.80955000  1.0
  O  O112  1  0.70556000  0.76022000  0.04743000  1.0
  O  O113  1  0.29444000  0.23978000  0.95258000  1.0
  O  O114  1  0.74001000  0.23084000  0.39095000  1.0
  O  O115  1  0.25999000  0.76915000  0.60905000  1.0
  O  O116  1  0.76724000  0.41075000  0.36010000  1.0
  O  O117  1  0.23276000  0.58925000  0.63990000  1.0
  O  O118  1  0.39362000  0.00407000  0.35953000  1.0
  O  O119  1  0.60638000  0.99593000  0.64047000  1.0
  O  O120  1  0.35717000  0.18505000  0.42562000  1.0
  O  O121  1  0.64283000  0.81495000  0.57438000  1.0
  O  O122  1  0.61556000  0.40223000  0.23126000  1.0
  O  O123  1  0.38444000  0.59777000  0.76874000  1.0
  O  O124  1  0.43878000  0.34307000  0.26285000  1.0
  O  O125  1  0.56122000  0.65693000  0.73715000  1.0
  O  O126  1  0.67052000  0.14395000  0.21317000  1.0
  O  O127  1  0.32948000  0.85605000  0.78683000  1.0
  O  O128  1  0.65397000  0.98795000  0.14024000  1.0
  O  O129  1  0.34603000  0.01205000  0.85976000  1.0
  O  O130  1  0.48369000  0.76312000  0.41564000  1.0
  O  O131  1  0.51631000  0.23688000  0.58436000  1.0
  O  O132  1  0.45133000  0.43340000  0.45589000  1.0
  O  O133  1  0.54867000  0.56660000  0.54411000  1.0
  O  O134  1  0.43415000  0.95996000  0.11170000  1.0
  O  O135  1  0.56586000  0.04005000  0.88830000  1.0
  O  O136  1  0.62847000  0.03834000  0.42012000  1.0
  O  O137  1  0.37153000  0.96166000  0.57988000  1.0
