# generated using pymatgen
data_SnH10C5O2
_symmetry_space_group_name_H-M   'P 1'
_cell_length_a   7.95075000
_cell_length_b   7.95070000
_cell_length_c   12.85710000
_cell_angle_alpha   73.70260000
_cell_angle_beta   73.70190000
_cell_angle_gamma   73.40690000
_symmetry_Int_Tables_number   1
_chemical_formula_structural   SnH10C5O2
_chemical_formula_sum   'Sn4 H40 C20 O8'
_cell_volume   729.63054150
_cell_formula_units_Z   4
loop_
 _symmetry_equiv_pos_site_id
 _symmetry_equiv_pos_as_xyz
  1  'x, y, z'
loop_
 _atom_site_type_symbol
 _atom_site_label
 _atom_site_symmetry_multiplicity
 _atom_site_fract_x
 _atom_site_fract_y
 _atom_site_fract_z
 _atom_site_occupancy
  Sn  Sn0  1  0.71522000  0.92338000  0.20806000  1.0
  Sn  Sn1  1  0.07663000  0.28479000  0.29194000  1.0
  Sn  Sn2  1  0.28478000  0.07662000  0.79194000  1.0
  Sn  Sn3  1  0.92339000  0.71521000  0.70806000  1.0
  H  H4  1  0.66627000  0.73005000  0.08052000  1.0
  H  H5  1  0.26995000  0.33375000  0.41948000  1.0
  H  H6  1  0.33371000  0.26996000  0.91948000  1.0
  H  H7  1  0.73005000  0.66628000  0.58053000  1.0
  H  H8  1  0.50126000  0.71120000  0.20708000  1.0
  H  H9  1  0.28880000  0.49876000  0.29290000  1.0
  H  H10  1  0.49872000  0.28881000  0.79291000  1.0
  H  H11  1  0.71120000  0.50126000  0.70709000  1.0
  H  H12  1  0.47131000  0.90969000  0.09970000  1.0
  H  H13  1  0.09031000  0.52870000  0.40030000  1.0
  H  H14  1  0.52868000  0.09033000  0.90030000  1.0
  H  H15  1  0.90969000  0.47130000  0.59970000  1.0
  H  H16  1  0.46788000  0.02231000  0.38687000  1.0
  H  H17  1  0.97770000  0.53211000  0.11315000  1.0
  H  H18  1  0.53211000  0.97769000  0.61314000  1.0
  H  H19  1  0.02231000  0.46788000  0.88686000  1.0
  H  H20  1  0.68374000  0.93513000  0.42148000  1.0
  H  H21  1  0.06487000  0.31626000  0.07851000  1.0
  H  H22  1  0.31626000  0.06487000  0.57851000  1.0
  H  H23  1  0.93514000  0.68373000  0.92149000  1.0
  H  H24  1  0.62863000  0.15970000  0.34263000  1.0
  H  H25  1  0.84032000  0.37138000  0.15738000  1.0
  H  H26  1  0.37138000  0.84030000  0.65737000  1.0
  H  H27  1  0.15970000  0.62862000  0.84263000  1.0
  H  H28  1  0.03914000  0.83833000  0.06561000  1.0
  H  H29  1  0.16168000  0.96086000  0.43439000  1.0
  H  H30  1  0.96086000  0.16167000  0.93439000  1.0
  H  H31  1  0.83832000  0.03913000  0.56562000  1.0
  H  H32  1  0.03816000  0.01716000  0.12382000  1.0
  H  H33  1  0.98286000  0.96184000  0.37618000  1.0
  H  H34  1  0.96184000  0.98284000  0.87618000  1.0
  H  H35  1  0.01715000  0.03816000  0.62383000  1.0
  H  H36  1  0.06874000  0.79153000  0.20461000  1.0
  H  H37  1  0.20847000  0.93126000  0.29539000  1.0
  H  H38  1  0.93127000  0.20846000  0.79539000  1.0
  H  H39  1  0.79153000  0.06872000  0.70461000  1.0
  H  H40  1  0.29794000  0.52328000  0.05332000  1.0
  H  H41  1  0.47673000  0.70206000  0.44669000  1.0
  H  H42  1  0.70204000  0.47673000  0.94668000  1.0
  H  H43  1  0.52327000  0.29793000  0.55331000  1.0
  C  C44  1  0.57008000  0.80498000  0.14046000  1.0
  C  C45  1  0.19502000  0.42991000  0.35954000  1.0
  C  C46  1  0.42990000  0.19502000  0.85954000  1.0
  C  C47  1  0.80497000  0.57008000  0.64047000  1.0
  C  C48  1  0.61108000  0.02237000  0.35797000  1.0
  C  C49  1  0.97762000  0.38892000  0.14203000  1.0
  C  C50  1  0.38893000  0.97762000  0.64202000  1.0
  C  C51  1  0.02238000  0.61107000  0.85798000  1.0
  C  C52  1  0.99969000  0.88846000  0.14212000  1.0
  C  C53  1  0.11154000  0.00031000  0.35787000  1.0
  C  C54  1  0.00031000  0.11154000  0.85787000  1.0
  C  C55  1  0.88846000  0.99969000  0.64213000  1.0
  C  C56  1  0.49290000  0.27623000  0.10880000  1.0
  C  C57  1  0.72376000  0.50710000  0.39121000  1.0
  C  C58  1  0.50707000  0.72381000  0.89118000  1.0
  C  C59  1  0.27618000  0.49292000  0.60881000  1.0
  C  C60  1  0.44054000  0.45819000  0.03908000  1.0
  C  C61  1  0.54183000  0.55944000  0.46093000  1.0
  C  C62  1  0.55946000  0.54181000  0.96092000  1.0
  C  C63  1  0.45819000  0.44054000  0.53907000  1.0
  O  O64  1  0.66033000  0.19588000  0.09366000  1.0
  O  O65  1  0.80414000  0.33966000  0.40635000  1.0
  O  O66  1  0.33970000  0.80410000  0.90633000  1.0
  O  O67  1  0.19590000  0.66028000  0.59366000  1.0
  O  O68  1  0.37206000  0.20509000  0.18016000  1.0
  O  O69  1  0.79492000  0.62794000  0.31984000  1.0
  O  O70  1  0.62792000  0.79491000  0.81985000  1.0
  O  O71  1  0.20509000  0.37208000  0.68014000  1.0
