# generated using pymatgen
data_CuH5C4N3Cl2
_symmetry_space_group_name_H-M   'P 1'
_cell_length_a   4.08338000
_cell_length_b   7.02218000
_cell_length_c   12.16570000
_cell_angle_alpha   89.99790000
_cell_angle_beta   89.99640000
_cell_angle_gamma   102.35200000
_symmetry_Int_Tables_number   1
_chemical_formula_structural   CuH5C4N3Cl2
_chemical_formula_sum   'Cu2 H10 C8 N6 Cl4'
_cell_volume   340.76701615
_cell_formula_units_Z   2
loop_
 _symmetry_equiv_pos_site_id
 _symmetry_equiv_pos_as_xyz
  1  'x, y, z'
loop_
 _atom_site_type_symbol
 _atom_site_label
 _atom_site_symmetry_multiplicity
 _atom_site_fract_x
 _atom_site_fract_y
 _atom_site_fract_z
 _atom_site_occupancy
  Cu  Cu0  1  0.99999000  0.00000000  0.50000000  1.0
  Cu  Cu1  1  0.99999000  0.00000000  0.00000000  1.0
  H  H2  1  0.30371000  0.85212000  0.67818000  1.0
  H  H3  1  0.69626000  0.14788000  0.17817000  1.0
  H  H4  1  0.69626000  0.14788000  0.32182000  1.0
  H  H5  1  0.30373000  0.85210000  0.82182000  1.0
  H  H6  1  0.86050000  0.36209000  0.57332000  1.0
  H  H7  1  0.13952000  0.63791000  0.07332000  1.0
  H  H8  1  0.13950000  0.63790000  0.42668000  1.0
  H  H9  1  0.86050000  0.36210000  0.92668000  1.0
  H  H10  1  0.78482000  0.53733000  0.75000000  1.0
  H  H11  1  0.21521000  0.46268000  0.25000000  1.0
  C  C12  1  0.08030000  0.05573000  0.75000000  1.0
  C  C13  1  0.91970000  0.94427000  0.25001000  1.0
  C  C14  1  0.90976000  0.30390000  0.65308000  1.0
  C  C15  1  0.09025000  0.69610000  0.15308000  1.0
  C  C16  1  0.09024000  0.69610000  0.34692000  1.0
  C  C17  1  0.90975000  0.30390000  0.84693000  1.0
  C  C18  1  0.86321000  0.39892000  0.75000000  1.0
  C  C19  1  0.13682000  0.60109000  0.25000000  1.0
  N  N20  1  0.22247000  0.90314000  0.75000000  1.0
  N  N21  1  0.77752000  0.09686000  0.25000000  1.0
  N  N22  1  0.00923000  0.13395000  0.65226000  1.0
  N  N23  1  0.99079000  0.86606000  0.15227000  1.0
  N  N24  1  0.99076000  0.86604000  0.34774000  1.0
  N  N25  1  0.00921000  0.13394000  0.84773000  1.0
  Cl  Cl26  1  0.62134000  0.74366000  0.56098000  1.0
  Cl  Cl27  1  0.37857000  0.25633000  0.06097000  1.0
  Cl  Cl28  1  0.37866000  0.25635000  0.43902000  1.0
  Cl  Cl29  1  0.62142000  0.74367000  0.93903000  1.0
