# generated using pymatgen
data_Zn2H16C31N9
_symmetry_space_group_name_H-M   'P 1'
_cell_length_a   18.62680000
_cell_length_b   18.70370000
_cell_length_c   18.81760000
_cell_angle_alpha   110.76800000
_cell_angle_beta   108.56800000
_cell_angle_gamma   103.35600000
_symmetry_Int_Tables_number   1
_chemical_formula_structural   Zn2H16C31N9
_chemical_formula_sum   'Zn4 H32 C62 N18'
_cell_volume   5355.56742719
_cell_formula_units_Z   2
loop_
 _symmetry_equiv_pos_site_id
 _symmetry_equiv_pos_as_xyz
  1  'x, y, z'
loop_
 _atom_site_type_symbol
 _atom_site_label
 _atom_site_symmetry_multiplicity
 _atom_site_fract_x
 _atom_site_fract_y
 _atom_site_fract_z
 _atom_site_occupancy
  Zn  Zn0  1  0.61281000  0.99304000  0.12700000  1.0
  Zn  Zn1  1  0.38592000  0.00183000  0.88260000  1.0
  Zn  Zn2  1  0.51284000  0.87395000  0.92965000  1.0
  Zn  Zn3  1  0.49208000  0.09870000  0.10115000  1.0
  H  H4  1  0.76722000  0.11951000  0.13140000  1.0
  H  H5  1  0.35849000  0.00767000  0.14510000  1.0
  H  H6  1  0.62807000  0.28342000  0.25469000  1.0
  H  H7  1  0.40082000  0.72295000  0.74518000  1.0
  H  H8  1  0.28342000  0.97228000  0.67381000  1.0
  H  H9  1  0.50415000  0.85787000  0.15440000  1.0
  H  H10  1  0.62712000  0.26013000  0.12617000  1.0
  H  H11  1  0.50372000  0.69664000  0.92251000  1.0
  H  H12  1  0.03224000  0.41590000  0.33024000  1.0
  H  H13  1  0.00895000  0.61284000  0.56784000  1.0
  H  H14  1  0.70413000  0.82475000  0.73295000  1.0
  H  H15  1  0.20643000  0.99130000  0.87246000  1.0
  H  H16  1  0.60734000  0.82484000  0.67682000  1.0
  H  H17  1  0.69778000  0.88776000  0.68139000  1.0
  H  H18  1  0.65583000  0.97623000  0.78407000  1.0
  H  H19  1  0.75129000  0.97405000  0.83805000  1.0
  H  H20  1  0.67680000  0.85752000  0.85965000  1.0
  H  H21  1  0.58389000  0.86911000  0.81390000  1.0
  H  H22  1  0.34420000  0.28560000  0.30375000  1.0
  H  H23  1  0.44533000  0.32631000  0.31473000  1.0
  H  H24  1  0.37568000  0.37368000  0.28808000  1.0
  H  H25  1  0.38709000  0.28631000  0.15817000  1.0
  H  H26  1  0.05936000  0.58371000  0.37086000  1.0
  H  H27  1  0.28671000  0.24670000  0.14775000  1.0
  H  H28  1  0.31951000  0.14260000  0.19261000  1.0
  H  H29  1  0.42024000  0.18112000  0.20288000  1.0
  H  H30  1  0.98148000  0.44368000  0.52734000  1.0
  H  H31  1  0.12696000  0.46508000  0.50364000  1.0
  H  H32  1  0.91461000  0.56272000  0.39391000  1.0
  H  H33  1  0.48085000  0.13907000  0.85427000  1.0
  H  H34  1  0.69805000  0.85759000  0.17714000  1.0
  H  H35  1  0.50223000  0.92162000  0.68802000  1.0
  C  C36  1  0.72635000  0.06804000  0.06904000  1.0
  C  C37  1  0.00012000  0.47601000  0.49391000  1.0
  C  C38  1  0.02760000  0.45980000  0.38369000  1.0
  C  C39  1  0.01283000  0.56773000  0.51465000  1.0
  C  C40  1  0.80729000  0.31827000  0.32340000  1.0
  C  C41  1  0.22853000  0.69535000  0.63651000  1.0
  C  C42  1  0.96217000  0.54155000  0.41924000  1.0
  C  C43  1  0.07871000  0.48577000  0.47900000  1.0
  C  C44  1  0.94634000  0.44754000  0.39695000  1.0
  C  C45  1  0.09472000  0.58000000  0.50308000  1.0
  C  C46  1  0.87048000  0.37814000  0.35133000  1.0
  C  C47  1  0.25379000  0.03113000  0.93693000  1.0
  C  C48  1  0.16942000  0.64563000  0.56876000  1.0
  C  C49  1  0.59219000  0.31186000  0.99371000  1.0
  C  C50  1  0.61912000  0.67478000  0.05168000  1.0
  C  C51  1  0.51079000  0.15612000  0.92099000  1.0
  C  C52  1  0.64843000  0.83026000  0.11404000  1.0
  C  C53  1  0.60688000  0.38334000  0.00381000  1.0
  C  C54  1  0.62179000  0.60699000  0.04205000  1.0
  C  C55  1  0.61673000  0.46083000  0.01652000  1.0
  C  C56  1  0.62157000  0.53188000  0.02992000  1.0
  C  C57  1  0.38617000  0.89728000  0.22224000  1.0
  C  C58  1  0.56791000  0.23362000  0.99023000  1.0
  C  C59  1  0.36429000  0.92079000  0.55873000  1.0
  C  C60  1  0.37060000  0.89079000  0.27914000  1.0
  C  C61  1  0.35759000  0.90641000  0.48712000  1.0
  C  C62  1  0.35963000  0.88965000  0.34588000  1.0
  C  C63  1  0.35591000  0.89589000  0.41230000  1.0
  C  C64  1  0.82216000  0.05344000  0.00178000  1.0
  C  C65  1  0.17320000  0.07968000  0.01486000  1.0
  C  C66  1  0.89190000  0.06579000  0.00700000  1.0
  C  C67  1  0.10786000  0.08087000  0.01623000  1.0
  C  C68  1  0.96697000  0.07491000  0.01180000  1.0
  C  C69  1  0.60752000  0.74607000  0.05157000  1.0
  C  C70  1  0.03532000  0.07931000  0.01515000  1.0
  C  C71  1  0.45309000  0.93707000  0.70013000  1.0
  C  C72  1  0.40082000  0.97696000  0.14034000  1.0
  C  C73  1  0.65301000  0.23599000  0.25182000  1.0
  C  C74  1  0.36898000  0.76268000  0.76378000  1.0
  C  C75  1  0.34089000  0.96343000  0.69172000  1.0
  C  C76  1  0.47498000  0.89982000  0.14482000  1.0
  C  C77  1  0.73066000  0.16407000  0.26510000  1.0
  C  C78  1  0.28227000  0.82413000  0.77456000  1.0
  C  C79  1  0.58525000  0.21767000  0.06039000  1.0
  C  C80  1  0.38240000  0.93828000  0.64248000  1.0
  C  C81  1  0.54883000  0.74786000  0.98367000  1.0
  C  C82  1  0.66947000  0.96744000  0.93542000  1.0
  C  C83  1  0.32668000  0.11572000  0.07590000  1.0
  C  C84  1  0.74447000  0.03352000  0.00042000  1.0
  C  C85  1  0.24552000  0.07598000  0.00979000  1.0
  C  C86  1  0.79407000  0.13465000  0.28372000  1.0
  C  C87  1  0.21420000  0.84738000  0.75906000  1.0
  C  C88  1  0.65116000  0.90303000  0.85045000  1.0
  C  C89  1  0.68538000  0.93538000  0.79881000  1.0
  C  C90  1  0.67287000  0.86440000  0.71801000  1.0
  C  C91  1  0.41514000  0.91921000  0.16954000  1.0
  C  C92  1  0.35617000  0.17223000  0.16739000  1.0
  C  C93  1  0.35089000  0.25701000  0.18384000  1.0
  C  C94  1  0.38066000  0.31380000  0.27770000  1.0
  C  C95  1  0.73604000  0.24636000  0.28568000  1.0
  C  C96  1  0.28939000  0.75529000  0.71770000  1.0
  C  C97  1  0.04200000  0.55252000  0.40579000  1.0
  N  N98  1  0.64761000  0.02572000  0.04809000  1.0
  N  N99  1  0.49593000  0.94472000  0.10662000  1.0
  N  N100  1  0.65053000  0.11001000  0.21952000  1.0
  N  N101  1  0.35297000  0.87029000  0.84781000  1.0
  N  N102  1  0.54014000  0.13807000  0.03473000  1.0
  N  N103  1  0.55510000  0.82623000  0.00434000  1.0
  N  N104  1  0.61304000  0.96522000  0.96581000  1.0
  N  N105  1  0.37806000  0.09597000  0.04328000  1.0
  N  N106  1  0.84511000  0.10807000  0.29699000  1.0
  N  N107  1  0.15749000  0.86610000  0.74487000  1.0
  N  N108  1  0.33303000  0.04313000  0.95750000  1.0
  N  N109  1  0.49452000  0.10037000  0.94907000  1.0
  N  N110  1  0.61691000  0.87750000  0.08491000  1.0
  N  N111  1  0.45407000  0.95911000  0.77599000  1.0
  N  N112  1  0.45020000  0.99201000  0.10404000  1.0
  N  N113  1  0.60313000  0.15496000  0.21128000  1.0
  N  N114  1  0.40480000  0.83076000  0.83993000  1.0
  N  N115  1  0.38480000  0.97578000  0.77055000  1.0
