# generated using pymatgen
data_ZnH24C28(N3O2)2
_symmetry_space_group_name_H-M   'P 1'
_cell_length_a   7.87453000
_cell_length_b   8.01296000
_cell_length_c   20.31100000
_cell_angle_alpha   81.53130000
_cell_angle_beta   85.89330000
_cell_angle_gamma   86.62390000
_symmetry_Int_Tables_number   1
_chemical_formula_structural   ZnH24C28(N3O2)2
_chemical_formula_sum   'Zn2 H48 C56 N12 O8'
_cell_volume   1262.84196644
_cell_formula_units_Z   2
loop_
 _symmetry_equiv_pos_site_id
 _symmetry_equiv_pos_as_xyz
  1  'x, y, z'
loop_
 _atom_site_type_symbol
 _atom_site_label
 _atom_site_symmetry_multiplicity
 _atom_site_fract_x
 _atom_site_fract_y
 _atom_site_fract_z
 _atom_site_occupancy
  Zn  Zn0  1  0.76514000  0.77563000  0.75411000  1.0
  Zn  Zn1  1  0.23486000  0.22437000  0.24589000  1.0
  H  H2  1  0.36004000  0.72239000  0.43535000  1.0
  H  H3  1  0.63996000  0.27760000  0.56465000  1.0
  H  H4  1  0.85166000  0.35013000  0.10254000  1.0
  H  H5  1  0.14834000  0.64987000  0.89746000  1.0
  H  H6  1  0.47022000  0.99328000  0.78416000  1.0
  H  H7  1  0.52977000  0.00672000  0.21584000  1.0
  H  H8  1  0.19120000  0.09704000  0.73614000  1.0
  H  H9  1  0.80880000  0.90295000  0.26386000  1.0
  H  H10  1  0.12976000  0.02773000  0.62544000  1.0
  H  H11  1  0.87025000  0.97227000  0.37456000  1.0
  H  H12  1  0.62012000  0.75499000  0.62057000  1.0
  H  H13  1  0.37988000  0.24501000  0.37943000  1.0
  H  H14  1  0.16754000  0.01414000  0.49333000  1.0
  H  H15  1  0.83246000  0.98585000  0.50667000  1.0
  H  H16  1  0.07433000  0.86099000  0.55557000  1.0
  H  H17  1  0.92567000  0.13900000  0.44443000  1.0
  H  H18  1  0.15513000  0.80242000  0.47864000  1.0
  H  H19  1  0.84487000  0.19758000  0.52136000  1.0
  H  H20  1  0.47424000  0.57602000  0.35036000  1.0
  H  H21  1  0.52576000  0.42399000  0.64964000  1.0
  H  H22  1  0.73213000  0.44593000  0.29382000  1.0
  H  H23  1  0.26786000  0.55407000  0.70617000  1.0
  H  H24  1  0.04226000  0.56924000  0.44277000  1.0
  H  H25  1  0.95774000  0.43076000  0.55723000  1.0
  H  H26  1  0.78474000  0.69275000  0.50191000  1.0
  H  H27  1  0.21526000  0.30725000  0.49809000  1.0
  H  H28  1  0.53657000  0.51526000  0.74091000  1.0
  H  H29  1  0.46343000  0.48474000  0.25909000  1.0
  H  H30  1  0.41930000  0.25553000  0.80843000  1.0
  H  H31  1  0.58070000  0.74447000  0.19157000  1.0
  H  H32  1  0.49129000  0.18080000  0.92704000  1.0
  H  H33  1  0.50871000  0.81920000  0.07295000  1.0
  H  H34  1  0.78132000  0.63041000  0.90068000  1.0
  H  H35  1  0.21868000  0.36959000  0.09932000  1.0
  H  H36  1  0.67723000  0.18958000  0.08690000  1.0
  H  H37  1  0.32277000  0.81042000  0.91310000  1.0
  H  H38  1  0.68228000  0.09452000  0.01332000  1.0
  H  H39  1  0.31772000  0.90548000  0.98668000  1.0
  H  H40  1  0.49314000  0.20320000  0.04026000  1.0
  H  H41  1  0.50686000  0.79680000  0.95974000  1.0
  H  H42  1  0.94596000  0.46747000  0.19347000  1.0
  H  H43  1  0.05404000  0.53253000  0.80653000  1.0
  H  H44  1  0.05851000  0.71401000  0.23432000  1.0
  H  H45  1  0.94149000  0.28599000  0.76568000  1.0
  H  H46  1  0.95074000  0.02508000  0.05033000  1.0
  H  H47  1  0.04926000  0.97492000  0.94966000  1.0
  H  H48  1  0.84839000  0.77563000  0.00610000  1.0
  H  H49  1  0.15161000  0.22437000  0.99390000  1.0
  C  C50  1  0.43714000  0.96617000  0.73577000  1.0
  C  C51  1  0.56286000  0.03383000  0.26423000  1.0
  C  C52  1  0.06997000  0.03978000  0.16773000  1.0
  C  C53  1  0.93003000  0.96022000  0.83227000  1.0
  C  C54  1  0.28399000  0.02307000  0.70868000  1.0
  C  C55  1  0.71601000  0.97693000  0.29132000  1.0
  C  C56  1  0.25066000  0.98408000  0.64634000  1.0
  C  C57  1  0.74934000  0.01592000  0.35366000  1.0
  C  C58  1  0.37325000  0.89049000  0.61142000  1.0
  C  C59  1  0.62675000  0.10951000  0.38859000  1.0
  C  C60  1  0.52400000  0.83599000  0.64317000  1.0
  C  C61  1  0.47600000  0.16401000  0.35683000  1.0
  C  C62  1  0.34763000  0.84342000  0.54574000  1.0
  C  C63  1  0.65238000  0.15658000  0.45426000  1.0
  C  C64  1  0.17785000  0.88128000  0.51664000  1.0
  C  C65  1  0.82215000  0.11872000  0.48336000  1.0
  C  C66  1  0.61574000  0.64629000  0.42821000  1.0
  C  C67  1  0.38426000  0.35372000  0.57179000  1.0
  C  C68  1  0.60028000  0.57664000  0.36945000  1.0
  C  C69  1  0.39973000  0.42336000  0.63055000  1.0
  C  C70  1  0.74304000  0.50381000  0.33853000  1.0
  C  C71  1  0.25696000  0.49619000  0.66147000  1.0
  C  C72  1  0.90384000  0.50187000  0.36448000  1.0
  C  C73  1  0.09616000  0.49813000  0.63552000  1.0
  C  C74  1  0.91709000  0.57306000  0.42281000  1.0
  C  C75  1  0.08291000  0.42694000  0.57719000  1.0
  C  C76  1  0.77543000  0.64243000  0.45545000  1.0
  C  C77  1  0.22457000  0.35757000  0.54455000  1.0
  C  C78  1  0.06007000  0.42265000  0.33360000  1.0
  C  C79  1  0.93993000  0.57735000  0.66640000  1.0
  C  C80  1  0.56045000  0.47986000  0.79326000  1.0
  C  C81  1  0.43954000  0.52014000  0.20674000  1.0
  C  C82  1  0.49926000  0.33482000  0.83094000  1.0
  C  C83  1  0.50074000  0.66518000  0.16906000  1.0
  C  C84  1  0.53942000  0.29456000  0.89725000  1.0
  C  C85  1  0.46058000  0.70545000  0.10275000  1.0
  C  C86  1  0.63907000  0.40210000  0.92525000  1.0
  C  C87  1  0.36093000  0.59790000  0.07475000  1.0
  C  C88  1  0.69746000  0.54568000  0.88306000  1.0
  C  C89  1  0.30255000  0.45432000  0.11694000  1.0
  C  C90  1  0.68638000  0.36663000  0.99474000  1.0
  C  C91  1  0.31362000  0.63337000  0.00526000  1.0
  C  C92  1  0.63341000  0.20509000  0.03630000  1.0
  C  C93  1  0.36659000  0.79491000  0.96370000  1.0
  C  C94  1  0.88877000  0.60634000  0.09726000  1.0
  C  C95  1  0.11123000  0.39366000  0.90274000  1.0
  C  C96  1  0.94758000  0.58981000  0.16189000  1.0
  C  C97  1  0.05242000  0.41019000  0.83811000  1.0
  C  C98  1  0.00972000  0.72803000  0.18479000  1.0
  C  C99  1  0.99027000  0.27197000  0.81521000  1.0
  C  C100  1  0.00959000  0.88682000  0.14489000  1.0
  C  C101  1  0.99041000  0.11318000  0.85511000  1.0
  C  C102  1  0.94919000  0.90172000  0.08092000  1.0
  C  C103  1  0.05081000  0.09828000  0.91908000  1.0
  C  C104  1  0.89114000  0.76440000  0.05645000  1.0
  C  C105  1  0.10886000  0.23560000  0.94355000  1.0
  N  N106  1  0.55474000  0.87235000  0.70335000  1.0
  N  N107  1  0.44526000  0.12765000  0.29665000  1.0
  N  N108  1  0.48003000  0.77278000  0.51683000  1.0
  N  N109  1  0.51998000  0.22722000  0.48317000  1.0
  N  N110  1  0.47215000  0.72008000  0.45799000  1.0
  N  N111  1  0.52785000  0.27993000  0.54201000  1.0
  N  N112  1  0.65859000  0.58347000  0.81927000  1.0
  N  N113  1  0.34141000  0.41652000  0.18073000  1.0
  N  N114  1  0.76668000  0.48546000  0.01490000  1.0
  N  N115  1  0.23332000  0.51454000  0.98510000  1.0
  N  N116  1  0.82480000  0.46742000  0.07584000  1.0
  N  N117  1  0.17520000  0.53258000  0.92416000  1.0
  O  O118  1  0.03332000  0.31294000  0.29449000  1.0
  O  O119  1  0.96668000  0.68706000  0.70551000  1.0
  O  O120  1  0.20493000  0.46121000  0.34673000  1.0
  O  O121  1  0.79507000  0.53879000  0.65327000  1.0
  O  O122  1  0.17513000  0.01429000  0.21501000  1.0
  O  O123  1  0.82487000  0.98571000  0.78499000  1.0
  O  O124  1  0.02030000  0.18500000  0.14089000  1.0
  O  O125  1  0.97970000  0.81500000  0.85911000  1.0
