# generated using pymatgen
data_ZnH2C8(NO2)2
_symmetry_space_group_name_H-M   'P 1'
_cell_length_a   8.12615000
_cell_length_b   9.25722000
_cell_length_c   10.89210000
_cell_angle_alpha   89.35710000
_cell_angle_beta   78.58600000
_cell_angle_gamma   84.63690000
_symmetry_Int_Tables_number   1
_chemical_formula_structural   ZnH2C8(NO2)2
_chemical_formula_sum   'Zn2 H4 C16 N4 O8'
_cell_volume   799.62144710
_cell_formula_units_Z   2
loop_
 _symmetry_equiv_pos_site_id
 _symmetry_equiv_pos_as_xyz
  1  'x, y, z'
loop_
 _atom_site_type_symbol
 _atom_site_label
 _atom_site_symmetry_multiplicity
 _atom_site_fract_x
 _atom_site_fract_y
 _atom_site_fract_z
 _atom_site_occupancy
  Zn  Zn0  1  0.66708000  0.48583000  0.47500000  1.0
  Zn  Zn1  1  0.33291000  0.51419000  0.52500000  1.0
  H  H2  1  0.67573000  0.28791000  0.89886000  1.0
  H  H3  1  0.32430000  0.71208000  0.10114000  1.0
  H  H4  1  0.79324000  0.51781000  0.02072000  1.0
  H  H5  1  0.20679000  0.48217000  0.97928000  1.0
  C  C6  1  0.50100000  0.22115000  0.49710000  1.0
  C  C7  1  0.49895000  0.77886000  0.50293000  1.0
  C  C8  1  0.48527000  0.49337000  0.74135000  1.0
  C  C9  1  0.51475000  0.50663000  0.25864000  1.0
  C  C10  1  0.59899000  0.38290000  0.94440000  1.0
  C  C11  1  0.40104000  0.61708000  0.05559000  1.0
  C  C12  1  0.66342000  0.50890000  0.01067000  1.0
  C  C13  1  0.33660000  0.49108000  0.98932000  1.0
  C  C14  1  0.44396000  0.37628000  0.05690000  1.0
  C  C15  1  0.55607000  0.62373000  0.94308000  1.0
  C  C16  1  0.51119000  0.50601000  0.12244000  1.0
  C  C17  1  0.48884000  0.49397000  0.87758000  1.0
  C  C18  1  0.50043000  0.06544000  0.49861000  1.0
  C  C19  1  0.49952000  0.93459000  0.50142000  1.0
  C  C20  1  0.38714000  0.24818000  0.11855000  1.0
  C  C21  1  0.61287000  0.75180000  0.88144000  1.0
  N  N22  1  0.05759000  0.51015000  0.51732000  1.0
  N  N23  1  0.94242000  0.48979000  0.48267000  1.0
  N  N24  1  0.34052000  0.14312000  0.16910000  1.0
  N  N25  1  0.65946000  0.85686000  0.83087000  1.0
  O  O26  1  0.64511000  0.27082000  0.47527000  1.0
  O  O27  1  0.35484000  0.72921000  0.52470000  1.0
  O  O28  1  0.64270000  0.70562000  0.48159000  1.0
  O  O29  1  0.35726000  0.29441000  0.51847000  1.0
  O  O30  1  0.62906000  0.48319000  0.66782000  1.0
  O  O31  1  0.37098000  0.51675000  0.33217000  1.0
  O  O32  1  0.65852000  0.49456000  0.28962000  1.0
  O  O33  1  0.34150000  0.50554000  0.71038000  1.0
