# generated using pymatgen
data_MgH6C5(NO3)2
_symmetry_space_group_name_H-M   'P 1'
_cell_length_a   6.03388000
_cell_length_b   6.27878000
_cell_length_c   19.76620000
_cell_angle_alpha   87.73770000
_cell_angle_beta   89.99990000
_cell_angle_gamma   89.99980000
_symmetry_Int_Tables_number   1
_chemical_formula_structural   MgH6C5(NO3)2
_chemical_formula_sum   'Mg4 H24 C20 N8 O24'
_cell_volume   748.26682838
_cell_formula_units_Z   4
loop_
 _symmetry_equiv_pos_site_id
 _symmetry_equiv_pos_as_xyz
  1  'x, y, z'
loop_
 _atom_site_type_symbol
 _atom_site_label
 _atom_site_symmetry_multiplicity
 _atom_site_fract_x
 _atom_site_fract_y
 _atom_site_fract_z
 _atom_site_occupancy
  Mg  Mg0  1  0.84197000  0.42408000  0.79929000  1.0
  Mg  Mg1  1  0.34198000  0.57592000  0.70071000  1.0
  Mg  Mg2  1  0.15803000  0.57592000  0.20071000  1.0
  Mg  Mg3  1  0.65803000  0.42408000  0.29929000  1.0
  H  H4  1  0.28011000  0.30250000  0.99813000  1.0
  H  H5  1  0.78011000  0.69750000  0.50188000  1.0
  H  H6  1  0.71989000  0.69750000  0.00187000  1.0
  H  H7  1  0.21989000  0.30250000  0.49812000  1.0
  H  H8  1  0.85470000  0.12384000  0.70445000  1.0
  H  H9  1  0.35470000  0.87616000  0.79555000  1.0
  H  H10  1  0.14530000  0.87616000  0.29555000  1.0
  H  H11  1  0.64530000  0.12384000  0.20445000  1.0
  H  H12  1  0.82832000  0.99018000  0.77565000  1.0
  H  H13  1  0.32833000  0.00982000  0.72435000  1.0
  H  H14  1  0.17167000  0.00982000  0.22435000  1.0
  H  H15  1  0.67167000  0.99018000  0.27565000  1.0
  H  H16  1  0.93587000  0.79527000  0.86343000  1.0
  H  H17  1  0.43588000  0.20473000  0.63657000  1.0
  H  H18  1  0.06413000  0.20473000  0.13657000  1.0
  H  H19  1  0.56412000  0.79527000  0.36343000  1.0
  H  H20  1  0.67532000  0.77092000  0.85610000  1.0
  H  H21  1  0.17532000  0.22908000  0.64389000  1.0
  H  H22  1  0.32468000  0.22908000  0.14389000  1.0
  H  H23  1  0.82467000  0.77092000  0.35611000  1.0
  H  H24  1  0.94221000  0.14924000  0.95066000  1.0
  H  H25  1  0.44221000  0.85076000  0.54934000  1.0
  H  H26  1  0.05779000  0.85076000  0.04934000  1.0
  H  H27  1  0.55780000  0.14924000  0.45066000  1.0
  C  C28  1  0.48520000  0.32440000  0.90325000  1.0
  C  C29  1  0.98521000  0.67560000  0.59675000  1.0
  C  C30  1  0.51479000  0.67560000  0.09675000  1.0
  C  C31  1  0.01480000  0.32440000  0.40325000  1.0
  C  C32  1  0.43661000  0.28363000  0.97216000  1.0
  C  C33  1  0.93662000  0.71637000  0.52784000  1.0
  C  C34  1  0.56339000  0.71637000  0.02784000  1.0
  C  C35  1  0.06340000  0.28364000  0.47216000  1.0
  C  C36  1  0.63729000  0.21661000  0.00105000  1.0
  C  C37  1  0.13729000  0.78339000  0.49895000  1.0
  C  C38  1  0.36271000  0.78340000  0.99895000  1.0
  C  C39  1  0.86271000  0.21661000  0.50105000  1.0
  C  C40  1  0.35300000  0.39637000  0.84346000  1.0
  C  C41  1  0.85302000  0.60363000  0.65654000  1.0
  C  C42  1  0.64700000  0.60364000  0.15654000  1.0
  C  C43  1  0.14698000  0.39636000  0.34346000  1.0
  C  C44  1  0.71217000  0.15637000  0.07087000  1.0
  C  C45  1  0.21216000  0.84364000  0.42913000  1.0
  C  C46  1  0.28783000  0.84363000  0.92913000  1.0
  C  C47  1  0.78784000  0.15637000  0.57087000  1.0
  N  N48  1  0.70147000  0.28567000  0.89119000  1.0
  N  N49  1  0.20148000  0.71433000  0.60881000  1.0
  N  N50  1  0.29852000  0.71433000  0.10881000  1.0
  N  N51  1  0.79852000  0.28566000  0.39120000  1.0
  N  N52  1  0.78899000  0.22141000  0.95006000  1.0
  N  N53  1  0.28900000  0.77859000  0.54993000  1.0
  N  N54  1  0.21101000  0.77859000  0.04994000  1.0
  N  N55  1  0.71101000  0.22141000  0.45007000  1.0
  O  O56  1  0.46850000  0.44942000  0.79043000  1.0
  O  O57  1  0.96852000  0.55058000  0.70957000  1.0
  O  O58  1  0.53149000  0.55058000  0.20957000  1.0
  O  O59  1  0.03148000  0.44942000  0.29043000  1.0
  O  O60  1  0.14513000  0.39895000  0.84706000  1.0
  O  O61  1  0.64514000  0.60104000  0.65295000  1.0
  O  O62  1  0.85487000  0.60107000  0.15295000  1.0
  O  O63  1  0.35487000  0.39894000  0.34705000  1.0
  O  O64  1  0.83662000  0.13467000  0.75422000  1.0
  O  O65  1  0.33662000  0.86533000  0.74578000  1.0
  O  O66  1  0.16338000  0.86533000  0.24578000  1.0
  O  O67  1  0.66338000  0.13467000  0.25422000  1.0
  O  O68  1  0.81789000  0.74116000  0.83247000  1.0
  O  O69  1  0.31790000  0.25884000  0.66753000  1.0
  O  O70  1  0.18211000  0.25885000  0.16753000  1.0
  O  O71  1  0.68210000  0.74115000  0.33247000  1.0
  O  O72  1  0.57620000  0.16583000  0.11950000  1.0
  O  O73  1  0.07619000  0.83417000  0.38050000  1.0
  O  O74  1  0.42379000  0.83417000  0.88050000  1.0
  O  O75  1  0.92381000  0.16582000  0.61950000  1.0
  O  O76  1  0.91491000  0.10220000  0.07638000  1.0
  O  O77  1  0.41489000  0.89780000  0.42362000  1.0
  O  O78  1  0.08509000  0.89779000  0.92362000  1.0
  O  O79  1  0.58510000  0.10220000  0.57638000  1.0
