# generated using pymatgen
data_Yb2H20C28N2O17
_symmetry_space_group_name_H-M   'P 1'
_cell_length_a   10.19760000
_cell_length_b   11.86620000
_cell_length_c   12.73930000
_cell_angle_alpha   75.99260000
_cell_angle_beta   77.04420000
_cell_angle_gamma   72.34420000
_symmetry_Int_Tables_number   1
_chemical_formula_structural   Yb2H20C28N2O17
_chemical_formula_sum   'Yb4 H40 C56 N4 O34'
_cell_volume   1406.16646697
_cell_formula_units_Z   2
loop_
 _symmetry_equiv_pos_site_id
 _symmetry_equiv_pos_as_xyz
  1  'x, y, z'
loop_
 _atom_site_type_symbol
 _atom_site_label
 _atom_site_symmetry_multiplicity
 _atom_site_fract_x
 _atom_site_fract_y
 _atom_site_fract_z
 _atom_site_occupancy
  Yb  Yb0  1  0.80114000  0.78031000  0.44967000  1.0
  Yb  Yb1  1  0.19887000  0.21969000  0.55033000  1.0
  Yb  Yb2  1  0.21141000  0.71869000  0.60659000  1.0
  Yb  Yb3  1  0.78859000  0.28131000  0.39341000  1.0
  H  H4  1  0.68489000  0.95757000  0.27043000  1.0
  H  H5  1  0.31511000  0.04243000  0.72957000  1.0
  H  H6  1  0.69098000  0.03050000  0.36037000  1.0
  H  H7  1  0.30902000  0.96950000  0.63962000  1.0
  H  H8  1  0.89294000  0.92067000  0.57172000  1.0
  H  H9  1  0.10706000  0.07933000  0.42828000  1.0
  H  H10  1  0.74170000  0.99462000  0.55386000  1.0
  H  H11  1  0.25830000  0.00537000  0.44614000  1.0
  H  H12  1  0.12396000  0.53916000  0.53628000  1.0
  H  H13  1  0.87604000  0.46084000  0.46372000  1.0
  H  H14  1  0.28293000  0.49298000  0.52933000  1.0
  H  H15  1  0.71707000  0.50702000  0.47067000  1.0
  H  H16  1  0.99352000  0.13119000  0.06659000  1.0
  H  H17  1  0.00648000  0.86881000  0.93340000  1.0
  H  H18  1  0.17880000  0.01238000  0.93874000  1.0
  H  H19  1  0.82120000  0.98762000  0.06126000  1.0
  H  H20  1  0.34271000  0.82402000  0.01865000  1.0
  H  H21  1  0.65729000  0.17598000  0.98135000  1.0
  H  H22  1  0.39804000  0.43797000  0.32654000  1.0
  H  H23  1  0.60196000  0.56203000  0.67346000  1.0
  H  H24  1  0.21475000  0.62468000  0.28954000  1.0
  H  H25  1  0.78525000  0.37533000  0.71045000  1.0
  H  H26  1  0.50567000  0.82877000  0.17192000  1.0
  H  H27  1  0.49433000  0.17123000  0.82808000  1.0
  H  H28  1  0.70211000  0.64865000  0.20413000  1.0
  H  H29  1  0.29789000  0.35135000  0.79587000  1.0
  H  H30  1  0.02701000  0.24819000  0.91119000  1.0
  H  H31  1  0.97299000  0.75181000  0.08881000  1.0
  H  H32  1  0.85462000  0.31900000  0.07419000  1.0
  H  H33  1  0.14538000  0.68100000  0.92581000  1.0
  H  H34  1  0.69383000  0.52605000  0.04554000  1.0
  H  H35  1  0.30617000  0.47395000  0.95446000  1.0
  H  H36  1  0.35875000  0.81681000  0.81365000  1.0
  H  H37  1  0.64125000  0.18319000  0.18635000  1.0
  H  H38  1  0.53122000  0.61701000  0.84497000  1.0
  H  H39  1  0.46878000  0.38299000  0.15503000  1.0
  H  H40  1  0.83444000  0.76738000  0.87945000  1.0
  H  H41  1  0.16556000  0.23262000  0.12055000  1.0
  H  H42  1  0.67304000  0.97396000  0.85598000  1.0
  H  H43  1  0.32696000  0.02604000  0.14402000  1.0
  C  C44  1  0.12170000  0.84397000  0.37690000  1.0
  C  C45  1  0.87830000  0.15603000  0.62310000  1.0
  C  C46  1  0.95204000  0.09725000  0.28002000  1.0
  C  C47  1  0.04796000  0.90275000  0.71998000  1.0
  C  C48  1  0.13972000  0.90004000  0.25692000  1.0
  C  C49  1  0.86027000  0.09996000  0.74308000  1.0
  C  C50  1  0.05093000  0.00958000  0.21183000  1.0
  C  C51  1  0.94907000  0.99042000  0.78817000  1.0
  C  C52  1  0.06490000  0.04710000  0.09794000  1.0
  C  C53  1  0.93510000  0.95290000  0.90206000  1.0
  C  C54  1  0.16708000  0.98110000  0.02721000  1.0
  C  C55  1  0.83292000  0.01890000  0.97279000  1.0
  C  C56  1  0.25913000  0.87618000  0.07138000  1.0
  C  C57  1  0.74088000  0.12381000  0.92862000  1.0
  C  C58  1  0.24635000  0.83715000  0.18482000  1.0
  C  C59  1  0.75365000  0.16285000  0.81518000  1.0
  C  C60  1  0.42855000  0.52082000  0.28928000  1.0
  C  C61  1  0.57145000  0.47919000  0.71072000  1.0
  C  C62  1  0.32425000  0.62399000  0.26931000  1.0
  C  C63  1  0.67575000  0.37601000  0.73069000  1.0
  C  C64  1  0.48873000  0.73893000  0.20093000  1.0
  C  C65  1  0.51127000  0.26108000  0.79908000  1.0
  C  C66  1  0.59658000  0.63832000  0.21956000  1.0
  C  C67  1  0.40342000  0.36169000  0.78044000  1.0
  C  C68  1  0.57223000  0.52198000  0.26278000  1.0
  C  C69  1  0.42777000  0.47803000  0.73722000  1.0
  C  C70  1  0.52364000  0.69768000  0.49440000  1.0
  C  C71  1  0.47637000  0.30232000  0.50560000  1.0
  C  C72  1  0.48408000  0.81060000  0.54539000  1.0
  C  C73  1  0.51592000  0.18940000  0.45461000  1.0
  C  C74  1  0.90445000  0.62508000  0.68274000  1.0
  C  C75  1  0.09555000  0.37492000  0.31726000  1.0
  C  C76  1  0.06241000  0.35905000  0.70803000  1.0
  C  C77  1  0.93758000  0.64095000  0.29197000  1.0
  C  C78  1  0.88469000  0.53371000  0.78714000  1.0
  C  C79  1  0.11531000  0.46629000  0.21286000  1.0
  C  C80  1  0.96999000  0.41476000  0.80170000  1.0
  C  C81  1  0.03001000  0.58524000  0.19830000  1.0
  C  C82  1  0.95841000  0.33919000  0.90472000  1.0
  C  C83  1  0.04159000  0.66081000  0.09528000  1.0
  C  C84  1  0.86177000  0.37763000  0.99372000  1.0
  C  C85  1  0.13823000  0.62237000  0.00628000  1.0
  C  C86  1  0.77193000  0.49307000  0.97834000  1.0
  C  C87  1  0.22807000  0.50692000  0.02166000  1.0
  C  C88  1  0.78374000  0.56875000  0.87612000  1.0
  C  C89  1  0.21626000  0.43125000  0.12389000  1.0
  C  C90  1  0.46204000  0.81055000  0.82886000  1.0
  C  C91  1  0.53796000  0.18945000  0.17114000  1.0
  C  C92  1  0.55525000  0.70010000  0.84538000  1.0
  C  C93  1  0.44476000  0.29990000  0.15462000  1.0
  C  C94  1  0.72785000  0.78541000  0.86570000  1.0
  C  C95  1  0.27215000  0.21459000  0.13430000  1.0
  C  C96  1  0.63843000  0.89754000  0.85201000  1.0
  C  C97  1  0.36157000  0.10246000  0.14799000  1.0
  C  C98  1  0.49977000  0.91776000  0.83070000  1.0
  C  C99  1  0.50024000  0.08224000  0.16930000  1.0
  N  N100  1  0.35302000  0.73193000  0.22313000  1.0
  N  N101  1  0.64698000  0.26807000  0.77687000  1.0
  N  N102  1  0.68743000  0.68674000  0.86240000  1.0
  N  N103  1  0.31257000  0.31326000  0.13760000  1.0
  O  O104  1  0.01785000  0.80056000  0.41480000  1.0
  O  O105  1  0.98215000  0.19944000  0.58520000  1.0
  O  O106  1  0.21661000  0.83380000  0.43031000  1.0
  O  O107  1  0.78339000  0.16620000  0.56969000  1.0
  O  O108  1  0.95960000  0.08449000  0.38130000  1.0
  O  O109  1  0.04040000  0.91551000  0.61870000  1.0
  O  O110  1  0.86667000  0.18899000  0.23426000  1.0
  O  O111  1  0.13333000  0.81101000  0.76574000  1.0
  O  O112  1  0.67359000  0.42604000  0.27543000  1.0
  O  O113  1  0.32641000  0.57396000  0.72457000  1.0
  O  O114  1  0.65061000  0.66585000  0.44892000  1.0
  O  O115  1  0.34939000  0.33415000  0.55108000  1.0
  O  O116  1  0.43128000  0.64457000  0.50427000  1.0
  O  O117  1  0.56872000  0.35542000  0.49573000  1.0
  O  O118  1  0.57731000  0.86206000  0.53776000  1.0
  O  O119  1  0.42269000  0.13793000  0.46224000  1.0
  O  O120  1  0.35809000  0.84077000  0.59392000  1.0
  O  O121  1  0.64191000  0.15923000  0.40608000  1.0
  O  O122  1  0.81828000  0.65322000  0.61713000  1.0
  O  O123  1  0.18172000  0.34678000  0.38287000  1.0
  O  O124  1  0.00540000  0.67015000  0.67298000  1.0
  O  O125  1  0.99461000  0.32984000  0.32702000  1.0
  O  O126  1  0.04744000  0.40897000  0.60887000  1.0
  O  O127  1  0.95256000  0.59103000  0.39113000  1.0
  O  O128  1  0.14781000  0.25651000  0.73013000  1.0
  O  O129  1  0.85219000  0.74349000  0.26986000  1.0
  O  O130  1  0.41707000  0.02304000  0.81593000  1.0
  O  O131  1  0.58293000  0.97696000  0.18407000  1.0
  O  O132  1  0.73369000  0.95332000  0.33294000  1.0
  O  O133  1  0.26631000  0.04668000  0.66706000  1.0
  O  O134  1  0.80421000  0.91378000  0.55713000  1.0
  O  O135  1  0.19579000  0.08622000  0.44287000  1.0
  O  O136  1  0.20770000  0.56909000  0.52126000  1.0
  O  O137  1  0.79230000  0.43091000  0.47874000  1.0
