# generated using pymatgen
data_NiH20C20(NO4)2
_symmetry_space_group_name_H-M   'P 1'
_cell_length_a   7.29342000
_cell_length_b   10.75320000
_cell_length_c   12.61411758
_cell_angle_alpha   87.73348308
_cell_angle_beta   73.25091099
_cell_angle_gamma   82.69430000
_symmetry_Int_Tables_number   1
_chemical_formula_structural   NiH20C20(NO4)2
_chemical_formula_sum   'Ni2 H40 C40 N4 O16'
_cell_volume   939.63014641
_cell_formula_units_Z   2
loop_
 _symmetry_equiv_pos_site_id
 _symmetry_equiv_pos_as_xyz
  1  'x, y, z'
loop_
 _atom_site_type_symbol
 _atom_site_label
 _atom_site_symmetry_multiplicity
 _atom_site_fract_x
 _atom_site_fract_y
 _atom_site_fract_z
 _atom_site_occupancy
  Ni  Ni0  1  0.80405000  0.83800000  0.58698000  1.0
  Ni  Ni1  1  0.19578000  0.16225000  0.41335000  1.0
  H  H2  1  0.99302000  0.91587000  0.38293000  1.0
  H  H3  1  0.00759000  0.08377000  0.61683000  1.0
  H  H4  1  0.77975000  0.90228000  0.38040000  1.0
  H  H5  1  0.22088000  0.09803000  0.61924000  1.0
  H  H6  1  0.85202000  0.61050000  0.49019000  1.0
  H  H7  1  0.14697000  0.38949000  0.51091000  1.0
  H  H8  1  0.98312000  0.59881000  0.57293000  1.0
  H  H9  1  0.01586000  0.40145000  0.42831000  1.0
  H  H10  1  0.46341000  0.76097000  0.60705000  1.0
  H  H11  1  0.53620000  0.23887000  0.39294000  1.0
  H  H12  1  0.15871000  0.88850000  0.50878000  1.0
  H  H13  1  0.84163000  0.11160000  0.49126000  1.0
  H  H14  1  0.16612000  0.77652000  0.59507000  1.0
  H  H15  1  0.83387000  0.22368000  0.40518000  1.0
  H  H16  1  0.02899000  0.29108000  0.78689000  1.0
  H  H17  1  0.97175000  0.70878000  0.21215000  1.0
  H  H18  1  0.77391000  0.43619000  0.80479000  1.0
  H  H19  1  0.22713000  0.56363000  0.19435000  1.0
  H  H20  1  0.17671000  0.64708000  0.86291000  1.0
  H  H21  1  0.82370000  0.35249000  0.13719000  1.0
  H  H22  1  0.56429000  0.06169000  0.86234000  1.0
  H  H23  1  0.43616000  0.93841000  0.13702000  1.0
  H  H24  1  0.17888000  0.16316000  0.90939000  1.0
  H  H25  1  0.82165000  0.83685000  0.08987000  1.0
  H  H26  1  0.64375000  0.50921000  0.04738000  1.0
  H  H27  1  0.35656000  0.49028000  0.95269000  1.0
  H  H28  1  0.71255000  0.93323000  0.98429000  1.0
  H  H29  1  0.28745000  0.06723000  0.01542000  1.0
  H  H30  1  0.50300000  0.70037000  0.00443000  1.0
  H  H31  1  0.49697000  0.29858000  0.99588000  1.0
  H  H32  1  0.02278000  0.70118000  0.74341000  1.0
  H  H33  1  0.97721000  0.29948000  0.25727000  1.0
  H  H34  1  0.34262000  0.28739000  0.61041000  1.0
  H  H35  1  0.65673000  0.71289000  0.38960000  1.0
  H  H36  1  0.56903000  0.58987000  0.72359000  1.0
  H  H37  1  0.43085000  0.41013000  0.27648000  1.0
  H  H38  1  0.43412000  0.84618000  0.83034000  1.0
  H  H39  1  0.56528000  0.15343000  0.17060000  1.0
  H  H40  1  0.46094000  0.91175000  0.61712000  1.0
  H  H41  1  0.53880000  0.08819000  0.38232000  1.0
  C  C42  1  0.95658000  0.03839000  0.96115000  1.0
  C  C43  1  0.04354000  0.96195000  0.03841000  1.0
  C  C44  1  0.43602000  0.44909000  0.66570000  1.0
  C  C45  1  0.56369000  0.55093000  0.33443000  1.0
  C  C46  1  0.95634000  0.21446000  0.83255000  1.0
  C  C47  1  0.04422000  0.78557000  0.16671000  1.0
  C  C48  1  0.68166000  0.40344000  0.76017000  1.0
  C  C49  1  0.31902000  0.59647000  0.23916000  1.0
  C  C50  1  0.78191000  0.18874000  0.81653000  1.0
  C  C51  1  0.21868000  0.81126000  0.18270000  1.0
  C  C52  1  0.56119000  0.23243000  0.69208000  1.0
  C  C53  1  0.43911000  0.76758000  0.30727000  1.0
  C  C54  1  0.09822000  0.58243000  0.92232000  1.0
  C  C55  1  0.90203000  0.41721000  0.07772000  1.0
  C  C56  1  0.67919000  0.27366000  0.75219000  1.0
  C  C57  1  0.32151000  0.72626000  0.24695000  1.0
  C  C58  1  0.69986000  0.08458000  0.87214000  1.0
  C  C59  1  0.30050000  0.91560000  0.12727000  1.0
  C  C60  1  0.04162000  0.14066000  0.90229000  1.0
  C  C61  1  0.95872000  0.85953000  0.09713000  1.0
  C  C62  1  0.89719000  0.58882000  0.94845000  1.0
  C  C63  1  0.10304000  0.41088000  0.05160000  1.0
  C  C64  1  0.79984000  0.50607000  0.02651000  1.0
  C  C65  1  0.20044000  0.49356000  0.97349000  1.0
  C  C66  1  0.78450000  0.01178000  0.94264000  1.0
  C  C67  1  0.21566000  0.98856000  0.05694000  1.0
  C  C68  1  0.59831000  0.72036000  0.92408000  1.0
  C  C69  1  0.40160000  0.27925000  0.07640000  1.0
  C  C70  1  0.57018000  0.09716000  0.66242000  1.0
  C  C71  1  0.42975000  0.90285000  0.33712000  1.0
  C  C72  1  0.87225000  0.72341000  0.78960000  1.0
  C  C73  1  0.12763000  0.27706000  0.21097000  1.0
  C  C74  1  0.43730000  0.32022000  0.65304000  1.0
  C  C75  1  0.56251000  0.67986000  0.34677000  1.0
  C  C76  1  0.29079000  0.54155000  0.63263000  1.0
  C  C77  1  0.70817000  0.45856000  0.36830000  1.0
  C  C78  1  0.56498000  0.49002000  0.71628000  1.0
  C  C79  1  0.43520000  0.50999000  0.28350000  1.0
  C  C80  1  0.56680000  0.79315000  0.83744000  1.0
  C  C81  1  0.43292000  0.20664000  0.16317000  1.0
  N  N82  1  0.79396000  0.67607000  0.89253000  1.0
  N  N83  1  0.20606000  0.32393000  0.10788000  1.0
  N  N84  1  0.73861000  0.79329000  0.75406000  1.0
  N  N85  1  0.26102000  0.20700000  0.24657000  1.0
  O  O86  1  0.29906000  0.65876000  0.64326000  1.0
  O  O87  1  0.70030000  0.34137000  0.35731000  1.0
  O  O88  1  0.41465000  0.04909000  0.67820000  1.0
  O  O89  1  0.58514000  0.95111000  0.32115000  1.0
  O  O90  1  0.73996000  0.03895000  0.61868000  1.0
  O  O91  1  0.25997000  0.96089000  0.38115000  1.0
  O  O92  1  0.15758000  0.50089000  0.60256000  1.0
  O  O93  1  0.84048000  0.49920000  0.39922000  1.0
  O  O94  1  0.88371000  0.86775000  0.41310000  1.0
  O  O95  1  0.11652000  0.13221000  0.58667000  1.0
  O  O96  1  0.86598000  0.64709000  0.55794000  1.0
  O  O97  1  0.13335000  0.35328000  0.44294000  1.0
  O  O98  1  0.53025000  0.83445000  0.57404000  1.0
  O  O99  1  0.46995000  0.16522000  0.42600000  1.0
  O  O100  1  0.08868000  0.85656000  0.58216000  1.0
  O  O101  1  0.91133000  0.14355000  0.41784000  1.0
