# generated using pymatgen
data_CdH17C12N2ClO2
_symmetry_space_group_name_H-M   'P 1'
_cell_length_a   6.90466000
_cell_length_b   14.02900000
_cell_length_c   16.07290000
_cell_angle_alpha   90.00010000
_cell_angle_beta   90.00020000
_cell_angle_gamma   89.99980000
_symmetry_Int_Tables_number   1
_chemical_formula_structural   CdH17C12N2ClO2
_chemical_formula_sum   'Cd4 H68 C48 N8 Cl4 O8'
_cell_volume   1556.90909536
_cell_formula_units_Z   4
loop_
 _symmetry_equiv_pos_site_id
 _symmetry_equiv_pos_as_xyz
  1  'x, y, z'
loop_
 _atom_site_type_symbol
 _atom_site_label
 _atom_site_symmetry_multiplicity
 _atom_site_fract_x
 _atom_site_fract_y
 _atom_site_fract_z
 _atom_site_occupancy
  Cd  Cd0  1  0.64635000  0.26645000  0.11020000  1.0
  Cd  Cd1  1  0.85364000  0.73355000  0.61019000  1.0
  Cd  Cd2  1  0.14635000  0.23355000  0.88981000  1.0
  Cd  Cd3  1  0.35365000  0.76645000  0.38981000  1.0
  H  H4  1  0.64675000  0.07572000  0.17089000  1.0
  H  H5  1  0.85325000  0.92428000  0.67089000  1.0
  H  H6  1  0.14675000  0.42428000  0.82911000  1.0
  H  H7  1  0.35326000  0.57572000  0.32911000  1.0
  H  H8  1  0.90114000  0.84271000  0.36833000  1.0
  H  H9  1  0.59886000  0.15729000  0.86833000  1.0
  H  H10  1  0.40114000  0.65729000  0.63167000  1.0
  H  H11  1  0.09885000  0.34271000  0.13168000  1.0
  H  H12  1  0.73505000  0.98742000  0.31425000  1.0
  H  H13  1  0.76496000  0.01259000  0.81425000  1.0
  H  H14  1  0.23504000  0.51259000  0.68574000  1.0
  H  H15  1  0.26496000  0.48741000  0.18575000  1.0
  H  H16  1  0.27398000  0.06855000  0.19790000  1.0
  H  H17  1  0.22602000  0.93145000  0.69790000  1.0
  H  H18  1  0.77397000  0.43145000  0.80210000  1.0
  H  H19  1  0.72603000  0.56855000  0.30210000  1.0
  H  H20  1  0.41657000  0.91476000  0.25339000  1.0
  H  H21  1  0.08343000  0.08523000  0.75340000  1.0
  H  H22  1  0.91656000  0.58524000  0.74661000  1.0
  H  H23  1  0.58343000  0.41476000  0.24661000  1.0
  H  H24  1  0.82064000  0.16716000  0.26691000  1.0
  H  H25  1  0.67936000  0.83283000  0.76691000  1.0
  H  H26  1  0.32064000  0.33284000  0.73309000  1.0
  H  H27  1  0.17937000  0.66716000  0.23309000  1.0
  H  H28  1  0.01581000  0.17825000  0.19568000  1.0
  H  H29  1  0.48419000  0.82176000  0.69568000  1.0
  H  H30  1  0.51580000  0.32175000  0.80432000  1.0
  H  H31  1  0.98420000  0.67825000  0.30432000  1.0
  H  H32  1  0.95222000  0.01029000  0.09294000  1.0
  H  H33  1  0.54778000  0.98972000  0.59294000  1.0
  H  H34  1  0.45222000  0.48971000  0.90706000  1.0
  H  H35  1  0.04778000  0.51029000  0.40706000  1.0
  H  H36  1  0.56940000  0.07085000  0.01196000  1.0
  H  H37  1  0.93059000  0.92914000  0.51196000  1.0
  H  H38  1  0.06941000  0.42914000  0.98803000  1.0
  H  H39  1  0.43060000  0.57086000  0.48803000  1.0
  H  H40  1  0.74303000  0.99555000  0.96479000  1.0
  H  H41  1  0.75697000  0.00445000  0.46480000  1.0
  H  H42  1  0.24303000  0.50445000  0.03520000  1.0
  H  H43  1  0.25697000  0.49555000  0.53520000  1.0
  H  H44  1  0.54187000  0.94764000  0.12936000  1.0
  H  H45  1  0.95813000  0.05236000  0.62936000  1.0
  H  H46  1  0.04187000  0.55236000  0.87064000  1.0
  H  H47  1  0.45812000  0.44764000  0.37064000  1.0
  H  H48  1  0.44572000  0.87719000  0.95358000  1.0
  H  H49  1  0.05427000  0.12281000  0.45358000  1.0
  H  H50  1  0.94573000  0.62281000  0.04642000  1.0
  H  H51  1  0.55428000  0.37719000  0.54642000  1.0
  H  H52  1  0.30485000  0.96015000  0.01091000  1.0
  H  H53  1  0.19515000  0.03985000  0.51091000  1.0
  H  H54  1  0.80485000  0.53984000  0.98909000  1.0
  H  H55  1  0.69515000  0.46016000  0.48909000  1.0
  H  H56  1  0.33231000  0.84082000  0.04737000  1.0
  H  H57  1  0.16769000  0.15918000  0.54737000  1.0
  H  H58  1  0.83231000  0.65918000  0.95263000  1.0
  H  H59  1  0.66769000  0.34082000  0.45263000  1.0
  H  H60  1  0.78471000  0.82554000  0.01022000  1.0
  H  H61  1  0.71529000  0.17446000  0.51022000  1.0
  H  H62  1  0.28471000  0.67446000  0.98978000  1.0
  H  H63  1  0.21529000  0.32554000  0.48978000  1.0
  H  H64  1  0.66229000  0.78344000  0.10085000  1.0
  H  H65  1  0.83771000  0.21656000  0.60085000  1.0
  H  H66  1  0.16229000  0.71656000  0.89915000  1.0
  H  H67  1  0.33771000  0.28344000  0.39915000  1.0
  H  H68  1  0.85788000  0.86338000  0.11107000  1.0
  H  H69  1  0.64212000  0.13662000  0.61107000  1.0
  H  H70  1  0.35788000  0.63662000  0.88893000  1.0
  H  H71  1  0.14212000  0.36338000  0.38893000  1.0
  C  C72  1  0.97867000  0.89397000  0.32984000  1.0
  C  C73  1  0.52132000  0.10603000  0.82984000  1.0
  C  C74  1  0.47867000  0.60603000  0.67016000  1.0
  C  C75  1  0.02133000  0.39397000  0.17016000  1.0
  C  C76  1  0.88732000  0.97525000  0.29939000  1.0
  C  C77  1  0.61269000  0.02475000  0.79940000  1.0
  C  C78  1  0.38732000  0.52475000  0.70061000  1.0
  C  C79  1  0.11268000  0.47525000  0.20061000  1.0
  C  C80  1  0.99284000  0.04017000  0.25149000  1.0
  C  C81  1  0.50716000  0.95983000  0.75149000  1.0
  C  C82  1  0.49282000  0.45983000  0.74851000  1.0
  C  C83  1  0.00718000  0.54017000  0.24851000  1.0
  C  C84  1  0.18652000  0.01853000  0.23381000  1.0
  C  C85  1  0.31349000  0.98147000  0.73381000  1.0
  C  C86  1  0.68652000  0.48147000  0.76619000  1.0
  C  C87  1  0.81348000  0.51853000  0.26620000  1.0
  C  C88  1  0.26653000  0.93532000  0.26551000  1.0
  C  C89  1  0.23347000  0.06467000  0.76552000  1.0
  C  C90  1  0.76652000  0.56468000  0.73449000  1.0
  C  C91  1  0.73348000  0.43532000  0.23449000  1.0
  C  C92  1  0.90167000  0.12989000  0.21778000  1.0
  C  C93  1  0.59833000  0.87011000  0.71778000  1.0
  C  C94  1  0.40167000  0.37011000  0.78221000  1.0
  C  C95  1  0.09833000  0.62989000  0.28222000  1.0
  C  C96  1  0.84422000  0.06454000  0.07547000  1.0
  C  C97  1  0.65578000  0.93546000  0.57547000  1.0
  C  C98  1  0.34422000  0.43546000  0.92453000  1.0
  C  C99  1  0.15578000  0.56454000  0.42453000  1.0
  C  C100  1  0.94815000  0.13581000  0.01874000  1.0
  C  C101  1  0.55185000  0.86419000  0.51874000  1.0
  C  C102  1  0.44815000  0.36419000  0.98126000  1.0
  C  C103  1  0.05186000  0.63581000  0.48125000  1.0
  C  C104  1  0.68164000  0.01692000  0.02510000  1.0
  C  C105  1  0.81836000  0.98308000  0.52510000  1.0
  C  C106  1  0.18165000  0.48308000  0.97490000  1.0
  C  C107  1  0.31835000  0.51692000  0.47490000  1.0
  C  C108  1  0.58886000  0.92896000  0.06567000  1.0
  C  C109  1  0.91114000  0.07104000  0.56567000  1.0
  C  C110  1  0.08886000  0.57104000  0.93433000  1.0
  C  C111  1  0.41114000  0.42896000  0.43433000  1.0
  C  C112  1  0.40722000  0.90046000  0.01690000  1.0
  C  C113  1  0.09277000  0.09954000  0.51690000  1.0
  C  C114  1  0.90723000  0.59954000  0.98310000  1.0
  C  C115  1  0.59277000  0.40046000  0.48310000  1.0
  C  C116  1  0.73158000  0.84583000  0.07234000  1.0
  C  C117  1  0.76842000  0.15417000  0.57234000  1.0
  C  C118  1  0.23158000  0.65417000  0.92766000  1.0
  C  C119  1  0.26842000  0.34583000  0.42766000  1.0
  N  N120  1  0.16531000  0.87453000  0.31347000  1.0
  N  N121  1  0.33469000  0.12547000  0.81347000  1.0
  N  N122  1  0.66532000  0.62547000  0.68653000  1.0
  N  N123  1  0.83467000  0.37453000  0.18654000  1.0
  N  N124  1  0.76360000  0.11256000  0.14887000  1.0
  N  N125  1  0.73640000  0.88744000  0.64887000  1.0
  N  N126  1  0.26360000  0.38744000  0.85113000  1.0
  N  N127  1  0.23640000  0.61256000  0.35113000  1.0
  Cl  Cl128  1  0.38940000  0.24607000  0.21860000  1.0
  Cl  Cl129  1  0.11060000  0.75393000  0.71861000  1.0
  Cl  Cl130  1  0.88940000  0.25393000  0.78139000  1.0
  Cl  Cl131  1  0.61060000  0.74607000  0.28139000  1.0
  O  O132  1  0.90313000  0.22417000  0.02008000  1.0
  O  O133  1  0.59686000  0.77583000  0.52008000  1.0
  O  O134  1  0.40313000  0.27583000  0.97992000  1.0
  O  O135  1  0.09687000  0.72417000  0.47992000  1.0
  O  O136  1  0.07180000  0.10131000  0.96886000  1.0
  O  O137  1  0.42819000  0.89870000  0.46886000  1.0
  O  O138  1  0.57181000  0.39869000  0.03114000  1.0
  O  O139  1  0.92818000  0.60130000  0.53114000  1.0
