# generated using pymatgen
data_HgH3C6(SN2)2
_symmetry_space_group_name_H-M   'P 1'
_cell_length_a   10.43800000
_cell_length_b   11.66520000
_cell_length_c   16.08280000
_cell_angle_alpha   90.00000000
_cell_angle_beta   104.39400000
_cell_angle_gamma   90.00000000
_symmetry_Int_Tables_number   1
_chemical_formula_structural   HgH3C6(SN2)2
_chemical_formula_sum   'Hg8 H24 C48 S16 N32'
_cell_volume   1896.79209937
_cell_formula_units_Z   8
loop_
 _symmetry_equiv_pos_site_id
 _symmetry_equiv_pos_as_xyz
  1  'x, y, z'
loop_
 _atom_site_type_symbol
 _atom_site_label
 _atom_site_symmetry_multiplicity
 _atom_site_fract_x
 _atom_site_fract_y
 _atom_site_fract_z
 _atom_site_occupancy
  Hg  Hg0  1  0.51265000  0.21736000  0.99750000  1.0
  Hg  Hg1  1  0.48735000  0.71736000  0.50250000  1.0
  Hg  Hg2  1  0.48734000  0.78264000  0.00250000  1.0
  Hg  Hg3  1  0.51265000  0.28264000  0.49750000  1.0
  Hg  Hg4  1  0.15160000  0.95947000  0.20670000  1.0
  Hg  Hg5  1  0.84840000  0.45948000  0.29330000  1.0
  Hg  Hg6  1  0.84840000  0.04052000  0.79330000  1.0
  Hg  Hg7  1  0.15160000  0.54053000  0.70670000  1.0
  H  H8  1  0.61755000  0.70066000  0.84325000  1.0
  H  H9  1  0.38245000  0.20066000  0.65675000  1.0
  H  H10  1  0.38245000  0.29934000  0.15675000  1.0
  H  H11  1  0.61755000  0.79934000  0.34325000  1.0
  H  H12  1  0.69035000  0.52061000  0.77638000  1.0
  H  H13  1  0.30965000  0.02061000  0.72362000  1.0
  H  H14  1  0.30965000  0.47939000  0.22362000  1.0
  H  H15  1  0.69035000  0.97939000  0.27638000  1.0
  H  H16  1  0.64299000  0.33099000  0.83674000  1.0
  H  H17  1  0.35701000  0.83099000  0.66326000  1.0
  H  H18  1  0.35701000  0.66901000  0.16326000  1.0
  H  H19  1  0.64299000  0.16901000  0.33674000  1.0
  H  H20  1  0.02080000  0.70878000  0.11692000  1.0
  H  H21  1  0.97920000  0.20878000  0.38308000  1.0
  H  H22  1  0.97920000  0.29122000  0.88308000  1.0
  H  H23  1  0.02080000  0.79122000  0.61692000  1.0
  H  H24  1  0.90535000  0.62098000  0.97388000  1.0
  H  H25  1  0.09465000  0.12098000  0.52612000  1.0
  H  H26  1  0.09465000  0.37902000  0.02612000  1.0
  H  H27  1  0.90535000  0.87902000  0.47388000  1.0
  H  H28  1  0.84833000  0.75670000  0.84485000  1.0
  H  H29  1  0.15167000  0.25670000  0.65515000  1.0
  H  H30  1  0.15167000  0.24330000  0.15515000  1.0
  H  H31  1  0.84833000  0.74330000  0.34485000  1.0
  C  C32  1  0.60572000  0.61435000  0.86656000  1.0
  C  C33  1  0.39428000  0.11435000  0.63344000  1.0
  C  C34  1  0.39428000  0.38565000  0.13344000  1.0
  C  C35  1  0.60572000  0.88565000  0.36656000  1.0
  C  C36  1  0.64418000  0.51620000  0.82995000  1.0
  C  C37  1  0.35582000  0.01620000  0.67005000  1.0
  C  C38  1  0.35582000  0.48380000  0.17005000  1.0
  C  C39  1  0.64418000  0.98380000  0.32995000  1.0
  C  C40  1  0.61731000  0.41139000  0.86314000  1.0
  C  C41  1  0.38269000  0.91139000  0.63686000  1.0
  C  C42  1  0.38269000  0.58861000  0.13686000  1.0
  C  C43  1  0.61730000  0.08861000  0.36314000  1.0
  C  C44  1  0.52971000  0.50353000  0.96243000  1.0
  C  C45  1  0.47028000  0.00353000  0.53757000  1.0
  C  C46  1  0.47028000  0.49647000  0.03757000  1.0
  C  C47  1  0.52971000  0.99647000  0.46243000  1.0
  C  C48  1  0.99109000  0.75987000  0.05833000  1.0
  C  C49  1  0.00891000  0.25987000  0.44167000  1.0
  C  C50  1  0.00891000  0.24013000  0.94167000  1.0
  C  C51  1  0.99109000  0.74013000  0.55833000  1.0
  C  C52  1  0.92893000  0.71193000  0.97937000  1.0
  C  C53  1  0.07107000  0.21193000  0.52062000  1.0
  C  C54  1  0.07107000  0.28807000  0.02062000  1.0
  C  C55  1  0.92893000  0.78807000  0.47938000  1.0
  C  C56  1  0.89646000  0.78585000  0.90942000  1.0
  C  C57  1  0.10354000  0.28585000  0.59058000  1.0
  C  C58  1  0.10354000  0.21416000  0.09058000  1.0
  C  C59  1  0.89646000  0.71415000  0.40942000  1.0
  C  C60  1  0.98395000  0.93761000  0.99555000  1.0
  C  C61  1  0.01605000  0.43761000  0.50445000  1.0
  C  C62  1  0.01605000  0.06239000  0.00445000  1.0
  C  C63  1  0.98395000  0.56239000  0.49555000  1.0
  C  C64  1  0.75945000  0.19294000  0.16086000  1.0
  C  C65  1  0.24055000  0.69294000  0.33914000  1.0
  C  C66  1  0.24055000  0.80705000  0.83914000  1.0
  C  C67  1  0.75945000  0.30705000  0.66086000  1.0
  C  C68  1  0.28638000  0.26376000  0.82814000  1.0
  C  C69  1  0.71362000  0.76376000  0.67186000  1.0
  C  C70  1  0.71362000  0.73624000  0.17186000  1.0
  C  C71  1  0.28638000  0.23624000  0.32814000  1.0
  C  C72  1  0.40564000  0.02927000  0.14328000  1.0
  C  C73  1  0.59436000  0.52927000  0.35672000  1.0
  C  C74  1  0.59436000  0.97073000  0.85672000  1.0
  C  C75  1  0.40564000  0.47073000  0.64328000  1.0
  C  C76  1  0.09715000  0.97102000  0.38766000  1.0
  C  C77  1  0.90285000  0.47102000  0.11234000  1.0
  C  C78  1  0.90285000  0.02898000  0.61234000  1.0
  C  C79  1  0.09715000  0.52898000  0.88766000  1.0
  S  S80  1  0.74331000  0.15425000  0.05959000  1.0
  S  S81  1  0.25669000  0.65425000  0.44041000  1.0
  S  S82  1  0.25669000  0.84575000  0.94041000  1.0
  S  S83  1  0.74331000  0.34575000  0.55959000  1.0
  S  S84  1  0.31001000  0.14872000  0.89040000  1.0
  S  S85  1  0.68999000  0.64872000  0.60960000  1.0
  S  S86  1  0.68999000  0.85128000  0.10960000  1.0
  S  S87  1  0.31001000  0.35128000  0.39040000  1.0
  S  S88  1  0.36500000  0.90361000  0.17641000  1.0
  S  S89  1  0.63500000  0.40361000  0.32359000  1.0
  S  S90  1  0.63500000  0.09639000  0.82359000  1.0
  S  S91  1  0.36500000  0.59639000  0.67641000  1.0
  S  S92  1  0.98858000  0.96245000  0.29269000  1.0
  S  S93  1  0.01142000  0.46245000  0.20731000  1.0
  S  S94  1  0.01142000  0.03755000  0.70731000  1.0
  S  S95  1  0.98858000  0.53755000  0.79269000  1.0
  N  N96  1  0.55007000  0.60795000  0.93305000  1.0
  N  N97  1  0.44992000  0.10795000  0.56695000  1.0
  N  N98  1  0.44992000  0.39205000  0.06695000  1.0
  N  N99  1  0.55008000  0.89205000  0.43305000  1.0
  N  N100  1  0.55875000  0.40539000  0.92824000  1.0
  N  N101  1  0.44125000  0.90539000  0.57176000  1.0
  N  N102  1  0.44125000  0.59461000  0.07176000  1.0
  N  N103  1  0.55875000  0.09461000  0.42824000  1.0
  N  N104  1  0.01853000  0.87219000  0.06606000  1.0
  N  N105  1  0.98147000  0.37219000  0.43394000  1.0
  N  N106  1  0.98147000  0.12781000  0.93394000  1.0
  N  N107  1  0.01853000  0.62781000  0.56606000  1.0
  N  N108  1  0.92310000  0.89827000  0.91745000  1.0
  N  N109  1  0.07690000  0.39828000  0.58255000  1.0
  N  N110  1  0.07690000  0.10173000  0.08255000  1.0
  N  N111  1  0.92310000  0.60173000  0.41745000  1.0
  N  N112  1  0.77629000  0.21858000  0.23377000  1.0
  N  N113  1  0.22371000  0.71858000  0.26623000  1.0
  N  N114  1  0.22371000  0.78142000  0.76623000  1.0
  N  N115  1  0.77629000  0.28142000  0.73377000  1.0
  N  N116  1  0.26686000  0.34245000  0.78067000  1.0
  N  N117  1  0.73314000  0.84245000  0.71933000  1.0
  N  N118  1  0.73314000  0.65755000  0.21933000  1.0
  N  N119  1  0.26686000  0.15755000  0.28067000  1.0
  N  N120  1  0.43644000  0.11926000  0.12116000  1.0
  N  N121  1  0.56356000  0.61926000  0.37884000  1.0
  N  N122  1  0.56356000  0.88074000  0.87884000  1.0
  N  N123  1  0.43644000  0.38074000  0.62116000  1.0
  N  N124  1  0.16896000  0.97820000  0.45668000  1.0
  N  N125  1  0.83104000  0.47820000  0.04332000  1.0
  N  N126  1  0.83104000  0.02180000  0.54332000  1.0
  N  N127  1  0.16896000  0.52180000  0.95668000  1.0
