# generated using pymatgen
data_CuH14C15SN2O4F3
_symmetry_space_group_name_H-M   'P 1'
_cell_length_a   7.91322000
_cell_length_b   9.12022000
_cell_length_c   11.12520000
_cell_angle_alpha   88.47280000
_cell_angle_beta   83.39070000
_cell_angle_gamma   83.63620000
_symmetry_Int_Tables_number   1
_chemical_formula_structural   CuH14C15SN2O4F3
_chemical_formula_sum   'Cu2 H28 C30 S2 N4 O8 F6'
_cell_volume   792.58001634
_cell_formula_units_Z   2
loop_
 _symmetry_equiv_pos_site_id
 _symmetry_equiv_pos_as_xyz
  1  'x, y, z'
loop_
 _atom_site_type_symbol
 _atom_site_label
 _atom_site_symmetry_multiplicity
 _atom_site_fract_x
 _atom_site_fract_y
 _atom_site_fract_z
 _atom_site_occupancy
  Cu  Cu0  1  0.61620000  0.48502000  0.09879000  1.0
  Cu  Cu1  1  0.38379000  0.51498000  0.90121000  1.0
  H  H2  1  0.91882000  0.35839000  0.08267000  1.0
  H  H3  1  0.08118000  0.64161000  0.91733000  1.0
  H  H4  1  0.81186000  0.27514000  0.19315000  1.0
  H  H5  1  0.18814000  0.72486000  0.80685000  1.0
  H  H6  1  0.69611000  0.78267000  0.07569000  1.0
  H  H7  1  0.30388000  0.21734000  0.92431000  1.0
  H  H8  1  0.83136000  0.95780000  0.19545000  1.0
  H  H9  1  0.16863000  0.04221000  0.80454000  1.0
  H  H10  1  0.84372000  0.62783000  0.48090000  1.0
  H  H11  1  0.15628000  0.37217000  0.51910000  1.0
  H  H12  1  0.71673000  0.46492000  0.34806000  1.0
  H  H13  1  0.28327000  0.53508000  0.65194000  1.0
  H  H14  1  0.13066000  0.65644000  0.36128000  1.0
  H  H15  1  0.86934000  0.34357000  0.63872000  1.0
  H  H16  1  0.41179000  0.57966000  0.42277000  1.0
  H  H17  1  0.58821000  0.42034000  0.57723000  1.0
  H  H18  1  0.54065000  0.73756000  0.56329000  1.0
  H  H19  1  0.45935000  0.26244000  0.43671000  1.0
  H  H20  1  0.38994000  0.97503000  0.62917000  1.0
  H  H21  1  0.61006000  0.02497000  0.37083000  1.0
  H  H22  1  0.68925000  0.12742000  0.07355000  1.0
  H  H23  1  0.31075000  0.87258000  0.92645000  1.0
  H  H24  1  0.89671000  0.13359000  0.99171000  1.0
  H  H25  1  0.10329000  0.86642000  0.00829000  1.0
  H  H26  1  0.77947000  0.33360000  0.85927000  1.0
  H  H27  1  0.22053000  0.66640000  0.14073000  1.0
  H  H28  1  0.64443000  0.18894000  0.86360000  1.0
  H  H29  1  0.35557000  0.81106000  0.13639000  1.0
  C  C30  1  0.73078000  0.75452000  0.16596000  1.0
  C  C31  1  0.26922000  0.24548000  0.83404000  1.0
  C  C32  1  0.25875000  0.14333000  0.20101000  1.0
  C  C33  1  0.74124000  0.85666000  0.79899000  1.0
  C  C34  1  0.80478000  0.85047000  0.23346000  1.0
  C  C35  1  0.19522000  0.14953000  0.76654000  1.0
  C  C36  1  0.84691000  0.80820000  0.34955000  1.0
  C  C37  1  0.15309000  0.19180000  0.65045000  1.0
  C  C38  1  0.81327000  0.66680000  0.39155000  1.0
  C  C39  1  0.18673000  0.33320000  0.60845000  1.0
  C  C40  1  0.74140000  0.57595000  0.31812000  1.0
  C  C41  1  0.25860000  0.42406000  0.68188000  1.0
  C  C42  1  0.92524000  0.90742000  0.42481000  1.0
  C  C43  1  0.07476000  0.09258000  0.57519000  1.0
  C  C44  1  0.08725000  0.86085000  0.46282000  1.0
  C  C45  1  0.91275000  0.13915000  0.53718000  1.0
  C  C46  1  0.18363000  0.72621000  0.42193000  1.0
  C  C47  1  0.81638000  0.27379000  0.57806000  1.0
  C  C48  1  0.34239000  0.68288000  0.45684000  1.0
  C  C49  1  0.65762000  0.31712000  0.54315000  1.0
  C  C50  1  0.41511000  0.77246000  0.53496000  1.0
  C  C51  1  0.58488000  0.22753000  0.46504000  1.0
  C  C52  1  0.32856000  0.90464000  0.57408000  1.0
  C  C53  1  0.67145000  0.09535000  0.42593000  1.0
  C  C54  1  0.83726000  0.04592000  0.45987000  1.0
  C  C55  1  0.16274000  0.95407000  0.54014000  1.0
  C  C56  1  0.77558000  0.19969000  0.02358000  1.0
  C  C57  1  0.22442000  0.80032000  0.97642000  1.0
  C  C58  1  0.68852000  0.27289000  0.91863000  1.0
  C  C59  1  0.31148000  0.72711000  0.08137000  1.0
  S  S60  1  0.21211000  0.34805000  0.21655000  1.0
  S  S61  1  0.78791000  0.65194000  0.78346000  1.0
  N  N62  1  0.80356000  0.31694000  0.10749000  1.0
  N  N63  1  0.19644000  0.68306000  0.89251000  1.0
  N  N64  1  0.69932000  0.61887000  0.20778000  1.0
  N  N65  1  0.30067000  0.38113000  0.79222000  1.0
  O  O66  1  0.54797000  0.36879000  0.97131000  1.0
  O  O67  1  0.45203000  0.63121000  0.02869000  1.0
  O  O68  1  0.37468000  0.39425000  0.24286000  1.0
  O  O69  1  0.62534000  0.60573000  0.75713000  1.0
  O  O70  1  0.07533000  0.36203000  0.31630000  1.0
  O  O71  1  0.92469000  0.63798000  0.68370000  1.0
  O  O72  1  0.15927000  0.39498000  0.09815000  1.0
  O  O73  1  0.84075000  0.60503000  0.90185000  1.0
  F  F74  1  0.11452000  0.08223000  0.18064000  1.0
  F  F75  1  0.88547000  0.91776000  0.81936000  1.0
  F  F76  1  0.38000000  0.10431000  0.10672000  1.0
  F  F77  1  0.61998000  0.89568000  0.89328000  1.0
  F  F78  1  0.31513000  0.07971000  0.30248000  1.0
  F  F79  1  0.68486000  0.92027000  0.69752000  1.0
