# generated using pymatgen
data_TbH16C16N10ClO6
_symmetry_space_group_name_H-M   'P 1'
_cell_length_a   8.86027000
_cell_length_b   10.95480000
_cell_length_c   12.89798065
_cell_angle_alpha   115.11240510
_cell_angle_beta   106.16574388
_cell_angle_gamma   90.03070000
_symmetry_Int_Tables_number   1
_chemical_formula_structural   TbH16C16N10ClO6
_chemical_formula_sum   'Tb2 H32 C32 N20 Cl2 O12'
_cell_volume   1078.56654138
_cell_formula_units_Z   2
loop_
 _symmetry_equiv_pos_site_id
 _symmetry_equiv_pos_as_xyz
  1  'x, y, z'
loop_
 _atom_site_type_symbol
 _atom_site_label
 _atom_site_symmetry_multiplicity
 _atom_site_fract_x
 _atom_site_fract_y
 _atom_site_fract_z
 _atom_site_occupancy
  Tb  Tb0  1  0.25018000  0.43890000  0.99983000  1.0
  Tb  Tb1  1  0.74982000  0.56109000  0.00016000  1.0
  H  H2  1  0.51726000  0.28459000  0.00479000  1.0
  H  H3  1  0.98283000  0.27993000  0.99506000  1.0
  H  H4  1  0.48274000  0.71541000  0.99521000  1.0
  H  H5  1  0.01718000  0.72006000  0.00494000  1.0
  H  H6  1  0.35824000  0.17082000  0.93577000  1.0
  H  H7  1  0.14162000  0.23503000  0.06402000  1.0
  H  H8  1  0.64176000  0.82918000  0.06423000  1.0
  H  H9  1  0.85838000  0.76496000  0.93598000  1.0
  H  H10  1  0.47413000  0.35988000  0.64676000  1.0
  H  H11  1  0.02648000  0.71315000  0.35342000  1.0
  H  H12  1  0.52587000  0.64012000  0.35324000  1.0
  H  H13  1  0.97353000  0.28686000  0.64658000  1.0
  H  H14  1  0.53279000  0.22808000  0.68851000  1.0
  H  H15  1  0.96744000  0.53962000  0.31157000  1.0
  H  H16  1  0.46721000  0.77193000  0.31150000  1.0
  H  H17  1  0.03256000  0.46038000  0.68843000  1.0
  H  H18  1  0.99754000  0.32197000  0.38158000  1.0
  H  H19  1  0.50211000  0.94020000  0.61876000  1.0
  H  H20  1  0.00246000  0.67803000  0.61842000  1.0
  H  H21  1  0.49789000  0.05980000  0.38124000  1.0
  H  H22  1  0.75769000  0.30454000  0.21226000  1.0
  H  H23  1  0.74198000  0.09234000  0.78798000  1.0
  H  H24  1  0.24231000  0.69547000  0.78775000  1.0
  H  H25  1  0.25802000  0.90767000  0.21203000  1.0
  H  H26  1  0.59601000  0.07840000  0.07512000  1.0
  H  H27  1  0.90401000  0.00345000  0.92504000  1.0
  H  H28  1  0.40399000  0.92160000  0.92488000  1.0
  H  H29  1  0.09599000  0.99656000  0.07497000  1.0
  H  H30  1  0.87856000  0.89149000  0.26295000  1.0
  H  H31  1  0.62194000  0.62836000  0.73723000  1.0
  H  H32  1  0.12145000  0.10851000  0.73705000  1.0
  H  H33  1  0.37806000  0.37164000  0.26277000  1.0
  C  C34  1  0.39211000  0.36008000  0.78902000  1.0
  C  C35  1  0.10782000  0.57106000  0.21081000  1.0
  C  C36  1  0.60789000  0.63992000  0.21098000  1.0
  C  C37  1  0.89217000  0.42893000  0.78918000  1.0
  C  C38  1  0.43461000  0.28537000  0.67282000  1.0
  C  C39  1  0.06576000  0.61252000  0.32720000  1.0
  C  C40  1  0.56539000  0.71463000  0.32718000  1.0
  C  C41  1  0.93424000  0.38748000  0.67280000  1.0
  C  C42  1  0.09566000  0.11472000  0.43086000  1.0
  C  C43  1  0.40445000  0.68356000  0.56928000  1.0
  C  C44  1  0.90435000  0.88528000  0.56914000  1.0
  C  C45  1  0.59555000  0.31644000  0.43072000  1.0
  C  C46  1  0.95551000  0.10816000  0.33587000  1.0
  C  C47  1  0.54452000  0.77210000  0.66437000  1.0
  C  C48  1  0.04449000  0.89184000  0.66413000  1.0
  C  C49  1  0.45548000  0.22790000  0.33563000  1.0
  C  C50  1  0.92042000  0.22581000  0.32105000  1.0
  C  C51  1  0.57937000  0.90468000  0.67929000  1.0
  C  C52  1  0.07959000  0.77419000  0.67895000  1.0
  C  C53  1  0.42063000  0.09532000  0.32071000  1.0
  C  C54  1  0.78904000  0.21634000  0.22765000  1.0
  C  C55  1  0.71077000  0.98870000  0.77260000  1.0
  C  C56  1  0.21097000  0.78366000  0.77235000  1.0
  C  C57  1  0.28923000  0.01130000  0.22740000  1.0
  C  C58  1  0.69825000  0.08981000  0.15064000  1.0
  C  C59  1  0.80179000  0.93921000  0.84955000  1.0
  C  C60  1  0.30175000  0.91019000  0.84936000  1.0
  C  C61  1  0.19821000  0.06080000  0.15046000  1.0
  C  C62  1  0.85644000  0.98562000  0.25523000  1.0
  C  C63  1  0.64376000  0.73025000  0.74496000  1.0
  C  C64  1  0.14356000  0.01438000  0.74477000  1.0
  C  C65  1  0.35624000  0.26975000  0.25504000  1.0
  N  N66  1  0.18797000  0.23259000  0.51139000  1.0
  N  N67  1  0.31243000  0.72094000  0.48870000  1.0
  N  N68  1  0.81203000  0.76741000  0.48861000  1.0
  N  N69  1  0.68757000  0.27906000  0.51130000  1.0
  N  N70  1  0.30384000  0.19134000  0.57376000  1.0
  N  N71  1  0.19652000  0.61731000  0.42615000  1.0
  N  N72  1  0.69616000  0.80866000  0.42624000  1.0
  N  N73  1  0.80348000  0.38269000  0.57385000  1.0
  N  N74  1  0.28729000  0.05646000  0.53737000  1.0
  N  N75  1  0.21277000  0.51878000  0.46251000  1.0
  N  N76  1  0.71272000  0.94354000  0.46263000  1.0
  N  N77  1  0.78722000  0.48122000  0.53749000  1.0
  N  N78  1  0.15512000  0.00646000  0.44633000  1.0
  N  N79  1  0.34480000  0.55978000  0.55369000  1.0
  N  N80  1  0.84488000  0.99354000  0.55367000  1.0
  N  N81  1  0.65520000  0.44022000  0.44631000  1.0
  N  N82  1  0.73113000  0.97692000  0.16425000  1.0
  N  N83  1  0.76905000  0.81266000  0.83590000  1.0
  N  N84  1  0.26887000  0.02308000  0.83575000  1.0
  N  N85  1  0.23095000  0.18734000  0.16410000  1.0
  Cl  Cl86  1  0.24997000  0.68698000  0.99990000  1.0
  Cl  Cl87  1  0.75003000  0.31301000  0.00010000  1.0
  O  O88  1  0.49533000  0.45379000  0.87646000  1.0
  O  O89  1  0.00434000  0.57755000  0.12363000  1.0
  O  O90  1  0.50467000  0.54621000  0.12355000  1.0
  O  O91  1  0.99566000  0.42245000  0.87637000  1.0
  O  O92  1  0.25913000  0.32639000  0.79474000  1.0
  O  O93  1  0.24061000  0.53153000  0.20476000  1.0
  O  O94  1  0.74086000  0.67361000  0.20525000  1.0
  O  O95  1  0.75939000  0.46846000  0.79524000  1.0
  O  O96  1  0.40573000  0.26880000  0.00170000  1.0
  O  O97  1  0.09428000  0.26708000  0.99808000  1.0
  O  O98  1  0.59427000  0.73121000  0.99830000  1.0
  O  O99  1  0.90572000  0.73292000  0.00192000  1.0
