# generated using pymatgen
data_CuH9C10NO9
_symmetry_space_group_name_H-M   'P 1'
_cell_length_a   7.74965000
_cell_length_b   8.16855000
_cell_length_c   11.24950000
_cell_angle_alpha   77.16210000
_cell_angle_beta   76.78000000
_cell_angle_gamma   62.19010000
_symmetry_Int_Tables_number   1
_chemical_formula_structural   CuH9C10NO9
_chemical_formula_sum   'Cu2 H18 C20 N2 O18'
_cell_volume   607.64679104
_cell_formula_units_Z   2
loop_
 _symmetry_equiv_pos_site_id
 _symmetry_equiv_pos_as_xyz
  1  'x, y, z'
loop_
 _atom_site_type_symbol
 _atom_site_label
 _atom_site_symmetry_multiplicity
 _atom_site_fract_x
 _atom_site_fract_y
 _atom_site_fract_z
 _atom_site_occupancy
  Cu  Cu0  1  0.14969000  0.03265000  0.44226000  1.0
  Cu  Cu1  1  0.85032000  0.96736000  0.55774000  1.0
  H  H2  1  0.46647000  0.98523000  0.26821000  1.0
  H  H3  1  0.53352000  0.01476000  0.73178000  1.0
  H  H4  1  0.53831000  0.03626000  0.36791000  1.0
  H  H5  1  0.46168000  0.96374000  0.63209000  1.0
  H  H6  1  0.35852000  0.80580000  0.80947000  1.0
  H  H7  1  0.64149000  0.19422000  0.19052000  1.0
  H  H8  1  0.18205000  0.03157000  0.84765000  1.0
  H  H9  1  0.81795000  0.96845000  0.15234000  1.0
  H  H10  1  0.98790000  0.60613000  0.09138000  1.0
  H  H11  1  0.01211000  0.39388000  0.90860000  1.0
  H  H12  1  0.13002000  0.43671000  0.28174000  1.0
  H  H13  1  0.86998000  0.56329000  0.71825000  1.0
  H  H14  1  0.41208000  0.83568000  0.98941000  1.0
  H  H15  1  0.58793000  0.16433000  0.01060000  1.0
  H  H16  1  0.40207000  0.37242000  0.53101000  1.0
  H  H17  1  0.59792000  0.62758000  0.46899000  1.0
  H  H18  1  0.20889000  0.39002000  0.45862000  1.0
  H  H19  1  0.79111000  0.60996000  0.54138000  1.0
  C  C20  1  0.11865000  0.93978000  0.70627000  1.0
  C  C21  1  0.88135000  0.06022000  0.29373000  1.0
  C  C22  1  0.19990000  0.89890000  0.82576000  1.0
  C  C23  1  0.80010000  0.10111000  0.17424000  1.0
  C  C24  1  0.19255000  0.72756000  0.02452000  1.0
  C  C25  1  0.80746000  0.27244000  0.97548000  1.0
  C  C26  1  0.11433000  0.61606000  0.10990000  1.0
  C  C27  1  0.88569000  0.38393000  0.89009000  1.0
  C  C28  1  0.19484000  0.52057000  0.21691000  1.0
  C  C29  1  0.80517000  0.47943000  0.78308000  1.0
  C  C30  1  0.36047000  0.52841000  0.24132000  1.0
  C  C31  1  0.63953000  0.47158000  0.75868000  1.0
  C  C32  1  0.43497000  0.64311000  0.15548000  1.0
  C  C33  1  0.56504000  0.35688000  0.84452000  1.0
  C  C34  1  0.35114000  0.74481000  0.04874000  1.0
  C  C35  1  0.64887000  0.25519000  0.95126000  1.0
  C  C36  1  0.30981000  0.44972000  0.45782000  1.0
  C  C37  1  0.69018000  0.55028000  0.54218000  1.0
  C  C38  1  0.19105000  0.65410000  0.47999000  1.0
  C  C39  1  0.80892000  0.34590000  0.52001000  1.0
  N  N40  1  0.59377000  0.67092000  0.17988000  1.0
  N  N41  1  0.40624000  0.32908000  0.82013000  1.0
  O  O42  1  0.22135000  0.98825000  0.61151000  1.0
  O  O43  1  0.77865000  0.01173000  0.38848000  1.0
  O  O44  1  0.96276000  0.92516000  0.71033000  1.0
  O  O45  1  0.03725000  0.07485000  0.28968000  1.0
  O  O46  1  0.10172000  0.81398000  0.92237000  1.0
  O  O47  1  0.89828000  0.18604000  0.07764000  1.0
  O  O48  1  0.44495000  0.43570000  0.34531000  1.0
  O  O49  1  0.55504000  0.56431000  0.65470000  1.0
  O  O50  1  0.01886000  0.69857000  0.53971000  1.0
  O  O51  1  0.98112000  0.30143000  0.46030000  1.0
  O  O52  1  0.27526000  0.75979000  0.43456000  1.0
  O  O53  1  0.72472000  0.24021000  0.56545000  1.0
  O  O54  1  0.72518000  0.54027000  0.23447000  1.0
  O  O55  1  0.27481000  0.45973000  0.76554000  1.0
  O  O56  1  0.59038000  0.82988000  0.14358000  1.0
  O  O57  1  0.40963000  0.17012000  0.85643000  1.0
  O  O58  1  0.41831000  0.05750000  0.33765000  1.0
  O  O59  1  0.58168000  0.94250000  0.66234000  1.0
