# generated using pymatgen
data_ZnH10C18(NO)4
_symmetry_space_group_name_H-M   'P 1'
_cell_length_a   6.78658000
_cell_length_b   8.20615000
_cell_length_c   14.39580000
_cell_angle_alpha   104.65100000
_cell_angle_beta   99.36130000
_cell_angle_gamma   94.15140000
_symmetry_Int_Tables_number   1
_chemical_formula_structural   ZnH10C18(NO)4
_chemical_formula_sum   'Zn2 H20 C36 N8 O8'
_cell_volume   759.89574175
_cell_formula_units_Z   2
loop_
 _symmetry_equiv_pos_site_id
 _symmetry_equiv_pos_as_xyz
  1  'x, y, z'
loop_
 _atom_site_type_symbol
 _atom_site_label
 _atom_site_symmetry_multiplicity
 _atom_site_fract_x
 _atom_site_fract_y
 _atom_site_fract_z
 _atom_site_occupancy
  Zn  Zn0  1  0.63064000  0.49545000  0.40429000  1.0
  Zn  Zn1  1  0.36936000  0.50455000  0.59571000  1.0
  H  H2  1  0.97665000  0.06662000  0.08380000  1.0
  H  H3  1  0.02335000  0.93338000  0.91620000  1.0
  H  H4  1  0.56724000  0.14092000  0.59549000  1.0
  H  H5  1  0.43276000  0.85908000  0.40451000  1.0
  H  H6  1  0.01721000  0.28950000  0.39332000  1.0
  H  H7  1  0.98279000  0.71050000  0.60669000  1.0
  H  H8  1  0.15455000  0.11097000  0.25851000  1.0
  H  H9  1  0.84545000  0.88903000  0.74149000  1.0
  H  H10  1  0.09118000  0.00187000  0.40884000  1.0
  H  H11  1  0.90882000  0.99812000  0.59116000  1.0
  H  H12  1  0.21843000  0.62514000  0.33667000  1.0
  H  H13  1  0.78158000  0.37486000  0.66333000  1.0
  H  H14  1  0.01229000  0.61771000  0.17522000  1.0
  H  H15  1  0.98772000  0.38230000  0.82478000  1.0
  H  H16  1  0.12606000  0.45321000  0.02099000  1.0
  H  H17  1  0.87394000  0.54679000  0.97901000  1.0
  H  H18  1  0.63428000  0.02340000  0.79930000  1.0
  H  H19  1  0.36572000  0.97661000  0.20070000  1.0
  H  H20  1  0.32810000  0.17495000  0.77926000  1.0
  H  H21  1  0.67190000  0.82506000  0.22074000  1.0
  C  C22  1  0.67827000  0.32169000  0.20898000  1.0
  C  C23  1  0.32173000  0.67830000  0.79102000  1.0
  C  C24  1  0.38509000  0.38508000  0.10228000  1.0
  C  C25  1  0.61491000  0.61491000  0.89772000  1.0
  C  C26  1  0.63317000  0.20737000  0.02960000  1.0
  C  C27  1  0.36683000  0.79263000  0.97040000  1.0
  C  C28  1  0.92086000  0.14475000  0.14494000  1.0
  C  C29  1  0.07914000  0.85525000  0.85506000  1.0
  C  C30  1  0.52499000  0.08387000  0.51694000  1.0
  C  C31  1  0.47501000  0.91613000  0.48306000  1.0
  C  C32  1  0.52518000  0.19636000  0.45092000  1.0
  C  C33  1  0.47481000  0.80365000  0.54907000  1.0
  C  C34  1  0.74628000  0.22405000  0.12723000  1.0
  C  C35  1  0.25372000  0.77594000  0.87278000  1.0
  C  C36  1  0.45617000  0.28791000  0.01754000  1.0
  C  C37  1  0.54383000  0.71209000  0.98246000  1.0
  C  C38  1  0.49496000  0.40100000  0.19655000  1.0
  C  C39  1  0.50504000  0.59900000  0.80345000  1.0
  C  C40  1  0.94255000  0.26920000  0.31735000  1.0
  C  C41  1  0.05745000  0.73080000  0.68265000  1.0
  C  C42  1  0.01820000  0.16737000  0.24035000  1.0
  C  C43  1  0.98180000  0.83263000  0.75965000  1.0
  C  C44  1  0.88702000  0.78258000  0.40915000  1.0
  C  C45  1  0.11297000  0.21742000  0.59085000  1.0
  C  C46  1  0.00361000  0.95264000  0.45502000  1.0
  C  C47  1  0.99639000  0.04735000  0.54498000  1.0
  C  C48  1  0.26370000  0.56101000  0.26890000  1.0
  C  C49  1  0.73630000  0.43898000  0.73111000  1.0
  C  C50  1  0.14811000  0.55451000  0.17760000  1.0
  C  C51  1  0.85189000  0.44550000  0.82240000  1.0
  C  C52  1  0.20938000  0.46525000  0.09408000  1.0
  C  C53  1  0.79062000  0.53475000  0.90592000  1.0
  C  C54  1  0.58822000  0.10102000  0.86379000  1.0
  C  C55  1  0.41179000  0.89899000  0.13621000  1.0
  C  C56  1  0.41453000  0.18349000  0.85173000  1.0
  C  C57  1  0.58547000  0.81652000  0.14827000  1.0
  N  N58  1  0.43288000  0.48806000  0.27795000  1.0
  N  N59  1  0.56712000  0.51194000  0.72205000  1.0
  N  N60  1  0.34870000  0.27619000  0.92792000  1.0
  N  N61  1  0.65130000  0.72381000  0.07208000  1.0
  N  N62  1  0.77701000  0.34358000  0.30154000  1.0
  N  N63  1  0.22298000  0.65642000  0.69846000  1.0
  N  N64  1  0.69773000  0.11273000  0.95127000  1.0
  N  N65  1  0.30227000  0.88727000  0.04873000  1.0
  O  O66  1  0.59916000  0.35515000  0.49579000  1.0
  O  O67  1  0.40084000  0.64485000  0.50421000  1.0
  O  O68  1  0.81648000  0.70454000  0.46750000  1.0
  O  O69  1  0.18352000  0.29546000  0.53250000  1.0
  O  O70  1  0.46210000  0.14270000  0.36120000  1.0
  O  O71  1  0.53789000  0.85730000  0.63880000  1.0
  O  O72  1  0.85955000  0.72585000  0.31808000  1.0
  O  O73  1  0.14045000  0.27415000  0.68193000  1.0
