# generated using pymatgen
data_HgH11C16I2BrN2
_symmetry_space_group_name_H-M   'P 1'
_cell_length_a   7.28446000
_cell_length_b   8.75751000
_cell_length_c   27.92360000
_cell_angle_alpha   89.99980000
_cell_angle_beta   90.00000000
_cell_angle_gamma   89.99990000
_symmetry_Int_Tables_number   1
_chemical_formula_structural   HgH11C16I2BrN2
_chemical_formula_sum   'Hg4 H44 C64 I8 Br4 N8'
_cell_volume   1781.35063516
_cell_formula_units_Z   4
loop_
 _symmetry_equiv_pos_site_id
 _symmetry_equiv_pos_as_xyz
  1  'x, y, z'
loop_
 _atom_site_type_symbol
 _atom_site_label
 _atom_site_symmetry_multiplicity
 _atom_site_fract_x
 _atom_site_fract_y
 _atom_site_fract_z
 _atom_site_occupancy
  Hg  Hg0  1  0.29835000  0.66400000  0.74794000  1.0
  Hg  Hg1  1  0.29834000  0.16400000  0.75206000  1.0
  Hg  Hg2  1  0.79834000  0.33599000  0.25206000  1.0
  Hg  Hg3  1  0.79834000  0.83600000  0.24794000  1.0
  H  H4  1  0.47837000  0.72748000  0.52927000  1.0
  H  H5  1  0.47837000  0.22747000  0.97073000  1.0
  H  H6  1  0.97837000  0.27253000  0.47073000  1.0
  H  H7  1  0.97837000  0.77253000  0.02927000  1.0
  H  H8  1  0.45486000  0.96240000  0.58203000  1.0
  H  H9  1  0.45486000  0.46239000  0.91797000  1.0
  H  H10  1  0.95486000  0.03760000  0.41797000  1.0
  H  H11  1  0.95486000  0.53760000  0.08203000  1.0
  H  H12  1  0.37272000  0.92861000  0.66787000  1.0
  H  H13  1  0.37271000  0.42861000  0.83213000  1.0
  H  H14  1  0.87271000  0.07139000  0.33213000  1.0
  H  H15  1  0.87271000  0.57139000  0.16787000  1.0
  H  H16  1  0.33065000  0.45859000  0.65276000  1.0
  H  H17  1  0.33064000  0.95858000  0.84724000  1.0
  H  H18  1  0.83065000  0.54141000  0.34724000  1.0
  H  H19  1  0.83065000  0.04142000  0.15276000  1.0
  H  H20  1  0.38121000  0.32853000  0.57805000  1.0
  H  H21  1  0.38121000  0.82853000  0.92195000  1.0
  H  H22  1  0.88122000  0.67147000  0.42195000  1.0
  H  H23  1  0.88121000  0.17147000  0.07805000  1.0
  H  H24  1  0.63499000  0.17047000  0.54703000  1.0
  H  H25  1  0.63500000  0.67046000  0.95297000  1.0
  H  H26  1  0.13499000  0.82954000  0.45297000  1.0
  H  H27  1  0.13500000  0.32954000  0.04703000  1.0
  H  H28  1  0.66105000  0.93246000  0.49879000  1.0
  H  H29  1  0.66105000  0.43245000  0.00121000  1.0
  H  H30  1  0.16104000  0.06754000  0.50121000  1.0
  H  H31  1  0.16105000  0.56754000  0.99879000  1.0
  H  H32  1  0.39835000  0.05970000  0.34495000  1.0
  H  H33  1  0.39835000  0.55970000  0.15505000  1.0
  H  H34  1  0.89835000  0.94029000  0.65505000  1.0
  H  H35  1  0.89835000  0.44030000  0.84495000  1.0
  H  H36  1  0.28295000  0.29730000  0.30869000  1.0
  H  H37  1  0.28296000  0.79730000  0.19131000  1.0
  H  H38  1  0.78295000  0.70269000  0.69131000  1.0
  H  H39  1  0.78295000  0.20270000  0.80869000  1.0
  H  H40  1  0.27088000  0.53776000  0.35637000  1.0
  H  H41  1  0.27088000  0.03776000  0.14363000  1.0
  H  H42  1  0.77088000  0.46224000  0.64363000  1.0
  H  H43  1  0.77089000  0.96224000  0.85637000  1.0
  H  H44  1  0.37121000  0.53698000  0.44169000  1.0
  H  H45  1  0.37122000  0.03698000  0.05831000  1.0
  H  H46  1  0.87122000  0.46302000  0.55831000  1.0
  H  H47  1  0.87122000  0.96302000  0.94169000  1.0
  C  C48  1  0.44185000  0.71996000  0.56702000  1.0
  C  C49  1  0.44185000  0.21996000  0.93298000  1.0
  C  C50  1  0.94185000  0.28004000  0.43298000  1.0
  C  C51  1  0.94185000  0.78004000  0.06702000  1.0
  C  C52  1  0.42922000  0.84827000  0.59592000  1.0
  C  C53  1  0.42922000  0.34827000  0.90408000  1.0
  C  C54  1  0.92922000  0.15173000  0.40408000  1.0
  C  C55  1  0.92922000  0.65173000  0.09592000  1.0
  C  C56  1  0.38230000  0.83037000  0.64404000  1.0
  C  C57  1  0.38230000  0.33036000  0.85596000  1.0
  C  C58  1  0.88230000  0.16963000  0.35596000  1.0
  C  C59  1  0.88230000  0.66963000  0.14404000  1.0
  C  C60  1  0.35848000  0.56820000  0.63548000  1.0
  C  C61  1  0.35848000  0.06820000  0.86452000  1.0
  C  C62  1  0.85848000  0.43180000  0.36452000  1.0
  C  C63  1  0.85848000  0.93180000  0.13548000  1.0
  C  C64  1  0.40665000  0.57577000  0.58704000  1.0
  C  C65  1  0.40664000  0.07576000  0.91296000  1.0
  C  C66  1  0.90664000  0.42424000  0.41296000  1.0
  C  C67  1  0.90664000  0.92424000  0.08704000  1.0
  C  C68  1  0.42321000  0.43456000  0.55969000  1.0
  C  C69  1  0.42321000  0.93455000  0.94031000  1.0
  C  C70  1  0.92321000  0.56544000  0.44031000  1.0
  C  C71  1  0.92321000  0.06544000  0.05968000  1.0
  C  C72  1  0.50138000  0.29857000  0.49120000  1.0
  C  C73  1  0.50138000  0.79857000  0.00880000  1.0
  C  C74  1  0.00137000  0.70143000  0.50880000  1.0
  C  C75  1  0.00137000  0.20143000  0.99120000  1.0
  C  C76  1  0.57996000  0.16769000  0.51069000  1.0
  C  C77  1  0.57996000  0.66769000  0.98931000  1.0
  C  C78  1  0.07995000  0.83231000  0.48931000  1.0
  C  C79  1  0.07995000  0.33231000  0.01069000  1.0
  C  C80  1  0.59522000  0.03280000  0.48337000  1.0
  C  C81  1  0.59523000  0.53280000  0.01663000  1.0
  C  C82  1  0.09522000  0.96720000  0.51663000  1.0
  C  C83  1  0.09522000  0.46720000  0.98337000  1.0
  C  C84  1  0.52890000  0.02890000  0.43707000  1.0
  C  C85  1  0.52889000  0.52889000  0.06293000  1.0
  C  C86  1  0.02888000  0.97110000  0.56293000  1.0
  C  C87  1  0.02889000  0.47111000  0.93707000  1.0
  C  C88  1  0.45364000  0.16046000  0.41439000  1.0
  C  C89  1  0.45364000  0.66046000  0.08561000  1.0
  C  C90  1  0.95363000  0.83954000  0.58561000  1.0
  C  C91  1  0.95363000  0.33954000  0.91439000  1.0
  C  C92  1  0.39238000  0.16379000  0.36622000  1.0
  C  C93  1  0.39238000  0.66379000  0.13378000  1.0
  C  C94  1  0.89237000  0.83621000  0.63378000  1.0
  C  C95  1  0.89237000  0.33621000  0.86622000  1.0
  C  C96  1  0.32813000  0.29711000  0.34594000  1.0
  C  C97  1  0.32813000  0.79711000  0.15406000  1.0
  C  C98  1  0.82813000  0.70289000  0.65406000  1.0
  C  C99  1  0.82813000  0.20289000  0.84594000  1.0
  C  C100  1  0.32157000  0.43315000  0.37293000  1.0
  C  C101  1  0.32158000  0.93315000  0.12707000  1.0
  C  C102  1  0.82157000  0.56685000  0.62707000  1.0
  C  C103  1  0.82157000  0.06685000  0.87293000  1.0
  C  C104  1  0.37698000  0.43349000  0.42014000  1.0
  C  C105  1  0.37698000  0.93349000  0.07986000  1.0
  C  C106  1  0.87698000  0.56651000  0.57986000  1.0
  C  C107  1  0.87698000  0.06651000  0.92014000  1.0
  C  C108  1  0.44399000  0.29878000  0.44204000  1.0
  C  C109  1  0.44400000  0.79877000  0.05796000  1.0
  C  C110  1  0.94399000  0.70122000  0.55796000  1.0
  C  C111  1  0.94399000  0.20123000  0.94204000  1.0
  I  I112  1  0.60762000  0.69213000  0.80116000  1.0
  I  I113  1  0.60762000  0.19213000  0.69885000  1.0
  I  I114  1  0.10762000  0.30787000  0.19884000  1.0
  I  I115  1  0.10762000  0.80787000  0.30116000  1.0
  I  I116  1  0.05121000  0.42011000  0.73889000  1.0
  I  I117  1  0.05121000  0.92011000  0.76111000  1.0
  I  I118  1  0.55121000  0.57989000  0.26111000  1.0
  I  I119  1  0.55121000  0.07989000  0.23890000  1.0
  Br  Br120  1  0.54507000  0.84133000  0.40220000  1.0
  Br  Br121  1  0.54504000  0.34133000  0.09780000  1.0
  Br  Br122  1  0.04504000  0.15867000  0.59780000  1.0
  Br  Br123  1  0.04504000  0.65868000  0.90220000  1.0
  N  N124  1  0.34811000  0.69279000  0.66322000  1.0
  N  N125  1  0.34810000  0.19279000  0.83678000  1.0
  N  N126  1  0.84810000  0.30721000  0.33678000  1.0
  N  N127  1  0.84811000  0.80722000  0.16322000  1.0
  N  N128  1  0.48208000  0.43487000  0.51634000  1.0
  N  N129  1  0.48208000  0.93487000  0.98366000  1.0
  N  N130  1  0.98208000  0.56513000  0.48366000  1.0
  N  N131  1  0.98208000  0.06513000  0.01634000  1.0
