# generated using pymatgen
data_ZnH11C8N5Cl2
_symmetry_space_group_name_H-M   'P 1'
_cell_length_a   6.87546000
_cell_length_b   13.02380000
_cell_length_c   13.84520000
_cell_angle_alpha   108.24500000
_cell_angle_beta   90.00000000
_cell_angle_gamma   89.99990000
_symmetry_Int_Tables_number   1
_chemical_formula_structural   ZnH11C8N5Cl2
_chemical_formula_sum   'Zn4 H44 C32 N20 Cl8'
_cell_volume   1177.43582528
_cell_formula_units_Z   4
loop_
 _symmetry_equiv_pos_site_id
 _symmetry_equiv_pos_as_xyz
  1  'x, y, z'
loop_
 _atom_site_type_symbol
 _atom_site_label
 _atom_site_symmetry_multiplicity
 _atom_site_fract_x
 _atom_site_fract_y
 _atom_site_fract_z
 _atom_site_occupancy
  Zn  Zn0  1  0.12360000  0.81514000  0.44796000  1.0
  Zn  Zn1  1  0.62360000  0.68486000  0.05204000  1.0
  Zn  Zn2  1  0.87640000  0.18486000  0.55204000  1.0
  Zn  Zn3  1  0.37640000  0.31514000  0.94796000  1.0
  H  H4  1  0.42698000  0.00230000  0.09779000  1.0
  H  H5  1  0.92699000  0.49769000  0.40220000  1.0
  H  H6  1  0.57302000  0.99770000  0.90220000  1.0
  H  H7  1  0.07301000  0.50231000  0.59780000  1.0
  H  H8  1  0.58245000  0.99469000  0.19663000  1.0
  H  H9  1  0.08245000  0.50531000  0.30337000  1.0
  H  H10  1  0.41756000  0.00531000  0.80337000  1.0
  H  H11  1  0.91755000  0.49469000  0.69663000  1.0
  H  H12  1  0.88860000  0.92419000  0.94826000  1.0
  H  H13  1  0.38860000  0.57581000  0.55174000  1.0
  H  H14  1  0.11140000  0.07581000  0.05174000  1.0
  H  H15  1  0.61140000  0.42419000  0.44826000  1.0
  H  H16  1  0.77160000  0.80182000  0.94193000  1.0
  H  H17  1  0.27160000  0.69818000  0.55808000  1.0
  H  H18  1  0.22840000  0.19818000  0.05808000  1.0
  H  H19  1  0.72840000  0.30182000  0.44193000  1.0
  H  H20  1  0.41159000  0.15531000  0.31845000  1.0
  H  H21  1  0.91158000  0.34469000  0.18154000  1.0
  H  H22  1  0.58841000  0.84469000  0.68155000  1.0
  H  H23  1  0.08842000  0.65531000  0.81846000  1.0
  H  H24  1  0.24636000  0.15590000  0.22046000  1.0
  H  H25  1  0.74636000  0.34410000  0.27954000  1.0
  H  H26  1  0.75364000  0.84410000  0.77954000  1.0
  H  H27  1  0.25364000  0.65590000  0.72046000  1.0
  H  H28  1  0.72593000  0.09977000  0.08222000  1.0
  H  H29  1  0.22594000  0.40021000  0.41777000  1.0
  H  H30  1  0.27407000  0.90023000  0.91778000  1.0
  H  H31  1  0.77407000  0.59978000  0.58223000  1.0
  H  H32  1  0.72692000  0.17013000  0.21467000  1.0
  H  H33  1  0.22692000  0.32987000  0.28532000  1.0
  H  H34  1  0.27308000  0.82987000  0.78533000  1.0
  H  H35  1  0.77309000  0.67013000  0.71467000  1.0
  H  H36  1  0.55191000  0.20133000  0.13302000  1.0
  H  H37  1  0.05191000  0.29866000  0.36697000  1.0
  H  H38  1  0.44809000  0.79867000  0.86698000  1.0
  H  H39  1  0.94809000  0.70134000  0.63303000  1.0
  H  H40  1  0.83036000  0.75211000  0.24921000  1.0
  H  H41  1  0.33036000  0.74789000  0.25079000  1.0
  H  H42  1  0.16964000  0.24790000  0.75079000  1.0
  H  H43  1  0.66964000  0.25211000  0.74921000  1.0
  H  H44  1  0.35293000  0.02643000  0.41617000  1.0
  H  H45  1  0.85293000  0.47357000  0.08383000  1.0
  H  H46  1  0.64707000  0.97357000  0.58383000  1.0
  H  H47  1  0.14707000  0.52643000  0.91617000  1.0
  C  C48  1  0.49842000  0.05109000  0.16821000  1.0
  C  C49  1  0.99842000  0.44890000  0.33178000  1.0
  C  C50  1  0.50158000  0.94891000  0.83179000  1.0
  C  C51  1  0.00158000  0.55110000  0.66822000  1.0
  C  C52  1  0.08610000  0.95960000  0.21260000  1.0
  C  C53  1  0.58609000  0.54040000  0.28740000  1.0
  C  C54  1  0.91391000  0.04040000  0.78740000  1.0
  C  C55  1  0.41391000  0.45961000  0.71260000  1.0
  C  C56  1  0.34459000  0.10450000  0.24769000  1.0
  C  C57  1  0.84459000  0.39550000  0.25231000  1.0
  C  C58  1  0.65541000  0.89550000  0.75231000  1.0
  C  C59  1  0.15542000  0.60450000  0.74769000  1.0
  C  C60  1  0.63270000  0.13532000  0.14848000  1.0
  C  C61  1  0.13270000  0.36468000  0.35151000  1.0
  C  C62  1  0.36730000  0.86468000  0.85152000  1.0
  C  C63  1  0.86730000  0.63532000  0.64849000  1.0
  C  C64  1  0.89447000  0.88141000  0.07833000  1.0
  C  C65  1  0.39447000  0.61859000  0.42168000  1.0
  C  C66  1  0.10553000  0.11859000  0.92167000  1.0
  C  C67  1  0.60553000  0.38141000  0.57832000  1.0
  C  C68  1  0.02780000  0.88589000  0.26309000  1.0
  C  C69  1  0.52780000  0.61411000  0.23691000  1.0
  C  C70  1  0.97220000  0.11411000  0.73691000  1.0
  C  C71  1  0.47220000  0.38589000  0.76309000  1.0
  C  C72  1  0.88914000  0.81038000  0.21506000  1.0
  C  C73  1  0.38914000  0.68962000  0.28494000  1.0
  C  C74  1  0.11086000  0.18962000  0.78494000  1.0
  C  C75  1  0.61086000  0.31038000  0.71506000  1.0
  C  C76  1  0.24903000  0.98902000  0.35635000  1.0
  C  C77  1  0.74903000  0.51098000  0.14365000  1.0
  C  C78  1  0.75097000  0.01097000  0.64365000  1.0
  C  C79  1  0.25097000  0.48903000  0.85635000  1.0
  N  N80  1  0.82228000  0.80840000  0.12318000  1.0
  N  N81  1  0.32228000  0.69160000  0.37683000  1.0
  N  N82  1  0.17771000  0.19160000  0.87683000  1.0
  N  N83  1  0.67771000  0.30840000  0.62317000  1.0
  N  N84  1  0.83041000  0.87357000  0.98446000  1.0
  N  N85  1  0.33041000  0.62643000  0.51554000  1.0
  N  N86  1  0.16959000  0.12643000  0.01554000  1.0
  N  N87  1  0.66959000  0.37357000  0.48446000  1.0
  N  N88  1  0.13317000  0.90643000  0.35300000  1.0
  N  N89  1  0.63317000  0.59357000  0.14701000  1.0
  N  N90  1  0.86683000  0.09357000  0.64700000  1.0
  N  N91  1  0.36683000  0.40644000  0.85300000  1.0
  N  N92  1  0.22528000  0.02424000  0.27368000  1.0
  N  N93  1  0.72528000  0.47576000  0.22632000  1.0
  N  N94  1  0.77472000  0.97576000  0.72632000  1.0
  N  N95  1  0.27472000  0.52425000  0.77368000  1.0
  N  N96  1  0.02213000  0.96149000  0.12273000  1.0
  N  N97  1  0.52213000  0.53851000  0.37727000  1.0
  N  N98  1  0.97786000  0.03851000  0.87727000  1.0
  N  N99  1  0.47787000  0.46150000  0.62273000  1.0
  Cl  Cl100  1  0.25506000  0.89597000  0.60072000  1.0
  Cl  Cl101  1  0.75505000  0.60403000  0.89928000  1.0
  Cl  Cl102  1  0.74495000  0.10403000  0.39928000  1.0
  Cl  Cl103  1  0.24495000  0.39597000  0.10072000  1.0
  Cl  Cl104  1  0.81699000  0.76089000  0.44925000  1.0
  Cl  Cl105  1  0.31699000  0.73911000  0.05075000  1.0
  Cl  Cl106  1  0.18301000  0.23911000  0.55075000  1.0
  Cl  Cl107  1  0.68301000  0.26089000  0.94925000  1.0
