# generated using pymatgen
data_Zr3H7C27S5Cl5O16
_symmetry_space_group_name_H-M   'P 1'
_cell_length_a   16.45600000
_cell_length_b   16.45500227
_cell_length_c   16.46230000
_cell_angle_alpha   119.70494196
_cell_angle_beta   119.69820000
_cell_angle_gamma   88.97160880
_symmetry_Int_Tables_number   1
_chemical_formula_structural   Zr3H7C27S5Cl5O16
_chemical_formula_sum   'Zr6 H14 C54 S10 Cl10 O32'
_cell_volume   3206.72298440
_cell_formula_units_Z   2
loop_
 _symmetry_equiv_pos_site_id
 _symmetry_equiv_pos_as_xyz
  1  'x, y, z'
loop_
 _atom_site_type_symbol
 _atom_site_label
 _atom_site_symmetry_multiplicity
 _atom_site_fract_x
 _atom_site_fract_y
 _atom_site_fract_z
 _atom_site_occupancy
  Zr  Zr0  1  0.90250000  0.40204000  0.51385000  1.0
  Zr  Zr1  1  0.10332000  0.60281000  0.49147000  1.0
  Zr  Zr2  1  0.89417000  0.39345000  0.29131000  1.0
  Zr  Zr3  1  0.11197000  0.61124000  0.71412000  1.0
  Zr  Zr4  1  0.89415000  0.61130000  0.50275000  1.0
  Zr  Zr5  1  0.11187000  0.39350000  0.50272000  1.0
  H  H6  1  0.75287000  0.42258000  0.34500000  1.0
  H  H7  1  0.08278000  0.75254000  0.66039000  1.0
  H  H8  1  0.08237000  0.41098000  0.32751000  1.0
  H  H9  1  0.09432000  0.42291000  0.67779000  1.0
  H  H10  1  0.63940000  0.13109000  0.03150000  1.0
  H  H11  1  0.65468000  0.14954000  0.30698000  1.0
  H  H12  1  0.37439000  0.86600000  0.97358000  1.0
  H  H13  1  0.35586000  0.85067000  0.69805000  1.0
  H  H14  1  0.44777000  0.02253000  0.75627000  1.0
  H  H15  1  0.57094000  0.07301000  0.87395000  1.0
  H  H16  1  0.52830000  0.94981000  0.75807000  1.0
  H  H17  1  0.48275000  0.05760000  0.24872000  1.0
  H  H18  1  0.43235000  0.93442000  0.13105000  1.0
  H  H19  1  0.55549000  0.97713000  0.24694000  1.0
  C  C20  1  0.73981000  0.51729000  0.52160000  1.0
  C  C21  1  0.98801000  0.76537000  0.48349000  1.0
  C  C22  1  0.27362000  0.49537000  0.49894000  1.0
  C  C23  1  0.00971000  0.23158000  0.50606000  1.0
  C  C24  1  0.74119000  0.23435000  0.25410000  1.0
  C  C25  1  0.00415000  0.51211000  0.78040000  1.0
  C  C26  1  0.27106000  0.76416000  0.75105000  1.0
  C  C27  1  0.99308000  0.50103000  0.22483000  1.0
  C  C28  1  0.73131000  0.50291000  0.23007000  1.0
  C  C29  1  0.99586000  0.22287000  0.23062000  1.0
  C  C30  1  0.28229000  0.50931000  0.77496000  1.0
  C  C31  1  0.00244000  0.77397000  0.77553000  1.0
  C  C32  1  0.42516000  0.43775000  0.51351000  1.0
  C  C33  1  0.59250000  0.57959000  0.51621000  1.0
  C  C34  1  0.36602000  0.49877000  0.50605000  1.0
  C  C35  1  0.65095000  0.51777000  0.52209000  1.0
  C  C36  1  0.51028000  0.55059000  0.51354000  1.0
  C  C37  1  0.50807000  0.46754000  0.51771000  1.0
  C  C38  1  0.92535000  0.91232000  0.48813000  1.0
  C  C39  1  0.06713000  0.07983000  0.49097000  1.0
  C  C40  1  0.98731000  0.85401000  0.48251000  1.0
  C  C41  1  0.00611000  0.13897000  0.49849000  1.0
  C  C42  1  0.03733000  0.99683000  0.48662000  1.0
  C  C43  1  0.95424000  0.99451000  0.49070000  1.0
  C  C44  1  0.92724000  0.08156000  0.02339000  1.0
  C  C45  1  0.06584000  0.90978000  0.98302000  1.0
  C  C46  1  0.99306000  0.13263000  0.14025000  1.0
  C  C47  1  0.00100000  0.85975000  0.86615000  1.0
  C  C48  1  0.03867000  0.99042000  0.04033000  1.0
  C  C49  1  0.95360000  0.00009000  0.96610000  1.0
  C  C50  1  0.59517000  0.43912000  0.02259000  1.0
  C  C51  1  0.42313000  0.57751000  0.98223000  1.0
  C  C52  1  0.64527000  0.50408000  0.13946000  1.0
  C  C53  1  0.37219000  0.51179000  0.86537000  1.0
  C  C54  1  0.50464000  0.55117000  0.03947000  1.0
  C  C55  1  0.51440000  0.46614000  0.96526000  1.0
  C  C56  1  0.60832000  0.10066000  0.05905000  1.0
  C  C57  1  0.61702000  0.11088000  0.21574000  1.0
  C  C58  1  0.53523000  0.03000000  0.14364000  1.0
  C  C59  1  0.48768000  0.98097000  0.02406000  1.0
  C  C60  1  0.40475000  0.89704000  0.94595000  1.0
  C  C61  1  0.39456000  0.88829000  0.78928000  1.0
  C  C62  1  0.47544000  0.97009000  0.86138000  1.0
  C  C63  1  0.52445000  0.01769000  0.98094000  1.0
  C  C64  1  0.65387000  0.14616000  0.17394000  1.0
  C  C65  1  0.35927000  0.85143000  0.83106000  1.0
  C  C66  1  0.05885000  0.57342000  0.15361000  1.0
  C  C67  1  0.93159000  0.44666000  0.85173000  1.0
  C  C68  1  0.99320000  0.50676000  0.13883000  1.0
  C  C69  1  0.99846000  0.51202000  0.86646000  1.0
  C  C70  1  0.95337000  0.46955000  0.95662000  1.0
  C  C71  1  0.03592000  0.55174000  0.04876000  1.0
  C  C72  1  0.50812000  0.00642000  0.81102000  1.0
  C  C73  1  0.49888000  0.99729000  0.19398000  1.0
  S  S74  1  0.41172000  0.59252000  0.50468000  1.0
  S  S75  1  0.60595000  0.42485000  0.52508000  1.0
  S  S76  1  0.08017000  0.89904000  0.47945000  1.0
  S  S77  1  0.91229000  0.09309000  0.49964000  1.0
  S  S78  1  0.08650000  0.08035000  0.17969000  1.0
  S  S79  1  0.90661000  0.91103000  0.82671000  1.0
  S  S80  1  0.59381000  0.59832000  0.17885000  1.0
  S  S81  1  0.42453000  0.41838000  0.82592000  1.0
  S  S82  1  0.90335000  0.41856000  0.99720000  1.0
  S  S83  1  0.08704000  0.60152000  0.00808000  1.0
  Cl  Cl84  1  0.40477000  0.33840000  0.51681000  1.0
  Cl  Cl85  1  0.61225000  0.67826000  0.51158000  1.0
  Cl  Cl86  1  0.82664000  0.89253000  0.49271000  1.0
  Cl  Cl87  1  0.16651000  0.10030000  0.48775000  1.0
  Cl  Cl88  1  0.82660000  0.10929000  0.95143000  1.0
  Cl  Cl89  1  0.16698000  0.88254000  0.05484000  1.0
  Cl  Cl90  1  0.62246000  0.33801000  0.95076000  1.0
  Cl  Cl91  1  0.39534000  0.67808000  0.05424000  1.0
  Cl  Cl92  1  0.15670000  0.67007000  0.27808000  1.0
  Cl  Cl93  1  0.83454000  0.34919000  0.72729000  1.0
  O  O94  1  0.77610000  0.44854000  0.52416000  1.0
  O  O95  1  0.05676000  0.72909000  0.48098000  1.0
  O  O96  1  0.23542000  0.56201000  0.49224000  1.0
  O  O97  1  0.94313000  0.26984000  0.51286000  1.0
  O  O98  1  0.77207000  0.26580000  0.21422000  1.0
  O  O99  1  0.07330000  0.57873000  0.81343000  1.0
  O  O100  1  0.23970000  0.73337000  0.79106000  1.0
  O  O101  1  0.92647000  0.43188000  0.19183000  1.0
  O  O102  1  0.76301000  0.57228000  0.33166000  1.0
  O  O103  1  0.06710000  0.25663000  0.33212000  1.0
  O  O104  1  0.24864000  0.43818000  0.67344000  1.0
  O  O105  1  0.93318000  0.74238000  0.67393000  1.0
  O  O106  1  0.92773000  0.26101000  0.19994000  1.0
  O  O107  1  0.24432000  0.57765000  0.80561000  1.0
  O  O108  1  0.07355000  0.73887000  0.80588000  1.0
  O  O109  1  0.76651000  0.43190000  0.19968000  1.0
  O  O110  1  0.77885000  0.27412000  0.35940000  1.0
  O  O111  1  0.06211000  0.56623000  0.32704000  1.0
  O  O112  1  0.23119000  0.72647000  0.64571000  1.0
  O  O113  1  0.93896000  0.44308000  0.67817000  1.0
  O  O114  1  0.07860000  0.26677000  0.50644000  1.0
  O  O115  1  0.77233000  0.58328000  0.51633000  1.0
  O  O116  1  0.92219000  0.73308000  0.48913000  1.0
  O  O117  1  0.23857000  0.42664000  0.49888000  1.0
  O  O118  1  0.06926000  0.44589000  0.62844000  1.0
  O  O119  1  0.05945000  0.43606000  0.37693000  1.0
  O  O120  1  0.05908000  0.68146000  0.61499000  1.0
  O  O121  1  0.82394000  0.44634000  0.39044000  1.0
  O  O122  1  0.95399000  0.54404000  0.41018000  1.0
  O  O123  1  0.96138000  0.55140000  0.59527000  1.0
  O  O124  1  0.13472000  0.54351000  0.58535000  1.0
  O  O125  1  0.96187000  0.37068000  0.42008000  1.0
