# generated using pymatgen
data_AgH29C28N4O3
_symmetry_space_group_name_H-M   'P 1'
_cell_length_a   8.87015000
_cell_length_b   9.77384000
_cell_length_c   16.49709428
_cell_angle_alpha   93.72921894
_cell_angle_beta   104.13269729
_cell_angle_gamma   94.08930000
_symmetry_Int_Tables_number   1
_chemical_formula_structural   AgH29C28N4O3
_chemical_formula_sum   'Ag2 H58 C56 N8 O6'
_cell_volume   1378.36746996
_cell_formula_units_Z   2
loop_
 _symmetry_equiv_pos_site_id
 _symmetry_equiv_pos_as_xyz
  1  'x, y, z'
loop_
 _atom_site_type_symbol
 _atom_site_label
 _atom_site_symmetry_multiplicity
 _atom_site_fract_x
 _atom_site_fract_y
 _atom_site_fract_z
 _atom_site_occupancy
  Ag  Ag0  1  0.79118000  0.53575000  0.25710000  1.0
  Ag  Ag1  1  0.20881000  0.46424000  0.74289000  1.0
  H  H2  1  0.25456000  0.25981000  0.92448000  1.0
  H  H3  1  0.74545000  0.74019000  0.07553000  1.0
  H  H4  1  0.06878000  0.40787000  0.97018000  1.0
  H  H5  1  0.93122000  0.59212000  0.02982000  1.0
  H  H6  1  0.15177000  0.56964000  0.09850000  1.0
  H  H7  1  0.84822000  0.43036000  0.90149000  1.0
  H  H8  1  0.42794000  0.59008000  0.18566000  1.0
  H  H9  1  0.57206000  0.40992000  0.81434000  1.0
  H  H10  1  0.69163000  0.19305000  0.94265000  1.0
  H  H11  1  0.30837000  0.80695000  0.05735000  1.0
  H  H12  1  0.48622000  0.17944000  0.90726000  1.0
  H  H13  1  0.51378000  0.82057000  0.09274000  1.0
  H  H14  1  0.59266000  0.95254000  0.93697000  1.0
  H  H15  1  0.40734000  0.04746000  0.06303000  1.0
  H  H16  1  0.67558000  0.01205000  0.04277000  1.0
  H  H17  1  0.32442000  0.98795000  0.95723000  1.0
  H  H18  1  0.90172000  0.28587000  0.05446000  1.0
  H  H19  1  0.09827000  0.71414000  0.94554000  1.0
  H  H20  1  0.86189000  0.17630000  0.13002000  1.0
  H  H21  1  0.13810000  0.82370000  0.86998000  1.0
  H  H22  1  0.93125000  0.35176000  0.16117000  1.0
  H  H23  1  0.06874000  0.64824000  0.83883000  1.0
  H  H24  1  0.27368000  0.26175000  0.55457000  1.0
  H  H25  1  0.72632000  0.73826000  0.44543000  1.0
  H  H26  1  0.13301000  0.03411000  0.49353000  1.0
  H  H27  1  0.86700000  0.96589000  0.50647000  1.0
  H  H28  1  0.91236000  0.01472000  0.36613000  1.0
  H  H29  1  0.08764000  0.98528000  0.63387000  1.0
  H  H30  1  0.82335000  0.22430000  0.29665000  1.0
  H  H31  1  0.17665000  0.77570000  0.70335000  1.0
  H  H32  1  0.33041000  0.50407000  0.59014000  1.0
  H  H33  1  0.66960000  0.49593000  0.40986000  1.0
  H  H34  1  0.29719000  0.66993000  0.55619000  1.0
  H  H35  1  0.70281000  0.33007000  0.44381000  1.0
  H  H36  1  0.45423000  0.62135000  0.44735000  1.0
  H  H37  1  0.54577000  0.37865000  0.55265000  1.0
  H  H38  1  0.56076000  0.63722000  0.55330000  1.0
  H  H39  1  0.43924000  0.36278000  0.44670000  1.0
  H  H40  1  0.13403000  0.78465000  0.46282000  1.0
  H  H41  1  0.86597000  0.21536000  0.53718000  1.0
  H  H42  1  0.02051000  0.75778000  0.35685000  1.0
  H  H43  1  0.97949000  0.24222000  0.64315000  1.0
  H  H44  1  0.22629000  0.74922000  0.38038000  1.0
  H  H45  1  0.77371000  0.25079000  0.61962000  1.0
  H  H46  1  0.48291000  0.83465000  0.39347000  1.0
  H  H47  1  0.51709000  0.16534000  0.60653000  1.0
  H  H48  1  0.33580000  0.03982000  0.41216000  1.0
  H  H49  1  0.66419000  0.96017000  0.58784000  1.0
  H  H50  1  0.48869000  0.21902000  0.21060000  1.0
  H  H51  1  0.51131000  0.78097000  0.78940000  1.0
  H  H52  1  0.63717000  0.01579000  0.19514000  1.0
  H  H53  1  0.36283000  0.98420000  0.80486000  1.0
  H  H54  1  0.22275000  0.42180000  0.28844000  1.0
  H  H55  1  0.77726000  0.57820000  0.71156000  1.0
  H  H56  1  0.25896000  0.31484000  0.20403000  1.0
  H  H57  1  0.74105000  0.68515000  0.79597000  1.0
  H  H58  1  0.41899000  0.40903000  0.27967000  1.0
  H  H59  1  0.58102000  0.59097000  0.72033000  1.0
  C  C60  1  0.69469000  0.32476000  0.09446000  1.0
  C  C61  1  0.30531000  0.67524000  0.90554000  1.0
  C  C62  1  0.44312000  0.33814000  0.03320000  1.0
  C  C63  1  0.55688000  0.66186000  0.96680000  1.0
  C  C64  1  0.29080000  0.32709000  0.98256000  1.0
  C  C65  1  0.70919000  0.67291000  0.01744000  1.0
  C  C66  1  0.18843000  0.41234000  0.00819000  1.0
  C  C67  1  0.81157000  0.58766000  0.99181000  1.0
  C  C68  1  0.23617000  0.50586000  0.08033000  1.0
  C  C69  1  0.76383000  0.49414000  0.91967000  1.0
  C  C70  1  0.38897000  0.51848000  0.12961000  1.0
  C  C71  1  0.61102000  0.48152000  0.87039000  1.0
  C  C72  1  0.49223000  0.43194000  0.10570000  1.0
  C  C73  1  0.50776000  0.56807000  0.89430000  1.0
  C  C74  1  0.58323000  0.16827000  0.96174000  1.0
  C  C75  1  0.41677000  0.83174000  0.03826000  1.0
  C  C76  1  0.57641000  0.02185000  0.98887000  1.0
  C  C77  1  0.42359000  0.97816000  0.01113000  1.0
  C  C78  1  0.85568000  0.28172000  0.11047000  1.0
  C  C79  1  0.14432000  0.71829000  0.88953000  1.0
  C  C80  1  0.09499000  0.57547000  0.40982000  1.0
  C  C81  1  0.90501000  0.42453000  0.59018000  1.0
  C  C82  1  0.12988000  0.36807000  0.45645000  1.0
  C  C83  1  0.87013000  0.63194000  0.54355000  1.0
  C  C84  1  0.17872000  0.25289000  0.49775000  1.0
  C  C85  1  0.82129000  0.74712000  0.50225000  1.0
  C  C86  1  0.09838000  0.12663000  0.46312000  1.0
  C  C87  1  0.90162000  0.87337000  0.53688000  1.0
  C  C88  1  0.97231000  0.11552000  0.39121000  1.0
  C  C89  1  0.02770000  0.88448000  0.60879000  1.0
  C  C90  1  0.92231000  0.23160000  0.35142000  1.0
  C  C91  1  0.07769000  0.76840000  0.64858000  1.0
  C  C92  1  0.00364000  0.35887000  0.38437000  1.0
  C  C93  1  0.99636000  0.64114000  0.61563000  1.0
  C  C94  1  0.32105000  0.56611000  0.53613000  1.0
  C  C95  1  0.67895000  0.43390000  0.46387000  1.0
  C  C96  1  0.47156000  0.57096000  0.50640000  1.0
  C  C97  1  0.52844000  0.42905000  0.49360000  1.0
  C  C98  1  0.12073000  0.72504000  0.40237000  1.0
  C  C99  1  0.87928000  0.27496000  0.59763000  1.0
  C  C100  1  0.56528000  0.91021000  0.29106000  1.0
  C  C101  1  0.43472000  0.08978000  0.70894000  1.0
  C  C102  1  0.48255000  0.91926000  0.35357000  1.0
  C  C103  1  0.51744000  0.08073000  0.64643000  1.0
  C  C104  1  0.40131000  0.03224000  0.36437000  1.0
  C  C105  1  0.59869000  0.96776000  0.63563000  1.0
  C  C106  1  0.39879000  0.13904000  0.31111000  1.0
  C  C107  1  0.60122000  0.86095000  0.68890000  1.0
  C  C108  1  0.48533000  0.13474000  0.25034000  1.0
  C  C109  1  0.51467000  0.86526000  0.74966000  1.0
  C  C110  1  0.56827000  0.02079000  0.24157000  1.0
  C  C111  1  0.43173000  0.97920000  0.75843000  1.0
  C  C112  1  0.64352000  0.78280000  0.27641000  1.0
  C  C113  1  0.35647000  0.21718000  0.72359000  1.0
  C  C114  1  0.30325000  0.35276000  0.27044000  1.0
  C  C115  1  0.69676000  0.64724000  0.72956000  1.0
  N  N116  1  0.98448000  0.48987000  0.35726000  1.0
  N  N117  1  0.01552000  0.51013000  0.64274000  1.0
  N  N118  1  0.18482000  0.50650000  0.47106000  1.0
  N  N119  1  0.81517000  0.49350000  0.52894000  1.0
  N  N120  1  0.57450000  0.27224000  0.02764000  1.0
  N  N121  1  0.42550000  0.72776000  0.97236000  1.0
  N  N122  1  0.64869000  0.42024000  0.14226000  1.0
  N  N123  1  0.35131000  0.57976000  0.85774000  1.0
  O  O124  1  0.60952000  0.67709000  0.31278000  1.0
  O  O125  1  0.39047000  0.32290000  0.68722000  1.0
  O  O126  1  0.73599000  0.78496000  0.22824000  1.0
  O  O127  1  0.26400000  0.21503000  0.77176000  1.0
  O  O128  1  0.30908000  0.24219000  0.32334000  1.0
  O  O129  1  0.69093000  0.75781000  0.67666000  1.0
