# generated using pymatgen
data_NiH12C14N2O5
_symmetry_space_group_name_H-M   'P 1'
_cell_length_a   10.00340000
_cell_length_b   16.30050000
_cell_length_c   16.42860000
_cell_angle_alpha   90.00010000
_cell_angle_beta   90.00000000
_cell_angle_gamma   89.99990000
_symmetry_Int_Tables_number   1
_chemical_formula_structural   NiH12C14N2O5
_chemical_formula_sum   'Ni4 H48 C56 N8 O20'
_cell_volume   2678.85444393
_cell_formula_units_Z   4
loop_
 _symmetry_equiv_pos_site_id
 _symmetry_equiv_pos_as_xyz
  1  'x, y, z'
loop_
 _atom_site_type_symbol
 _atom_site_label
 _atom_site_symmetry_multiplicity
 _atom_site_fract_x
 _atom_site_fract_y
 _atom_site_fract_z
 _atom_site_occupancy
  Ni  Ni0  1  0.30745000  0.21217000  0.54874000  1.0
  Ni  Ni1  1  0.19255000  0.78783000  0.04874000  1.0
  Ni  Ni2  1  0.69255000  0.71217000  0.95126000  1.0
  Ni  Ni3  1  0.80745000  0.28783000  0.45126000  1.0
  H  H4  1  0.42348000  0.24679000  0.29662000  1.0
  H  H5  1  0.07652000  0.75321000  0.79663000  1.0
  H  H6  1  0.57652000  0.74679000  0.20337000  1.0
  H  H7  1  0.92348000  0.25321000  0.70337000  1.0
  H  H8  1  0.39507000  0.34435000  0.34030000  1.0
  H  H9  1  0.10493000  0.65565000  0.84030000  1.0
  H  H10  1  0.60493000  0.84435000  0.15970000  1.0
  H  H11  1  0.89507000  0.15565000  0.65970000  1.0
  H  H12  1  0.18633000  0.26447000  0.33712000  1.0
  H  H13  1  0.31367000  0.73553000  0.83713000  1.0
  H  H14  1  0.81367000  0.76447000  0.16287000  1.0
  H  H15  1  0.68633000  0.23552000  0.66288000  1.0
  H  H16  1  0.13548000  0.28224000  0.47351000  1.0
  H  H17  1  0.36452000  0.71776000  0.97351000  1.0
  H  H18  1  0.86452000  0.78224000  0.02649000  1.0
  H  H19  1  0.63548000  0.21776000  0.52649000  1.0
  H  H20  1  0.77782000  0.62675000  0.79950000  1.0
  H  H21  1  0.72218000  0.37325000  0.29950000  1.0
  H  H22  1  0.22218000  0.12675000  0.70050000  1.0
  H  H23  1  0.27783000  0.87325000  0.20050000  1.0
  H  H24  1  0.69241000  0.51506000  0.70807000  1.0
  H  H25  1  0.80759000  0.48494000  0.20807000  1.0
  H  H26  1  0.30759000  0.01506000  0.79193000  1.0
  H  H27  1  0.19241000  0.98494000  0.29193000  1.0
  H  H28  1  0.35020000  0.49670000  0.86777000  1.0
  H  H29  1  0.14980000  0.50330000  0.36777000  1.0
  H  H30  1  0.64980000  0.99670000  0.63223000  1.0
  H  H31  1  0.85020000  0.00330000  0.13223000  1.0
  H  H32  1  0.45539000  0.60284000  0.95487000  1.0
  H  H33  1  0.04461000  0.39716000  0.45487000  1.0
  H  H34  1  0.54461000  0.10284000  0.54513000  1.0
  H  H35  1  0.95539000  0.89716000  0.04513000  1.0
  H  H36  1  0.36120000  0.36318000  0.81981000  1.0
  H  H37  1  0.13880000  0.63682000  0.31982000  1.0
  H  H38  1  0.63880000  0.86318000  0.68019000  1.0
  H  H39  1  0.86120000  0.13682000  0.18018000  1.0
  H  H40  1  0.28181000  0.25529000  0.72486000  1.0
  H  H41  1  0.21820000  0.74471000  0.22486000  1.0
  H  H42  1  0.71819000  0.75529000  0.77515000  1.0
  H  H43  1  0.78181000  0.24471000  0.27514000  1.0
  H  H44  1  0.44701000  0.37409000  0.52613000  1.0
  H  H45  1  0.05299000  0.62591000  0.02613000  1.0
  H  H46  1  0.55299000  0.87409000  0.97387000  1.0
  H  H47  1  0.94701000  0.12591000  0.47387000  1.0
  H  H48  1  0.53304000  0.48701000  0.61175000  1.0
  H  H49  1  0.96696000  0.51299000  0.11175000  1.0
  H  H50  1  0.46696000  0.98701000  0.88825000  1.0
  H  H51  1  0.03304000  0.01299000  0.38825000  1.0
  C  C52  1  0.51387000  0.26434000  0.41261000  1.0
  C  C53  1  0.98614000  0.73566000  0.91261000  1.0
  C  C54  1  0.48614000  0.76434000  0.08739000  1.0
  C  C55  1  0.01387000  0.23566000  0.58739000  1.0
  C  C56  1  0.39834000  0.27826000  0.35380000  1.0
  C  C57  1  0.10167000  0.72174000  0.85381000  1.0
  C  C58  1  0.60166000  0.77826000  0.14619000  1.0
  C  C59  1  0.89834000  0.22174000  0.64620000  1.0
  C  C60  1  0.26257000  0.24845000  0.38287000  1.0
  C  C61  1  0.23743000  0.75155000  0.88288000  1.0
  C  C62  1  0.73743000  0.74845000  0.11712000  1.0
  C  C63  1  0.76257000  0.25155000  0.61713000  1.0
  C  C64  1  0.26067000  0.15385000  0.39265000  1.0
  C  C65  1  0.23933000  0.84615000  0.89266000  1.0
  C  C66  1  0.73933000  0.65385000  0.10734000  1.0
  C  C67  1  0.76067000  0.34615000  0.60735000  1.0
  C  C68  1  0.68187000  0.59722000  0.81075000  1.0
  C  C69  1  0.81813000  0.40278000  0.31075000  1.0
  C  C70  1  0.31813000  0.09722000  0.68925000  1.0
  C  C71  1  0.18187000  0.90278000  0.18925000  1.0
  C  C72  1  0.63286000  0.53659000  0.75949000  1.0
  C  C73  1  0.86714000  0.46341000  0.25949000  1.0
  C  C74  1  0.36714000  0.03659000  0.74051000  1.0
  C  C75  1  0.13287000  0.96341000  0.24051000  1.0
  C  C76  1  0.51016000  0.49912000  0.77786000  1.0
  C  C77  1  0.98984000  0.50088000  0.27786000  1.0
  C  C78  1  0.48984000  0.99912000  0.72214000  1.0
  C  C79  1  0.01016000  0.00088000  0.22213000  1.0
  C  C80  1  0.44550000  0.52351000  0.84964000  1.0
  C  C81  1  0.05450000  0.47649000  0.34964000  1.0
  C  C82  1  0.55450000  0.02351000  0.65036000  1.0
  C  C83  1  0.94550000  0.97649000  0.15036000  1.0
  C  C84  1  0.50236000  0.58389000  0.89823000  1.0
  C  C85  1  0.99764000  0.41611000  0.39823000  1.0
  C  C86  1  0.49764000  0.08388000  0.60177000  1.0
  C  C87  1  0.00236000  0.91611000  0.10177000  1.0
  C  C88  1  0.45479000  0.43536000  0.72409000  1.0
  C  C89  1  0.04521000  0.56465000  0.22409000  1.0
  C  C90  1  0.54521000  0.93535000  0.77591000  1.0
  C  C91  1  0.95479000  0.06464000  0.27591000  1.0
  C  C92  1  0.38117000  0.36898000  0.75487000  1.0
  C  C93  1  0.11883000  0.63102000  0.25487000  1.0
  C  C94  1  0.61883000  0.86898000  0.74513000  1.0
  C  C95  1  0.88117000  0.13102000  0.24513000  1.0
  C  C96  1  0.33806000  0.30776000  0.70239000  1.0
  C  C97  1  0.16194000  0.69224000  0.20239000  1.0
  C  C98  1  0.66194000  0.80776000  0.79761000  1.0
  C  C99  1  0.83806000  0.19224000  0.29761000  1.0
  C  C100  1  0.42933000  0.37402000  0.59141000  1.0
  C  C101  1  0.07066000  0.62598000  0.09141000  1.0
  C  C102  1  0.57066000  0.87402000  0.90860000  1.0
  C  C103  1  0.92934000  0.12598000  0.40859000  1.0
  C  C104  1  0.47673000  0.43739000  0.63988000  1.0
  C  C105  1  0.02327000  0.56261000  0.13988000  1.0
  C  C106  1  0.52327000  0.93739000  0.86012000  1.0
  C  C107  1  0.97673000  0.06261000  0.36012000  1.0
  N  N108  1  0.61730000  0.62212000  0.87850000  1.0
  N  N109  1  0.88270000  0.37789000  0.37850000  1.0
  N  N110  1  0.38270000  0.12211000  0.62150000  1.0
  N  N111  1  0.11730000  0.87788000  0.12150000  1.0
  N  N112  1  0.36300000  0.30889000  0.62177000  1.0
  N  N113  1  0.13700000  0.69111000  0.12177000  1.0
  N  N114  1  0.63700000  0.80889000  0.87823000  1.0
  N  N115  1  0.86300000  0.19111000  0.37823000  1.0
  O  O116  1  0.49496000  0.22816000  0.48115000  1.0
  O  O117  1  0.00504000  0.77185000  0.98115000  1.0
  O  O118  1  0.50503000  0.72816000  0.01885000  1.0
  O  O119  1  0.99496000  0.27184000  0.51885000  1.0
  O  O120  1  0.62658000  0.29066000  0.38898000  1.0
  O  O121  1  0.87342000  0.70934000  0.88898000  1.0
  O  O122  1  0.37342000  0.79067000  0.11102000  1.0
  O  O123  1  0.12658000  0.20933000  0.61102000  1.0
  O  O124  1  0.23280000  0.29060000  0.45801000  1.0
  O  O125  1  0.26720000  0.70940000  0.95801000  1.0
  O  O126  1  0.76720000  0.79060000  0.04199000  1.0
  O  O127  1  0.73280000  0.20940000  0.54199000  1.0
  O  O128  1  0.26762000  0.11178000  0.32948000  1.0
  O  O129  1  0.23238000  0.88822000  0.82948000  1.0
  O  O130  1  0.73238000  0.61178000  0.17052000  1.0
  O  O131  1  0.76762000  0.38822000  0.67052000  1.0
  O  O132  1  0.25089000  0.12678000  0.46618000  1.0
  O  O133  1  0.24911000  0.87322000  0.96618000  1.0
  O  O134  1  0.74911000  0.62678000  0.03382000  1.0
  O  O135  1  0.75089000  0.37322000  0.53382000  1.0
