# generated using pymatgen
data_Zn2H10C22S5(NO2)4
_symmetry_space_group_name_H-M   'P 1'
_cell_length_a   11.39940000
_cell_length_b   12.76700000
_cell_length_c   26.10410000
_cell_angle_alpha   90.16260000
_cell_angle_beta   89.83240000
_cell_angle_gamma   89.94600000
_symmetry_Int_Tables_number   1
_chemical_formula_structural   Zn2H10C22S5(NO2)4
_chemical_formula_sum   'Zn4 H20 C44 S10 N8 O16'
_cell_volume   3799.05667779
_cell_formula_units_Z   2
loop_
 _symmetry_equiv_pos_site_id
 _symmetry_equiv_pos_as_xyz
  1  'x, y, z'
loop_
 _atom_site_type_symbol
 _atom_site_label
 _atom_site_symmetry_multiplicity
 _atom_site_fract_x
 _atom_site_fract_y
 _atom_site_fract_z
 _atom_site_occupancy
  Zn  Zn0  1  0.61566000  0.50263000  0.50007000  1.0
  Zn  Zn1  1  0.37624000  0.50209000  0.49769000  1.0
  Zn  Zn2  1  0.38439000  0.50523000  0.00926000  1.0
  Zn  Zn3  1  0.62380000  0.50433000  0.01168000  1.0
  H  H4  1  0.82486000  0.38452000  0.44820000  1.0
  H  H5  1  0.16756000  0.61961000  0.54849000  1.0
  H  H6  1  0.68662000  0.14228000  0.50371000  1.0
  H  H7  1  0.31100000  0.86242000  0.49474000  1.0
  H  H8  1  0.70695000  0.48175000  0.85801000  1.0
  H  H9  1  0.29304000  0.48152000  0.65130000  1.0
  H  H10  1  0.31472000  0.50007000  0.32489000  1.0
  H  H11  1  0.68509000  0.50171000  0.18442000  1.0
  H  H12  1  0.17566000  0.38730000  0.06108000  1.0
  H  H13  1  0.83223000  0.62142000  0.96105000  1.0
  H  H14  1  0.31348000  0.14503000  0.00575000  1.0
  H  H15  1  0.68907000  0.86456000  0.01444000  1.0
  H  H16  1  0.21596000  0.41563000  0.77041000  1.0
  H  H17  1  0.17226000  0.47106000  0.71647000  1.0
  H  H18  1  0.30977000  0.53288000  0.87823000  1.0
  H  H19  1  0.24777000  0.54288000  0.81557000  1.0
  H  H20  1  0.78401000  0.41504000  0.73878000  1.0
  H  H21  1  0.82773000  0.47066000  0.79282000  1.0
  H  H22  1  0.69022000  0.53157000  0.63112000  1.0
  H  H23  1  0.75223000  0.54199000  0.69378000  1.0
  C  C24  1  0.49346000  0.70801000  0.49790000  1.0
  C  C25  1  0.48705000  0.50614000  0.59996000  1.0
  C  C26  1  0.50274000  0.29668000  0.49936000  1.0
  C  C27  1  0.49918000  0.49851000  0.39858000  1.0
  C  C28  1  0.50656000  0.71051000  0.01145000  1.0
  C  C29  1  0.51289000  0.50722000  0.90939000  1.0
  C  C30  1  0.49737000  0.29908000  0.00995000  1.0
  C  C31  1  0.50073000  0.50141000  0.11074000  1.0
  C  C32  1  0.86596000  0.44255000  0.47296000  1.0
  C  C33  1  0.12628000  0.56171000  0.52372000  1.0
  C  C34  1  0.00533000  0.54345000  0.51591000  1.0
  C  C35  1  0.98700000  0.46089000  0.48071000  1.0
  C  C36  1  0.59687000  0.11396000  0.50151000  1.0
  C  C37  1  0.40076000  0.89076000  0.49674000  1.0
  C  C38  1  0.50182000  0.18118000  0.49943000  1.0
  C  C39  1  0.49573000  0.82349000  0.49840000  1.0
  C  C40  1  0.43730000  0.99637000  0.49775000  1.0
  C  C41  1  0.56045000  0.00825000  0.50040000  1.0
  C  C42  1  0.42324000  0.50817000  0.81987000  1.0
  C  C43  1  0.63418000  0.49097000  0.83137000  1.0
  C  C44  1  0.65508000  0.48952000  0.77945000  1.0
  C  C45  1  0.55871000  0.49898000  0.74433000  1.0
  C  C46  1  0.57676000  0.50752000  0.68948000  1.0
  C  C47  1  0.36581000  0.49074000  0.67795000  1.0
  C  C48  1  0.34491000  0.48967000  0.72987000  1.0
  C  C49  1  0.44129000  0.49918000  0.76500000  1.0
  C  C50  1  0.52138000  0.50331000  0.85285000  1.0
  C  C51  1  0.47862000  0.50267000  0.65650000  1.0
  C  C52  1  0.40394000  0.49952000  0.31010000  1.0
  C  C53  1  0.59588000  0.50085000  0.19922000  1.0
  C  C54  1  0.50040000  0.49879000  0.34211000  1.0
  C  C55  1  0.49943000  0.50081000  0.16720000  1.0
  C  C56  1  0.56146000  0.49983000  0.25120000  1.0
  C  C57  1  0.43839000  0.49971000  0.25813000  1.0
  C  C58  1  0.13432000  0.44508000  0.03639000  1.0
  C  C59  1  0.87364000  0.56370000  0.98576000  1.0
  C  C60  1  0.99463000  0.54550000  0.99350000  1.0
  C  C61  1  0.01324000  0.46325000  0.02866000  1.0
  C  C62  1  0.40323000  0.11658000  0.00788000  1.0
  C  C63  1  0.59933000  0.89308000  0.01250000  1.0
  C  C64  1  0.49832000  0.18360000  0.00986000  1.0
  C  C65  1  0.50432000  0.82599000  0.01095000  1.0
  C  C66  1  0.56281000  0.99875000  0.01155000  1.0
  C  C67  1  0.43964000  0.01083000  0.00898000  1.0
  S  S68  1  0.87231000  0.59145000  0.53583000  1.0
  S  S69  1  0.12004000  0.41346000  0.46047000  1.0
  S  S70  1  0.36778000  0.11636000  0.49637000  1.0
  S  S71  1  0.62991000  0.88814000  0.50115000  1.0
  S  S72  1  0.63338000  0.49889000  0.30925000  1.0
  S  S73  1  0.36645000  0.50004000  0.20007000  1.0
  S  S74  1  0.12748000  0.59345000  0.97363000  1.0
  S  S75  1  0.88032000  0.41594000  0.04887000  1.0
  S  S76  1  0.63235000  0.11861000  0.01288000  1.0
  S  S77  1  0.37014000  0.89085000  0.00830000  1.0
  N  N78  1  0.79771000  0.50621000  0.50008000  1.0
  N  N79  1  0.19446000  0.49810000  0.49653000  1.0
  N  N80  1  0.20235000  0.50859000  0.00931000  1.0
  N  N81  1  0.80564000  0.50028000  0.01289000  1.0
  N  N82  1  0.22635000  0.47924000  0.74721000  1.0
  N  N83  1  0.31315000  0.52102000  0.83962000  1.0
  N  N84  1  0.77364000  0.47879000  0.76209000  1.0
  N  N85  1  0.68685000  0.52000000  0.66973000  1.0
  O  O86  1  0.59323000  0.66204000  0.49671000  1.0
  O  O87  1  0.39326000  0.66384000  0.49857000  1.0
  O  O88  1  0.39085000  0.50145000  0.57485000  1.0
  O  O89  1  0.58865000  0.51260000  0.57820000  1.0
  O  O90  1  0.40296000  0.34165000  0.49592000  1.0
  O  O91  1  0.60226000  0.34202000  0.50270000  1.0
  O  O92  1  0.59827000  0.49378000  0.42124000  1.0
  O  O93  1  0.39866000  0.50333000  0.42008000  1.0
  O  O94  1  0.40680000  0.66470000  0.01273000  1.0
  O  O95  1  0.60673000  0.66612000  0.01065000  1.0
  O  O96  1  0.60907000  0.50242000  0.93452000  1.0
  O  O97  1  0.41129000  0.51422000  0.93114000  1.0
  O  O98  1  0.59712000  0.34396000  0.01357000  1.0
  O  O99  1  0.39788000  0.34454000  0.00648000  1.0
  O  O100  1  0.40167000  0.49676000  0.08805000  1.0
  O  O101  1  0.60125000  0.50662000  0.08928000  1.0
