# generated using pymatgen
data_LaH8C6NO7
_symmetry_space_group_name_H-M   'P 1'
_cell_length_a   7.03789000
_cell_length_b   10.26110000
_cell_length_c   12.16700000
_cell_angle_alpha   90.00010000
_cell_angle_beta   90.00010000
_cell_angle_gamma   89.99960000
_symmetry_Int_Tables_number   1
_chemical_formula_structural   LaH8C6NO7
_chemical_formula_sum   'La4 H32 C24 N4 O28'
_cell_volume   878.65807127
_cell_formula_units_Z   4
loop_
 _symmetry_equiv_pos_site_id
 _symmetry_equiv_pos_as_xyz
  1  'x, y, z'
loop_
 _atom_site_type_symbol
 _atom_site_label
 _atom_site_symmetry_multiplicity
 _atom_site_fract_x
 _atom_site_fract_y
 _atom_site_fract_z
 _atom_site_occupancy
  La  La0  1  0.13178000  0.15074000  0.10166000  1.0
  La  La1  1  0.36822000  0.84926000  0.60166000  1.0
  La  La2  1  0.86821000  0.65074000  0.39834000  1.0
  La  La3  1  0.63179000  0.34926000  0.89834000  1.0
  H  H4  1  0.40279000  0.77687000  0.18158000  1.0
  H  H5  1  0.09721000  0.22313000  0.68158000  1.0
  H  H6  1  0.59721000  0.27687000  0.31842000  1.0
  H  H7  1  0.90279000  0.72313000  0.81842000  1.0
  H  H8  1  0.26658000  0.72789000  0.06891000  1.0
  H  H9  1  0.23342000  0.27212000  0.56891000  1.0
  H  H10  1  0.73342000  0.22788000  0.43109000  1.0
  H  H11  1  0.76658000  0.77212000  0.93109000  1.0
  H  H12  1  0.38696000  0.79644000  0.92356000  1.0
  H  H13  1  0.11304000  0.20356000  0.42356000  1.0
  H  H14  1  0.61304000  0.29645000  0.57644000  1.0
  H  H15  1  0.88696000  0.70356000  0.07644000  1.0
  H  H16  1  0.48377000  0.95269000  0.90347000  1.0
  H  H17  1  0.01622000  0.04731000  0.40347000  1.0
  H  H18  1  0.51622000  0.45269000  0.59653000  1.0
  H  H19  1  0.98377000  0.54731000  0.09653000  1.0
  H  H20  1  0.66515000  0.89315000  0.07206000  1.0
  H  H21  1  0.83485000  0.10685000  0.57205000  1.0
  H  H22  1  0.33485000  0.39315000  0.42795000  1.0
  H  H23  1  0.16514000  0.60685000  0.92795000  1.0
  H  H24  1  0.55250000  0.96220000  0.18878000  1.0
  H  H25  1  0.94750000  0.03780000  0.68877000  1.0
  H  H26  1  0.44750000  0.46220000  0.31122000  1.0
  H  H27  1  0.05249000  0.53780000  0.81122000  1.0
  H  H28  1  0.36276000  0.42405000  0.13962000  1.0
  H  H29  1  0.13724000  0.57595000  0.63961000  1.0
  H  H30  1  0.63724000  0.92405000  0.36038000  1.0
  H  H31  1  0.86277000  0.07595000  0.86038000  1.0
  H  H32  1  0.17573000  0.41869000  0.22271000  1.0
  H  H33  1  0.32427000  0.58131000  0.72271000  1.0
  H  H34  1  0.82426000  0.91869000  0.27729000  1.0
  H  H35  1  0.67574000  0.08130000  0.77729000  1.0
  C  C36  1  0.11412000  0.83218000  0.19026000  1.0
  C  C37  1  0.38588000  0.16782000  0.69025000  1.0
  C  C38  1  0.88588000  0.33218000  0.30975000  1.0
  C  C39  1  0.61412000  0.66782000  0.80974000  1.0
  C  C40  1  0.29411000  0.81152000  0.12350000  1.0
  C  C41  1  0.20589000  0.18848000  0.62350000  1.0
  C  C42  1  0.70588000  0.31152000  0.37650000  1.0
  C  C43  1  0.79411000  0.68848000  0.87650000  1.0
  C  C44  1  0.36410000  0.90033000  0.94126000  1.0
  C  C45  1  0.13590000  0.09967000  0.44126000  1.0
  C  C46  1  0.63590000  0.40033000  0.55874000  1.0
  C  C47  1  0.86410000  0.59967000  0.05874000  1.0
  C  C48  1  0.18922000  0.94380000  0.87667000  1.0
  C  C49  1  0.31077000  0.05619000  0.37667000  1.0
  C  C50  1  0.81077000  0.44381000  0.62333000  1.0
  C  C51  1  0.68922000  0.55620000  0.12333000  1.0
  C  C52  1  0.55354000  0.96177000  0.09870000  1.0
  C  C53  1  0.94646000  0.03824000  0.59870000  1.0
  C  C54  1  0.44646000  0.46176000  0.40130000  1.0
  C  C55  1  0.05353000  0.53824000  0.90129000  1.0
  C  C56  1  0.60912000  0.09810000  0.06440000  1.0
  C  C57  1  0.89088000  0.90190000  0.56440000  1.0
  C  C58  1  0.39087000  0.59810000  0.43561000  1.0
  C  C59  1  0.10913000  0.40190000  0.93560000  1.0
  N  N60  1  0.36286000  0.92474000  0.06067000  1.0
  N  N61  1  0.13714000  0.07526000  0.56067000  1.0
  N  N62  1  0.63714000  0.42474000  0.43933000  1.0
  N  N63  1  0.86286000  0.57526000  0.93933000  1.0
  O  O64  1  0.02286000  0.93951000  0.18406000  1.0
  O  O65  1  0.47714000  0.06049000  0.68406000  1.0
  O  O66  1  0.97713000  0.43951000  0.31594000  1.0
  O  O67  1  0.52287000  0.56049000  0.81593000  1.0
  O  O68  1  0.06460000  0.73592000  0.24787000  1.0
  O  O69  1  0.43540000  0.26408000  0.74787000  1.0
  O  O70  1  0.93540000  0.23592000  0.25213000  1.0
  O  O71  1  0.56460000  0.76408000  0.75213000  1.0
  O  O72  1  0.07341000  0.02274000  0.92297000  1.0
  O  O73  1  0.42659000  0.97725000  0.42297000  1.0
  O  O74  1  0.92658000  0.52275000  0.57703000  1.0
  O  O75  1  0.57341000  0.47726000  0.07703000  1.0
  O  O76  1  0.17224000  0.90141000  0.77964000  1.0
  O  O77  1  0.32776000  0.09857000  0.27964000  1.0
  O  O78  1  0.82777000  0.40142000  0.72036000  1.0
  O  O79  1  0.67223000  0.59858000  0.22036000  1.0
  O  O80  1  0.47589000  0.17554000  0.03279000  1.0
  O  O81  1  0.02412000  0.82446000  0.53279000  1.0
  O  O82  1  0.52411000  0.67554000  0.46722000  1.0
  O  O83  1  0.97589000  0.32446000  0.96721000  1.0
  O  O84  1  0.77981000  0.13172000  0.06836000  1.0
  O  O85  1  0.72020000  0.86828000  0.56836000  1.0
  O  O86  1  0.22020000  0.63172000  0.43165000  1.0
  O  O87  1  0.27981000  0.36829000  0.93164000  1.0
  O  O88  1  0.24765000  0.37509000  0.16332000  1.0
  O  O89  1  0.25236000  0.62490000  0.66331000  1.0
  O  O90  1  0.75235000  0.87510000  0.33668000  1.0
  O  O91  1  0.74766000  0.12490000  0.83668000  1.0
