# generated using pymatgen
data_CdH13C18N3O4
_symmetry_space_group_name_H-M   'P 1'
_cell_length_a   11.74780000
_cell_length_b   13.11880000
_cell_length_c   13.55280000
_cell_angle_alpha   77.67770000
_cell_angle_beta   66.42500000
_cell_angle_gamma   68.52510000
_symmetry_Int_Tables_number   1
_chemical_formula_structural   CdH13C18N3O4
_chemical_formula_sum   'Cd4 H52 C72 N12 O16'
_cell_volume   1775.98313719
_cell_formula_units_Z   4
loop_
 _symmetry_equiv_pos_site_id
 _symmetry_equiv_pos_as_xyz
  1  'x, y, z'
loop_
 _atom_site_type_symbol
 _atom_site_label
 _atom_site_symmetry_multiplicity
 _atom_site_fract_x
 _atom_site_fract_y
 _atom_site_fract_z
 _atom_site_occupancy
  Cd  Cd0  1  0.85451000  0.44396000  0.54913000  1.0
  Cd  Cd1  1  0.14549000  0.55603000  0.45086000  1.0
  Cd  Cd2  1  0.74656000  0.50758000  0.27004000  1.0
  Cd  Cd3  1  0.25345000  0.49244000  0.72997000  1.0
  H  H4  1  0.52305000  0.19268000  0.69496000  1.0
  H  H5  1  0.47692000  0.80734000  0.30505000  1.0
  H  H6  1  0.60053000  0.35977000  0.54657000  1.0
  H  H7  1  0.39945000  0.64023000  0.45344000  1.0
  H  H8  1  0.91043000  0.06380000  0.80867000  1.0
  H  H9  1  0.08959000  0.93619000  0.19130000  1.0
  H  H10  1  0.10606000  0.05729000  0.84079000  1.0
  H  H11  1  0.89396000  0.94270000  0.15918000  1.0
  H  H12  1  0.19973000  0.21577000  0.76219000  1.0
  H  H13  1  0.80026000  0.78424000  0.23781000  1.0
  H  H14  1  0.08975000  0.37076000  0.65711000  1.0
  H  H15  1  0.91023000  0.62925000  0.34288000  1.0
  H  H16  1  0.56554000  0.11624000  0.86696000  1.0
  H  H17  1  0.43446000  0.88376000  0.13304000  1.0
  H  H18  1  0.70622000  0.11713000  0.88333000  1.0
  H  H19  1  0.29379000  0.88289000  0.11666000  1.0
  H  H20  1  0.69996000  0.96530000  0.74186000  1.0
  H  H21  1  0.30004000  0.03470000  0.25815000  1.0
  H  H22  1  0.84291000  0.96271000  0.75593000  1.0
  H  H23  1  0.15709000  0.03730000  0.24406000  1.0
  H  H24  1  0.60256000  0.92500000  0.94525000  1.0
  H  H25  1  0.39744000  0.07500000  0.05476000  1.0
  H  H26  1  0.75137000  0.91461000  0.95608000  1.0
  H  H27  1  0.24864000  0.08541000  0.04393000  1.0
  H  H28  1  0.72768000  0.76942000  0.81749000  1.0
  H  H29  1  0.27234000  0.23059000  0.18251000  1.0
  H  H30  1  0.86826000  0.75290000  0.84374000  1.0
  H  H31  1  0.13175000  0.24711000  0.15627000  1.0
  H  H32  1  0.54195000  0.72035000  0.95022000  1.0
  H  H33  1  0.45805000  0.27966000  0.04977000  1.0
  H  H34  1  0.50288000  0.59422000  0.14939000  1.0
  H  H35  1  0.49712000  0.40580000  0.85061000  1.0
  H  H36  1  0.96334000  0.75942000  0.92336000  1.0
  H  H37  1  0.03667000  0.24059000  0.07665000  1.0
  H  H38  1  0.18756000  0.69554000  0.92611000  1.0
  H  H39  1  0.81245000  0.30445000  0.07390000  1.0
  H  H40  1  0.24283000  0.54866000  0.06830000  1.0
  H  H41  1  0.75718000  0.45133000  0.93171000  1.0
  H  H42  1  0.06796000  0.47183000  0.20016000  1.0
  H  H43  1  0.93204000  0.52818000  0.79986000  1.0
  H  H44  1  0.26143000  0.14133000  0.48107000  1.0
  H  H45  1  0.73858000  0.85867000  0.51891000  1.0
  H  H46  1  0.18691000  0.98044000  0.54054000  1.0
  H  H47  1  0.81312000  0.01955000  0.45943000  1.0
  H  H48  1  0.88447000  0.14191000  0.40217000  1.0
  H  H49  1  0.11552000  0.85808000  0.59783000  1.0
  H  H50  1  0.63632000  0.84424000  0.40126000  1.0
  H  H51  1  0.36363000  0.15579000  0.59876000  1.0
  H  H52  1  0.32061000  0.02193000  0.66584000  1.0
  H  H53  1  0.67934000  0.97806000  0.33420000  1.0
  H  H54  1  0.27653000  0.84824000  0.75256000  1.0
  H  H55  1  0.72343000  0.15175000  0.24745000  1.0
  C  C56  1  0.60383000  0.22303000  0.67774000  1.0
  C  C57  1  0.39615000  0.77697000  0.32226000  1.0
  C  C58  1  0.64060000  0.30711000  0.60624000  1.0
  C  C59  1  0.35938000  0.69288000  0.39376000  1.0
  C  C60  1  0.77658000  0.23947000  0.69441000  1.0
  C  C61  1  0.22343000  0.76052000  0.30557000  1.0
  C  C62  1  0.88989000  0.22542000  0.72178000  1.0
  C  C63  1  0.11012000  0.77458000  0.27819000  1.0
  C  C64  1  0.94816000  0.13309000  0.77981000  1.0
  C  C65  1  0.05186000  0.86691000  0.22015000  1.0
  C  C66  1  0.05975000  0.12879000  0.79606000  1.0
  C  C67  1  0.94025000  0.87121000  0.20392000  1.0
  C  C68  1  0.11236000  0.21480000  0.75286000  1.0
  C  C69  1  0.88764000  0.78519000  0.24713000  1.0
  C  C70  1  0.05024000  0.30295000  0.69447000  1.0
  C  C71  1  0.94976000  0.69705000  0.30552000  1.0
  C  C72  1  0.67164000  0.09982000  0.82632000  1.0
  C  C73  1  0.32836000  0.90019000  0.17367000  1.0
  C  C74  1  0.73689000  0.98009000  0.79863000  1.0
  C  C75  1  0.26312000  0.01991000  0.20137000  1.0
  C  C76  1  0.70912000  0.90308000  0.90123000  1.0
  C  C77  1  0.29089000  0.09692000  0.09877000  1.0
  C  C78  1  0.76120000  0.78227000  0.87750000  1.0
  C  C79  1  0.23882000  0.21773000  0.12250000  1.0
  C  C80  1  0.59794000  0.69205000  0.00343000  1.0
  C  C81  1  0.40207000  0.30795000  0.99657000  1.0
  C  C82  1  0.58033000  0.62961000  0.10074000  1.0
  C  C83  1  0.41968000  0.37040000  0.89926000  1.0
  C  C84  1  0.76714000  0.66031000  0.05361000  1.0
  C  C85  1  0.23287000  0.33969000  0.94640000  1.0
  C  C86  1  0.89756000  0.64265000  0.05530000  1.0
  C  C87  1  0.10245000  0.35735000  0.94472000  1.0
  C  C88  1  0.98737000  0.69552000  0.98400000  1.0
  C  C89  1  0.01265000  0.30448000  0.01600000  1.0
  C  C90  1  0.11347000  0.66136000  0.98668000  1.0
  C  C91  1  0.88653000  0.33864000  0.01332000  1.0
  C  C92  1  0.14534000  0.57883000  0.06374000  1.0
  C  C93  1  0.85466000  0.42118000  0.93626000  1.0
  C  C94  1  0.04873000  0.53408000  0.13613000  1.0
  C  C95  1  0.95128000  0.46592000  0.86388000  1.0
  C  C96  1  0.93566000  0.32699000  0.33287000  1.0
  C  C97  1  0.06434000  0.67299000  0.66712000  1.0
  C  C98  1  0.00866000  0.23146000  0.38953000  1.0
  C  C99  1  0.99133000  0.76854000  0.61046000  1.0
  C  C100  1  0.11314000  0.23543000  0.41278000  1.0
  C  C101  1  0.88686000  0.76456000  0.58720000  1.0
  C  C102  1  0.17723000  0.14192000  0.46536000  1.0
  C  C103  1  0.82278000  0.85807000  0.53461000  1.0
  C  C104  1  0.13401000  0.05028000  0.49894000  1.0
  C  C105  1  0.86601000  0.94971000  0.50105000  1.0
  C  C106  1  0.02527000  0.04746000  0.48040000  1.0
  C  C107  1  0.97474000  0.95253000  0.51959000  1.0
  C  C108  1  0.96691000  0.13882000  0.42198000  1.0
  C  C109  1  0.03309000  0.86117000  0.57801000  1.0
  C  C110  1  0.15357000  0.33834000  0.38328000  1.0
  C  C111  1  0.84645000  0.66165000  0.61670000  1.0
  C  C112  1  0.62666000  0.64596000  0.47470000  1.0
  C  C113  1  0.37334000  0.35404000  0.52533000  1.0
  C  C114  1  0.53400000  0.74961000  0.52874000  1.0
  C  C115  1  0.46600000  0.25040000  0.47127000  1.0
  C  C116  1  0.55689000  0.84847000  0.47902000  1.0
  C  C117  1  0.44307000  0.15154000  0.52100000  1.0
  C  C118  1  0.48453000  0.94875000  0.52643000  1.0
  C  C119  1  0.51543000  0.05126000  0.47361000  1.0
  C  C120  1  0.38244000  0.94639000  0.62632000  1.0
  C  C121  1  0.61752000  0.05361000  0.37372000  1.0
  C  C122  1  0.35700000  0.84860000  0.67574000  1.0
  C  C123  1  0.64298000  0.15138000  0.32428000  1.0
  C  C124  1  0.43220000  0.74866000  0.62885000  1.0
  C  C125  1  0.56780000  0.25133000  0.37116000  1.0
  C  C126  1  0.39224000  0.64818000  0.68401000  1.0
  C  C127  1  0.60776000  0.35180000  0.31599000  1.0
  N  N128  1  0.94175000  0.30895000  0.68033000  1.0
  N  N129  1  0.05826000  0.69106000  0.31965000  1.0
  N  N130  1  0.74668000  0.31601000  0.61801000  1.0
  N  N131  1  0.25332000  0.68398000  0.38197000  1.0
  N  N132  1  0.68938000  0.18086000  0.73343000  1.0
  N  N133  1  0.31061000  0.81914000  0.26656000  1.0
  N  N134  1  0.92899000  0.56397000  0.13160000  1.0
  N  N135  1  0.07102000  0.43604000  0.86841000  1.0
  N  N136  1  0.68475000  0.61138000  0.13039000  1.0
  N  N137  1  0.31525000  0.38862000  0.86962000  1.0
  N  N138  1  0.71530000  0.71189000  0.97432000  1.0
  N  N139  1  0.28471000  0.28811000  0.02569000  1.0
  O  O140  1  0.91157000  0.31151000  0.25575000  1.0
  O  O141  1  0.08843000  0.68848000  0.74424000  1.0
  O  O142  1  0.89858000  0.42276000  0.36703000  1.0
  O  O143  1  0.10141000  0.57722000  0.63297000  1.0
  O  O144  1  0.09611000  0.40348000  0.46116000  1.0
  O  O145  1  0.90390000  0.59652000  0.53880000  1.0
  O  O146  1  0.23308000  0.35508000  0.29291000  1.0
  O  O147  1  0.76696000  0.64488000  0.70707000  1.0
  O  O148  1  0.66637000  0.65463000  0.37118000  1.0
  O  O149  1  0.33368000  0.34537000  0.62884000  1.0
  O  O150  1  0.65958000  0.56195000  0.53496000  1.0
  O  O151  1  0.34040000  0.43806000  0.46508000  1.0
  O  O152  1  0.37816000  0.59426000  0.62274000  1.0
  O  O153  1  0.62186000  0.40574000  0.37723000  1.0
  O  O154  1  0.36646000  0.62800000  0.78391000  1.0
  O  O155  1  0.63352000  0.37197000  0.21609000  1.0
