# generated using pymatgen
data_Cu3H18C8S2(N2O)6
_symmetry_space_group_name_H-M   'P 1'
_cell_length_a   8.35596000
_cell_length_b   8.55152000
_cell_length_c   9.42926000
_cell_angle_alpha   90.36070000
_cell_angle_beta   112.24600000
_cell_angle_gamma   115.86400000
_symmetry_Int_Tables_number   1
_chemical_formula_structural   Cu3H18C8S2(N2O)6
_chemical_formula_sum   'Cu3 H18 C8 S2 N12 O6'
_cell_volume   549.14115821
_cell_formula_units_Z   1
loop_
 _symmetry_equiv_pos_site_id
 _symmetry_equiv_pos_as_xyz
  1  'x, y, z'
loop_
 _atom_site_type_symbol
 _atom_site_label
 _atom_site_symmetry_multiplicity
 _atom_site_fract_x
 _atom_site_fract_y
 _atom_site_fract_z
 _atom_site_occupancy
  Cu  Cu0  1  0.18201000  0.18704000  0.06182000  1.0
  Cu  Cu1  1  0.81814000  0.81317000  0.93844000  1.0
  Cu  Cu2  1  0.50006000  0.50019000  0.99980000  1.0
  H  H3  1  0.91157000  0.19508000  0.20998000  1.0
  H  H4  1  0.08777000  0.80378000  0.78949000  1.0
  H  H5  1  0.82538000  0.19810000  0.35708000  1.0
  H  H6  1  0.17435000  0.80170000  0.64247000  1.0
  H  H7  1  0.66875000  0.17241000  0.15239000  1.0
  H  H8  1  0.33067000  0.82660000  0.84705000  1.0
  H  H9  1  0.38699000  0.91369000  0.15879000  1.0
  H  H10  1  0.61255000  0.08574000  0.84141000  1.0
  H  H11  1  0.51738000  0.91773000  0.36329000  1.0
  H  H12  1  0.48243000  0.08254000  0.63710000  1.0
  H  H13  1  0.38580000  0.71351000  0.22022000  1.0
  H  H14  1  0.61393000  0.28629000  0.78075000  1.0
  H  H15  1  0.29802000  0.42206000  0.45757000  1.0
  H  H16  1  0.70319000  0.57942000  0.54196000  1.0
  H  H17  1  0.33081000  0.64256000  0.45830000  1.0
  H  H18  1  0.67002000  0.35880000  0.54182000  1.0
  H  H19  1  0.14219000  0.48044000  0.50433000  1.0
  H  H20  1  0.85846000  0.52022000  0.49510000  1.0
  C  C21  1  0.78193000  0.14382000  0.23491000  1.0
  C  C22  1  0.21754000  0.85538000  0.76473000  1.0
  C  C23  1  0.47070000  0.85846000  0.24185000  1.0
  C  C24  1  0.52896000  0.14129000  0.75867000  1.0
  C  C25  1  0.29246000  0.53009000  0.51604000  1.0
  C  C26  1  0.70837000  0.47096000  0.48373000  1.0
  C  C27  1  0.43282000  0.58052000  0.68652000  1.0
  C  C28  1  0.56765000  0.42003000  0.31329000  1.0
  S  S29  1  0.68706000  0.90804000  0.21373000  1.0
  S  S30  1  0.31244000  0.09125000  0.78665000  1.0
  N  N31  1  0.92970000  0.04799000  0.87207000  1.0
  N  N32  1  0.06986000  0.95255000  0.12856000  1.0
  N  N33  1  0.87851000  0.06922000  0.73800000  1.0
  N  N34  1  0.12152000  0.93089000  0.26246000  1.0
  N  N35  1  0.82453000  0.08782000  0.60973000  1.0
  N  N36  1  0.17581000  0.91192000  0.39062000  1.0
  N  N37  1  0.24428000  0.42723000  0.01457000  1.0
  N  N38  1  0.75587000  0.57276000  0.98509000  1.0
  N  N39  1  0.11725000  0.45173000  0.91604000  1.0
  N  N40  1  0.88268000  0.54805000  0.08369000  1.0
  N  N41  1  0.99774000  0.48012000  0.82707000  1.0
  N  N42  1  0.00191000  0.51937000  0.17267000  1.0
  O  O43  1  0.60321000  0.71305000  0.72697000  1.0
  O  O44  1  0.39730000  0.28760000  0.27319000  1.0
  O  O45  1  0.36859000  0.48539000  0.77555000  1.0
  O  O46  1  0.63164000  0.51474000  0.22397000  1.0
  O  O47  1  0.60989000  0.83557000  0.03816000  1.0
  O  O48  1  0.38933000  0.16308000  0.96230000  1.0
