# generated using pymatgen
data_CuH20C22N4O7
_symmetry_space_group_name_H-M   'P 1'
_cell_length_a   8.81058000
_cell_length_b   11.35310000
_cell_length_c   11.35290000
_cell_angle_alpha   89.38670000
_cell_angle_beta   88.58440000
_cell_angle_gamma   88.58640000
_symmetry_Int_Tables_number   1
_chemical_formula_structural   CuH20C22N4O7
_chemical_formula_sum   'Cu2 H40 C44 N8 O14'
_cell_volume   1134.85104167
_cell_formula_units_Z   2
loop_
 _symmetry_equiv_pos_site_id
 _symmetry_equiv_pos_as_xyz
  1  'x, y, z'
loop_
 _atom_site_type_symbol
 _atom_site_label
 _atom_site_symmetry_multiplicity
 _atom_site_fract_x
 _atom_site_fract_y
 _atom_site_fract_z
 _atom_site_occupancy
  Cu  Cu0  1  0.09955000  0.39363000  0.83621000  1.0
  Cu  Cu1  1  0.59954000  0.83621000  0.39363000  1.0
  H  H2  1  0.33232000  0.11422000  0.70491000  1.0
  H  H3  1  0.83230000  0.70493000  0.11424000  1.0
  H  H4  1  0.41893000  0.74290000  0.73991000  1.0
  H  H5  1  0.91891000  0.73992000  0.74290000  1.0
  H  H6  1  0.27059000  0.74158000  0.93151000  1.0
  H  H7  1  0.77058000  0.93150000  0.74158000  1.0
  H  H8  1  0.15973000  0.93037000  0.00937000  1.0
  H  H9  1  0.65971000  0.00936000  0.93038000  1.0
  H  H10  1  0.86993000  0.41280000  0.65790000  1.0
  H  H11  1  0.36994000  0.65791000  0.41279000  1.0
  H  H12  1  0.41057000  0.39232000  0.42535000  1.0
  H  H13  1  0.91057000  0.42536000  0.39232000  1.0
  H  H14  1  0.34186000  0.24606000  0.42261000  1.0
  H  H15  1  0.84187000  0.42261000  0.24605000  1.0
  H  H16  1  0.65982000  0.31506000  0.33455000  1.0
  H  H17  1  0.15982000  0.33455000  0.31507000  1.0
  H  H18  1  0.57307000  0.17666000  0.31141000  1.0
  H  H19  1  0.07308000  0.31141000  0.17666000  1.0
  H  H20  1  0.67635000  0.55856000  0.01190000  1.0
  H  H21  1  0.17634000  0.01189000  0.55857000  1.0
  H  H22  1  0.60209000  0.60782000  0.80339000  1.0
  H  H23  1  0.10208000  0.80339000  0.60782000  1.0
  H  H24  1  0.47977000  0.22318000  0.78679000  1.0
  H  H25  1  0.97980000  0.78679000  0.22316000  1.0
  H  H26  1  0.62172000  0.18316000  0.97403000  1.0
  H  H27  1  0.12175000  0.97402000  0.18316000  1.0
  H  H28  1  0.88848000  0.25256000  0.98687000  1.0
  H  H29  1  0.38850000  0.98686000  0.25258000  1.0
  H  H30  1  0.26211000  0.36486000  0.04975000  1.0
  H  H31  1  0.76211000  0.04973000  0.36487000  1.0
  H  H32  1  0.35333000  0.53265000  0.73234000  1.0
  H  H33  1  0.85331000  0.73235000  0.53265000  1.0
  H  H34  1  0.51824000  0.18443000  0.56298000  1.0
  H  H35  1  0.01824000  0.56298000  0.18442000  1.0
  H  H36  1  0.44284000  0.25833000  0.15503000  1.0
  H  H37  1  0.94284000  0.15504000  0.25833000  1.0
  H  H38  1  0.15640000  0.33347000  0.59825000  1.0
  H  H39  1  0.65641000  0.59826000  0.33346000  1.0
  H  H40  1  0.14200000  0.46839000  0.58051000  1.0
  H  H41  1  0.64200000  0.58052000  0.46840000  1.0
  C  C42  1  0.18029000  0.15051000  0.91095000  1.0
  C  C43  1  0.68027000  0.91095000  0.15054000  1.0
  C  C44  1  0.24439000  0.03502000  0.86483000  1.0
  C  C45  1  0.74436000  0.86483000  0.03504000  1.0
  C  C46  1  0.32417000  0.03338000  0.75674000  1.0
  C  C47  1  0.82414000  0.75676000  0.03340000  1.0
  C  C48  1  0.38900000  0.92900000  0.71281000  1.0
  C  C49  1  0.88898000  0.71283000  0.92901000  1.0
  C  C50  1  0.47333000  0.93055000  0.59633000  1.0
  C  C51  1  0.97331000  0.59638000  0.93057000  1.0
  C  C52  1  0.36954000  0.82369000  0.77639000  1.0
  C  C53  1  0.86952000  0.77639000  0.82369000  1.0
  C  C54  1  0.28726000  0.82384000  0.88285000  1.0
  C  C55  1  0.78724000  0.88285000  0.82384000  1.0
  C  C56  1  0.22543000  0.92926000  0.92715000  1.0
  C  C57  1  0.72542000  0.92714000  0.92927000  1.0
  C  C58  1  0.81219000  0.35873000  0.72415000  1.0
  C  C59  1  0.31218000  0.72416000  0.35873000  1.0
  C  C60  1  0.66654000  0.31746000  0.70613000  1.0
  C  C61  1  0.16655000  0.70613000  0.31745000  1.0
  C  C62  1  0.59158000  0.35458000  0.59426000  1.0
  C  C63  1  0.09159000  0.59428000  0.35456000  1.0
  C  C64  1  0.44429000  0.29859000  0.42576000  1.0
  C  C65  1  0.94429000  0.42577000  0.29859000  1.0
  C  C66  1  0.55184000  0.27191000  0.32020000  1.0
  C  C67  1  0.05184000  0.32020000  0.27192000  1.0
  C  C68  1  0.52735000  0.42450000  0.16662000  1.0
  C  C69  1  0.02736000  0.16660000  0.42452000  1.0
  C  C70  1  0.47723000  0.45634000  0.04566000  1.0
  C  C71  1  0.97723000  0.04566000  0.45634000  1.0
  C  C72  1  0.57128000  0.52789000  0.97576000  1.0
  C  C73  1  0.07127000  0.97575000  0.52790000  1.0
  C  C74  1  0.52936000  0.55578000  0.86157000  1.0
  C  C75  1  0.02935000  0.86157000  0.55577000  1.0
  C  C76  1  0.59554000  0.25268000  0.79620000  1.0
  C  C77  1  0.09555000  0.79620000  0.25266000  1.0
  C  C78  1  0.67308000  0.23124000  0.90020000  1.0
  C  C79  1  0.17310000  0.90020000  0.23124000  1.0
  C  C80  1  0.82023000  0.27126000  0.90976000  1.0
  C  C81  1  0.32024000  0.90977000  0.27127000  1.0
  C  C82  1  0.34168000  0.41925000  0.99965000  1.0
  C  C83  1  0.84168000  0.99964000  0.41925000  1.0
  C  C84  1  0.39189000  0.51511000  0.82143000  1.0
  C  C85  1  0.89189000  0.82144000  0.51511000  1.0
  N  N86  1  0.88779000  0.33414000  0.82273000  1.0
  N  N87  1  0.38780000  0.82273000  0.33414000  1.0
  N  N88  1  0.51788000  0.27170000  0.53608000  1.0
  N  N89  1  0.01789000  0.53607000  0.27168000  1.0
  N  N90  1  0.49338000  0.31578000  0.20863000  1.0
  N  N91  1  0.99336000  0.20865000  0.31579000  1.0
  N  N92  1  0.29999000  0.44973000  0.89022000  1.0
  N  N93  1  0.79998000  0.89021000  0.44973000  1.0
  O  O94  1  0.18249000  0.23277000  0.83116000  1.0
  O  O95  1  0.68249000  0.83116000  0.23277000  1.0
  O  O96  1  0.17165000  0.40787000  0.63901000  1.0
  O  O97  1  0.67162000  0.63902000  0.40786000  1.0
  O  O98  1  0.13405000  0.16064000  0.01601000  1.0
  O  O99  1  0.63402000  0.01601000  0.16066000  1.0
  O  O100  1  0.49595000  0.02660000  0.54245000  1.0
  O  O101  1  0.99594000  0.54249000  0.02660000  1.0
  O  O102  1  0.51564000  0.82847000  0.55678000  1.0
  O  O103  1  0.01564000  0.55676000  0.82848000  1.0
  O  O104  1  0.60140000  0.45945000  0.56082000  1.0
  O  O105  1  0.10141000  0.56083000  0.45945000  1.0
  O  O106  1  0.60286000  0.49490000  0.22289000  1.0
  O  O107  1  0.10287000  0.22287000  0.49492000  1.0
