# generated using pymatgen
data_CuH8(C3O4)2
_symmetry_space_group_name_H-M   'P 1'
_cell_length_a   6.90239000
_cell_length_b   8.11014000
_cell_length_c   15.12290000
_cell_angle_alpha   90.00010000
_cell_angle_beta   90.00010000
_cell_angle_gamma   84.59250000
_symmetry_Int_Tables_number   1
_chemical_formula_structural   CuH8(C3O4)2
_chemical_formula_sum   'Cu4 H32 C24 O32'
_cell_volume   842.80255656
_cell_formula_units_Z   4
loop_
 _symmetry_equiv_pos_site_id
 _symmetry_equiv_pos_as_xyz
  1  'x, y, z'
loop_
 _atom_site_type_symbol
 _atom_site_label
 _atom_site_symmetry_multiplicity
 _atom_site_fract_x
 _atom_site_fract_y
 _atom_site_fract_z
 _atom_site_occupancy
  Cu  Cu0  1  0.25222000  0.33273000  0.68151000  1.0
  Cu  Cu1  1  0.74778000  0.16726000  0.18151000  1.0
  Cu  Cu2  1  0.74778000  0.66727000  0.31849000  1.0
  Cu  Cu3  1  0.25222000  0.83273000  0.81849000  1.0
  H  H4  1  0.23049000  0.77905000  0.47306000  1.0
  H  H5  1  0.76952000  0.72094000  0.97306000  1.0
  H  H6  1  0.76951000  0.22095000  0.52694000  1.0
  H  H7  1  0.23049000  0.27906000  0.02694000  1.0
  H  H8  1  0.21929000  0.98279000  0.33083000  1.0
  H  H9  1  0.78071000  0.51720000  0.83083000  1.0
  H  H10  1  0.78070000  0.01721000  0.66917000  1.0
  H  H11  1  0.21929000  0.48280000  0.16917000  1.0
  H  H12  1  0.60544000  0.27256000  0.71944000  1.0
  H  H13  1  0.39456000  0.22744000  0.21944000  1.0
  H  H14  1  0.39456000  0.72744000  0.28056000  1.0
  H  H15  1  0.60544000  0.77256000  0.78056000  1.0
  H  H16  1  0.59520000  0.40514000  0.63660000  1.0
  H  H17  1  0.40480000  0.09487000  0.13660000  1.0
  H  H18  1  0.40480000  0.59487000  0.36340000  1.0
  H  H19  1  0.59519000  0.90513000  0.86340000  1.0
  H  H20  1  0.91950000  0.28102000  0.74554000  1.0
  H  H21  1  0.08050000  0.21898000  0.24554000  1.0
  H  H22  1  0.08050000  0.71898000  0.25446000  1.0
  H  H23  1  0.91950000  0.78102000  0.75446000  1.0
  H  H24  1  0.90923000  0.46279000  0.70030000  1.0
  H  H25  1  0.09077000  0.03720000  0.20030000  1.0
  H  H26  1  0.09077000  0.53720000  0.29970000  1.0
  H  H27  1  0.90923000  0.96279000  0.79970000  1.0
  H  H28  1  0.26539000  0.49955000  0.53775000  1.0
  H  H29  1  0.73461000  0.00045000  0.03775000  1.0
  H  H30  1  0.73461000  0.50045000  0.46225000  1.0
  H  H31  1  0.26539000  0.99955000  0.96225000  1.0
  H  H32  1  0.25417000  0.63510000  0.61779000  1.0
  H  H33  1  0.74583000  0.86490000  0.11779000  1.0
  H  H34  1  0.74583000  0.36490000  0.38221000  1.0
  H  H35  1  0.25416000  0.13509000  0.88221000  1.0
  C  C36  1  0.27233000  0.96951000  0.64156000  1.0
  C  C37  1  0.72767000  0.53050000  0.14155000  1.0
  C  C38  1  0.72767000  0.03049000  0.35844000  1.0
  C  C39  1  0.27233000  0.46950000  0.85845000  1.0
  C  C40  1  0.26090000  0.00928000  0.54678000  1.0
  C  C41  1  0.73909000  0.49072000  0.04678000  1.0
  C  C42  1  0.73910000  0.99072000  0.45322000  1.0
  C  C43  1  0.26090000  0.50928000  0.95322000  1.0
  C  C44  1  0.24004000  0.91149000  0.47365000  1.0
  C  C45  1  0.75997000  0.58850000  0.97365000  1.0
  C  C46  1  0.75997000  0.08851000  0.52635000  1.0
  C  C47  1  0.24004000  0.41150000  0.02635000  1.0
  C  C48  1  0.23094000  0.01843000  0.39947000  1.0
  C  C49  1  0.76906000  0.48157000  0.89946000  1.0
  C  C50  1  0.76906000  0.98157000  0.60054000  1.0
  C  C51  1  0.23094000  0.51844000  0.10054000  1.0
  C  C52  1  0.24850000  0.17573000  0.43102000  1.0
  C  C53  1  0.75149000  0.32427000  0.93102000  1.0
  C  C54  1  0.75149000  0.82427000  0.56898000  1.0
  C  C55  1  0.24851000  0.67573000  0.06898000  1.0
  C  C56  1  0.26501000  0.33383000  0.38567000  1.0
  C  C57  1  0.73499000  0.16617000  0.88566000  1.0
  C  C58  1  0.73499000  0.66617000  0.61433000  1.0
  C  C59  1  0.26501000  0.83384000  0.11433000  1.0
  O  O60  1  0.29191000  0.81752000  0.66346000  1.0
  O  O61  1  0.70810000  0.68247000  0.16346000  1.0
  O  O62  1  0.70809000  0.18248000  0.33654000  1.0
  O  O63  1  0.29190000  0.31753000  0.83655000  1.0
  O  O64  1  0.26070000  0.08373000  0.70017000  1.0
  O  O65  1  0.73930000  0.41627000  0.20017000  1.0
  O  O66  1  0.73930000  0.91627000  0.29983000  1.0
  O  O67  1  0.26071000  0.58373000  0.79983000  1.0
  O  O68  1  0.26658000  0.17130000  0.52141000  1.0
  O  O69  1  0.73341000  0.32870000  0.02142000  1.0
  O  O70  1  0.73342000  0.82870000  0.47858000  1.0
  O  O71  1  0.26658000  0.67130000  0.97859000  1.0
  O  O72  1  0.32241000  0.45507000  0.42804000  1.0
  O  O73  1  0.67759000  0.04493000  0.92804000  1.0
  O  O74  1  0.67759000  0.54493000  0.57195000  1.0
  O  O75  1  0.32241000  0.95507000  0.07196000  1.0
  O  O76  1  0.22150000  0.34045000  0.30261000  1.0
  O  O77  1  0.77850000  0.15955000  0.80261000  1.0
  O  O78  1  0.77849000  0.65955000  0.69739000  1.0
  O  O79  1  0.22150000  0.84045000  0.19739000  1.0
  O  O80  1  0.53246000  0.31192000  0.66634000  1.0
  O  O81  1  0.46754000  0.18809000  0.16634000  1.0
  O  O82  1  0.46754000  0.68809000  0.33366000  1.0
  O  O83  1  0.53246000  0.81191000  0.83366000  1.0
  O  O84  1  0.97096000  0.34689000  0.69626000  1.0
  O  O85  1  0.02904000  0.15311000  0.19626000  1.0
  O  O86  1  0.02904000  0.65311000  0.30374000  1.0
  O  O87  1  0.97096000  0.84689000  0.80374000  1.0
  O  O88  1  0.21008000  0.52744000  0.59737000  1.0
  O  O89  1  0.78992000  0.97256000  0.09737000  1.0
  O  O90  1  0.78992000  0.47257000  0.40263000  1.0
  O  O91  1  0.21007000  0.02743000  0.90263000  1.0
