# generated using pymatgen
data_CdH32C44S2(NO)8
_symmetry_space_group_name_H-M   'P 1'
_cell_length_a   8.41991000
_cell_length_b   8.42001000
_cell_length_c   15.27186213
_cell_angle_alpha   74.34044671
_cell_angle_beta   74.34882892
_cell_angle_gamma   91.20980000
_symmetry_Int_Tables_number   1
_chemical_formula_structural   CdH32C44S2(NO)8
_chemical_formula_sum   'Cd1 H32 C44 S2 N8 O8'
_cell_volume   998.70269327
_cell_formula_units_Z   1
loop_
 _symmetry_equiv_pos_site_id
 _symmetry_equiv_pos_as_xyz
  1  'x, y, z'
loop_
 _atom_site_type_symbol
 _atom_site_label
 _atom_site_symmetry_multiplicity
 _atom_site_fract_x
 _atom_site_fract_y
 _atom_site_fract_z
 _atom_site_occupancy
  Cd  Cd0  1  0.00013000  0.00013000  0.00000000  1.0
  H  H1  1  0.59092000  0.01078000  0.14301000  1.0
  H  H2  1  0.26595000  0.84644000  0.14305000  1.0
  H  H3  1  0.98948000  0.40900000  0.85695000  1.0
  H  H4  1  0.15379000  0.73393000  0.85699000  1.0
  H  H5  1  0.87553000  0.60643000  0.14142000  1.0
  H  H6  1  0.98261000  0.25206000  0.14176000  1.0
  H  H7  1  0.39382000  0.12436000  0.85824000  1.0
  H  H8  1  0.74785000  0.01696000  0.85858000  1.0
  H  H9  1  0.41504000  0.73524000  0.28829000  1.0
  H  H10  1  0.29594000  0.97592000  0.28873000  1.0
  H  H11  1  0.26465000  0.58466000  0.71127000  1.0
  H  H12  1  0.02352000  0.70332000  0.71172000  1.0
  H  H13  1  0.47239000  0.54663000  0.41507000  1.0
  H  H14  1  0.11219000  0.03805000  0.41558000  1.0
  H  H15  1  0.45362000  0.52776000  0.58442000  1.0
  H  H16  1  0.96170000  0.88746000  0.58493000  1.0
  H  H17  1  0.39245000  0.26395000  0.52672000  1.0
  H  H18  1  0.08120000  0.20947000  0.52700000  1.0
  H  H19  1  0.73647000  0.60819000  0.47300000  1.0
  H  H20  1  0.79067000  0.91916000  0.47328000  1.0
  H  H21  1  0.63162000  0.05412000  0.30175000  1.0
  H  H22  1  0.06677000  0.64396000  0.30182000  1.0
  H  H23  1  0.94579000  0.36859000  0.69817000  1.0
  H  H24  1  0.35586000  0.93337000  0.69825000  1.0
  H  H25  1  0.70361000  0.33695000  0.18752000  1.0
  H  H26  1  0.10841000  0.47500000  0.18785000  1.0
  H  H27  1  0.66286000  0.29626000  0.81215000  1.0
  H  H28  1  0.52447000  0.89113000  0.81248000  1.0
  H  H29  1  0.42260000  0.21464000  0.99823000  1.0
  H  H30  1  0.57925000  0.78729000  0.99846000  1.0
  H  H31  1  0.78575000  0.57770000  0.00155000  1.0
  H  H32  1  0.21286000  0.42083000  0.00177000  1.0
  C  C33  1  0.62397000  0.88571000  0.16513000  1.0
  C  C34  1  0.21066000  0.94921000  0.16530000  1.0
  C  C35  1  0.11451000  0.37596000  0.83470000  1.0
  C  C36  1  0.05085000  0.78910000  0.83487000  1.0
  C  C37  1  0.77416000  0.67930000  0.16048000  1.0
  C  C38  1  0.06493000  0.16012000  0.16081000  1.0
  C  C39  1  0.32093000  0.22573000  0.83920000  1.0
  C  C40  1  0.83978000  0.93464000  0.83952000  1.0
  C  C41  1  0.53511000  0.75178000  0.23650000  1.0
  C  C42  1  0.22784000  0.01140000  0.23686000  1.0
  C  C43  1  0.24826000  0.46469000  0.76315000  1.0
  C  C44  1  0.98828000  0.77162000  0.76350000  1.0
  C  C45  1  0.59214000  0.45818000  0.29536000  1.0
  C  C46  1  0.11194000  0.24605000  0.29579000  1.0
  C  C47  1  0.54184000  0.40772000  0.70421000  1.0
  C  C48  1  0.75354000  0.88751000  0.70463000  1.0
  C  C49  1  0.50562000  0.43842000  0.39051000  1.0
  C  C50  1  0.10356000  0.17084000  0.39093000  1.0
  C  C51  1  0.56177000  0.49448000  0.60907000  1.0
  C  C52  1  0.82894000  0.89613000  0.60949000  1.0
  C  C53  1  0.46228000  0.28024000  0.45305000  1.0
  C  C54  1  0.08476000  0.26667000  0.45335000  1.0
  C  C55  1  0.72002000  0.53810000  0.54665000  1.0
  C  C56  1  0.73329000  0.91534000  0.54695000  1.0
  C  C57  1  0.50746000  0.14358000  0.41996000  1.0
  C  C58  1  0.07279000  0.43646000  0.42013000  1.0
  C  C59  1  0.85660000  0.49292000  0.57987000  1.0
  C  C60  1  0.56354000  0.92742000  0.58004000  1.0
  C  C61  1  0.59771000  0.16280000  0.32572000  1.0
  C  C62  1  0.07651000  0.51127000  0.32591000  1.0
  C  C63  1  0.83719000  0.40242000  0.67409000  1.0
  C  C64  1  0.48852000  0.92343000  0.67428000  1.0
  C  C65  1  0.63926000  0.32145000  0.26227000  1.0
  C  C66  1  0.09802000  0.41587000  0.26260000  1.0
  C  C67  1  0.67848000  0.36062000  0.73740000  1.0
  C  C68  1  0.58373000  0.90152000  0.73773000  1.0
  C  C69  1  0.74198000  0.25834000  0.99981000  1.0
  C  C70  1  0.25815000  0.74180000  0.00018000  1.0
  C  C71  1  0.61698000  0.38340000  0.99985000  1.0
  C  C72  1  0.38325000  0.61683000  0.00015000  1.0
  C  C73  1  0.45582000  0.34000000  0.99898000  1.0
  C  C74  1  0.54535000  0.66120000  0.99914000  1.0
  C  C75  1  0.66033000  0.54449000  0.00086000  1.0
  C  C76  1  0.33897000  0.45481000  0.00102000  1.0
  S  S77  1  0.44237000  0.94238000  0.50000000  1.0
  S  S78  1  0.05792000  0.55791000  0.50000000  1.0
  N  N79  1  0.77259000  0.83891000  0.11914000  1.0
  N  N80  1  0.10811000  0.04213000  0.11930000  1.0
  N  N81  1  0.16143000  0.22740000  0.88070000  1.0
  N  N82  1  0.95805000  0.89173000  0.88086000  1.0
  N  N83  1  0.63153000  0.62062000  0.23279000  1.0
  N  N84  1  0.13501000  0.14618000  0.23324000  1.0
  N  N85  1  0.37942000  0.36824000  0.76676000  1.0
  N  N86  1  0.85341000  0.86432000  0.76721000  1.0
  O  O87  1  0.27005000  0.93747000  0.55357000  1.0
  O  O88  1  0.17647000  0.50931000  0.55374000  1.0
  O  O89  1  0.06307000  0.73019000  0.44626000  1.0
  O  O90  1  0.49103000  0.82362000  0.44643000  1.0
  O  O91  1  0.83995000  0.25707000  0.05047000  1.0
  O  O92  1  0.10958000  0.69230000  0.05082000  1.0
  O  O93  1  0.74312000  0.16040000  0.94918000  1.0
  O  O94  1  0.30754000  0.89042000  0.94953000  1.0
