# generated using pymatgen
data_ZnH7C11N4F
_symmetry_space_group_name_H-M   'P 1'
_cell_length_a   13.00580000
_cell_length_b   13.01140000
_cell_length_c   13.44700642
_cell_angle_alpha   112.15914265
_cell_angle_beta   112.03879046
_cell_angle_gamma   74.89700000
_symmetry_Int_Tables_number   1
_chemical_formula_structural   ZnH7C11N4F
_chemical_formula_sum   'Zn4 H28 C44 N16 F4'
_cell_volume   1934.61845990
_cell_formula_units_Z   4
loop_
 _symmetry_equiv_pos_site_id
 _symmetry_equiv_pos_as_xyz
  1  'x, y, z'
loop_
 _atom_site_type_symbol
 _atom_site_label
 _atom_site_symmetry_multiplicity
 _atom_site_fract_x
 _atom_site_fract_y
 _atom_site_fract_z
 _atom_site_occupancy
  Zn  Zn0  1  0.65536000  0.34455000  0.99990000  1.0
  Zn  Zn1  1  0.37281000  0.62690000  0.99975000  1.0
  Zn  Zn2  1  0.49594000  0.46988000  0.16436000  1.0
  Zn  Zn3  1  0.53019000  0.50402000  0.83544000  1.0
  H  H4  1  0.72532000  0.09964000  0.04102000  1.0
  H  H5  1  0.94017000  0.81977000  0.72251000  1.0
  H  H6  1  0.18107000  0.06001000  0.27720000  1.0
  H  H7  1  0.35528000  0.21569000  0.43922000  1.0
  H  H8  1  0.78466000  0.64505000  0.56157000  1.0
  H  H9  1  0.21356000  0.23875000  0.44084000  1.0
  H  H10  1  0.76141000  0.78652000  0.55943000  1.0
  H  H11  1  0.89997000  0.27472000  0.95867000  1.0
  H  H12  1  0.97232000  0.45514000  0.80794000  1.0
  H  H13  1  0.54458000  0.02809000  0.19223000  1.0
  H  H14  1  0.07926000  0.29469000  0.95110000  1.0
  H  H15  1  0.70581000  0.92048000  0.04949000  1.0
  H  H16  1  0.14819000  0.71680000  0.82109000  1.0
  H  H17  1  0.28279000  0.85156000  0.17848000  1.0
  H  H18  1  0.34831000  0.34410000  0.64292000  1.0
  H  H19  1  0.65614000  0.65175000  0.35747000  1.0
  H  H20  1  0.15776000  0.50493000  0.83499000  1.0
  H  H21  1  0.49429000  0.84247000  0.16488000  1.0
  H  H22  1  0.50952000  0.13914000  0.86507000  1.0
  H  H23  1  0.86123000  0.49008000  0.13479000  1.0
  H  H24  1  0.35043000  0.55947000  0.59642000  1.0
  H  H25  1  0.44018000  0.65005000  0.40318000  1.0
  H  H26  1  0.50732000  0.25814000  0.24950000  1.0
  H  H27  1  0.39900000  0.81432000  0.55704000  1.0
  H  H28  1  0.74223000  0.49259000  0.75072000  1.0
  H  H29  1  0.41892000  0.98395000  0.71645000  1.0
  H  H30  1  0.01639000  0.58014000  0.28333000  1.0
  H  H31  1  0.18597000  0.59986000  0.44250000  1.0
  C  C32  1  0.67284000  0.15568000  0.09188000  1.0
  C  C33  1  0.61403000  0.81768000  0.06919000  1.0
  C  C34  1  0.18234000  0.38600000  0.93121000  1.0
  C  C35  1  0.40519000  0.19939000  0.71462000  1.0
  C  C36  1  0.80089000  0.59454000  0.28551000  1.0
  C  C37  1  0.32449000  0.09989000  0.50824000  1.0
  C  C38  1  0.90039000  0.67524000  0.49194000  1.0
  C  C39  1  0.84412000  0.32711000  0.90785000  1.0
  C  C40  1  0.36752000  0.10058000  0.62069000  1.0
  C  C41  1  0.89971000  0.63207000  0.37939000  1.0
  C  C42  1  0.38847000  0.99233000  0.63202000  1.0
  C  C43  1  0.00797000  0.61085000  0.36784000  1.0
  C  C44  1  0.37736000  0.89425000  0.54002000  1.0
  C  C45  1  0.10603000  0.62182000  0.45969000  1.0
  C  C46  1  0.34356000  0.89415000  0.42693000  1.0
  C  C47  1  0.10611000  0.65596000  0.57288000  1.0
  C  C48  1  0.31261000  0.00192000  0.41657000  1.0
  C  C49  1  0.99833000  0.68717000  0.58347000  1.0
  C  C50  1  0.26828000  0.06594000  0.33216000  1.0
  C  C51  1  0.93419000  0.73233000  0.66805000  1.0
  C  C52  1  0.21350000  0.67729000  0.78130000  1.0
  C  C53  1  0.32231000  0.78646000  0.21835000  1.0
  C  C54  1  0.28812000  0.17594000  0.43497000  1.0
  C  C55  1  0.20674000  0.64783000  0.66725000  1.0
  C  C56  1  0.82432000  0.71209000  0.56546000  1.0
  C  C57  1  0.97551000  0.39646000  0.85001000  1.0
  C  C58  1  0.60349000  0.02470000  0.15022000  1.0
  C  C59  1  0.07616000  0.35256000  0.90819000  1.0
  C  C60  1  0.64762000  0.92381000  0.09226000  1.0
  C  C61  1  0.35173000  0.79349000  0.33241000  1.0
  C  C62  1  0.28330000  0.36294000  0.01223000  1.0
  C  C63  1  0.63736000  0.71664000  0.98811000  1.0
  C  C64  1  0.39708000  0.30799000  0.71029000  1.0
  C  C65  1  0.69223000  0.60285000  0.28993000  1.0
  C  C66  1  0.20964000  0.46272000  0.89692000  1.0
  C  C67  1  0.53683000  0.79047000  0.10306000  1.0
  C  C68  1  0.47838000  0.20360000  0.82389000  1.0
  C  C69  1  0.79672000  0.52129000  0.17609000  1.0
  C  C70  1  0.31626000  0.59668000  0.66656000  1.0
  C  C71  1  0.40291000  0.68404000  0.33305000  1.0
  C  C72  1  0.56243000  0.23718000  0.19871000  1.0
  C  C73  1  0.76304000  0.43745000  0.80131000  1.0
  C  C74  1  0.61719000  0.13162000  0.15075000  1.0
  C  C75  1  0.86846000  0.38279000  0.84926000  1.0
  N  N76  1  0.65191000  0.26575000  0.10336000  1.0
  N  N77  1  0.58000000  0.63730000  0.97242000  1.0
  N  N78  1  0.36269000  0.42000000  0.02747000  1.0
  N  N79  1  0.46242000  0.36950000  0.80807000  1.0
  N  N80  1  0.63069000  0.53762000  0.19207000  1.0
  N  N81  1  0.31617000  0.48220000  0.95477000  1.0
  N  N82  1  0.51737000  0.68390000  0.04492000  1.0
  N  N83  1  0.73401000  0.34787000  0.89617000  1.0
  N  N84  1  0.51229000  0.30534000  0.87773000  1.0
  N  N85  1  0.69493000  0.48760000  0.12227000  1.0
  N  N86  1  0.38189000  0.59572000  0.77118000  1.0
  N  N87  1  0.40391000  0.61817000  0.22839000  1.0
  N  N88  1  0.58288000  0.31680000  0.17015000  1.0
  N  N89  1  0.68321000  0.41687000  0.82956000  1.0
  N  N90  1  0.31755000  0.64612000  0.84254000  1.0
  N  N91  1  0.35349000  0.68228000  0.15704000  1.0
  F  F92  1  0.33283000  0.04450000  0.25954000  1.0
  F  F93  1  0.95546000  0.66874000  0.74132000  1.0
  F  F94  1  0.30379000  0.29491000  0.07432000  1.0
  F  F95  1  0.70601000  0.69605000  0.92645000  1.0
