# generated using pymatgen
data_InH3C8(O3F2)2
_symmetry_space_group_name_H-M   'P 1'
_cell_length_a   11.17640000
_cell_length_b   11.17640000
_cell_length_c   14.37430000
_cell_angle_alpha   71.92960000
_cell_angle_beta   71.92970000
_cell_angle_gamma   85.56490000
_symmetry_Int_Tables_number   1
_chemical_formula_structural   InH3C8(O3F2)2
_chemical_formula_sum   'In4 H12 C32 O24 F16'
_cell_volume   1622.41201777
_cell_formula_units_Z   4
loop_
 _symmetry_equiv_pos_site_id
 _symmetry_equiv_pos_as_xyz
  1  'x, y, z'
loop_
 _atom_site_type_symbol
 _atom_site_label
 _atom_site_symmetry_multiplicity
 _atom_site_fract_x
 _atom_site_fract_y
 _atom_site_fract_z
 _atom_site_occupancy
  In  In0  1  0.00000000  0.00000000  0.50000000  1.0
  In  In1  1  0.00000000  0.00000000  0.00000000  1.0
  In  In2  1  0.93737000  0.06263000  0.25000000  1.0
  In  In3  1  0.06263000  0.93737000  0.75000000  1.0
  H  H4  1  0.85187000  0.90408000  0.43724000  1.0
  H  H5  1  0.09592000  0.14813000  0.06276000  1.0
  H  H6  1  0.14812000  0.09592000  0.56276000  1.0
  H  H7  1  0.90408000  0.85188000  0.93724000  1.0
  H  H8  1  0.96410000  0.24938000  0.32326000  1.0
  H  H9  1  0.75062000  0.03590000  0.17674000  1.0
  H  H10  1  0.03590000  0.75062000  0.67674000  1.0
  H  H11  1  0.24938000  0.96410000  0.82326000  1.0
  H  H12  1  0.97601000  0.31988000  0.20464000  1.0
  H  H13  1  0.68012000  0.02399000  0.29535000  1.0
  H  H14  1  0.02399000  0.68012000  0.79536000  1.0
  H  H15  1  0.31988000  0.97601000  0.70464000  1.0
  C  C16  1  0.08958000  0.28255000  0.43293000  1.0
  C  C17  1  0.71745000  0.91042000  0.06707000  1.0
  C  C18  1  0.91041000  0.71745000  0.56707000  1.0
  C  C19  1  0.28256000  0.08959000  0.93293000  1.0
  C  C20  1  0.06939000  0.41759000  0.37756000  1.0
  C  C21  1  0.58241000  0.93060000  0.12244000  1.0
  C  C22  1  0.93060000  0.58241000  0.62244000  1.0
  C  C23  1  0.41760000  0.06940000  0.87756000  1.0
  C  C24  1  0.94815000  0.46641000  0.39642000  1.0
  C  C25  1  0.53359000  0.05185000  0.10358000  1.0
  C  C26  1  0.05184000  0.53359000  0.60358000  1.0
  C  C27  1  0.46641000  0.94816000  0.89642000  1.0
  C  C28  1  0.92513000  0.58763000  0.34116000  1.0
  C  C29  1  0.41237000  0.07487000  0.15884000  1.0
  C  C30  1  0.07487000  0.41237000  0.65884000  1.0
  C  C31  1  0.58763000  0.92513000  0.84116000  1.0
  C  C32  1  0.02344000  0.66408000  0.26451000  1.0
  C  C33  1  0.33592000  0.97656000  0.23549000  1.0
  C  C34  1  0.97656000  0.33592000  0.73549000  1.0
  C  C35  1  0.66408000  0.02344000  0.76451000  1.0
  C  C36  1  0.14468000  0.61528000  0.24547000  1.0
  C  C37  1  0.38472000  0.85532000  0.25453000  1.0
  C  C38  1  0.85533000  0.38472000  0.75452000  1.0
  C  C39  1  0.61528000  0.14468000  0.74547000  1.0
  C  C40  1  0.16767000  0.49446000  0.30220000  1.0
  C  C41  1  0.50553000  0.83233000  0.19781000  1.0
  C  C42  1  0.83232000  0.50553000  0.69780000  1.0
  C  C43  1  0.49447000  0.16768000  0.80219000  1.0
  C  C44  1  0.99952000  0.79608000  0.20694000  1.0
  C  C45  1  0.20392000  0.00048000  0.29306000  1.0
  C  C46  1  0.00048000  0.20392000  0.79305000  1.0
  C  C47  1  0.79608000  0.99952000  0.70695000  1.0
  O  O48  1  0.02563000  0.20318000  0.41525000  1.0
  O  O49  1  0.79682000  0.97437000  0.08475000  1.0
  O  O50  1  0.97436000  0.79682000  0.58475000  1.0
  O  O51  1  0.20318000  0.02564000  0.91525000  1.0
  O  O52  1  0.15922000  0.25526000  0.48818000  1.0
  O  O53  1  0.74473000  0.84078000  0.01183000  1.0
  O  O54  1  0.84077000  0.74474000  0.51183000  1.0
  O  O55  1  0.25527000  0.15922000  0.98817000  1.0
  O  O56  1  0.04628000  0.82955000  0.11018000  1.0
  O  O57  1  0.17045000  0.95371000  0.38982000  1.0
  O  O58  1  0.95372000  0.17044000  0.88982000  1.0
  O  O59  1  0.82956000  0.04627000  0.61018000  1.0
  O  O60  1  0.93418000  0.86170000  0.26191000  1.0
  O  O61  1  0.13830000  0.06582000  0.23809000  1.0
  O  O62  1  0.06582000  0.13830000  0.73809000  1.0
  O  O63  1  0.86170000  0.93418000  0.76191000  1.0
  O  O64  1  0.87744000  0.99509000  0.41164000  1.0
  O  O65  1  0.00491000  0.12256000  0.08836000  1.0
  O  O66  1  0.12256000  0.00491000  0.58836000  1.0
  O  O67  1  0.99509000  0.87744000  0.91164000  1.0
  O  O68  1  0.92623000  0.25709000  0.26572000  1.0
  O  O69  1  0.74291000  0.07378000  0.23428000  1.0
  O  O70  1  0.07378000  0.74291000  0.73428000  1.0
  O  O71  1  0.25709000  0.92622000  0.76572000  1.0
  F  F72  1  0.85083000  0.39489000  0.46917000  1.0
  F  F73  1  0.60512000  0.14917000  0.03083000  1.0
  F  F74  1  0.14916000  0.60512000  0.53083000  1.0
  F  F75  1  0.39488000  0.85084000  0.96917000  1.0
  F  F76  1  0.80595000  0.62792000  0.35932000  1.0
  F  F77  1  0.37208000  0.19405000  0.14068000  1.0
  F  F78  1  0.19405000  0.37209000  0.64067000  1.0
  F  F79  1  0.62791000  0.80595000  0.85933000  1.0
  F  F80  1  0.24240000  0.68550000  0.17266000  1.0
  F  F81  1  0.31450000  0.75761000  0.32734000  1.0
  F  F82  1  0.75761000  0.31450000  0.82734000  1.0
  F  F83  1  0.68550000  0.24240000  0.67266000  1.0
  F  F84  1  0.28578000  0.45076000  0.28068000  1.0
  F  F85  1  0.54924000  0.71422000  0.21932000  1.0
  F  F86  1  0.71422000  0.54923000  0.71932000  1.0
  F  F87  1  0.45077000  0.28578000  0.78068000  1.0
