# generated using pymatgen
data_CdH14C12(N3O4)2
_symmetry_space_group_name_H-M   'P 1'
_cell_length_a   7.21411000
_cell_length_b   8.82094000
_cell_length_c   13.07610000
_cell_angle_alpha   89.99990000
_cell_angle_beta   89.99970000
_cell_angle_gamma   86.63520000
_symmetry_Int_Tables_number   1
_chemical_formula_structural   CdH14C12(N3O4)2
_chemical_formula_sum   'Cd2 H28 C24 N12 O16'
_cell_volume   830.66617081
_cell_formula_units_Z   2
loop_
 _symmetry_equiv_pos_site_id
 _symmetry_equiv_pos_as_xyz
  1  'x, y, z'
loop_
 _atom_site_type_symbol
 _atom_site_label
 _atom_site_symmetry_multiplicity
 _atom_site_fract_x
 _atom_site_fract_y
 _atom_site_fract_z
 _atom_site_occupancy
  Cd  Cd0  1  0.00001000  0.50000000  0.50001000  1.0
  Cd  Cd1  1  0.50000000  0.50000000  1.00000000  1.0
  H  H2  1  0.63618000  0.39152000  0.41126000  1.0
  H  H3  1  0.86384000  0.60848000  0.91125000  1.0
  H  H4  1  0.36384000  0.60849000  0.58876000  1.0
  H  H5  1  0.13618000  0.39151000  0.08875000  1.0
  H  H6  1  0.80064000  0.32727000  0.33909000  1.0
  H  H7  1  0.69936000  0.67273000  0.83908000  1.0
  H  H8  1  0.19936000  0.67273000  0.66093000  1.0
  H  H9  1  0.30065000  0.32727000  0.16092000  1.0
  H  H10  1  0.01442000  0.49929000  0.73867000  1.0
  H  H11  1  0.48557000  0.50071000  0.23867000  1.0
  H  H12  1  0.98557000  0.50071000  0.26134000  1.0
  H  H13  1  0.51443000  0.49929000  0.76133000  1.0
  H  H14  1  0.99416000  0.32438000  0.88801000  1.0
  H  H15  1  0.50583000  0.67561000  0.38800000  1.0
  H  H16  1  0.00582000  0.67561000  0.11201000  1.0
  H  H17  1  0.49417000  0.32440000  0.61200000  1.0
  H  H18  1  0.88594000  0.96586000  0.67394000  1.0
  H  H19  1  0.61407000  0.03413000  0.17394000  1.0
  H  H20  1  0.11407000  0.03413000  0.32606000  1.0
  H  H21  1  0.38592000  0.96587000  0.82605000  1.0
  H  H22  1  0.90681000  0.15783000  0.53299000  1.0
  H  H23  1  0.59321000  0.84216000  0.03298000  1.0
  H  H24  1  0.09321000  0.84217000  0.46702000  1.0
  H  H25  1  0.40678000  0.15783000  0.96700000  1.0
  H  H26  1  0.87558000  0.91281000  0.86415000  1.0
  H  H27  1  0.62441000  0.08719000  0.36414000  1.0
  H  H28  1  0.12441000  0.08719000  0.13585000  1.0
  H  H29  1  0.37558000  0.91282000  0.63585000  1.0
  C  C30  1  0.98721000  0.38017000  0.72782000  1.0
  C  C31  1  0.51278000  0.61983000  0.22781000  1.0
  C  C32  1  0.01278000  0.61982000  0.27219000  1.0
  C  C33  1  0.48721000  0.38018000  0.77218000  1.0
  C  C34  1  0.97578000  0.28315000  0.81046000  1.0
  C  C35  1  0.52421000  0.71684000  0.31046000  1.0
  C  C36  1  0.02420000  0.71684000  0.18954000  1.0
  C  C37  1  0.47579000  0.28317000  0.68954000  1.0
  C  C38  1  0.94065000  0.13056000  0.79254000  1.0
  C  C39  1  0.55935000  0.86944000  0.29254000  1.0
  C  C40  1  0.05934000  0.86944000  0.20746000  1.0
  C  C41  1  0.44065000  0.13056000  0.70745000  1.0
  C  C42  1  0.91457000  0.08322000  0.69135000  1.0
  C  C43  1  0.58543000  0.91678000  0.19134000  1.0
  C  C44  1  0.08543000  0.91678000  0.30866000  1.0
  C  C45  1  0.41457000  0.08322000  0.80864000  1.0
  C  C46  1  0.92821000  0.18822000  0.61265000  1.0
  C  C47  1  0.57180000  0.81177000  0.11264000  1.0
  C  C48  1  0.07180000  0.81178000  0.38736000  1.0
  C  C49  1  0.42819000  0.18822000  0.88735000  1.0
  C  C50  1  0.93476000  0.02297000  0.87696000  1.0
  C  C51  1  0.56523000  0.97703000  0.37696000  1.0
  C  C52  1  0.06522000  0.97702000  0.12303000  1.0
  C  C53  1  0.43477000  0.02298000  0.62303000  1.0
  N  N54  1  0.96512000  0.33379000  0.63041000  1.0
  N  N55  1  0.53488000  0.66620000  0.13040000  1.0
  N  N56  1  0.03488000  0.66621000  0.36960000  1.0
  N  N57  1  0.46512000  0.33379000  0.86959000  1.0
  N  N58  1  0.00562000  0.05761000  0.96432000  1.0
  N  N59  1  0.49437000  0.94239000  0.46431000  1.0
  N  N60  1  0.99436000  0.94238000  0.03569000  1.0
  N  N61  1  0.50563000  0.05762000  0.53568000  1.0
  N  N62  1  0.69098000  0.67803000  0.62895000  1.0
  N  N63  1  0.80903000  0.32198000  0.12895000  1.0
  N  N64  1  0.30903000  0.32198000  0.37106000  1.0
  N  N65  1  0.19098000  0.67803000  0.87105000  1.0
  O  O66  1  0.85242000  0.71326000  0.60226000  1.0
  O  O67  1  0.64760000  0.28674000  0.10226000  1.0
  O  O68  1  0.14760000  0.28674000  0.39774000  1.0
  O  O69  1  0.35242000  0.71326000  0.89774000  1.0
  O  O70  1  0.61663000  0.73436000  0.70892000  1.0
  O  O71  1  0.88337000  0.26565000  0.20892000  1.0
  O  O72  1  0.38337000  0.26566000  0.29108000  1.0
  O  O73  1  0.11663000  0.73435000  0.79108000  1.0
  O  O74  1  0.60623000  0.58496000  0.57455000  1.0
  O  O75  1  0.89378000  0.41506000  0.07455000  1.0
  O  O76  1  0.39377000  0.41506000  0.42545000  1.0
  O  O77  1  0.10623000  0.58495000  0.92545000  1.0
  O  O78  1  0.77232000  0.36923000  0.40730000  1.0
  O  O79  1  0.72769000  0.63075000  0.90728000  1.0
  O  O80  1  0.22770000  0.63076000  0.59272000  1.0
  O  O81  1  0.27232000  0.36923000  0.09271000  1.0
