# generated using pymatgen
data_CoH20C24S(N2O)4
_symmetry_space_group_name_H-M   'P 1'
_cell_length_a   10.19560000
_cell_length_b   14.15530000
_cell_length_c   20.54210000
_cell_angle_alpha   90.00110000
_cell_angle_beta   90.00140000
_cell_angle_gamma   81.64960000
_symmetry_Int_Tables_number   1
_chemical_formula_structural   CoH20C24S(N2O)4
_chemical_formula_sum   'Co4 H80 C96 S4 N32 O16'
_cell_volume   2933.24216777
_cell_formula_units_Z   4
loop_
 _symmetry_equiv_pos_site_id
 _symmetry_equiv_pos_as_xyz
  1  'x, y, z'
loop_
 _atom_site_type_symbol
 _atom_site_label
 _atom_site_symmetry_multiplicity
 _atom_site_fract_x
 _atom_site_fract_y
 _atom_site_fract_z
 _atom_site_occupancy
  Co  Co0  1  0.84962000  0.78573000  0.52170000  1.0
  Co  Co1  1  0.65037000  0.71426000  0.02170000  1.0
  Co  Co2  1  0.15038000  0.21428000  0.47831000  1.0
  Co  Co3  1  0.34965000  0.28574000  0.97831000  1.0
  H  H4  1  0.82329000  0.56490000  0.50462000  1.0
  H  H5  1  0.67671000  0.93510000  0.00462000  1.0
  H  H6  1  0.17664000  0.43510000  0.49536000  1.0
  H  H7  1  0.32335000  0.06490000  0.99537000  1.0
  H  H8  1  0.94658000  0.45509000  0.40632000  1.0
  H  H9  1  0.55341000  0.04492000  0.90632000  1.0
  H  H10  1  0.05336000  0.54493000  0.59367000  1.0
  H  H11  1  0.44661000  0.95509000  0.09368000  1.0
  H  H12  1  0.98065000  0.74779000  0.37353000  1.0
  H  H13  1  0.51937000  0.75221000  0.87353000  1.0
  H  H14  1  0.01940000  0.25221000  0.62649000  1.0
  H  H15  1  0.48062000  0.24780000  0.12648000  1.0
  H  H16  1  0.03906000  0.41536000  0.32418000  1.0
  H  H17  1  0.46096000  0.08465000  0.82418000  1.0
  H  H18  1  0.96095000  0.58465000  0.67582000  1.0
  H  H19  1  0.53903000  0.91536000  0.17581000  1.0
  H  H20  1  0.13824000  0.36827000  0.21882000  1.0
  H  H21  1  0.36177000  0.13174000  0.71882000  1.0
  H  H22  1  0.86175000  0.63174000  0.78118000  1.0
  H  H23  1  0.63823000  0.86827000  0.28118000  1.0
  H  H24  1  0.16317000  0.66385000  0.17368000  1.0
  H  H25  1  0.33684000  0.83616000  0.67367000  1.0
  H  H26  1  0.83683000  0.33615000  0.82632000  1.0
  H  H27  1  0.66318000  0.16384000  0.32633000  1.0
  H  H28  1  0.06344000  0.71142000  0.27867000  1.0
  H  H29  1  0.43658000  0.78859000  0.77865000  1.0
  H  H30  1  0.93656000  0.28858000  0.72133000  1.0
  H  H31  1  0.56346000  0.21143000  0.22134000  1.0
  H  H32  1  0.18448000  0.33600000  0.11922000  1.0
  H  H33  1  0.31557000  0.16401000  0.61921000  1.0
  H  H34  1  0.81557000  0.66399000  0.88079000  1.0
  H  H35  1  0.68440000  0.83600000  0.38079000  1.0
  H  H36  1  0.37379000  0.50565000  0.99129000  1.0
  H  H37  1  0.12616000  0.99438000  0.49130000  1.0
  H  H38  1  0.62620000  0.49434000  0.00870000  1.0
  H  H39  1  0.87383000  0.00564000  0.50871000  1.0
  H  H40  1  0.28282000  0.61690000  0.09653000  1.0
  H  H41  1  0.21714000  0.88314000  0.59653000  1.0
  H  H42  1  0.71715000  0.38311000  0.90346000  1.0
  H  H43  1  0.78287000  0.11687000  0.40347000  1.0
  H  H44  1  0.99417000  0.87699000  0.64655000  1.0
  H  H45  1  0.50581000  0.62299000  0.14656000  1.0
  H  H46  1  0.00583000  0.12302000  0.35344000  1.0
  H  H47  1  0.49419000  0.37696000  0.85341000  1.0
  H  H48  1  0.62394000  0.04053000  0.69427000  1.0
  H  H49  1  0.87604000  0.45944000  0.19425000  1.0
  H  H50  1  0.37606000  0.95949000  0.30573000  1.0
  H  H51  1  0.12395000  0.54051000  0.80574000  1.0
  H  H52  1  0.59563000  0.92857000  0.58470000  1.0
  H  H53  1  0.90435000  0.57143000  0.08470000  1.0
  H  H54  1  0.40436000  0.07145000  0.41531000  1.0
  H  H55  1  0.09568000  0.42855000  0.91531000  1.0
  H  H56  1  0.04493000  0.05616000  0.68181000  1.0
  H  H57  1  0.45507000  0.44382000  0.18181000  1.0
  H  H58  1  0.95507000  0.94387000  0.31819000  1.0
  H  H59  1  0.54492000  0.55612000  0.81818000  1.0
  H  H60  1  0.13854000  0.13746000  0.77396000  1.0
  H  H61  1  0.36143000  0.36256000  0.27397000  1.0
  H  H62  1  0.86144000  0.86256000  0.22604000  1.0
  H  H63  1  0.63856000  0.63742000  0.72603000  1.0
  H  H64  1  0.82555000  0.06661000  0.89899000  1.0
  H  H65  1  0.67446000  0.43340000  0.39899000  1.0
  H  H66  1  0.17445000  0.93339000  0.10101000  1.0
  H  H67  1  0.32553000  0.56661000  0.60099000  1.0
  H  H68  1  0.73484000  0.98524000  0.80689000  1.0
  H  H69  1  0.76517000  0.51475000  0.30688000  1.0
  H  H70  1  0.26516000  0.01478000  0.19311000  1.0
  H  H71  1  0.23484000  0.48521000  0.69309000  1.0
  H  H72  1  0.23761000  0.17308000  0.86033000  1.0
  H  H73  1  0.26241000  0.32690000  0.36032000  1.0
  H  H74  1  0.76240000  0.82690000  0.13969000  1.0
  H  H75  1  0.73759000  0.67307000  0.63968000  1.0
  H  H76  1  0.04494000  0.26477000  0.03502000  1.0
  H  H77  1  0.45505000  0.23527000  0.53503000  1.0
  H  H78  1  0.95505000  0.73523000  0.96499000  1.0
  H  H79  1  0.54494000  0.76475000  0.46499000  1.0
  H  H80  1  0.87414000  0.17089000  0.96309000  1.0
  H  H81  1  0.62585000  0.32917000  0.46310000  1.0
  H  H82  1  0.12586000  0.82913000  0.03692000  1.0
  H  H83  1  0.37412000  0.67085000  0.53690000  1.0
  C  C84  1  0.87145000  0.58729000  0.46152000  1.0
  C  C85  1  0.62855000  0.91270000  0.96153000  1.0
  C  C86  1  0.12851000  0.41271000  0.53846000  1.0
  C  C87  1  0.37149000  0.08730000  0.03847000  1.0
  C  C88  1  0.93052000  0.53201000  0.41231000  1.0
  C  C89  1  0.56948000  0.96799000  0.91231000  1.0
  C  C90  1  0.06944000  0.46800000  0.58768000  1.0
  C  C91  1  0.43054000  0.03202000  0.08769000  1.0
  C  C92  1  0.95048000  0.68434000  0.39478000  1.0
  C  C93  1  0.54953000  0.81566000  0.89478000  1.0
  C  C94  1  0.04954000  0.31566000  0.60522000  1.0
  C  C95  1  0.45048000  0.18436000  0.10523000  1.0
  C  C96  1  0.04242000  0.56729000  0.30910000  1.0
  C  C97  1  0.45758000  0.93271000  0.80908000  1.0
  C  C98  1  0.95756000  0.43271000  0.69091000  1.0
  C  C99  1  0.54242000  0.06730000  0.19091000  1.0
  C  C100  1  0.06487000  0.47060000  0.29143000  1.0
  C  C101  1  0.43515000  0.02940000  0.79143000  1.0
  C  C102  1  0.93513000  0.52940000  0.70858000  1.0
  C  C103  1  0.56486000  0.97060000  0.20858000  1.0
  C  C104  1  0.12132000  0.44389000  0.23132000  1.0
  C  C105  1  0.37869000  0.05612000  0.73132000  1.0
  C  C106  1  0.87867000  0.55611000  0.76868000  1.0
  C  C107  1  0.62132000  0.94389000  0.26868000  1.0
  C  C108  1  0.15569000  0.51258000  0.18796000  1.0
  C  C109  1  0.34432000  0.98743000  0.68796000  1.0
  C  C110  1  0.84431000  0.48742000  0.81204000  1.0
  C  C111  1  0.65569000  0.01257000  0.31204000  1.0
  C  C112  1  0.13485000  0.60907000  0.20598000  1.0
  C  C113  1  0.36516000  0.89094000  0.70597000  1.0
  C  C114  1  0.86514000  0.39093000  0.79402000  1.0
  C  C115  1  0.63487000  0.10906000  0.29403000  1.0
  C  C116  1  0.07883000  0.63588000  0.26615000  1.0
  C  C117  1  0.42119000  0.86412000  0.76614000  1.0
  C  C118  1  0.92117000  0.36412000  0.73385000  1.0
  C  C119  1  0.57884000  0.13588000  0.23386000  1.0
  C  C120  1  0.22368000  0.39630000  0.09832000  1.0
  C  C121  1  0.27635000  0.10371000  0.59832000  1.0
  C  C122  1  0.77633000  0.60369000  0.90168000  1.0
  C  C123  1  0.72365000  0.89630000  0.40169000  1.0
  C  C124  1  0.31949000  0.48675000  0.03345000  1.0
  C  C125  1  0.18049000  0.01328000  0.53345000  1.0
  C  C126  1  0.68050000  0.51325000  0.96654000  1.0
  C  C127  1  0.81950000  0.98674000  0.46655000  1.0
  C  C128  1  0.27385000  0.54298000  0.08521000  1.0
  C  C129  1  0.22612000  0.95705000  0.58520000  1.0
  C  C130  1  0.72613000  0.45702000  0.91479000  1.0
  C  C131  1  0.77388000  0.04297000  0.41479000  1.0
  C  C132  1  0.89016000  0.90723000  0.64299000  1.0
  C  C133  1  0.60983000  0.59275000  0.14298000  1.0
  C  C134  1  0.10984000  0.09278000  0.35701000  1.0
  C  C135  1  0.39017000  0.40721000  0.85699000  1.0
  C  C136  1  0.69435000  0.99038000  0.66766000  1.0
  C  C137  1  0.80564000  0.50959000  0.16765000  1.0
  C  C138  1  0.30566000  0.00963000  0.33234000  1.0
  C  C139  1  0.19436000  0.49036000  0.83233000  1.0
  C  C140  1  0.68262000  0.93480000  0.61388000  1.0
  C  C141  1  0.81736000  0.56519000  0.11387000  1.0
  C  C142  1  0.31737000  0.06521000  0.38613000  1.0
  C  C143  1  0.18265000  0.43478000  0.88613000  1.0
  C  C144  1  0.88417000  0.01599000  0.73889000  1.0
  C  C145  1  0.61583000  0.48400000  0.23888000  1.0
  C  C146  1  0.11583000  0.98403000  0.26112000  1.0
  C  C147  1  0.38416000  0.51596000  0.76110000  1.0
  C  C148  1  0.99877000  0.05780000  0.72975000  1.0
  C  C149  1  0.50122000  0.44220000  0.22974000  1.0
  C  C150  1  0.00123000  0.94222000  0.27025000  1.0
  C  C151  1  0.49876000  0.55776000  0.77024000  1.0
  C  C152  1  0.05081000  0.10345000  0.78174000  1.0
  C  C153  1  0.44918000  0.39655000  0.28174000  1.0
  C  C154  1  0.94918000  0.89657000  0.21827000  1.0
  C  C155  1  0.55081000  0.60342000  0.71826000  1.0
  C  C156  1  0.98926000  0.10700000  0.84285000  1.0
  C  C157  1  0.51074000  0.39301000  0.34285000  1.0
  C  C158  1  0.01075000  0.89301000  0.15716000  1.0
  C  C159  1  0.48925000  0.60698000  0.65714000  1.0
  C  C160  1  0.87562000  0.06375000  0.85201000  1.0
  C  C161  1  0.62440000  0.43626000  0.35200000  1.0
  C  C162  1  0.12439000  0.93626000  0.14800000  1.0
  C  C163  1  0.37559000  0.56373000  0.64799000  1.0
  C  C164  1  0.82353000  0.01868000  0.79995000  1.0
  C  C165  1  0.67648000  0.48132000  0.29994000  1.0
  C  C166  1  0.17647000  0.98133000  0.20006000  1.0
  C  C167  1  0.32351000  0.51866000  0.70005000  1.0
  C  C168  1  0.16209000  0.18649000  0.89754000  1.0
  C  C169  1  0.33792000  0.31352000  0.39753000  1.0
  C  C170  1  0.83792000  0.81351000  0.10248000  1.0
  C  C171  1  0.66208000  0.68647000  0.60247000  1.0
  C  C172  1  0.06011000  0.23134000  0.98764000  1.0
  C  C173  1  0.43988000  0.26870000  0.48764000  1.0
  C  C174  1  0.93989000  0.76866000  0.01237000  1.0
  C  C175  1  0.56011000  0.73132000  0.51237000  1.0
  C  C176  1  0.97481000  0.18421000  0.95292000  1.0
  C  C177  1  0.52518000  0.31583000  0.45293000  1.0
  C  C178  1  0.02519000  0.81579000  0.04709000  1.0
  C  C179  1  0.47480000  0.68419000  0.54708000  1.0
  S  S180  1  0.10019000  0.72299000  0.56748000  1.0
  S  S181  1  0.39980000  0.77700000  0.06748000  1.0
  S  S182  1  0.89980000  0.27701000  0.43252000  1.0
  S  S183  1  0.60022000  0.22301000  0.93252000  1.0
  N  N184  1  0.88454000  0.68180000  0.45031000  1.0
  N  N185  1  0.61547000  0.81820000  0.95032000  1.0
  N  N186  1  0.11546000  0.31820000  0.54969000  1.0
  N  N187  1  0.38456000  0.18180000  0.04969000  1.0
  N  N188  1  0.98048000  0.59418000  0.36941000  1.0
  N  N189  1  0.51954000  0.90581000  0.86940000  1.0
  N  N190  1  0.01952000  0.40581000  0.63059000  1.0
  N  N191  1  0.48047000  0.09421000  0.13059000  1.0
  N  N192  1  0.21273000  0.48504000  0.12666000  1.0
  N  N193  1  0.28728000  0.01499000  0.62665000  1.0
  N  N194  1  0.78727000  0.51496000  0.87334000  1.0
  N  N195  1  0.71273000  0.98503000  0.37334000  1.0
  N  N196  1  0.28769000  0.39571000  0.04193000  1.0
  N  N197  1  0.21232000  0.10431000  0.54193000  1.0
  N  N198  1  0.71232000  0.60428000  0.95807000  1.0
  N  N199  1  0.78767000  0.89570000  0.45808000  1.0
  N  N200  1  0.80481000  0.88343000  0.59926000  1.0
  N  N201  1  0.69517000  0.61655000  0.09925000  1.0
  N  N202  1  0.19518000  0.11658000  0.40074000  1.0
  N  N203  1  0.30485000  0.38342000  0.90073000  1.0
  N  N204  1  0.82673000  0.97262000  0.68567000  1.0
  N  N205  1  0.67327000  0.52735000  0.18566000  1.0
  N  N206  1  0.17328000  0.02740000  0.31433000  1.0
  N  N207  1  0.32672000  0.47259000  0.81431000  1.0
  N  N208  1  0.04051000  0.15598000  0.89523000  1.0
  N  N209  1  0.45947000  0.34404000  0.39523000  1.0
  N  N210  1  0.95948000  0.84402000  0.10478000  1.0
  N  N211  1  0.54051000  0.65596000  0.60477000  1.0
  N  N212  1  0.17605000  0.23237000  0.95275000  1.0
  N  N213  1  0.32396000  0.26764000  0.45275000  1.0
  N  N214  1  0.82395000  0.76762000  0.04727000  1.0
  N  N215  1  0.67603000  0.73236000  0.54726000  1.0
  O  O216  1  0.04578000  0.80889000  0.52529000  1.0
  O  O217  1  0.45418000  0.69110000  0.02530000  1.0
  O  O218  1  0.95422000  0.19113000  0.47472000  1.0
  O  O219  1  0.54581000  0.30891000  0.97470000  1.0
  O  O220  1  0.97643000  0.68595000  0.59163000  1.0
  O  O221  1  0.52359000  0.81404000  0.09162000  1.0
  O  O222  1  0.02355000  0.31406000  0.40837000  1.0
  O  O223  1  0.47646000  0.18595000  0.90838000  1.0
  O  O224  1  0.17427000  0.75576000  0.62306000  1.0
  O  O225  1  0.32573000  0.74426000  0.12308000  1.0
  O  O226  1  0.82573000  0.24423000  0.37694000  1.0
  O  O227  1  0.67429000  0.25575000  0.87693000  1.0
  O  O228  1  0.18276000  0.64998000  0.52833000  1.0
  O  O229  1  0.31723000  0.85001000  0.02834000  1.0
  O  O230  1  0.81722000  0.35003000  0.47167000  1.0
  O  O231  1  0.68280000  0.15001000  0.97168000  1.0
