# generated using pymatgen
data_CoH26(C7N)6
_symmetry_space_group_name_H-M   'P 1'
_cell_length_a   9.34988000
_cell_length_b   19.10450000
_cell_length_c   19.10203230
_cell_angle_alpha   117.38358046
_cell_angle_beta   99.38064606
_cell_angle_gamma   99.37700000
_symmetry_Int_Tables_number   1
_chemical_formula_structural   CoH26(C7N)6
_chemical_formula_sum   'Co3 H78 C126 N18'
_cell_volume   2876.92242892
_cell_formula_units_Z   3
loop_
 _symmetry_equiv_pos_site_id
 _symmetry_equiv_pos_as_xyz
  1  'x, y, z'
loop_
 _atom_site_type_symbol
 _atom_site_label
 _atom_site_symmetry_multiplicity
 _atom_site_fract_x
 _atom_site_fract_y
 _atom_site_fract_z
 _atom_site_occupancy
  Co  Co0  1  0.50000000  0.50000000  0.50000000  1.0
  Co  Co1  1  0.00000000  0.00000000  0.50000000  1.0
  Co  Co2  1  1.00000000  0.50000000  0.00000000  1.0
  H  H3  1  0.06964000  0.20529000  0.23149000  1.0
  H  H4  1  0.86365000  0.02601000  0.79480000  1.0
  H  H5  1  0.83798000  0.76869000  0.97390000  1.0
  H  H6  1  0.93036000  0.79470000  0.76851000  1.0
  H  H7  1  0.13634000  0.97399000  0.20520000  1.0
  H  H8  1  0.16201000  0.23131000  0.02610000  1.0
  H  H9  1  0.93264000  0.35651000  0.50255000  1.0
  H  H10  1  0.57581000  0.14601000  0.64347000  1.0
  H  H11  1  0.43061000  0.49752000  0.85432000  1.0
  H  H12  1  0.06736000  0.64348000  0.49745000  1.0
  H  H13  1  0.42419000  0.85400000  0.35654000  1.0
  H  H14  1  0.56938000  0.50247000  0.14567000  1.0
  H  H15  1  0.90643000  0.42637000  0.65793000  1.0
  H  H16  1  0.47962000  0.23158000  0.57367000  1.0
  H  H17  1  0.24873000  0.34230000  0.76856000  1.0
  H  H18  1  0.09357000  0.57363000  0.34207000  1.0
  H  H19  1  0.52039000  0.76844000  0.42634000  1.0
  H  H20  1  0.75127000  0.65771000  0.23144000  1.0
  H  H21  1  0.95939000  0.60100000  0.78448000  1.0
  H  H22  1  0.35850000  0.18335000  0.39900000  1.0
  H  H23  1  0.17534000  0.21560000  0.81664000  1.0
  H  H24  1  0.04061000  0.39899000  0.21551000  1.0
  H  H25  1  0.64151000  0.81665000  0.60101000  1.0
  H  H26  1  0.82466000  0.78440000  0.18336000  1.0
  H  H27  1  0.06356000  0.60091000  0.91387000  1.0
  H  H28  1  0.46302000  0.31273000  0.39901000  1.0
  H  H29  1  0.14977000  0.08610000  0.68722000  1.0
  H  H30  1  0.93644000  0.39908000  0.08612000  1.0
  H  H31  1  0.53699000  0.68727000  0.60100000  1.0
  H  H32  1  0.85023000  0.91390000  0.31277000  1.0
  H  H33  1  0.67782000  0.43147000  0.87406000  1.0
  H  H34  1  0.24652000  0.44251000  0.56836000  1.0
  H  H35  1  0.80388000  0.12606000  0.55765000  1.0
  H  H36  1  0.32218000  0.56852000  0.12593000  1.0
  H  H37  1  0.75349000  0.55749000  0.43165000  1.0
  H  H38  1  0.19612000  0.87393000  0.44234000  1.0
  H  H39  1  0.55759000  0.42411000  0.74304000  1.0
  H  H40  1  0.13353000  0.31899000  0.57586000  1.0
  H  H41  1  0.81485000  0.25713000  0.68129000  1.0
  H  H42  1  0.44240000  0.57588000  0.25695000  1.0
  H  H43  1  0.86648000  0.68101000  0.42415000  1.0
  H  H44  1  0.18515000  0.74287000  0.31871000  1.0
  H  H45  1  0.56280000  0.59913000  0.81093000  1.0
  H  H46  1  0.96346000  0.21192000  0.40095000  1.0
  H  H47  1  0.75275000  0.18904000  0.78837000  1.0
  H  H48  1  0.43720000  0.40086000  0.18907000  1.0
  H  H49  1  0.03653000  0.78808000  0.59905000  1.0
  H  H50  1  0.24725000  0.81096000  0.21162000  1.0
  H  H51  1  0.33573000  0.65484000  0.76869000  1.0
  H  H52  1  0.68083000  0.11389000  0.34517000  1.0
  H  H53  1  0.56762000  0.23115000  0.88619000  1.0
  H  H54  1  0.66428000  0.34515000  0.23131000  1.0
  H  H55  1  0.31919000  0.88613000  0.65484000  1.0
  H  H56  1  0.43237000  0.76885000  0.11380000  1.0
  H  H57  1  0.64027000  0.22738000  0.28094000  1.0
  H  H58  1  0.41232000  0.05352000  0.77267000  1.0
  H  H59  1  0.35920000  0.71910000  0.94653000  1.0
  H  H60  1  0.35972000  0.77261000  0.71906000  1.0
  H  H61  1  0.58769000  0.94649000  0.22734000  1.0
  H  H62  1  0.64079000  0.28090000  0.05346000  1.0
  H  H63  1  0.79573000  0.14294000  0.20345000  1.0
  H  H64  1  0.65202000  0.06031000  0.85713000  1.0
  H  H65  1  0.59196000  0.79665000  0.93956000  1.0
  H  H66  1  0.20428000  0.85706000  0.79656000  1.0
  H  H67  1  0.34799000  0.93970000  0.14288000  1.0
  H  H68  1  0.40803000  0.20335000  0.06044000  1.0
  H  H69  1  0.18595000  0.35171000  0.33899000  1.0
  H  H70  1  0.83399000  0.98730000  0.64843000  1.0
  H  H71  1  0.84703000  0.66112000  0.01273000  1.0
  H  H72  1  0.81405000  0.64829000  0.66102000  1.0
  H  H73  1  0.16602000  0.01271000  0.35158000  1.0
  H  H74  1  0.15297000  0.33889000  0.98727000  1.0
  H  H75  1  0.03104000  0.43480000  0.41709000  1.0
  H  H76  1  0.59615000  0.98236000  0.56528000  1.0
  H  H77  1  0.61424000  0.58298000  0.01779000  1.0
  H  H78  1  0.96895000  0.56519000  0.58291000  1.0
  H  H79  1  0.40385000  0.01765000  0.43472000  1.0
  H  H80  1  0.38575000  0.41701000  0.98220000  1.0
  C  C81  1  0.00092000  0.24201000  0.26544000  1.0
  C  C82  1  0.75835000  0.02332000  0.75808000  1.0
  C  C83  1  0.73536000  0.73470000  0.97665000  1.0
  C  C84  1  0.99908000  0.75798000  0.73456000  1.0
  C  C85  1  0.24165000  0.97668000  0.24192000  1.0
  C  C86  1  0.26463000  0.26530000  0.02335000  1.0
  C  C87  1  0.75361000  0.41577000  0.48272000  1.0
  C  C88  1  0.33757000  0.06697000  0.58428000  1.0
  C  C89  1  0.27109000  0.51739000  0.93325000  1.0
  C  C90  1  0.24639000  0.58422000  0.51728000  1.0
  C  C91  1  0.66244000  0.93305000  0.41573000  1.0
  C  C92  1  0.72890000  0.48261000  0.06674000  1.0
  C  C93  1  0.85981000  0.39454000  0.52827000  1.0
  C  C94  1  0.46494000  0.13376000  0.60552000  1.0
  C  C95  1  0.33187000  0.47187000  0.86652000  1.0
  C  C96  1  0.14019000  0.60546000  0.47173000  1.0
  C  C97  1  0.53506000  0.86626000  0.39449000  1.0
  C  C98  1  0.66813000  0.52814000  0.13348000  1.0
  C  C99  1  0.84579000  0.42923000  0.60620000  1.0
  C  C100  1  0.41620000  0.17700000  0.57085000  1.0
  C  C101  1  0.23980000  0.39400000  0.82315000  1.0
  C  C102  1  0.15422000  0.57078000  0.39381000  1.0
  C  C103  1  0.58380000  0.82300000  0.42915000  1.0
  C  C104  1  0.76019000  0.60600000  0.17684000  1.0
  C  C105  1  0.73055000  0.47149000  0.60819000  1.0
  C  C106  1  0.25876000  0.13673000  0.52858000  1.0
  C  C107  1  0.12245000  0.39200000  0.86335000  1.0
  C  C108  1  0.26945000  0.52851000  0.39181000  1.0
  C  C109  1  0.74125000  0.86328000  0.47143000  1.0
  C  C110  1  0.87754000  0.60799000  0.13664000  1.0
  C  C111  1  0.67958000  0.51135000  0.67703000  1.0
  C  C112  1  0.16806000  0.16569000  0.48865000  1.0
  C  C113  1  0.00287000  0.32312000  0.83442000  1.0
  C  C114  1  0.32042000  0.48865000  0.32297000  1.0
  C  C115  1  0.83194000  0.83432000  0.51136000  1.0
  C  C116  1  0.99712000  0.67689000  0.16558000  1.0
  C  C117  1  0.74927000  0.51228000  0.75318000  1.0
  C  C118  1  0.23696000  0.24086000  0.48767000  1.0
  C  C119  1  0.99652000  0.24698000  0.75923000  1.0
  C  C120  1  0.25073000  0.48771000  0.24682000  1.0
  C  C121  1  0.76303000  0.75914000  0.51233000  1.0
  C  C122  1  0.00347000  0.75302000  0.24076000  1.0
  C  C123  1  0.89386000  0.56218000  0.80217000  1.0
  C  C124  1  0.33176000  0.23986000  0.43775000  1.0
  C  C125  1  0.09205000  0.19791000  0.76015000  1.0
  C  C126  1  0.10613000  0.43781000  0.19782000  1.0
  C  C127  1  0.66824000  0.76013000  0.56225000  1.0
  C  C128  1  0.90794000  0.80208000  0.23984000  1.0
  C  C129  1  0.95177000  0.56232000  0.87410000  1.0
  C  C130  1  0.38969000  0.31161000  0.43759000  1.0
  C  C131  1  0.07786000  0.12593000  0.68839000  1.0
  C  C132  1  0.04823000  0.43768000  0.12590000  1.0
  C  C133  1  0.61030000  0.68839000  0.56241000  1.0
  C  C134  1  0.92214000  0.87406000  0.31160000  1.0
  C  C135  1  0.73694000  0.46823000  0.85228000  1.0
  C  C136  1  0.26887000  0.38396000  0.53164000  1.0
  C  C137  1  0.88487000  0.14784000  0.61616000  1.0
  C  C138  1  0.26305000  0.53176000  0.14771000  1.0
  C  C139  1  0.73114000  0.61604000  0.46837000  1.0
  C  C140  1  0.11514000  0.85217000  0.38384000  1.0
  C  C141  1  0.67031000  0.46426000  0.77943000  1.0
  C  C142  1  0.20611000  0.31515000  0.53568000  1.0
  C  C143  1  0.89122000  0.22073000  0.68500000  1.0
  C  C144  1  0.32969000  0.53574000  0.22057000  1.0
  C  C145  1  0.79390000  0.68485000  0.46433000  1.0
  C  C146  1  0.10878000  0.77927000  0.31499000  1.0
  C  C147  1  0.56495000  0.55001000  0.67915000  1.0
  C  C148  1  0.01486000  0.12918000  0.44996000  1.0
  C  C149  1  0.88622000  0.32087000  0.87097000  1.0
  C  C150  1  0.43505000  0.44999000  0.32085000  1.0
  C  C151  1  0.98514000  0.87082000  0.55004000  1.0
  C  C152  1  0.11378000  0.67913000  0.12903000  1.0
  C  C153  1  0.51552000  0.59203000  0.75159000  1.0
  C  C154  1  0.92336000  0.15963000  0.40799000  1.0
  C  C155  1  0.76456000  0.24836000  0.84057000  1.0
  C  C156  1  0.48449000  0.40796000  0.24841000  1.0
  C  C157  1  0.07664000  0.84038000  0.59202000  1.0
  C  C158  1  0.23543000  0.75163000  0.15942000  1.0
  C  C159  1  0.40166000  0.62083000  0.73052000  1.0
  C  C160  1  0.78078000  0.10973000  0.37916000  1.0
  C  C161  1  0.67164000  0.26937000  0.89037000  1.0
  C  C162  1  0.59834000  0.37917000  0.26948000  1.0
  C  C163  1  0.21922000  0.89027000  0.62084000  1.0
  C  C164  1  0.32835000  0.73062000  0.10962000  1.0
  C  C165  1  0.38174000  0.59688000  0.64529000  1.0
  C  C166  1  0.78491000  0.04842000  0.40307000  1.0
  C  C167  1  0.73662000  0.35462000  0.95158000  1.0
  C  C168  1  0.61827000  0.40312000  0.35472000  1.0
  C  C169  1  0.21510000  0.95160000  0.59694000  1.0
  C  C170  1  0.26337000  0.64537000  0.04841000  1.0
  C  C171  1  0.72996000  0.38725000  0.39896000  1.0
  C  C172  1  0.34252000  0.01173000  0.61279000  1.0
  C  C173  1  0.33111000  0.60112000  0.98844000  1.0
  C  C174  1  0.27003000  0.61274000  0.60104000  1.0
  C  C175  1  0.65748000  0.98827000  0.38721000  1.0
  C  C176  1  0.66888000  0.39887000  0.01155000  1.0
  C  C177  1  0.82492000  0.33686000  0.35411000  1.0
  C  C178  1  0.48779000  0.01729000  0.66321000  1.0
  C  C179  1  0.47089000  0.64598000  0.98289000  1.0
  C  C180  1  0.17507000  0.66312000  0.64589000  1.0
  C  C181  1  0.51221000  0.98271000  0.33679000  1.0
  C  C182  1  0.52909000  0.35402000  0.01710000  1.0
  C  C183  1  0.76013000  0.25440000  0.29330000  1.0
  C  C184  1  0.50524000  0.03887000  0.74567000  1.0
  C  C185  1  0.46676000  0.70678000  0.96121000  1.0
  C  C186  1  0.23988000  0.74560000  0.70671000  1.0
  C  C187  1  0.49475000  0.96113000  0.25433000  1.0
  C  C188  1  0.53323000  0.29322000  0.03879000  1.0
  C  C189  1  0.84740000  0.20724000  0.24946000  1.0
  C  C190  1  0.63956000  0.04212000  0.79285000  1.0
  C  C191  1  0.59776000  0.75065000  0.95786000  1.0
  C  C192  1  0.15259000  0.79275000  0.75054000  1.0
  C  C193  1  0.36044000  0.95789000  0.20716000  1.0
  C  C194  1  0.40223000  0.24936000  0.04214000  1.0
  C  C195  1  0.06653000  0.32386000  0.32586000  1.0
  C  C196  1  0.74233000  0.00198000  0.67624000  1.0
  C  C197  1  0.74069000  0.67425000  0.99806000  1.0
  C  C198  1  0.93348000  0.67613000  0.67415000  1.0
  C  C199  1  0.25767000  0.99802000  0.32376000  1.0
  C  C200  1  0.25931000  0.32576000  0.00194000  1.0
  C  C201  1  0.97942000  0.37083000  0.37026000  1.0
  C  C202  1  0.60837000  0.99947000  0.62926000  1.0
  C  C203  1  0.60930000  0.62984000  0.00067000  1.0
  C  C204  1  0.02058000  0.62916000  0.62975000  1.0
  C  C205  1  0.39163000  0.00053000  0.37074000  1.0
  C  C206  1  0.39070000  0.37017000  0.99933000  1.0
  N  N207  1  0.67520000  0.46355000  0.53246000  1.0
  N  N208  1  0.21141000  0.06892000  0.53650000  1.0
  N  N209  1  0.14279000  0.46767000  0.93117000  1.0
  N  N210  1  0.32480000  0.53644000  0.46754000  1.0
  N  N211  1  0.78860000  0.93109000  0.46351000  1.0
  N  N212  1  0.85720000  0.53232000  0.06882000  1.0
  N  N213  1  0.48374000  0.55390000  0.61428000  1.0
  N  N214  1  0.92983000  0.06039000  0.44604000  1.0
  N  N215  1  0.86961000  0.38568000  0.93966000  1.0
  N  N216  1  0.51627000  0.44610000  0.38572000  1.0
  N  N217  1  0.07017000  0.93961000  0.55396000  1.0
  N  N218  1  0.13038000  0.61431000  0.06033000  1.0
  N  N219  1  0.87564000  0.51628000  0.89923000  1.0
  N  N220  1  0.35961000  0.38279000  0.48358000  1.0
  N  N221  1  0.97655000  0.10083000  0.61727000  1.0
  N  N222  1  0.12435000  0.48371000  0.10076000  1.0
  N  N223  1  0.64040000  0.61722000  0.51643000  1.0
  N  N224  1  0.02346000  0.89918000  0.38273000  1.0
