# generated using pymatgen
data_ZnH24C28(N2O3)2
_symmetry_space_group_name_H-M   'P 1'
_cell_length_a   10.71890000
_cell_length_b   11.45830000
_cell_length_c   11.98780000
_cell_angle_alpha   88.10770000
_cell_angle_beta   84.44170000
_cell_angle_gamma   73.86160000
_symmetry_Int_Tables_number   1
_chemical_formula_structural   ZnH24C28(N2O3)2
_chemical_formula_sum   'Zn2 H48 C56 N8 O12'
_cell_volume   1407.64686084
_cell_formula_units_Z   2
loop_
 _symmetry_equiv_pos_site_id
 _symmetry_equiv_pos_as_xyz
  1  'x, y, z'
loop_
 _atom_site_type_symbol
 _atom_site_label
 _atom_site_symmetry_multiplicity
 _atom_site_fract_x
 _atom_site_fract_y
 _atom_site_fract_z
 _atom_site_occupancy
  Zn  Zn0  1  0.56978000  0.06650000  0.75032000  1.0
  Zn  Zn1  1  0.43022000  0.93349000  0.24968000  1.0
  H  H2  1  0.86580000  0.21671000  0.26308000  1.0
  H  H3  1  0.13421000  0.78329000  0.73689000  1.0
  H  H4  1  0.97344000  0.18358000  0.37241000  1.0
  H  H5  1  0.02655000  0.81642000  0.62758000  1.0
  H  H6  1  0.02589000  0.23178000  0.23756000  1.0
  H  H7  1  0.97411000  0.76823000  0.76243000  1.0
  H  H8  1  0.82842000  0.63021000  0.35286000  1.0
  H  H9  1  0.17158000  0.36979000  0.64713000  1.0
  H  H10  1  0.74117000  0.81894000  0.46340000  1.0
  H  H11  1  0.25884000  0.18105000  0.53659000  1.0
  H  H12  1  0.76187000  0.60772000  0.76893000  1.0
  H  H13  1  0.23813000  0.39228000  0.23105000  1.0
  H  H14  1  0.85597000  0.41986000  0.65911000  1.0
  H  H15  1  0.14402000  0.58014000  0.34088000  1.0
  H  H16  1  0.58166000  0.64103000  0.03786000  1.0
  H  H17  1  0.41834000  0.35898000  0.96214000  1.0
  H  H18  1  0.65546000  0.55721000  0.15356000  1.0
  H  H19  1  0.34454000  0.44280000  0.84643000  1.0
  H  H20  1  0.53240000  0.51249000  0.08819000  1.0
  H  H21  1  0.46760000  0.48751000  0.91181000  1.0
  H  H22  1  0.87200000  0.32819000  0.82077000  1.0
  H  H23  1  0.12801000  0.67182000  0.17923000  1.0
  H  H24  1  0.08828000  0.20828000  0.72874000  1.0
  H  H25  1  0.91172000  0.79172000  0.27127000  1.0
  H  H26  1  0.27089000  0.23940000  0.02567000  1.0
  H  H27  1  0.72912000  0.76060000  0.97434000  1.0
  H  H28  1  0.06010000  0.36584000  0.11298000  1.0
  H  H29  1  0.93990000  0.63416000  0.88704000  1.0
  H  H30  1  0.53657000  0.13981000  0.50731000  1.0
  H  H31  1  0.46344000  0.86019000  0.49270000  1.0
  H  H32  1  0.49094000  0.32958000  0.39544000  1.0
  H  H33  1  0.50906000  0.67041000  0.60456000  1.0
  H  H34  1  0.55656000  0.51240000  0.68686000  1.0
  H  H35  1  0.44344000  0.48760000  0.31314000  1.0
  H  H36  1  0.60245000  0.31627000  0.78366000  1.0
  H  H37  1  0.39754000  0.68373000  0.21634000  1.0
  H  H38  1  0.84952000  0.04426000  0.70172000  1.0
  H  H39  1  0.15048000  0.95573000  0.29829000  1.0
  H  H40  1  0.04859000  0.00117000  0.80263000  1.0
  H  H41  1  0.95140000  0.99883000  0.19737000  1.0
  H  H42  1  0.79604000  0.04266000  0.11245000  1.0
  H  H43  1  0.20395000  0.95735000  0.88756000  1.0
  H  H44  1  0.60871000  0.08456000  0.99771000  1.0
  H  H45  1  0.39128000  0.91544000  0.00230000  1.0
  H  H46  1  0.93110000  0.32875000  0.49188000  1.0
  H  H47  1  0.06889000  0.67124000  0.50810000  1.0
  H  H48  1  0.84312000  0.43982000  0.11265000  1.0
  H  H49  1  0.15687000  0.56019000  0.88736000  1.0
  C  C50  1  0.94263000  0.24372000  0.30116000  1.0
  C  C51  1  0.05737000  0.75628000  0.69882000  1.0
  C  C52  1  0.89144000  0.37626000  0.33217000  1.0
  C  C53  1  0.10856000  0.62374000  0.66781000  1.0
  C  C54  1  0.84642000  0.51268000  0.49871000  1.0
  C  C55  1  0.15357000  0.48731000  0.50127000  1.0
  C  C56  1  0.81669000  0.62586000  0.44375000  1.0
  C  C57  1  0.18331000  0.37414000  0.55624000  1.0
  C  C58  1  0.76819000  0.73163000  0.50686000  1.0
  C  C59  1  0.23182000  0.26836000  0.49314000  1.0
  C  C60  1  0.74651000  0.72655000  0.62406000  1.0
  C  C61  1  0.25350000  0.27345000  0.37593000  1.0
  C  C62  1  0.78035000  0.61316000  0.67823000  1.0
  C  C63  1  0.21965000  0.38683000  0.32176000  1.0
  C  C64  1  0.83103000  0.50765000  0.61627000  1.0
  C  C65  1  0.16897000  0.49234000  0.38371000  1.0
  C  C66  1  0.67904000  0.83790000  0.69136000  1.0
  C  C67  1  0.32097000  0.16210000  0.30863000  1.0
  C  C68  1  0.61690000  0.54952000  0.07360000  1.0
  C  C69  1  0.38310000  0.45048000  0.92640000  1.0
  C  C70  1  0.71737000  0.47214000  0.98993000  1.0
  C  C71  1  0.28264000  0.52786000  0.01006000  1.0
  C  C72  1  0.95186000  0.35370000  0.97287000  1.0
  C  C73  1  0.04815000  0.64630000  0.02714000  1.0
  C  C74  1  0.96027000  0.30970000  0.86351000  1.0
  C  C75  1  0.03974000  0.69030000  0.13650000  1.0
  C  C76  1  0.08022000  0.24294000  0.81354000  1.0
  C  C77  1  0.91978000  0.75707000  0.18646000  1.0
  C  C78  1  0.19350000  0.21696000  0.86985000  1.0
  C  C79  1  0.80650000  0.78304000  0.13016000  1.0
  C  C80  1  0.18467000  0.26039000  0.97935000  1.0
  C  C81  1  0.81533000  0.73961000  0.02066000  1.0
  C  C82  1  0.06590000  0.32856000  0.02949000  1.0
  C  C83  1  0.93410000  0.67144000  0.97052000  1.0
  C  C84  1  0.31995000  0.14523000  0.81252000  1.0
  C  C85  1  0.68006000  0.85478000  0.18749000  1.0
  C  C86  1  0.54130000  0.22479000  0.54278000  1.0
  C  C87  1  0.45870000  0.77521000  0.45722000  1.0
  C  C88  1  0.51582000  0.33221000  0.48097000  1.0
  C  C89  1  0.48418000  0.66779000  0.51903000  1.0
  C  C90  1  0.51669000  0.44129000  0.53070000  1.0
  C  C91  1  0.48331000  0.55871000  0.46930000  1.0
  C  C92  1  0.55012000  0.43381000  0.64169000  1.0
  C  C93  1  0.44987000  0.56619000  0.35832000  1.0
  C  C94  1  0.57633000  0.32286000  0.69753000  1.0
  C  C95  1  0.42367000  0.67714000  0.30248000  1.0
  C  C96  1  0.84324000  0.04344000  0.79320000  1.0
  C  C97  1  0.15675000  0.95655000  0.20680000  1.0
  C  C98  1  0.95390000  0.01798000  0.85046000  1.0
  C  C99  1  0.04610000  0.98202000  0.14954000  1.0
  C  C100  1  0.94185000  0.01520000  0.96815000  1.0
  C  C101  1  0.05815000  0.98480000  0.03186000  1.0
  C  C102  1  0.81475000  0.04251000  0.02164000  1.0
  C  C103  1  0.18525000  0.95750000  0.97837000  1.0
  C  C104  1  0.70828000  0.06678000  0.95840000  1.0
  C  C105  1  0.29172000  0.93323000  0.04161000  1.0
  N  N106  1  0.89195000  0.40090000  0.44266000  1.0
  N  N107  1  0.10803000  0.59910000  0.55733000  1.0
  N  N108  1  0.83613000  0.42152000  0.03009000  1.0
  N  N109  1  0.16387000  0.57848000  0.96991000  1.0
  N  N110  1  0.57006000  0.22001000  0.64998000  1.0
  N  N111  1  0.42994000  0.77999000  0.35003000  1.0
  N  N112  1  0.72240000  0.06639000  0.84575000  1.0
  N  N113  1  0.27760000  0.93360000  0.15426000  1.0
  O  O114  1  0.85003000  0.45637000  0.26183000  1.0
  O  O115  1  0.14995000  0.54363000  0.73816000  1.0
  O  O116  1  0.64811000  0.82995000  0.79436000  1.0
  O  O117  1  0.35187000  0.17003000  0.20563000  1.0
  O  O118  1  0.65329000  0.94065000  0.63638000  1.0
  O  O119  1  0.34674000  0.05935000  0.36363000  1.0
  O  O120  1  0.69317000  0.45756000  0.89267000  1.0
  O  O121  1  0.30684000  0.54246000  0.10733000  1.0
  O  O122  1  0.42359000  0.13316000  0.86520000  1.0
  O  O123  1  0.57642000  0.86685000  0.13481000  1.0
  O  O124  1  0.32501000  0.10045000  0.71709000  1.0
  O  O125  1  0.67499000  0.89955000  0.28292000  1.0
