# generated using pymatgen
data_V8Ni3H12C12N6O23
_symmetry_space_group_name_H-M   'P 1'
_cell_length_a   8.50672000
_cell_length_b   8.89425000
_cell_length_c   12.49730000
_cell_angle_alpha   102.33000000
_cell_angle_beta   96.71060000
_cell_angle_gamma   118.00400000
_symmetry_Int_Tables_number   1
_chemical_formula_structural   V8Ni3H12C12N6O23
_chemical_formula_sum   'V8 Ni3 H12 C12 N6 O23'
_cell_volume   789.32799790
_cell_formula_units_Z   1
loop_
 _symmetry_equiv_pos_site_id
 _symmetry_equiv_pos_as_xyz
  1  'x, y, z'
loop_
 _atom_site_type_symbol
 _atom_site_label
 _atom_site_symmetry_multiplicity
 _atom_site_fract_x
 _atom_site_fract_y
 _atom_site_fract_z
 _atom_site_occupancy
  V  V0  1  0.21466000  0.12156000  0.42534000  1.0
  V  V1  1  0.78537000  0.87912000  0.57504000  1.0
  V  V2  1  0.85442000  0.03628000  0.24251000  1.0
  V  V3  1  0.14565000  0.96423000  0.75737000  1.0
  V  V4  1  0.07369000  0.69576000  0.11516000  1.0
  V  V5  1  0.92686000  0.30458000  0.88433000  1.0
  V  V6  1  0.47014000  0.97981000  0.30436000  1.0
  V  V7  1  0.52982000  0.02043000  0.69570000  1.0
  Ni  Ni8  1  0.99996000  0.00022000  0.99985000  1.0
  Ni  Ni9  1  0.84487000  0.68690000  0.33152000  1.0
  Ni  Ni10  1  0.15515000  0.31264000  0.66844000  1.0
  H  H11  1  0.46483000  0.60742000  0.29553000  1.0
  H  H12  1  0.53459000  0.39196000  0.70430000  1.0
  H  H13  1  0.15227000  0.35885000  0.16863000  1.0
  H  H14  1  0.84714000  0.64072000  0.83106000  1.0
  H  H15  1  0.38830000  0.06820000  0.03943000  1.0
  H  H16  1  0.61110000  0.93132000  0.96025000  1.0
  H  H17  1  0.70260000  0.31833000  0.16346000  1.0
  H  H18  1  0.29672000  0.68113000  0.83641000  1.0
  H  H19  1  0.19042000  0.68165000  0.39524000  1.0
  H  H20  1  0.80996000  0.31789000  0.60516000  1.0
  H  H21  1  0.68385000  0.43330000  0.47276000  1.0
  H  H22  1  0.31668000  0.56632000  0.52768000  1.0
  C  C23  1  0.44688000  0.48662000  0.23778000  1.0
  C  C24  1  0.55248000  0.51276000  0.76203000  1.0
  C  C25  1  0.27591000  0.35054000  0.16856000  1.0
  C  C26  1  0.72350000  0.64902000  0.83117000  1.0
  C  C27  1  0.40700000  0.18928000  0.09693000  1.0
  C  C28  1  0.59237000  0.81018000  0.90281000  1.0
  C  C29  1  0.57894000  0.32619000  0.16506000  1.0
  C  C30  1  0.42034000  0.67319000  0.83476000  1.0
  C  C31  1  0.10415000  0.59880000  0.44116000  1.0
  C  C32  1  0.89624000  0.40069000  0.55923000  1.0
  C  C33  1  0.82550000  0.46340000  0.48509000  1.0
  C  C34  1  0.17498000  0.53614000  0.51529000  1.0
  N  N35  1  0.59768000  0.47330000  0.23607000  1.0
  N  N36  1  0.40170000  0.52612000  0.76377000  1.0
  N  N37  1  0.25605000  0.20162000  0.09923000  1.0
  N  N38  1  0.74340000  0.79801000  0.90044000  1.0
  N  N39  1  0.92947000  0.56223000  0.42609000  1.0
  N  N40  1  0.07093000  0.43737000  0.57425000  1.0
  O  O41  1  0.39942000  0.13196000  0.35995000  1.0
  O  O42  1  0.60084000  0.86836000  0.64080000  1.0
  O  O43  1  0.08041000  0.91453000  0.42717000  1.0
  O  O44  1  0.92104000  0.08682000  0.57397000  1.0
  O  O45  1  0.07846000  0.17447000  0.33691000  1.0
  O  O46  1  0.92157000  0.82582000  0.66298000  1.0
  O  O47  1  0.71340000  0.73024000  0.44742000  1.0
  O  O48  1  0.28653000  0.27055000  0.55320000  1.0
  O  O49  1  0.69495000  0.10376000  0.28746000  1.0
  O  O50  1  0.30512000  0.89647000  0.71262000  1.0
  O  O51  1  0.87408000  0.06275000  0.11512000  1.0
  O  O52  1  0.12573000  0.93798000  0.88476000  1.0
  O  O53  1  0.01304000  0.82854000  0.07262000  1.0
  O  O54  1  0.98719000  0.17198000  0.92750000  1.0
  O  O55  1  0.32214000  0.82637000  0.17034000  1.0
  O  O56  1  0.67841000  0.17426000  0.82949000  1.0
  O  O57  1  0.46706000  0.86530000  0.38909000  1.0
  O  O58  1  0.53285000  0.13461000  0.61073000  1.0
  O  O59  1  0.78195000  0.82719000  0.24048000  1.0
  O  O60  1  0.21815000  0.17360000  0.75928000  1.0
  O  O61  1  0.97707000  0.63697000  0.21946000  1.0
  O  O62  1  0.02390000  0.36293000  0.77997000  1.0
  O  O63  1  0.00011000  0.50045000  0.99943000  1.0
