# generated using pymatgen
data_NaH11(C3O2)3
_symmetry_space_group_name_H-M   'P 1'
_cell_length_a   6.77669000
_cell_length_b   10.43670000
_cell_length_c   15.13930000
_cell_angle_alpha   104.62400000
_cell_angle_beta   90.00000000
_cell_angle_gamma   90.00000000
_symmetry_Int_Tables_number   1
_chemical_formula_structural   NaH11(C3O2)3
_chemical_formula_sum   'Na4 H44 C36 O24'
_cell_volume   1036.05794262
_cell_formula_units_Z   4
loop_
 _symmetry_equiv_pos_site_id
 _symmetry_equiv_pos_as_xyz
  1  'x, y, z'
loop_
 _atom_site_type_symbol
 _atom_site_label
 _atom_site_symmetry_multiplicity
 _atom_site_fract_x
 _atom_site_fract_y
 _atom_site_fract_z
 _atom_site_occupancy
  Na  Na0  1  0.48496000  0.61759000  0.38590000  1.0
  Na  Na1  1  0.98496000  0.88241000  0.61410000  1.0
  Na  Na2  1  0.51504000  0.38241000  0.61410000  1.0
  Na  Na3  1  0.01504000  0.11759000  0.38590000  1.0
  H  H4  1  0.27257000  0.87746000  0.29531000  1.0
  H  H5  1  0.77257000  0.62254000  0.70469000  1.0
  H  H6  1  0.72743000  0.12253000  0.70469000  1.0
  H  H7  1  0.22743000  0.37746000  0.29531000  1.0
  H  H8  1  0.52670000  0.92066000  0.31199000  1.0
  H  H9  1  0.02670000  0.57934000  0.68801000  1.0
  H  H10  1  0.47330000  0.07934000  0.68801000  1.0
  H  H11  1  0.97330000  0.42066000  0.31199000  1.0
  H  H12  1  0.44512000  0.82697000  0.20314000  1.0
  H  H13  1  0.94512000  0.67303000  0.79686000  1.0
  H  H14  1  0.55488000  0.17303000  0.79686000  1.0
  H  H15  1  0.05488000  0.32697000  0.20314000  1.0
  H  H16  1  0.35825000  0.08026000  0.01916000  1.0
  H  H17  1  0.85826000  0.41974000  0.98084000  1.0
  H  H18  1  0.64174000  0.91974000  0.98084000  1.0
  H  H19  1  0.14174000  0.58026000  0.01916000  1.0
  H  H20  1  0.36806000  0.28751000  0.96626000  1.0
  H  H21  1  0.86806000  0.21249000  0.03374000  1.0
  H  H22  1  0.63194000  0.71249000  0.03374000  1.0
  H  H23  1  0.13194000  0.78751000  0.96626000  1.0
  H  H24  1  0.51853000  0.49279000  0.06833000  1.0
  H  H25  1  0.01853000  0.00721000  0.93167000  1.0
  H  H26  1  0.48147000  0.50721000  0.93167000  1.0
  H  H27  1  0.98147000  0.99279000  0.06833000  1.0
  H  H28  1  0.65061000  0.48658000  0.21905000  1.0
  H  H29  1  0.15061000  0.01342000  0.78095000  1.0
  H  H30  1  0.34939000  0.51341000  0.78095000  1.0
  H  H31  1  0.84939000  0.98658000  0.21905000  1.0
  H  H32  1  0.55503000  0.86825000  0.51725000  1.0
  H  H33  1  0.05503000  0.63175000  0.48275000  1.0
  H  H34  1  0.44497000  0.13174000  0.48275000  1.0
  H  H35  1  0.94497000  0.36826000  0.51725000  1.0
  H  H36  1  0.37929000  0.80551000  0.56255000  1.0
  H  H37  1  0.87928000  0.69449000  0.43745000  1.0
  H  H38  1  0.62072000  0.19449000  0.43745000  1.0
  H  H39  1  0.12072000  0.30551000  0.56255000  1.0
  H  H40  1  0.30135000  0.56694000  0.53830000  1.0
  H  H41  1  0.80135000  0.93306000  0.46170000  1.0
  H  H42  1  0.69865000  0.43306000  0.46170000  1.0
  H  H43  1  0.19865000  0.06694000  0.53830000  1.0
  H  H44  1  0.19643000  0.44519000  0.47316000  1.0
  H  H45  1  0.69643000  0.05481000  0.52684000  1.0
  H  H46  1  0.80357000  0.55481000  0.52684000  1.0
  H  H47  1  0.30357000  0.94519000  0.47316000  1.0
  C  C48  1  0.57961000  0.28206000  0.20613000  1.0
  C  C49  1  0.07961000  0.21794000  0.79387000  1.0
  C  C50  1  0.42038000  0.71794000  0.79387000  1.0
  C  C51  1  0.92039000  0.78206000  0.20613000  1.0
  C  C52  1  0.49881000  0.16847000  0.14699000  1.0
  C  C53  1  0.99881000  0.33154000  0.85301000  1.0
  C  C54  1  0.50118000  0.83153000  0.85301000  1.0
  C  C55  1  0.00119000  0.66847000  0.14700000  1.0
  C  C56  1  0.42333000  0.17016000  0.06172000  1.0
  C  C57  1  0.92333000  0.32984000  0.93828000  1.0
  C  C58  1  0.57666000  0.82984000  0.93827000  1.0
  C  C59  1  0.07667000  0.67016000  0.06172000  1.0
  C  C60  1  0.42958000  0.28667000  0.03267000  1.0
  C  C61  1  0.92958000  0.21332000  0.96733000  1.0
  C  C62  1  0.57041000  0.71333000  0.96733000  1.0
  C  C63  1  0.07042000  0.78667000  0.03267000  1.0
  C  C64  1  0.51285000  0.40043000  0.08940000  1.0
  C  C65  1  0.01285000  0.09957000  0.91060000  1.0
  C  C66  1  0.48715000  0.59957000  0.91060000  1.0
  C  C67  1  0.98715000  0.90043000  0.08940000  1.0
  C  C68  1  0.58643000  0.39764000  0.17474000  1.0
  C  C69  1  0.08643000  0.10236000  0.82526000  1.0
  C  C70  1  0.41357000  0.60235000  0.82526000  1.0
  C  C71  1  0.91357000  0.89765000  0.17474000  1.0
  C  C72  1  0.64506000  0.29090000  0.30297000  1.0
  C  C73  1  0.14506000  0.20910000  0.69703000  1.0
  C  C74  1  0.35494000  0.70910000  0.69703000  1.0
  C  C75  1  0.85494000  0.79090000  0.30297000  1.0
  C  C76  1  0.37117000  0.03377000  0.23880000  1.0
  C  C77  1  0.87119000  0.46624000  0.76120000  1.0
  C  C78  1  0.62881000  0.96624000  0.76120000  1.0
  C  C79  1  0.12882000  0.53377000  0.23880000  1.0
  C  C80  1  0.40380000  0.90575000  0.26295000  1.0
  C  C81  1  0.90380000  0.59425000  0.73705000  1.0
  C  C82  1  0.59620000  0.09424000  0.73705000  1.0
  C  C83  1  0.09620000  0.40575000  0.26295000  1.0
  O  O84  1  0.62298000  0.40457000  0.35785000  1.0
  O  O85  1  0.12298000  0.09544000  0.64215000  1.0
  O  O86  1  0.37702000  0.59543000  0.64215000  1.0
  O  O87  1  0.87702000  0.90456000  0.35785000  1.0
  O  O88  1  0.71506000  0.19018000  0.32493000  1.0
  O  O89  1  0.21505000  0.30982000  0.67507000  1.0
  O  O90  1  0.28495000  0.80982000  0.67506000  1.0
  O  O91  1  0.78495000  0.69018000  0.32493000  1.0
  O  O92  1  0.49336000  0.04651000  0.16975000  1.0
  O  O93  1  0.99336000  0.45350000  0.83025000  1.0
  O  O94  1  0.50663000  0.95349000  0.83025000  1.0
  O  O95  1  0.00664000  0.54650000  0.16975000  1.0
  O  O96  1  0.25324000  0.12008000  0.27468000  1.0
  O  O97  1  0.75325000  0.37991000  0.72532000  1.0
  O  O98  1  0.74676000  0.87991000  0.72532000  1.0
  O  O99  1  0.24676000  0.62008000  0.27468000  1.0
  O  O100  1  0.24989000  0.53433000  0.47379000  1.0
  O  O101  1  0.74989000  0.96567000  0.52621000  1.0
  O  O102  1  0.75011000  0.46567000  0.52621000  1.0
  O  O103  1  0.25011000  0.03433000  0.47379000  1.0
  O  O104  1  0.43170000  0.81264000  0.50264000  1.0
  O  O105  1  0.93170000  0.68736000  0.49736000  1.0
  O  O106  1  0.56830000  0.18736000  0.49736000  1.0
  O  O107  1  0.06830000  0.31264000  0.50264000  1.0
