# generated using pymatgen
data_CdH12(C2O)6
_symmetry_space_group_name_H-M   'P 1'
_cell_length_a   5.35681000
_cell_length_b   6.45951000
_cell_length_c   19.42640000
_cell_angle_alpha   92.78160000
_cell_angle_beta   90.04250000
_cell_angle_gamma   114.47400000
_symmetry_Int_Tables_number   1
_chemical_formula_structural   CdH12(C2O)6
_chemical_formula_sum   'Cd2 H24 C24 O12'
_cell_volume   610.92035676
_cell_formula_units_Z   2
loop_
 _symmetry_equiv_pos_site_id
 _symmetry_equiv_pos_as_xyz
  1  'x, y, z'
loop_
 _atom_site_type_symbol
 _atom_site_label
 _atom_site_symmetry_multiplicity
 _atom_site_fract_x
 _atom_site_fract_y
 _atom_site_fract_z
 _atom_site_occupancy
  Cd  Cd0  1  0.31858000  0.00034000  0.25011000  1.0
  Cd  Cd1  1  0.68144000  0.99966000  0.74988000  1.0
  H  H2  1  0.08407000  0.56411000  0.37056000  1.0
  H  H3  1  0.52076000  0.43636000  0.12937000  1.0
  H  H4  1  0.91590000  0.43587000  0.62944000  1.0
  H  H5  1  0.47919000  0.56363000  0.87065000  1.0
  H  H6  1  0.66305000  0.09405000  0.41196000  1.0
  H  H7  1  0.56858000  0.90647000  0.08816000  1.0
  H  H8  1  0.33694000  0.90592000  0.58804000  1.0
  H  H9  1  0.43145000  0.09355000  0.91184000  1.0
  H  H10  1  0.31876000  0.07913000  0.48798000  1.0
  H  H11  1  0.23890000  0.92102000  0.01186000  1.0
  H  H12  1  0.68123000  0.92084000  0.51202000  1.0
  H  H13  1  0.76111000  0.07900000  0.98814000  1.0
  H  H14  1  0.90032000  0.74284000  0.43236000  1.0
  H  H15  1  0.15817000  0.25781000  0.06785000  1.0
  H  H16  1  0.09965000  0.25712000  0.56764000  1.0
  H  H17  1  0.84182000  0.74222000  0.93215000  1.0
  H  H18  1  0.79825000  0.36772000  0.19988000  1.0
  H  H19  1  0.43097000  0.63249000  0.30030000  1.0
  H  H20  1  0.20176000  0.63231000  0.80012000  1.0
  H  H21  1  0.56904000  0.36750000  0.69969000  1.0
  H  H22  1  0.81558000  0.12489000  0.17911000  1.0
  H  H23  1  0.69112000  0.87544000  0.32100000  1.0
  H  H24  1  0.18445000  0.87513000  0.82089000  1.0
  H  H25  1  0.30890000  0.12456000  0.67900000  1.0
  C  C26  1  0.10802000  0.25050000  0.33352000  1.0
  C  C27  1  0.85769000  0.74988000  0.16671000  1.0
  C  C28  1  0.89198000  0.74949000  0.66648000  1.0
  C  C29  1  0.14240000  0.25019000  0.83331000  1.0
  C  C30  1  0.98171000  0.37977000  0.37335000  1.0
  C  C31  1  0.60240000  0.62077000  0.12669000  1.0
  C  C32  1  0.01825000  0.62020000  0.62664000  1.0
  C  C33  1  0.39756000  0.37927000  0.87331000  1.0
  C  C34  1  0.75742000  0.28004000  0.41184000  1.0
  C  C35  1  0.47744000  0.72050000  0.08821000  1.0
  C  C36  1  0.24255000  0.71993000  0.58815000  1.0
  C  C37  1  0.52251000  0.27953000  0.91177000  1.0
  C  C38  1  0.62868000  0.39605000  0.45513000  1.0
  C  C39  1  0.23265000  0.60421000  0.04492000  1.0
  C  C40  1  0.37130000  0.60392000  0.54487000  1.0
  C  C41  1  0.76735000  0.39574000  0.95509000  1.0
  C  C42  1  0.39957000  0.26437000  0.49383000  1.0
  C  C43  1  0.13481000  0.73563000  0.00609000  1.0
  C  C44  1  0.60042000  0.73560000  0.50617000  1.0
  C  C45  1  0.86524000  0.26436000  0.99392000  1.0
  C  C46  1  0.72609000  0.63509000  0.46200000  1.0
  C  C47  1  0.09144000  0.36523000  0.03813000  1.0
  C  C48  1  0.27390000  0.36488000  0.53800000  1.0
  C  C49  1  0.90858000  0.63477000  0.96188000  1.0
  O  O50  1  0.31207000  0.35787000  0.29540000  1.0
  O  O51  1  0.95382000  0.64238000  0.20501000  1.0
  O  O52  1  0.68796000  0.64214000  0.70460000  1.0
  O  O53  1  0.04620000  0.35758000  0.79500000  1.0
  O  O54  1  0.01919000  0.03267000  0.33635000  1.0
  O  O55  1  0.98681000  0.96768000  0.16384000  1.0
  O  O56  1  0.98082000  0.96730000  0.66365000  1.0
  O  O57  1  0.01320000  0.03242000  0.83614000  1.0
  O  O58  1  0.68834000  0.19902000  0.18989000  1.0
  O  O59  1  0.48975000  0.80125000  0.31018000  1.0
  O  O60  1  0.31168000  0.80100000  0.81010000  1.0
  O  O61  1  0.51025000  0.19875000  0.68982000  1.0
