# generated using pymatgen
data_CuH4C5O4
_symmetry_space_group_name_H-M   'P 1'
_cell_length_a   6.85838000
_cell_length_b   6.85824000
_cell_length_c   11.85570000
_cell_angle_alpha   90.02010000
_cell_angle_beta   89.97830000
_cell_angle_gamma   89.97610000
_symmetry_Int_Tables_number   1
_chemical_formula_structural   CuH4C5O4
_chemical_formula_sum   'Cu4 H16 C20 O16'
_cell_volume   557.64951492
_cell_formula_units_Z   4
loop_
 _symmetry_equiv_pos_site_id
 _symmetry_equiv_pos_as_xyz
  1  'x, y, z'
loop_
 _atom_site_type_symbol
 _atom_site_label
 _atom_site_symmetry_multiplicity
 _atom_site_fract_x
 _atom_site_fract_y
 _atom_site_fract_z
 _atom_site_occupancy
  Cu  Cu0  1  0.27341000  0.72670000  0.75007000  1.0
  Cu  Cu1  1  0.72669000  0.27342000  0.24993000  1.0
  Cu  Cu2  1  0.22695000  0.22695000  0.50000000  1.0
  Cu  Cu3  1  0.77289000  0.77290000  1.00000000  1.0
  H  H4  1  0.73534000  0.17747000  0.87691000  1.0
  H  H5  1  0.26443000  0.82271000  0.37705000  1.0
  H  H6  1  0.67846000  0.76495000  0.62707000  1.0
  H  H7  1  0.32162000  0.23524000  0.12705000  1.0
  H  H8  1  0.23524000  0.32161000  0.87295000  1.0
  H  H9  1  0.76496000  0.67846000  0.37293000  1.0
  H  H10  1  0.17748000  0.73535000  0.12309000  1.0
  H  H11  1  0.82271000  0.26443000  0.62295000  1.0
  H  H12  1  0.61929000  0.05749000  0.75450000  1.0
  H  H13  1  0.38065000  0.94252000  0.25463000  1.0
  H  H14  1  0.55811000  0.88148000  0.50494000  1.0
  H  H15  1  0.44206000  0.11870000  0.00487000  1.0
  H  H16  1  0.11869000  0.44205000  0.99513000  1.0
  H  H17  1  0.88151000  0.55811000  0.49507000  1.0
  H  H18  1  0.05750000  0.61929000  0.24550000  1.0
  H  H19  1  0.94251000  0.38066000  0.74536000  1.0
  C  C20  1  0.62586000  0.54330000  0.83423000  1.0
  C  C21  1  0.37415000  0.45662000  0.33423000  1.0
  C  C22  1  0.04400000  0.87444000  0.58417000  1.0
  C  C23  1  0.95603000  0.12553000  0.08417000  1.0
  C  C24  1  0.12553000  0.95603000  0.91583000  1.0
  C  C25  1  0.87444000  0.04402000  0.41583000  1.0
  C  C26  1  0.54329000  0.62586000  0.16577000  1.0
  C  C27  1  0.45662000  0.37415000  0.66577000  1.0
  C  C28  1  0.69721000  0.18261000  0.78796000  1.0
  C  C29  1  0.30270000  0.81743000  0.28810000  1.0
  C  C30  1  0.68334000  0.80337000  0.53815000  1.0
  C  C31  1  0.31674000  0.19675000  0.03811000  1.0
  C  C32  1  0.19676000  0.31673000  0.96188000  1.0
  C  C33  1  0.80337000  0.68334000  0.46186000  1.0
  C  C34  1  0.18261000  0.69721000  0.21204000  1.0
  C  C35  1  0.81743000  0.30270000  0.71190000  1.0
  C  C36  1  0.61758000  0.38244000  0.74992000  1.0
  C  C37  1  0.38244000  0.61758000  0.25008000  1.0
  C  C38  1  0.88309000  0.88309000  0.50001000  1.0
  C  C39  1  0.11705000  0.11703000  1.00000000  1.0
  O  O40  1  0.74681000  0.52642000  0.91496000  1.0
  O  O41  1  0.25306000  0.47350000  0.41499000  1.0
  O  O42  1  0.02713000  0.75307000  0.66472000  1.0
  O  O43  1  0.97285000  0.24651000  0.16502000  1.0
  O  O44  1  0.24651000  0.97285000  0.83499000  1.0
  O  O45  1  0.75308000  0.02714000  0.33528000  1.0
  O  O46  1  0.52641000  0.74683000  0.08504000  1.0
  O  O47  1  0.47350000  0.25304000  0.58501000  1.0
  O  O48  1  0.52336000  0.69905000  0.82446000  1.0
  O  O49  1  0.47655000  0.30081000  0.32426000  1.0
  O  O50  1  0.19975000  0.97691000  0.57441000  1.0
  O  O51  1  0.80024000  0.02327000  0.07423000  1.0
  O  O52  1  0.02327000  0.80025000  0.92576000  1.0
  O  O53  1  0.97691000  0.19977000  0.42560000  1.0
  O  O54  1  0.69904000  0.52336000  0.17552000  1.0
  O  O55  1  0.30081000  0.47655000  0.67574000  1.0
