# generated using pymatgen
data_Zn2H3C12S2BrO7
_symmetry_space_group_name_H-M   'P 1'
_cell_length_a   19.66670000
_cell_length_b   19.69650000
_cell_length_c   33.36910000
_cell_angle_alpha   79.10900000
_cell_angle_beta   79.19380000
_cell_angle_gamma   63.95150000
_symmetry_Int_Tables_number   1
_chemical_formula_structural   Zn2H3C12S2BrO7
_chemical_formula_sum   'Zn16 H24 C96 S16 Br8 O56'
_cell_volume   11323.55794687
_cell_formula_units_Z   8
loop_
 _symmetry_equiv_pos_site_id
 _symmetry_equiv_pos_as_xyz
  1  'x, y, z'
loop_
 _atom_site_type_symbol
 _atom_site_label
 _atom_site_symmetry_multiplicity
 _atom_site_fract_x
 _atom_site_fract_y
 _atom_site_fract_z
 _atom_site_occupancy
  Zn  Zn0  1  0.05689000  0.39938000  0.47839000  1.0
  Zn  Zn1  1  0.98467000  0.48343000  0.56026000  1.0
  Zn  Zn2  1  0.05784000  0.56130000  0.48249000  1.0
  Zn  Zn3  1  0.90083000  0.55438000  0.47995000  1.0
  Zn  Zn4  1  0.69426000  0.35043000  0.27155000  1.0
  Zn  Zn5  1  0.68922000  0.19014000  0.26701000  1.0
  Zn  Zn6  1  0.76935000  0.26554000  0.19079000  1.0
  Zn  Zn7  1  0.84775000  0.19547000  0.27324000  1.0
  Zn  Zn8  1  0.26674000  0.76668000  0.68928000  1.0
  Zn  Zn9  1  0.34876000  0.69609000  0.77138000  1.0
  Zn  Zn10  1  0.19287000  0.84753000  0.77143000  1.0
  Zn  Zn11  1  0.19145000  0.68719000  0.76619000  1.0
  Zn  Zn12  1  0.56071000  0.06011000  0.98333000  1.0
  Zn  Zn13  1  0.40121000  0.05507000  0.97816000  1.0
  Zn  Zn14  1  0.55446000  0.90148000  0.97793000  1.0
  Zn  Zn15  1  0.48411000  0.98341000  0.06038000  1.0
  H  H16  1  0.95380000  0.24885000  0.35118000  1.0
  H  H17  1  0.74670000  0.45551000  0.35090000  1.0
  H  H18  1  0.00087000  0.29785000  0.39927000  1.0
  H  H19  1  0.09786000  0.59768000  0.69997000  1.0
  H  H20  1  0.20176000  0.70136000  0.59664000  1.0
  H  H21  1  0.05011000  0.55055000  0.65124000  1.0
  H  H22  1  0.46314000  0.24015000  0.34106000  1.0
  H  H23  1  0.47928000  0.70290000  0.60124000  1.0
  H  H24  1  0.20304000  0.97889000  0.60169000  1.0
  H  H25  1  0.94866000  0.97011000  0.34797000  1.0
  H  H26  1  0.54977000  0.04983000  0.15271000  1.0
  H  H27  1  0.65296000  0.15330000  0.04892000  1.0
  H  H28  1  0.59848000  0.09834000  0.20020000  1.0
  H  H29  1  0.54755000  0.77055000  0.14834000  1.0
  H  H30  1  0.16296000  0.14133000  0.04058000  1.0
  H  H31  1  0.50119000  0.79618000  0.89888000  1.0
  H  H32  1  0.29466000  0.00346000  0.89905000  1.0
  H  H33  1  0.45173000  0.74974000  0.85074000  1.0
  H  H34  1  0.30091000  0.27974000  0.90217000  1.0
  H  H35  1  0.78678000  0.00959000  0.90897000  1.0
  H  H36  1  0.80972000  0.52756000  0.41864000  1.0
  H  H37  1  0.13613000  0.63637000  0.52654000  1.0
  H  H38  1  0.72322000  0.22301000  0.11427000  1.0
  H  H39  1  0.22182000  0.94081000  0.83146000  1.0
  C  C40  1  0.06172000  0.31598000  0.56173000  1.0
  C  C41  1  0.06970000  0.57050000  0.56945000  1.0
  C  C42  1  0.18369000  0.43964000  0.43876000  1.0
  C  C43  1  0.93696000  0.68406000  0.43890000  1.0
  C  C44  1  0.93034000  0.43004000  0.43059000  1.0
  C  C45  1  0.81655000  0.56094000  0.56210000  1.0
  C  C46  1  0.56556000  0.31145000  0.31130000  1.0
  C  C47  1  0.68076000  0.17992000  0.18053000  1.0
  C  C48  1  0.68935000  0.43332000  0.18815000  1.0
  C  C49  1  0.93489000  0.18749000  0.18975000  1.0
  C  C50  1  0.81857000  0.32062000  0.31981000  1.0
  C  C51  1  0.81109000  0.06604000  0.31172000  1.0
  C  C52  1  0.43382000  0.68958000  0.68820000  1.0
  C  C53  1  0.31904000  0.82043000  0.81954000  1.0
  C  C54  1  0.18897000  0.93368000  0.68853000  1.0
  C  C55  1  0.06614000  0.80969000  0.81121000  1.0
  C  C56  1  0.18155000  0.68045000  0.67973000  1.0
  C  C57  1  0.31268000  0.56586000  0.81111000  1.0
  C  C58  1  0.43838000  0.18392000  0.93863000  1.0
  C  C59  1  0.42960000  0.93119000  0.93041000  1.0
  C  C60  1  0.68395000  0.93864000  0.93855000  1.0
  C  C61  1  0.56138000  0.81618000  0.06141000  1.0
  C  C62  1  0.57008000  0.06980000  0.06933000  1.0
  C  C63  1  0.31616000  0.06152000  0.06132000  1.0
  C  C64  1  0.90089000  0.40343000  0.40208000  1.0
  C  C65  1  0.84742000  0.34945000  0.34833000  1.0
  C  C66  1  0.82819000  0.44869000  0.38822000  1.0
  C  C67  1  0.91957000  0.30433000  0.36182000  1.0
  C  C68  1  0.80241000  0.42072000  0.36134000  1.0
  C  C69  1  0.94534000  0.33155000  0.38834000  1.0
  C  C70  1  0.09884000  0.59917000  0.59702000  1.0
  C  C71  1  0.15260000  0.65220000  0.65100000  1.0
  C  C72  1  0.14223000  0.64225000  0.58129000  1.0
  C  C73  1  0.10969000  0.60955000  0.66685000  1.0
  C  C74  1  0.16861000  0.66838000  0.60877000  1.0
  C  C75  1  0.08343000  0.58367000  0.63990000  1.0
  C  C76  1  0.30471000  0.45510000  0.40101000  1.0
  C  C77  1  0.44603000  0.29692000  0.34900000  1.0
  C  C78  1  0.25851000  0.41619000  0.41403000  1.0
  C  C79  1  0.49082000  0.33686000  0.33643000  1.0
  C  C80  1  0.37795000  0.33999000  0.37260000  1.0
  C  C81  1  0.37272000  0.41179000  0.37740000  1.0
  C  C82  1  0.72588000  0.57560000  0.63018000  1.0
  C  C83  1  0.52408000  0.67380000  0.62122000  1.0
  C  C84  1  0.74266000  0.58503000  0.58763000  1.0
  C  C85  1  0.50899000  0.66383000  0.66361000  1.0
  C  C86  1  0.60333000  0.64154000  0.60892000  1.0
  C  C87  1  0.64654000  0.60775000  0.64236000  1.0
  C  C88  1  0.07595000  0.22545000  0.62996000  1.0
  C  C89  1  0.17400000  0.02377000  0.62152000  1.0
  C  C90  1  0.08554000  0.24209000  0.58739000  1.0
  C  C91  1  0.16378000  0.00884000  0.66391000  1.0
  C  C92  1  0.14191000  0.10291000  0.60903000  1.0
  C  C93  1  0.10804000  0.14622000  0.64234000  1.0
  C  C94  1  0.84253000  0.80086000  0.39697000  1.0
  C  C95  1  0.90433000  0.94963000  0.35251000  1.0
  C  C96  1  0.91096000  0.75830000  0.41367000  1.0
  C  C97  1  0.83564000  0.99090000  0.33642000  1.0
  C  C98  1  0.90710000  0.88006000  0.37461000  1.0
  C  C99  1  0.84023000  0.87020000  0.37475000  1.0
  C  C100  1  0.65279000  0.15263000  0.15159000  1.0
  C  C101  1  0.59866000  0.09872000  0.09801000  1.0
  C  C102  1  0.66832000  0.16848000  0.10831000  1.0
  C  C103  1  0.58287000  0.08294000  0.14085000  1.0
  C  C104  1  0.64080000  0.14104000  0.08200000  1.0
  C  C105  1  0.60984000  0.10982000  0.16697000  1.0
  C  C106  1  0.67406000  0.52402000  0.11985000  1.0
  C  C107  1  0.57648000  0.72575000  0.12844000  1.0
  C  C108  1  0.66483000  0.50722000  0.16242000  1.0
  C  C109  1  0.58652000  0.74092000  0.08605000  1.0
  C  C110  1  0.60838000  0.64654000  0.14087000  1.0
  C  C111  1  0.64199000  0.60331000  0.10752000  1.0
  C  C112  1  0.08253000  0.12333000  0.17835000  1.0
  C  C113  1  0.17043000  0.12481000  0.07299000  1.0
  C  C114  1  0.01028000  0.16216000  0.16552000  1.0
  C  C115  1  0.24155000  0.08608000  0.08665000  1.0
  C  C116  1  0.11215000  0.13851000  0.10644000  1.0
  C  C117  1  0.14059000  0.10975000  0.14480000  1.0
  C  C118  1  0.34615000  0.84980000  0.84788000  1.0
  C  C119  1  0.40069000  0.90265000  0.90173000  1.0
  C  C120  1  0.30114000  0.92235000  0.86172000  1.0
  C  C121  1  0.44561000  0.83063000  0.88824000  1.0
  C  C122  1  0.32935000  0.94787000  0.88861000  1.0
  C  C123  1  0.41815000  0.80517000  0.86166000  1.0
  C  C124  1  0.40722000  0.44879000  0.85293000  1.0
  C  C125  1  0.34528000  0.30017000  0.89759000  1.0
  C  C126  1  0.33878000  0.49140000  0.83625000  1.0
  C  C127  1  0.41395000  0.25887000  0.91370000  1.0
  C  C128  1  0.34268000  0.36958000  0.87531000  1.0
  C  C129  1  0.40958000  0.37938000  0.87513000  1.0
  C  C130  1  0.94511000  0.79439000  0.84919000  1.0
  C  C131  1  0.80384000  0.95281000  0.90107000  1.0
  C  C132  1  0.99140000  0.83316000  0.83609000  1.0
  C  C133  1  0.75892000  0.91298000  0.91363000  1.0
  C  C134  1  0.87192000  0.90961000  0.87751000  1.0
  C  C135  1  0.87709000  0.83780000  0.87276000  1.0
  S  S136  1  0.29888000  0.32645000  0.39724000  1.0
  S  S137  1  0.45102000  0.42651000  0.35301000  1.0
  S  S138  1  0.66092000  0.63328000  0.56268000  1.0
  S  S139  1  0.59018000  0.61544000  0.68880000  1.0
  S  S140  1  0.13387000  0.16029000  0.56269000  1.0
  S  S141  1  0.11542000  0.09008000  0.68887000  1.0
  S  S142  1  0.97237000  0.80359000  0.40191000  1.0
  S  S143  1  0.77416000  0.94597000  0.34784000  1.0
  S  S144  1  0.61657000  0.58902000  0.18718000  1.0
  S  S145  1  0.63450000  0.65966000  0.06103000  1.0
  S  S146  1  0.01395000  0.18200000  0.11213000  1.0
  S  S147  1  0.23844000  0.06600000  0.13989000  1.0
  S  S148  1  0.27740000  0.44610000  0.84801000  1.0
  S  S149  1  0.47559000  0.30364000  0.90210000  1.0
  S  S150  1  0.95109000  0.92297000  0.85282000  1.0
  S  S151  1  0.79868000  0.82327000  0.89712000  1.0
  Br  Br152  1  0.28483000  0.55265000  0.41184000  1.0
  Br  Br153  1  0.79548000  0.52716000  0.66915000  1.0
  Br  Br154  1  0.02763000  0.29503000  0.66881000  1.0
  Br  Br155  1  0.76022000  0.77459000  0.40154000  1.0
  Br  Br156  1  0.72186000  0.45446000  0.08099000  1.0
  Br  Br157  1  0.10626000  0.09046000  0.23265000  1.0
  Br  Br158  1  0.48969000  0.47486000  0.84835000  1.0
  Br  Br159  1  0.96521000  0.69664000  0.83854000  1.0
  O  O160  1  0.00072000  0.49859000  0.49989000  1.0
  O  O161  1  0.07870000  0.31404000  0.52279000  1.0
  O  O162  1  0.03171000  0.53184000  0.58531000  1.0
  O  O163  1  0.15445000  0.50576000  0.45035000  1.0
  O  O164  1  0.02657000  0.37515000  0.58027000  1.0
  O  O165  1  0.15447000  0.39108000  0.44644000  1.0
  O  O166  1  0.08487000  0.58679000  0.53020000  1.0
  O  O167  1  0.00367000  0.65870000  0.45011000  1.0
  O  O168  1  0.88653000  0.49639000  0.44250000  1.0
  O  O169  1  0.89181000  0.65134000  0.44760000  1.0
  O  O170  1  0.99579000  0.38749000  0.44191000  1.0
  O  O171  1  0.87609000  0.52643000  0.58046000  1.0
  O  O172  1  0.81423000  0.57717000  0.52311000  1.0
  O  O173  1  0.74941000  0.25047000  0.25076000  1.0
  O  O174  1  0.59631000  0.35859000  0.30303000  1.0
  O  O175  1  0.66466000  0.16457000  0.21893000  1.0
  O  O176  1  0.72552000  0.37385000  0.16986000  1.0
  O  O177  1  0.59264000  0.24504000  0.30013000  1.0
  O  O178  1  0.67199000  0.43553000  0.22704000  1.0
  O  O179  1  0.72067000  0.21841000  0.16468000  1.0
  O  O180  1  0.87761000  0.22238000  0.16908000  1.0
  O  O181  1  0.86189000  0.25436000  0.30944000  1.0
  O  O182  1  0.93254000  0.17296000  0.22869000  1.0
  O  O183  1  0.75327000  0.36420000  0.30820000  1.0
  O  O184  1  0.74462000  0.09352000  0.30015000  1.0
  O  O185  1  0.85809000  0.09672000  0.30415000  1.0
  O  O186  1  0.24987000  0.74973000  0.74960000  1.0
  O  O187  1  0.37579000  0.72524000  0.66853000  1.0
  O  O188  1  0.36210000  0.75543000  0.80796000  1.0
  O  O189  1  0.17230000  0.93349000  0.72754000  1.0
  O  O190  1  0.43394000  0.67368000  0.72721000  1.0
  O  O191  1  0.22487000  0.87587000  0.66886000  1.0
  O  O192  1  0.25205000  0.86344000  0.80807000  1.0
  O  O193  1  0.09526000  0.85844000  0.80374000  1.0
  O  O194  1  0.16611000  0.66314000  0.71813000  1.0
  O  O195  1  0.09551000  0.74397000  0.79925000  1.0
  O  O196  1  0.21937000  0.71950000  0.66356000  1.0
  O  O197  1  0.35789000  0.59852000  0.80273000  1.0
  O  O198  1  0.24610000  0.59123000  0.79982000  1.0
  O  O199  1  0.50006000  0.00004000  0.99999000  1.0
  O  O200  1  0.50528000  0.15609000  0.94966000  1.0
  O  O201  1  0.38627000  0.99680000  0.94160000  1.0
  O  O202  1  0.65295000  0.89170000  0.94664000  1.0
  O  O203  1  0.39090000  0.15375000  0.94691000  1.0
  O  O204  1  0.65689000  0.00502000  0.94972000  1.0
  O  O205  1  0.49543000  0.88754000  0.94139000  1.0
  O  O206  1  0.57726000  0.81623000  0.02241000  1.0
  O  O207  1  0.53172000  0.03135000  0.08571000  1.0
  O  O208  1  0.52623000  0.87414000  0.08106000  1.0
  O  O209  1  0.58635000  0.08576000  0.03086000  1.0
  O  O210  1  0.31558000  0.07823000  0.02248000  1.0
  O  O211  1  0.37466000  0.02558000  0.08081000  1.0
  O  O212  1  0.78192000  0.51807000  0.39969000  1.0
  O  O213  1  0.15970000  0.65953000  0.54075000  1.0
  O  O214  1  0.70871000  0.20907000  0.09091000  1.0
  O  O215  1  0.23169000  0.96870000  0.85016000  1.0
