# generated using pymatgen
data_CuH2(CO)3
_symmetry_space_group_name_H-M   'P 1'
_cell_length_a   3.68598000
_cell_length_b   10.77180000
_cell_length_c   14.10610000
_cell_angle_alpha   89.99990000
_cell_angle_beta   89.99960000
_cell_angle_gamma   96.29130000
_symmetry_Int_Tables_number   1
_chemical_formula_structural   CuH2(CO)3
_chemical_formula_sum   'Cu6 H12 C18 O18'
_cell_volume   556.70460551
_cell_formula_units_Z   6
loop_
 _symmetry_equiv_pos_site_id
 _symmetry_equiv_pos_as_xyz
  1  'x, y, z'
loop_
 _atom_site_type_symbol
 _atom_site_label
 _atom_site_symmetry_multiplicity
 _atom_site_fract_x
 _atom_site_fract_y
 _atom_site_fract_z
 _atom_site_occupancy
  Cu  Cu0  1  0.55639000  0.27611000  0.63122000  1.0
  Cu  Cu1  1  0.44361000  0.72389000  0.13122000  1.0
  Cu  Cu2  1  0.44360000  0.72389000  0.36879000  1.0
  Cu  Cu3  1  0.55640000  0.27611000  0.86879000  1.0
  Cu  Cu4  1  0.00001000  0.50001000  0.50000000  1.0
  Cu  Cu5  1  0.00000000  0.49999000  0.99999000  1.0
  H  H6  1  0.65652000  0.44588000  0.75000000  1.0
  H  H7  1  0.34348000  0.55412000  0.25000000  1.0
  H  H8  1  0.10882000  0.42243000  0.65635000  1.0
  H  H9  1  0.89118000  0.57757000  0.15635000  1.0
  H  H10  1  0.89119000  0.57757000  0.34365000  1.0
  H  H11  1  0.10881000  0.42243000  0.84365000  1.0
  H  H12  1  0.67815000  0.36073000  0.25001000  1.0
  H  H13  1  0.32185000  0.63927000  0.75000000  1.0
  H  H14  1  0.13637000  0.04781000  0.40283000  1.0
  H  H15  1  0.86365000  0.95218000  0.90283000  1.0
  H  H16  1  0.86364000  0.95218000  0.59717000  1.0
  H  H17  1  0.13634000  0.04782000  0.09716000  1.0
  C  C18  1  0.54286000  0.27381000  0.42700000  1.0
  C  C19  1  0.45714000  0.72620000  0.92700000  1.0
  C  C20  1  0.45714000  0.72620000  0.57300000  1.0
  C  C21  1  0.54284000  0.27381000  0.07301000  1.0
  C  C22  1  0.41968000  0.21134000  0.33603000  1.0
  C  C23  1  0.58032000  0.78866000  0.83603000  1.0
  C  C24  1  0.58031000  0.78866000  0.66397000  1.0
  C  C25  1  0.41967000  0.21135000  0.16397000  1.0
  C  C26  1  0.51554000  0.27025000  0.24999000  1.0
  C  C27  1  0.48444000  0.72976000  0.75000000  1.0
  C  C28  1  0.86797000  0.91494000  0.25000000  1.0
  C  C29  1  0.13203000  0.08506000  0.75001000  1.0
  C  C30  1  0.10595000  0.03712000  0.25000000  1.0
  C  C31  1  0.89404000  0.96289000  0.75000000  1.0
  C  C32  1  0.21421000  0.09416000  0.33615000  1.0
  C  C33  1  0.78581000  0.90584000  0.83614000  1.0
  C  C34  1  0.78581000  0.90585000  0.66386000  1.0
  C  C35  1  0.21419000  0.09415000  0.16386000  1.0
  O  O36  1  0.48824000  0.36935000  0.75000000  1.0
  O  O37  1  0.51177000  0.63064000  0.25000000  1.0
  O  O38  1  0.99706000  0.38109000  0.59995000  1.0
  O  O39  1  0.00295000  0.61891000  0.09995000  1.0
  O  O40  1  0.00300000  0.61892000  0.40005000  1.0
  O  O41  1  0.99701000  0.38108000  0.90005000  1.0
  O  O42  1  0.65333000  0.39114000  0.42087000  1.0
  O  O43  1  0.34666000  0.60886000  0.92087000  1.0
  O  O44  1  0.34664000  0.60885000  0.57912000  1.0
  O  O45  1  0.65334000  0.39115000  0.07913000  1.0
  O  O46  1  0.52472000  0.20712000  0.50118000  1.0
  O  O47  1  0.47530000  0.79288000  0.00118000  1.0
  O  O48  1  0.47531000  0.79288000  0.49881000  1.0
  O  O49  1  0.52469000  0.20713000  0.99882000  1.0
  O  O50  1  0.77736000  0.86936000  0.33107000  1.0
  O  O51  1  0.22265000  0.13064000  0.83107000  1.0
  O  O52  1  0.22260000  0.13062000  0.66893000  1.0
  O  O53  1  0.77740000  0.86938000  0.16893000  1.0
