# generated using pymatgen
data_HoH6C8NO8
_symmetry_space_group_name_H-M   'P 1'
_cell_length_a   6.31997000
_cell_length_b   9.33174000
_cell_length_c   9.75413000
_cell_angle_alpha   72.58140000
_cell_angle_beta   81.01850000
_cell_angle_gamma   83.27130000
_symmetry_Int_Tables_number   1
_chemical_formula_structural   HoH6C8NO8
_chemical_formula_sum   'Ho2 H12 C16 N2 O16'
_cell_volume   540.63676496
_cell_formula_units_Z   2
loop_
 _symmetry_equiv_pos_site_id
 _symmetry_equiv_pos_as_xyz
  1  'x, y, z'
loop_
 _atom_site_type_symbol
 _atom_site_label
 _atom_site_symmetry_multiplicity
 _atom_site_fract_x
 _atom_site_fract_y
 _atom_site_fract_z
 _atom_site_occupancy
  Ho  Ho0  1  0.09196000  0.29033000  0.30316000  1.0
  Ho  Ho1  1  0.90802000  0.70968000  0.69682000  1.0
  H  H2  1  0.20729000  0.02195000  0.95748000  1.0
  H  H3  1  0.79273000  0.97803000  0.04252000  1.0
  H  H4  1  0.38868000  0.79585000  0.93269000  1.0
  H  H5  1  0.61136000  0.20413000  0.06733000  1.0
  H  H6  1  0.52834000  0.61070000  0.15198000  1.0
  H  H7  1  0.47169000  0.38928000  0.84806000  1.0
  H  H8  1  0.44805000  0.67442000  0.38929000  1.0
  H  H9  1  0.55194000  0.32559000  0.61073000  1.0
  H  H10  1  0.55020000  0.23399000  0.35839000  1.0
  H  H11  1  0.44978000  0.76602000  0.64160000  1.0
  H  H12  1  0.56489000  0.34768000  0.20578000  1.0
  H  H13  1  0.43510000  0.65232000  0.79421000  1.0
  C  C14  1  0.21314000  0.99370000  0.17295000  1.0
  C  C15  1  0.78687000  0.00629000  0.82706000  1.0
  C  C16  1  0.05931000  0.44088000  0.55858000  1.0
  C  C17  1  0.94067000  0.55914000  0.44140000  1.0
  C  C18  1  0.36534000  0.81476000  0.03890000  1.0
  C  C19  1  0.63469000  0.18522000  0.96112000  1.0
  C  C20  1  0.43978000  0.71533000  0.15957000  1.0
  C  C21  1  0.56025000  0.28466000  0.84046000  1.0
  C  C22  1  0.39408000  0.75207000  0.29106000  1.0
  C  C23  1  0.60591000  0.24793000  0.70895000  1.0
  C  C24  1  0.28321000  0.88700000  0.30033000  1.0
  C  C25  1  0.71680000  0.11300000  0.69968000  1.0
  C  C26  1  0.23484000  0.92134000  0.44228000  1.0
  C  C27  1  0.76514000  0.07868000  0.55770000  1.0
  C  C28  1  0.88086000  0.48292000  0.01598000  1.0
  C  C29  1  0.11913000  0.51708000  0.98401000  1.0
  N  N30  1  0.25615000  0.94648000  0.04848000  1.0
  N  N31  1  0.74386000  0.05350000  0.95153000  1.0
  O  O32  1  0.82518000  0.38717000  0.13619000  1.0
  O  O33  1  0.17482000  0.61283000  0.86379000  1.0
  O  O34  1  0.11476000  0.12220000  0.16231000  1.0
  O  O35  1  0.88525000  0.87779000  0.83768000  1.0
  O  O36  1  0.14800000  0.32473000  0.52583000  1.0
  O  O37  1  0.85199000  0.67529000  0.47417000  1.0
  O  O38  1  0.21063000  0.05568000  0.44639000  1.0
  O  O39  1  0.78938000  0.94432000  0.55361000  1.0
  O  O40  1  0.76056000  0.55179000  0.92179000  1.0
  O  O41  1  0.23942000  0.44823000  0.07820000  1.0
  O  O42  1  0.22181000  0.80749000  0.55686000  1.0
  O  O43  1  0.77816000  0.19253000  0.44314000  1.0
  O  O44  1  0.05699000  0.47102000  0.67721000  1.0
  O  O45  1  0.94298000  0.52897000  0.32278000  1.0
  O  O46  1  0.46023000  0.28620000  0.28082000  1.0
  O  O47  1  0.53976000  0.71379000  0.71916000  1.0
