# generated using pymatgen
data_Cd5H20C16S2O23
_symmetry_space_group_name_H-M   'P 1'
_cell_length_a   8.04158000
_cell_length_b   12.09330000
_cell_length_c   15.24400000
_cell_angle_alpha   80.03010000
_cell_angle_beta   86.75130000
_cell_angle_gamma   73.12190000
_symmetry_Int_Tables_number   1
_chemical_formula_structural   Cd5H20C16S2O23
_chemical_formula_sum   'Cd10 H40 C32 S4 O46'
_cell_volume   1397.15466994
_cell_formula_units_Z   2
loop_
 _symmetry_equiv_pos_site_id
 _symmetry_equiv_pos_as_xyz
  1  'x, y, z'
loop_
 _atom_site_type_symbol
 _atom_site_label
 _atom_site_symmetry_multiplicity
 _atom_site_fract_x
 _atom_site_fract_y
 _atom_site_fract_z
 _atom_site_occupancy
  Cd  Cd0  1  0.77360000  0.38152000  0.34871000  1.0
  Cd  Cd1  1  0.22640000  0.61848000  0.65129000  1.0
  Cd  Cd2  1  0.63954000  0.38958000  0.57487000  1.0
  Cd  Cd3  1  0.36046000  0.61042000  0.42513000  1.0
  Cd  Cd4  1  0.51609000  0.83853000  0.21459000  1.0
  Cd  Cd5  1  0.48391000  0.16147000  0.78541000  1.0
  Cd  Cd6  1  0.86084000  0.10532000  0.92649000  1.0
  Cd  Cd7  1  0.13916000  0.89468000  0.07351000  1.0
  Cd  Cd8  1  0.75219000  0.11500000  0.15805000  1.0
  Cd  Cd9  1  0.24781000  0.88500000  0.84195000  1.0
  H  H10  1  0.71277000  0.56335000  0.43930000  1.0
  H  H11  1  0.28723000  0.43665000  0.56070000  1.0
  H  H12  1  0.52000000  0.30659000  0.27670000  1.0
  H  H13  1  0.48000000  0.69341000  0.72330000  1.0
  H  H14  1  0.57228000  0.38910000  0.19888000  1.0
  H  H15  1  0.42772000  0.61090000  0.80112000  1.0
  H  H16  1  0.53180000  0.36860000  0.74138000  1.0
  H  H17  1  0.46820000  0.63140000  0.25862000  1.0
  H  H18  1  0.67661000  0.53813000  0.69185000  1.0
  H  H19  1  0.32339000  0.46187000  0.30815000  1.0
  H  H20  1  0.80454000  0.71834000  0.31671000  1.0
  H  H21  1  0.19546000  0.28166000  0.68329000  1.0
  H  H22  1  0.82609000  0.65393000  0.23207000  1.0
  H  H23  1  0.17391000  0.34607000  0.76794000  1.0
  H  H24  1  0.32457000  0.03614000  0.12505000  1.0
  H  H25  1  0.67543000  0.96386000  0.87495000  1.0
  H  H26  1  0.78740000  0.26604000  0.76624000  1.0
  H  H27  1  0.21260000  0.73396000  0.23376000  1.0
  H  H28  1  0.99717000  0.24054000  0.78094000  1.0
  H  H29  1  0.00283000  0.75946000  0.21907000  1.0
  H  H30  1  0.78508000  0.93576000  0.06199000  1.0
  H  H31  1  0.21492000  0.06424000  0.93801000  1.0
  H  H32  1  0.98242000  0.10629000  0.29354000  1.0
  H  H33  1  0.01757000  0.89371000  0.70646000  1.0
  H  H34  1  0.10714000  0.03291000  0.22124000  1.0
  H  H35  1  0.89286000  0.96708000  0.77876000  1.0
  H  H36  1  0.47328000  0.86856000  0.40341000  1.0
  H  H37  1  0.52672000  0.13144000  0.59658000  1.0
  H  H38  1  0.30304000  0.24569000  0.36961000  1.0
  H  H39  1  0.69696000  0.75431000  0.63039000  1.0
  H  H40  1  0.09675000  0.04029000  0.58448000  1.0
  H  H41  1  0.90326000  0.95971000  0.41552000  1.0
  H  H42  1  0.01461000  0.63486000  0.09555000  1.0
  H  H43  1  0.98540000  0.36514000  0.90445000  1.0
  H  H44  1  0.19083000  0.25794000  0.13477000  1.0
  H  H45  1  0.80917000  0.74206000  0.86523000  1.0
  H  H46  1  0.40215000  0.46034000  0.92008000  1.0
  H  H47  1  0.59785000  0.53966000  0.07991000  1.0
  H  H48  1  0.83014000  0.54561000  0.62077000  1.0
  H  H49  1  0.16986000  0.45439000  0.37923000  1.0
  C  C50  1  0.28018000  0.94291000  0.49620000  1.0
  C  C51  1  0.71983000  0.05709000  0.50380000  1.0
  C  C52  1  0.39018000  0.94969000  0.42221000  1.0
  C  C53  1  0.60983000  0.05031000  0.57779000  1.0
  C  C54  1  0.39835000  0.05845000  0.37599000  1.0
  C  C55  1  0.60165000  0.94155000  0.62401000  1.0
  C  C56  1  0.29751000  0.16090000  0.40521000  1.0
  C  C57  1  0.70250000  0.83910000  0.59479000  1.0
  C  C58  1  0.19209000  0.15317000  0.48022000  1.0
  C  C59  1  0.80791000  0.84683000  0.51978000  1.0
  C  C60  1  0.18022000  0.04538000  0.52595000  1.0
  C  C61  1  0.81978000  0.95462000  0.47405000  1.0
  C  C62  1  0.27671000  0.82524000  0.54533000  1.0
  C  C63  1  0.72329000  0.17476000  0.45467000  1.0
  C  C64  1  0.52092000  0.06726000  0.29969000  1.0
  C  C65  1  0.47908000  0.93274000  0.70031000  1.0
  C  C66  1  0.20959000  0.55992000  0.00333000  1.0
  C  C67  1  0.79041000  0.44008000  0.99667000  1.0
  C  C68  1  0.09747000  0.55396000  0.07669000  1.0
  C  C69  1  0.90254000  0.44605000  0.92330000  1.0
  C  C70  1  0.09282000  0.44525000  0.12451000  1.0
  C  C71  1  0.90718000  0.55475000  0.87549000  1.0
  C  C72  1  0.19738000  0.34197000  0.09781000  1.0
  C  C73  1  0.80262000  0.65803000  0.90219000  1.0
  C  C74  1  0.30465000  0.34881000  0.02352000  1.0
  C  C75  1  0.69535000  0.65119000  0.97648000  1.0
  C  C76  1  0.31452000  0.45657000  0.97676000  1.0
  C  C77  1  0.68548000  0.54343000  0.02324000  1.0
  C  C78  1  0.20965000  0.67660000  0.95084000  1.0
  C  C79  1  0.79035000  0.32340000  0.04917000  1.0
  C  C80  1  0.97246000  0.43366000  0.20165000  1.0
  C  C81  1  0.02754000  0.56634000  0.79835000  1.0
  S  S82  1  0.08172000  0.28477000  0.52031000  1.0
  S  S83  1  0.91828000  0.71523000  0.47969000  1.0
  S  S84  1  0.42645000  0.21660000  0.98791000  1.0
  S  S85  1  0.57355000  0.78340000  0.01209000  1.0
  O  O86  1  0.03244000  0.37701000  0.44139000  1.0
  O  O87  1  0.96756000  0.62299000  0.55862000  1.0
  O  O88  1  0.16441000  0.81962000  0.60727000  1.0
  O  O89  1  0.83559000  0.18038000  0.39272000  1.0
  O  O90  1  0.93324000  0.26197000  0.57294000  1.0
  O  O91  1  0.06676000  0.73803000  0.42706000  1.0
  O  O92  1  0.38855000  0.73434000  0.52467000  1.0
  O  O93  1  0.61145000  0.26566000  0.47533000  1.0
  O  O94  1  0.21076000  0.30797000  0.57448000  1.0
  O  O95  1  0.78924000  0.69203000  0.42552000  1.0
  O  O96  1  0.60798000  0.97615000  0.26832000  1.0
  O  O97  1  0.39202000  0.02385000  0.73168000  1.0
  O  O98  1  0.31470000  0.18389000  0.92872000  1.0
  O  O99  1  0.68530000  0.81611000  0.07128000  1.0
  O  O100  1  0.54211000  0.16709000  0.26789000  1.0
  O  O101  1  0.45788000  0.83291000  0.73211000  1.0
  O  O102  1  0.57447000  0.24469000  0.93647000  1.0
  O  O103  1  0.42553000  0.75531000  0.06353000  1.0
  O  O104  1  0.10054000  0.76910000  0.96942000  1.0
  O  O105  1  0.89945000  0.23090000  0.03059000  1.0
  O  O106  1  0.47542000  0.12880000  0.06892000  1.0
  O  O107  1  0.52459000  0.87120000  0.93108000  1.0
  O  O108  1  0.31914000  0.68028000  0.88639000  1.0
  O  O109  1  0.68086000  0.31972000  0.11361000  1.0
  O  O110  1  0.84755000  0.52166000  0.21759000  1.0
  O  O111  1  0.15245000  0.47834000  0.78241000  1.0
  O  O112  1  0.99520000  0.33254000  0.24865000  1.0
  O  O113  1  0.00480000  0.66746000  0.75135000  1.0
  O  O114  1  0.64810000  0.50563000  0.43870000  1.0
  O  O115  1  0.35190000  0.49437000  0.56129000  1.0
  O  O116  1  0.52880000  0.38856000  0.26164000  1.0
  O  O117  1  0.47120000  0.61144000  0.73836000  1.0
  O  O118  1  0.59577000  0.30053000  0.71486000  1.0
  O  O119  1  0.40423000  0.69947000  0.28514000  1.0
  O  O120  1  0.76777000  0.49268000  0.65520000  1.0
  O  O121  1  0.23223000  0.50732000  0.34480000  1.0
  O  O122  1  0.80052000  0.73345000  0.25021000  1.0
  O  O123  1  0.19948000  0.26655000  0.74979000  1.0
  O  O124  1  0.27892000  0.97578000  0.16123000  1.0
  O  O125  1  0.72108000  0.02422000  0.83877000  1.0
  O  O126  1  0.88407000  0.24233000  0.81075000  1.0
  O  O127  1  0.11593000  0.75767000  0.18925000  1.0
  O  O128  1  0.85194000  0.99212000  0.06264000  1.0
  O  O129  1  0.14805000  0.00788000  0.93736000  1.0
  O  O130  1  0.98812000  0.05390000  0.25045000  1.0
  O  O131  1  0.01188000  0.94610000  0.74955000  1.0
