# generated using pymatgen
data_CoH14C14(N2Cl)2
_symmetry_space_group_name_H-M   'P 1'
_cell_length_a   10.03930000
_cell_length_b   11.25420000
_cell_length_c   14.49430000
_cell_angle_alpha   90.00000000
_cell_angle_beta   90.00000000
_cell_angle_gamma   90.00000000
_symmetry_Int_Tables_number   1
_chemical_formula_structural   CoH14C14(N2Cl)2
_chemical_formula_sum   'Co4 H56 C56 N16 Cl8'
_cell_volume   1637.62819542
_cell_formula_units_Z   4
loop_
 _symmetry_equiv_pos_site_id
 _symmetry_equiv_pos_as_xyz
  1  'x, y, z'
loop_
 _atom_site_type_symbol
 _atom_site_label
 _atom_site_symmetry_multiplicity
 _atom_site_fract_x
 _atom_site_fract_y
 _atom_site_fract_z
 _atom_site_occupancy
  Co  Co0  1  0.92325000  0.00000000  0.25000000  1.0
  Co  Co1  1  0.57677000  0.50000000  0.75000000  1.0
  Co  Co2  1  0.07676000  0.00000000  0.75000000  1.0
  Co  Co3  1  0.42323000  0.50000000  0.25000000  1.0
  H  H4  1  0.68171000  0.37777000  0.50853000  1.0
  H  H5  1  0.81829000  0.12222000  0.00854000  1.0
  H  H6  1  0.68171000  0.62223000  0.99147000  1.0
  H  H7  1  0.81829000  0.87778000  0.49147000  1.0
  H  H8  1  0.31829000  0.62223000  0.49147000  1.0
  H  H9  1  0.18171000  0.87778000  0.99147000  1.0
  H  H10  1  0.31829000  0.37777000  0.00853000  1.0
  H  H11  1  0.18171000  0.12222000  0.50853000  1.0
  H  H12  1  0.90895000  0.12061000  0.44895000  1.0
  H  H13  1  0.59104000  0.37938000  0.94895000  1.0
  H  H14  1  0.90895000  0.87939000  0.05104000  1.0
  H  H15  1  0.59104000  0.62062000  0.55105000  1.0
  H  H16  1  0.09104000  0.87939000  0.55104000  1.0
  H  H17  1  0.40896000  0.62062000  0.05105000  1.0
  H  H18  1  0.09104000  0.12061000  0.94896000  1.0
  H  H19  1  0.40896000  0.37938000  0.44895000  1.0
  H  H20  1  0.80187000  0.53844000  0.40121000  1.0
  H  H21  1  0.69812000  0.96157000  0.90121000  1.0
  H  H22  1  0.80187000  0.46156000  0.09880000  1.0
  H  H23  1  0.69813000  0.03843000  0.59879000  1.0
  H  H24  1  0.19813000  0.46157000  0.59879000  1.0
  H  H25  1  0.30187000  0.03843000  0.09879000  1.0
  H  H26  1  0.19813000  0.53843000  0.90121000  1.0
  H  H27  1  0.30187000  0.96157000  0.40121000  1.0
  H  H28  1  0.69630000  0.19436000  0.20367000  1.0
  H  H29  1  0.80373000  0.30563000  0.70368000  1.0
  H  H30  1  0.69630000  0.80564000  0.29633000  1.0
  H  H31  1  0.80373000  0.69437000  0.79632000  1.0
  H  H32  1  0.30371000  0.80564000  0.79632000  1.0
  H  H33  1  0.19627000  0.69437000  0.29632000  1.0
  H  H34  1  0.30371000  0.19436000  0.70368000  1.0
  H  H35  1  0.19627000  0.30563000  0.20368000  1.0
  H  H36  1  0.00828000  0.32015000  0.59952000  1.0
  H  H37  1  0.49172000  0.17984000  0.09954000  1.0
  H  H38  1  0.00828000  0.67985000  0.90048000  1.0
  H  H39  1  0.49172000  0.82016000  0.40046000  1.0
  H  H40  1  0.99172000  0.67985000  0.40047000  1.0
  H  H41  1  0.50827000  0.82016000  0.90046000  1.0
  H  H42  1  0.99172000  0.32015000  0.09953000  1.0
  H  H43  1  0.50827000  0.17984000  0.59953000  1.0
  H  H44  1  0.64012000  0.36950000  0.33329000  1.0
  H  H45  1  0.85990000  0.13049000  0.83331000  1.0
  H  H46  1  0.64012000  0.63050000  0.16671000  1.0
  H  H47  1  0.85990000  0.86951000  0.66666667  1.0
  H  H48  1  0.35989000  0.63050000  0.66666667  1.0
  H  H49  1  0.14010000  0.86951000  0.16669000  1.0
  H  H50  1  0.35989000  0.36950000  0.83330000  1.0
  H  H51  1  0.14010000  0.13049000  0.33333333  1.0
  H  H52  1  0.78854000  0.26927000  0.55792000  1.0
  H  H53  1  0.71147000  0.23072000  0.05793000  1.0
  H  H54  1  0.78854000  0.73073000  0.94208000  1.0
  H  H55  1  0.71147000  0.76928000  0.44207000  1.0
  H  H56  1  0.21146000  0.73073000  0.44208000  1.0
  H  H57  1  0.28853000  0.76928000  0.94207000  1.0
  H  H58  1  0.21146000  0.26927000  0.05792000  1.0
  H  H59  1  0.28853000  0.23072000  0.55793000  1.0
  C  C60  1  0.84439000  0.16315000  0.39875000  1.0
  C  C61  1  0.65561000  0.33684000  0.89875000  1.0
  C  C62  1  0.84439000  0.83685000  0.10125000  1.0
  C  C63  1  0.65562000  0.66316000  0.60125000  1.0
  C  C64  1  0.15561000  0.83685000  0.60125000  1.0
  C  C65  1  0.34439000  0.66316000  0.10125000  1.0
  C  C66  1  0.15561000  0.16315000  0.89875000  1.0
  C  C67  1  0.34439000  0.33684000  0.39875000  1.0
  C  C68  1  0.89233000  0.42025000  0.50093000  1.0
  C  C69  1  0.60768000  0.07975000  0.00094000  1.0
  C  C70  1  0.89233000  0.57975000  0.99907000  1.0
  C  C71  1  0.60767000  0.92025000  0.49906000  1.0
  C  C72  1  0.10768000  0.57975000  0.49906000  1.0
  C  C73  1  0.39232000  0.92025000  0.99906000  1.0
  C  C74  1  0.10768000  0.42025000  0.00094000  1.0
  C  C75  1  0.39232000  0.07975000  0.50094000  1.0
  C  C76  1  0.77810000  0.33271000  0.50090000  1.0
  C  C77  1  0.72190000  0.16729000  0.00091000  1.0
  C  C78  1  0.77810000  0.66729000  0.99910000  1.0
  C  C79  1  0.72190000  0.83271000  0.49909000  1.0
  C  C80  1  0.22190000  0.66730000  0.49909000  1.0
  C  C81  1  0.27809000  0.83271000  0.99909000  1.0
  C  C82  1  0.22190000  0.33270000  0.00091000  1.0
  C  C83  1  0.27810000  0.16729000  0.50091000  1.0
  C  C84  1  0.00431000  0.39964000  0.55631000  1.0
  C  C85  1  0.49570000  0.10036000  0.05632000  1.0
  C  C86  1  0.00431000  0.60036000  0.94368000  1.0
  C  C87  1  0.49570000  0.89964000  0.44368000  1.0
  C  C88  1  0.99570000  0.60036000  0.44368000  1.0
  C  C89  1  0.50430000  0.89964000  0.94368000  1.0
  C  C90  1  0.99569000  0.39963000  0.05632000  1.0
  C  C91  1  0.50430000  0.10036000  0.55632000  1.0
  C  C92  1  0.88879000  0.52123000  0.44450000  1.0
  C  C93  1  0.61121000  0.97878000  0.94451000  1.0
  C  C94  1  0.88879000  0.47877000  0.05550000  1.0
  C  C95  1  0.61121000  0.02122000  0.55549000  1.0
  C  C96  1  0.11122000  0.47877000  0.55549000  1.0
  C  C97  1  0.38878000  0.02123000  0.05550000  1.0
  C  C98  1  0.11122000  0.52123000  0.94451000  1.0
  C  C99  1  0.38878000  0.97877000  0.44450000  1.0
  C  C100  1  0.70259000  0.29119000  0.33682000  1.0
  C  C101  1  0.79742000  0.20881000  0.83683000  1.0
  C  C102  1  0.70259000  0.70881000  0.16318000  1.0
  C  C103  1  0.79742000  0.79119000  0.66317000  1.0
  C  C104  1  0.29741000  0.70882000  0.66318000  1.0
  C  C105  1  0.20258000  0.79119000  0.16317000  1.0
  C  C106  1  0.29741000  0.29118000  0.83682000  1.0
  C  C107  1  0.20258000  0.20881000  0.33683000  1.0
  C  C108  1  0.73311000  0.20514000  0.27324000  1.0
  C  C109  1  0.76692000  0.29486000  0.77325000  1.0
  C  C110  1  0.73310000  0.79486000  0.22676000  1.0
  C  C111  1  0.76692000  0.70514000  0.72675000  1.0
  C  C112  1  0.26690000  0.79486000  0.72676000  1.0
  C  C113  1  0.23308000  0.70515000  0.22675000  1.0
  C  C114  1  0.26690000  0.20514000  0.77324000  1.0
  C  C115  1  0.23308000  0.29485000  0.27325000  1.0
  N  N116  1  0.77305000  0.26282000  0.41557000  1.0
  N  N117  1  0.72695000  0.23718000  0.91559000  1.0
  N  N118  1  0.77305000  0.73718000  0.08443000  1.0
  N  N119  1  0.72695000  0.76282000  0.58442000  1.0
  N  N120  1  0.22695000  0.73718000  0.58442000  1.0
  N  N121  1  0.27305000  0.76283000  0.08442000  1.0
  N  N122  1  0.22695000  0.26282000  0.91558000  1.0
  N  N123  1  0.27305000  0.23717000  0.41558000  1.0
  N  N124  1  0.82194000  0.12589000  0.31245000  1.0
  N  N125  1  0.67807000  0.37411000  0.81245000  1.0
  N  N126  1  0.82194000  0.87412000  0.18755000  1.0
  N  N127  1  0.67808000  0.62589000  0.68754000  1.0
  N  N128  1  0.17806000  0.87411000  0.68754000  1.0
  N  N129  1  0.32193000  0.62589000  0.18755000  1.0
  N  N130  1  0.17806000  0.12589000  0.81246000  1.0
  N  N131  1  0.32193000  0.37411000  0.31245000  1.0
  Cl  Cl132  1  0.04019000  0.91690000  0.36540000  1.0
  Cl  Cl133  1  0.45973000  0.58314000  0.86534000  1.0
  Cl  Cl134  1  0.04019000  0.08310000  0.13460000  1.0
  Cl  Cl135  1  0.45973000  0.41686000  0.63467000  1.0
  Cl  Cl136  1  0.95981000  0.08310000  0.63461000  1.0
  Cl  Cl137  1  0.54026000  0.41686000  0.13466000  1.0
  Cl  Cl138  1  0.95981000  0.91690000  0.86539000  1.0
  Cl  Cl139  1  0.54026000  0.58314000  0.36534000  1.0
