# generated using pymatgen
data_HgH14C16(SN3)2
_symmetry_space_group_name_H-M   'P 1'
_cell_length_a   6.89859000
_cell_length_b   10.93343986
_cell_length_c   13.36420000
_cell_angle_alpha   77.49809583
_cell_angle_beta   75.04300000
_cell_angle_gamma   71.62028691
_symmetry_Int_Tables_number   1
_chemical_formula_structural   HgH14C16(SN3)2
_chemical_formula_sum   'Hg2 H28 C32 S4 N12'
_cell_volume   914.08239520
_cell_formula_units_Z   2
loop_
 _symmetry_equiv_pos_site_id
 _symmetry_equiv_pos_as_xyz
  1  'x, y, z'
loop_
 _atom_site_type_symbol
 _atom_site_label
 _atom_site_symmetry_multiplicity
 _atom_site_fract_x
 _atom_site_fract_y
 _atom_site_fract_z
 _atom_site_occupancy
  Hg  Hg0  1  0.28830000  0.24998000  0.75007000  1.0
  Hg  Hg1  1  0.71170000  0.75002000  0.24993000  1.0
  H  H2  1  0.66043000  0.24727000  0.55508000  1.0
  H  H3  1  0.46292000  0.25272000  0.94498000  1.0
  H  H4  1  0.33957000  0.75273000  0.44492000  1.0
  H  H5  1  0.53708000  0.74728000  0.05502000  1.0
  H  H6  1  0.04141000  0.15990000  0.49330000  1.0
  H  H7  1  0.69459000  0.34032000  0.00674000  1.0
  H  H8  1  0.95858000  0.84010000  0.50670000  1.0
  H  H9  1  0.30541000  0.65969000  0.99326000  1.0
  H  H10  1  0.05116000  0.89742000  0.78626000  1.0
  H  H11  1  0.73521000  0.60249000  0.71363000  1.0
  H  H12  1  0.94882000  0.10258000  0.21374000  1.0
  H  H13  1  0.26479000  0.39751000  0.28637000  1.0
  H  H14  1  0.66912000  0.99553000  0.83659000  1.0
  H  H15  1  0.50157000  0.50425000  0.66336000  1.0
  H  H16  1  0.33087000  0.00447000  0.16341000  1.0
  H  H17  1  0.49843000  0.49575000  0.33664000  1.0
  H  H18  1  0.56780000  0.79413000  0.60909000  1.0
  H  H19  1  0.97133000  0.70589000  0.89091000  1.0
  H  H20  1  0.43219000  0.20587000  0.39092000  1.0
  H  H21  1  0.02866000  0.29412000  0.10909000  1.0
  H  H22  1  0.31942000  0.75864000  0.65044000  1.0
  H  H23  1  0.72883000  0.74139000  0.84953000  1.0
  H  H24  1  0.68057000  0.24136000  0.34956000  1.0
  H  H25  1  0.27117000  0.25861000  0.15046000  1.0
  H  H26  1  0.40227000  0.83177000  0.73212000  1.0
  H  H27  1  0.96644000  0.66823000  0.76785000  1.0
  H  H28  1  0.59772000  0.16823000  0.26787000  1.0
  H  H29  1  0.03355000  0.33178000  0.23215000  1.0
  C  C30  1  0.75230000  0.16905000  0.60400000  1.0
  C  C31  1  0.52546000  0.33097000  0.89604000  1.0
  C  C32  1  0.24770000  0.83095000  0.39599000  1.0
  C  C33  1  0.47454000  0.66903000  0.10396000  1.0
  C  C34  1  0.96544000  0.12032000  0.56978000  1.0
  C  C35  1  0.65556000  0.37977000  0.93023000  1.0
  C  C36  1  0.03456000  0.87968000  0.43021000  1.0
  C  C37  1  0.34443000  0.62024000  0.06977000  1.0
  C  C38  1  0.07970000  0.01880000  0.63393000  1.0
  C  C39  1  0.73254000  0.48126000  0.86604000  1.0
  C  C40  1  0.92029000  0.98120000  0.36607000  1.0
  C  C41  1  0.26747000  0.51874000  0.13396000  1.0
  C  C42  1  0.97092000  0.97381000  0.73202000  1.0
  C  C43  1  0.67697000  0.52614000  0.76792000  1.0
  C  C44  1  0.02909000  0.02618000  0.26798000  1.0
  C  C45  1  0.32303000  0.47386000  0.23208000  1.0
  C  C46  1  0.75705000  0.02885000  0.76089000  1.0
  C  C47  1  0.54706000  0.47105000  0.73908000  1.0
  C  C48  1  0.24294000  0.97115000  0.23911000  1.0
  C  C49  1  0.45295000  0.52895000  0.26092000  1.0
  C  C50  1  0.30497000  0.95933000  0.59728000  1.0
  C  C51  1  0.86170000  0.54071000  0.90268000  1.0
  C  C52  1  0.69503000  0.04067000  0.40272000  1.0
  C  C53  1  0.13830000  0.45930000  0.09732000  1.0
  C  C54  1  0.40589000  0.82802000  0.64990000  1.0
  C  C55  1  0.88409000  0.67201000  0.85008000  1.0
  C  C56  1  0.59410000  0.17198000  0.35011000  1.0
  C  C57  1  0.11590000  0.32800000  0.14992000  1.0
  C  C58  1  0.16876000  0.51115000  0.59435000  1.0
  C  C59  1  0.27454000  0.98883000  0.90578000  1.0
  C  C60  1  0.83125000  0.48885000  0.40565000  1.0
  C  C61  1  0.72548000  0.01116000  0.09422000  1.0
  S  S62  1  0.20367000  0.35909000  0.57725000  1.0
  S  S63  1  0.14014000  0.14083000  0.92293000  1.0
  S  S64  1  0.79633000  0.64090000  0.42275000  1.0
  S  S65  1  0.85989000  0.85915000  0.07707000  1.0
  N  N66  1  0.64869000  0.12349000  0.69749000  1.0
  N  N67  1  0.46986000  0.37644000  0.80253000  1.0
  N  N68  1  0.35130000  0.87651000  0.30251000  1.0
  N  N69  1  0.53015000  0.62356000  0.19747000  1.0
  N  N70  1  0.39616000  0.02879000  0.51796000  1.0
  N  N71  1  0.94288000  0.47123000  0.98203000  1.0
  N  N72  1  0.60383000  0.97121000  0.48204000  1.0
  N  N73  1  0.05712000  0.52878000  0.01797000  1.0
  N  N74  1  0.14194000  0.62041000  0.60381000  1.0
  N  N75  1  0.36657000  0.87961000  0.89627000  1.0
  N  N76  1  0.85808000  0.37958000  0.39619000  1.0
  N  N77  1  0.63344000  0.12038000  0.10373000  1.0
