# generated using pymatgen
data_ZnH6C7NO7
_symmetry_space_group_name_H-M   'P 1'
_cell_length_a   10.23400000
_cell_length_b   11.40980000
_cell_length_c   11.41030000
_cell_angle_alpha   78.96970000
_cell_angle_beta   81.85320000
_cell_angle_gamma   81.84050000
_symmetry_Int_Tables_number   1
_chemical_formula_structural   ZnH6C7NO7
_chemical_formula_sum   'Zn2 H12 C14 N2 O14'
_cell_volume   1285.47513787
_cell_formula_units_Z   2
loop_
 _symmetry_equiv_pos_site_id
 _symmetry_equiv_pos_as_xyz
  1  'x, y, z'
loop_
 _atom_site_type_symbol
 _atom_site_label
 _atom_site_symmetry_multiplicity
 _atom_site_fract_x
 _atom_site_fract_y
 _atom_site_fract_z
 _atom_site_occupancy
  Zn  Zn0  1  0.63064000  0.51061000  0.51056000  1.0
  Zn  Zn1  1  0.35878000  0.51504000  0.51497000  1.0
  H  H2  1  0.66410000  0.10991000  0.51655000  1.0
  H  H3  1  0.05662000  0.58825000  0.58814000  1.0
  H  H4  1  0.93204000  0.43653000  0.43638000  1.0
  H  H5  1  0.71919000  0.64252000  0.64311000  1.0
  H  H6  1  0.27144000  0.38283000  0.38338000  1.0
  H  H7  1  0.28753000  0.03715000  0.59464000  1.0
  H  H8  1  0.65492000  0.95248000  0.62844000  1.0
  H  H9  1  0.65492000  0.62845000  0.95252000  1.0
  H  H10  1  0.33333333  0.92217000  0.47925000  1.0
  H  H11  1  0.28751000  0.59463000  0.03707000  1.0
  H  H12  1  0.33339000  0.47922000  0.92210000  1.0
  H  H13  1  0.66409000  0.51660000  0.10989000  1.0
  C  C14  1  0.44882000  0.50608000  0.74616000  1.0
  C  C15  1  0.93291000  0.49822000  0.49816000  1.0
  C  C16  1  0.05624000  0.52646000  0.52640000  1.0
  C  C17  1  0.42456000  0.87536000  0.51295000  1.0
  C  C18  1  0.56070000  0.14699000  0.53524000  1.0
  C  C19  1  0.56070000  0.53532000  0.14697000  1.0
  C  C20  1  0.42463000  0.51294000  0.87533000  1.0
  C  C21  1  0.53885000  0.53002000  0.27827000  1.0
  C  C22  1  0.50451000  0.94035000  0.55352000  1.0
  C  C23  1  0.46620000  0.07064000  0.55377000  1.0
  C  C24  1  0.46620000  0.55384000  0.07060000  1.0
  C  C25  1  0.50454000  0.55354000  0.94033000  1.0
  C  C26  1  0.53882000  0.27831000  0.52991000  1.0
  C  C27  1  0.44875000  0.74618000  0.50608000  1.0
  N  N28  1  0.17296000  0.48296000  0.48300000  1.0
  N  N29  1  0.81653000  0.54213000  0.54222000  1.0
  O  O30  1  0.56724000  0.50645000  0.69366000  1.0
  O  O31  1  0.64328000  0.52940000  0.32866000  1.0
  O  O32  1  0.64318000  0.32868000  0.52953000  1.0
  O  O33  1  0.34562000  0.69719000  0.49917000  1.0
  O  O34  1  0.34578000  0.49887000  0.69718000  1.0
  O  O35  1  0.81488000  0.61988000  0.62014000  1.0
  O  O36  1  0.17558000  0.40486000  0.40498000  1.0
  O  O37  1  0.42121000  0.52496000  0.33207000  1.0
  O  O38  1  0.33420000  0.10855000  0.56939000  1.0
  O  O39  1  0.62296000  0.89184000  0.59308000  1.0
  O  O40  1  0.62299000  0.59308000  0.89187000  1.0
  O  O41  1  0.33421000  0.56947000  0.10847000  1.0
  O  O42  1  0.42120000  0.33216000  0.52460000  1.0
  O  O43  1  0.56720000  0.69372000  0.50616000  1.0
