# generated using pymatgen
data_Cu3P2H24C34(N2O5)2
_symmetry_space_group_name_H-M   'P 1'
_cell_length_a   8.27665000
_cell_length_b   9.66823000
_cell_length_c   9.82790000
_cell_angle_alpha   86.33340000
_cell_angle_beta   85.13870000
_cell_angle_gamma   88.77090000
_symmetry_Int_Tables_number   1
_chemical_formula_structural   Cu3P2H24C34(N2O5)2
_chemical_formula_sum   'Cu3 P2 H24 C34 N4 O10'
_cell_volume   781.89941373
_cell_formula_units_Z   1
loop_
 _symmetry_equiv_pos_site_id
 _symmetry_equiv_pos_as_xyz
  1  'x, y, z'
loop_
 _atom_site_type_symbol
 _atom_site_label
 _atom_site_symmetry_multiplicity
 _atom_site_fract_x
 _atom_site_fract_y
 _atom_site_fract_z
 _atom_site_occupancy
  Cu  Cu0  1  0.50001000  0.49998000  0.49997000  1.0
  Cu  Cu1  1  0.85664000  0.53058000  0.73502000  1.0
  Cu  Cu2  1  0.14335000  0.46942000  0.26502000  1.0
  P  P3  1  0.84750000  0.34375000  0.47027000  1.0
  P  P4  1  0.15250000  0.65622000  0.52971000  1.0
  H  H5  1  0.63391000  0.28343000  0.72361000  1.0
  H  H6  1  0.36611000  0.71655000  0.27644000  1.0
  H  H7  1  0.02038000  0.78514000  0.82074000  1.0
  H  H8  1  0.97951000  0.21491000  0.17926000  1.0
  H  H9  1  0.88348000  0.12325000  0.68852000  1.0
  H  H10  1  0.11661000  0.87668000  0.31143000  1.0
  H  H11  1  0.69069000  0.16707000  0.29551000  1.0
  H  H12  1  0.30925000  0.83293000  0.70450000  1.0
  H  H13  1  0.61421000  0.39009000  0.20849000  1.0
  H  H14  1  0.38573000  0.60994000  0.79155000  1.0
  H  H15  1  0.47415000  0.13076000  0.89794000  1.0
  H  H16  1  0.52588000  0.86921000  0.10210000  1.0
  H  H17  1  0.04498000  0.89416000  0.04559000  1.0
  H  H18  1  0.95498000  0.10591000  0.95438000  1.0
  H  H19  1  0.74984000  0.56524000  0.24371000  1.0
  H  H20  1  0.25016000  0.43482000  0.75634000  1.0
  H  H21  1  0.80124000  0.87410000  0.71168000  1.0
  H  H22  1  0.19888000  0.12582000  0.28824000  1.0
  H  H23  1  0.60840000  0.91932000  0.32073000  1.0
  H  H24  1  0.39158000  0.08067000  0.67926000  1.0
  H  H25  1  0.46300000  0.18870000  0.14720000  1.0
  H  H26  1  0.53697000  0.81134000  0.85283000  1.0
  H  H27  1  0.90350000  0.77799000  0.26048000  1.0
  H  H28  1  0.09653000  0.22206000  0.73951000  1.0
  C  C29  1  0.79242000  0.16192000  0.49084000  1.0
  C  C30  1  0.20758000  0.83806000  0.50916000  1.0
  C  C31  1  0.70602000  0.44292000  0.99857000  1.0
  C  C32  1  0.29394000  0.55711000  0.00146000  1.0
  C  C33  1  0.62881000  0.30220000  0.83181000  1.0
  C  C34  1  0.37120000  0.69780000  0.16823000  1.0
  C  C35  1  0.96008000  0.74361000  0.91726000  1.0
  C  C36  1  0.03984000  0.25643000  0.08275000  1.0
  C  C37  1  0.79790000  0.56638000  0.02256000  1.0
  C  C38  1  0.20205000  0.43366000  0.97747000  1.0
  C  C39  1  0.82373000  0.07823000  0.60768000  1.0
  C  C40  1  0.17634000  0.92171000  0.39228000  1.0
  C  C41  1  0.71737000  0.10261000  0.38617000  1.0
  C  C42  1  0.28259000  0.89737000  0.61384000  1.0
  C  C43  1  0.61814000  0.36356000  0.10203000  1.0
  C  C44  1  0.38180000  0.63648000  0.89799000  1.0
  C  C45  1  0.53997000  0.21773000  0.93020000  1.0
  C  C46  1  0.46002000  0.78227000  0.06985000  1.0
  C  C47  1  0.97210000  0.80213000  0.04197000  1.0
  C  C48  1  0.02785000  0.19793000  0.95803000  1.0
  C  C49  1  0.80735000  0.61796000  0.15116000  1.0
  C  C50  1  0.19263000  0.38210000  0.84885000  1.0
  C  C51  1  0.77755000  0.94002000  0.62133000  1.0
  C  C52  1  0.22256000  0.05991000  0.37859000  1.0
  C  C53  1  0.67151000  0.96459000  0.39954000  1.0
  C  C54  1  0.32850000  0.03540000  0.60043000  1.0
  C  C55  1  0.53444000  0.24906000  0.06696000  1.0
  C  C56  1  0.46551000  0.75096000  0.93308000  1.0
  C  C57  1  0.89484000  0.73802000  0.16041000  1.0
  C  C58  1  0.10514000  0.26205000  0.83960000  1.0
  C  C59  1  0.69947000  0.88220000  0.51819000  1.0
  C  C60  1  0.30061000  0.11775000  0.48176000  1.0
  C  C61  1  0.63982000  0.73681000  0.53862000  1.0
  C  C62  1  0.36023000  0.26314000  0.46134000  1.0
  N  N63  1  0.71046000  0.41130000  0.86568000  1.0
  N  N64  1  0.28952000  0.58870000  0.13435000  1.0
  N  N65  1  0.87442000  0.62893000  0.90840000  1.0
  N  N66  1  0.12552000  0.37111000  0.09163000  1.0
  O  O67  1  0.64782000  0.66993000  0.65277000  1.0
  O  O68  1  0.35220000  0.33002000  0.34718000  1.0
  O  O69  1  0.70360000  0.42684000  0.41532000  1.0
  O  O70  1  0.29645000  0.57311000  0.58460000  1.0
  O  O71  1  0.89302000  0.38223000  0.61101000  1.0
  O  O72  1  0.10692000  0.61779000  0.38900000  1.0
  O  O73  1  0.99061000  0.34153000  0.35986000  1.0
  O  O74  1  0.00950000  0.65839000  0.64022000  1.0
  O  O75  1  0.57669000  0.68780000  0.43652000  1.0
  O  O76  1  0.42337000  0.31216000  0.56342000  1.0
