# generated using pymatgen
data_CuH6C6(SN4)2
_symmetry_space_group_name_H-M   'P 1'
_cell_length_a   7.93968000
_cell_length_b   8.83338000
_cell_length_c   9.82611000
_cell_angle_alpha   65.36800000
_cell_angle_beta   89.99950000
_cell_angle_gamma   89.99950000
_symmetry_Int_Tables_number   1
_chemical_formula_structural   CuH6C6(SN4)2
_chemical_formula_sum   'Cu2 H12 C12 S4 N16'
_cell_volume   626.43653161
_cell_formula_units_Z   2
loop_
 _symmetry_equiv_pos_site_id
 _symmetry_equiv_pos_as_xyz
  1  'x, y, z'
loop_
 _atom_site_type_symbol
 _atom_site_label
 _atom_site_symmetry_multiplicity
 _atom_site_fract_x
 _atom_site_fract_y
 _atom_site_fract_z
 _atom_site_occupancy
  Cu  Cu0  1  0.00000000  0.00000000  0.00000000  1.0
  Cu  Cu1  1  0.49999000  0.50000000  0.50000000  1.0
  H  H2  1  0.16755000  0.95894000  0.66326000  1.0
  H  H3  1  0.66755000  0.54106000  0.83674000  1.0
  H  H4  1  0.83245000  0.04105000  0.33675000  1.0
  H  H5  1  0.33245000  0.45894000  0.16326000  1.0
  H  H6  1  0.30537000  0.30552000  0.81887000  1.0
  H  H7  1  0.80538000  0.19447000  0.68113000  1.0
  H  H8  1  0.69462000  0.69447000  0.18113000  1.0
  H  H9  1  0.19462000  0.80553000  0.31887000  1.0
  H  H10  1  0.35559000  0.17689000  0.45306000  1.0
  H  H11  1  0.85561000  0.32312000  0.04693000  1.0
  H  H12  1  0.64439000  0.82311000  0.54694000  1.0
  H  H13  1  0.14441000  0.67689000  0.95306000  1.0
  C  C14  1  0.73783000  0.84093000  0.87037000  1.0
  C  C15  1  0.23782000  0.65908000  0.62964000  1.0
  C  C16  1  0.26217000  0.15908000  0.12963000  1.0
  C  C17  1  0.76218000  0.34092000  0.37037000  1.0
  C  C18  1  0.29335000  0.24035000  0.74733000  1.0
  C  C19  1  0.79335000  0.25965000  0.75266000  1.0
  C  C20  1  0.70665000  0.75965000  0.25267000  1.0
  C  C21  1  0.20665000  0.74035000  0.24733000  1.0
  C  C22  1  0.32038000  0.17808000  0.55961000  1.0
  C  C23  1  0.82039000  0.32193000  0.94038000  1.0
  C  C24  1  0.67961000  0.82192000  0.44039000  1.0
  C  C25  1  0.17963000  0.67807000  0.05962000  1.0
  S  S26  1  0.56291000  0.77991000  0.82419000  1.0
  S  S27  1  0.06291000  0.72010000  0.67581000  1.0
  S  S28  1  0.43708000  0.22010000  0.17581000  1.0
  S  S29  1  0.93709000  0.27990000  0.32419000  1.0
  N  N30  1  0.86789000  0.88537000  0.90101000  1.0
  N  N31  1  0.36790000  0.61463000  0.59899000  1.0
  N  N32  1  0.13210000  0.11464000  0.09899000  1.0
  N  N33  1  0.63209000  0.38537000  0.40101000  1.0
  N  N34  1  0.22351000  0.06490000  0.66399000  1.0
  N  N35  1  0.72351000  0.43510000  0.83601000  1.0
  N  N36  1  0.77649000  0.93509000  0.33601000  1.0
  N  N37  1  0.27650000  0.56490000  0.16400000  1.0
  N  N38  1  0.20542000  0.10136000  0.78437000  1.0
  N  N39  1  0.70542000  0.39864000  0.71563000  1.0
  N  N40  1  0.79458000  0.89864000  0.21563000  1.0
  N  N41  1  0.29458000  0.60136000  0.28438000  1.0
  N  N42  1  0.36613000  0.29183000  0.60956000  1.0
  N  N43  1  0.86615000  0.20817000  0.89043000  1.0
  N  N44  1  0.63386000  0.70816000  0.39043000  1.0
  N  N45  1  0.13387000  0.79184000  0.10956000  1.0
