# generated using pymatgen
data_ZnH6C8IO6
_symmetry_space_group_name_H-M   'P 1'
_cell_length_a   7.46150000
_cell_length_b   7.46154000
_cell_length_c   10.97100000
_cell_angle_alpha   82.77370000
_cell_angle_beta   82.77190000
_cell_angle_gamma   83.94580000
_symmetry_Int_Tables_number   1
_chemical_formula_structural   ZnH6C8IO6
_chemical_formula_sum   'Zn2 H12 C16 I2 O12'
_cell_volume   598.63675022
_cell_formula_units_Z   2
loop_
 _symmetry_equiv_pos_site_id
 _symmetry_equiv_pos_as_xyz
  1  'x, y, z'
loop_
 _atom_site_type_symbol
 _atom_site_label
 _atom_site_symmetry_multiplicity
 _atom_site_fract_x
 _atom_site_fract_y
 _atom_site_fract_z
 _atom_site_occupancy
  Zn  Zn0  1  0.54306000  0.45694000  0.49999000  1.0
  Zn  Zn1  1  0.96436000  0.03564000  0.50000000  1.0
  H  H2  1  0.13634000  0.29829000  0.56512000  1.0
  H  H3  1  0.70170000  0.86367000  0.43487000  1.0
  H  H4  1  0.96573000  0.25489000  0.65946000  1.0
  H  H5  1  0.74511000  0.03428000  0.34055000  1.0
  H  H6  1  0.07014000  0.67331000  0.54725000  1.0
  H  H7  1  0.32670000  0.92987000  0.45275000  1.0
  H  H8  1  0.93297000  0.73972000  0.66069000  1.0
  H  H9  1  0.26029000  0.06705000  0.33931000  1.0
  H  H10  1  0.40101000  0.26517000  0.81687000  1.0
  H  H11  1  0.73484000  0.59895000  0.18313000  1.0
  H  H12  1  0.26670000  0.62074000  0.85500000  1.0
  H  H13  1  0.37926000  0.73334000  0.14502000  1.0
  C  C14  1  0.57047000  0.09242000  0.62680000  1.0
  C  C15  1  0.90759000  0.42950000  0.37320000  1.0
  C  C16  1  0.46270000  0.72368000  0.63884000  1.0
  C  C17  1  0.27635000  0.53729000  0.36115000  1.0
  C  C18  1  0.39939000  0.83548000  0.74129000  1.0
  C  C19  1  0.16452000  0.60061000  0.25871000  1.0
  C  C20  1  0.44017000  0.01652000  0.73189000  1.0
  C  C21  1  0.98349000  0.55981000  0.26811000  1.0
  C  C22  1  0.37065000  0.12410000  0.82541000  1.0
  C  C23  1  0.87591000  0.62933000  0.17459000  1.0
  C  C24  1  0.26478000  0.04892000  0.92978000  1.0
  C  C25  1  0.95109000  0.73519000  0.07022000  1.0
  C  C26  1  0.22755000  0.86619000  0.94292000  1.0
  C  C27  1  0.13381000  0.77245000  0.05709000  1.0
  C  C28  1  0.29517000  0.76239000  0.84686000  1.0
  C  C29  1  0.23761000  0.70484000  0.15315000  1.0
  I  I30  1  0.16043000  0.21400000  0.06929000  1.0
  I  I31  1  0.78601000  0.83950000  0.93071000  1.0
  O  O32  1  0.50584000  0.19656000  0.53862000  1.0
  O  O33  1  0.80344000  0.49417000  0.46139000  1.0
  O  O34  1  0.73732000  0.04843000  0.63740000  1.0
  O  O35  1  0.95158000  0.26267000  0.36259000  1.0
  O  O36  1  0.49614000  0.80110000  0.52884000  1.0
  O  O37  1  0.19891000  0.50384000  0.47116000  1.0
  O  O38  1  0.47928000  0.55062000  0.66412000  1.0
  O  O39  1  0.44939000  0.52072000  0.33586000  1.0
  O  O40  1  0.07322000  0.19783000  0.61448000  1.0
  O  O41  1  0.80217000  0.92678000  0.38552000  1.0
  O  O42  1  0.02891000  0.77656000  0.59671000  1.0
  O  O43  1  0.22345000  0.97110000  0.40328000  1.0
