# generated using pymatgen
data_MnH16C8S2N2(ClO)2
_symmetry_space_group_name_H-M   'P 1'
_cell_length_a   6.74082000
_cell_length_b   6.76088000
_cell_length_c   8.81400000
_cell_angle_alpha   86.63750000
_cell_angle_beta   83.95590000
_cell_angle_gamma   65.40120000
_symmetry_Int_Tables_number   1
_chemical_formula_structural   MnH16C8S2N2(ClO)2
_chemical_formula_sum   'Mn1 H16 C8 S2 N2 Cl2 O2'
_cell_volume   363.15377292
_cell_formula_units_Z   1
loop_
 _symmetry_equiv_pos_site_id
 _symmetry_equiv_pos_as_xyz
  1  'x, y, z'
loop_
 _atom_site_type_symbol
 _atom_site_label
 _atom_site_symmetry_multiplicity
 _atom_site_fract_x
 _atom_site_fract_y
 _atom_site_fract_z
 _atom_site_occupancy
  Mn  Mn0  1  0.49999000  0.00001000  0.50000000  1.0
  H  H1  1  0.34251000  0.50369000  0.55899000  1.0
  H  H2  1  0.65748000  0.49629000  0.44101000  1.0
  H  H3  1  0.99870000  0.15215000  0.44653000  1.0
  H  H4  1  0.00132000  0.84783000  0.55346000  1.0
  H  H5  1  0.03999000  0.11973000  0.16046000  1.0
  H  H6  1  0.96002000  0.88028000  0.83954000  1.0
  H  H7  1  0.21835000  0.06885000  0.98366000  1.0
  H  H8  1  0.78166000  0.93115000  0.01634000  1.0
  H  H9  1  0.26293000  0.20722000  0.13655000  1.0
  H  H10  1  0.73708000  0.79277000  0.86346000  1.0
  H  H11  1  0.34935000  0.50274000  0.18265000  1.0
  H  H12  1  0.65065000  0.49727000  0.81736000  1.0
  H  H13  1  0.26336000  0.66397000  0.01146000  1.0
  H  H14  1  0.73664000  0.33604000  0.98854000  1.0
  H  H15  1  0.08613000  0.73797000  0.18749000  1.0
  H  H16  1  0.91387000  0.26204000  0.81252000  1.0
  C  C17  1  0.18955000  0.50123000  0.53255000  1.0
  C  C18  1  0.81043000  0.49877000  0.46744000  1.0
  C  C19  1  0.99997000  0.30742000  0.47082000  1.0
  C  C20  1  0.00001000  0.69257000  0.52917000  1.0
  C  C21  1  0.20611000  0.08509000  0.10807000  1.0
  C  C22  1  0.79389000  0.91491000  0.89193000  1.0
  C  C23  1  0.25621000  0.66653000  0.13651000  1.0
  C  C24  1  0.74379000  0.33348000  0.86349000  1.0
  S  S25  1  0.39335000  0.83042000  0.18216000  1.0
  S  S26  1  0.60665000  0.16958000  0.81784000  1.0
  N  N27  1  0.18994000  0.30834000  0.50319000  1.0
  N  N28  1  0.81005000  0.69167000  0.49680000  1.0
  Cl  Cl29  1  0.34393000  0.85961000  0.72883000  1.0
  Cl  Cl30  1  0.65608000  0.14039000  0.27117000  1.0
  O  O31  1  0.35612000  0.84774000  0.35673000  1.0
  O  O32  1  0.64389000  0.15225000  0.64328000  1.0
