# generated using pymatgen
data_CoCuH8C12(N2O)4
_symmetry_space_group_name_H-M   'P 1'
_cell_length_a   9.28422000
_cell_length_b   9.28429000
_cell_length_c   10.42340000
_cell_angle_alpha   100.58600000
_cell_angle_beta   100.58600000
_cell_angle_gamma   92.65500000
_symmetry_Int_Tables_number   1
_chemical_formula_structural   CoCuH8C12(N2O)4
_chemical_formula_sum   'Co2 Cu2 H16 C24 N16 O8'
_cell_volume   865.16071276
_cell_formula_units_Z   2
loop_
 _symmetry_equiv_pos_site_id
 _symmetry_equiv_pos_as_xyz
  1  'x, y, z'
loop_
 _atom_site_type_symbol
 _atom_site_label
 _atom_site_symmetry_multiplicity
 _atom_site_fract_x
 _atom_site_fract_y
 _atom_site_fract_z
 _atom_site_occupancy
  Co  Co0  1  0.14849000  0.85150000  0.24999000  1.0
  Co  Co1  1  0.85150000  0.14850000  0.75000000  1.0
  Cu  Cu2  1  0.00000000  0.99997000  0.99995000  1.0
  Cu  Cu3  1  0.00000000  0.00002000  0.50004000  1.0
  H  H4  1  0.59258000  0.06011000  0.10076000  1.0
  H  H5  1  0.93990000  0.40741000  0.39924000  1.0
  H  H6  1  0.40741000  0.93989000  0.89922000  1.0
  H  H7  1  0.06010000  0.59258000  0.60079000  1.0
  H  H8  1  0.33414000  0.02770000  0.13431000  1.0
  H  H9  1  0.97230000  0.66585000  0.36569000  1.0
  H  H10  1  0.66583000  0.97231000  0.86568000  1.0
  H  H11  1  0.02769000  0.33417000  0.63434000  1.0
  H  H12  1  0.44168000  0.71374000  0.36421000  1.0
  H  H13  1  0.28628000  0.55832000  0.13579000  1.0
  H  H14  1  0.55835000  0.28630000  0.63581000  1.0
  H  H15  1  0.71371000  0.44164000  0.86421000  1.0
  H  H16  1  0.70339000  0.73041000  0.33556000  1.0
  H  H17  1  0.26961000  0.29661000  0.16443000  1.0
  H  H18  1  0.29663000  0.26965000  0.66444000  1.0
  H  H19  1  0.73034000  0.70336000  0.83558000  1.0
  C  C20  1  0.81826000  0.90164000  0.18009000  1.0
  C  C21  1  0.09837000  0.18173000  0.31990000  1.0
  C  C22  1  0.18175000  0.09840000  0.81990000  1.0
  C  C23  1  0.90161000  0.81826000  0.68013000  1.0
  C  C24  1  0.66625000  0.89238000  0.21010000  1.0
  C  C25  1  0.10764000  0.33374000  0.28990000  1.0
  C  C26  1  0.33375000  0.10765000  0.78989000  1.0
  C  C27  1  0.89235000  0.66625000  0.71014000  1.0
  C  C28  1  0.56193000  0.98005000  0.15713000  1.0
  C  C29  1  0.01996000  0.43806000  0.34287000  1.0
  C  C30  1  0.43805000  0.01997000  0.84286000  1.0
  C  C31  1  0.98003000  0.56195000  0.65716000  1.0
  C  C32  1  0.41909000  0.96392000  0.17718000  1.0
  C  C33  1  0.03608000  0.58090000  0.32282000  1.0
  C  C34  1  0.58089000  0.03609000  0.82282000  1.0
  C  C35  1  0.96390000  0.41911000  0.67720000  1.0
  C  C36  1  0.47868000  0.78799000  0.30488000  1.0
  C  C37  1  0.21201000  0.52132000  0.19512000  1.0
  C  C38  1  0.52131000  0.21203000  0.69513000  1.0
  C  C39  1  0.78796000  0.47868000  0.80489000  1.0
  C  C40  1  0.62421000  0.79729000  0.28885000  1.0
  C  C41  1  0.20272000  0.37579000  0.21115000  1.0
  C  C42  1  0.37580000  0.20275000  0.71116000  1.0
  C  C43  1  0.79725000  0.62420000  0.78887000  1.0
  N  N44  1  0.09630000  0.81962000  0.04780000  1.0
  N  N45  1  0.18031000  0.90375000  0.45215000  1.0
  N  N46  1  0.90380000  0.18029000  0.95204000  1.0
  N  N47  1  0.81967000  0.09625000  0.54793000  1.0
  N  N48  1  0.17237000  0.75238000  0.97792000  1.0
  N  N49  1  0.24756000  0.82768000  0.52203000  1.0
  N  N50  1  0.82772000  0.24753000  0.02191000  1.0
  N  N51  1  0.75242000  0.17233000  0.47805000  1.0
  N  N52  1  0.24625000  0.68700000  0.91341000  1.0
  N  N53  1  0.31293000  0.75381000  0.58653000  1.0
  N  N54  1  0.75385000  0.31288000  0.08642000  1.0
  N  N55  1  0.68706000  0.24620000  0.41355000  1.0
  N  N56  1  0.37602000  0.86728000  0.24761000  1.0
  N  N57  1  0.13272000  0.62397000  0.25239000  1.0
  N  N58  1  0.62396000  0.13273000  0.75240000  1.0
  N  N59  1  0.86726000  0.37603000  0.74762000  1.0
  O  O60  1  0.82888000  0.95689000  0.07838000  1.0
  O  O61  1  0.04312000  0.17112000  0.42161000  1.0
  O  O62  1  0.17113000  0.04315000  0.92161000  1.0
  O  O63  1  0.95685000  0.82889000  0.57842000  1.0
  O  O64  1  0.92023000  0.85549000  0.25681000  1.0
  O  O65  1  0.14450000  0.07976000  0.24317000  1.0
  O  O66  1  0.07980000  0.14454000  0.74316000  1.0
  O  O67  1  0.85548000  0.92021000  0.75688000  1.0
