# generated using pymatgen
data_Zn4H5C17N3O13
_symmetry_space_group_name_H-M   'P 1'
_cell_length_a   10.86640000
_cell_length_b   10.87720000
_cell_length_c   13.22250000
_cell_angle_alpha   99.99240000
_cell_angle_beta   99.08200000
_cell_angle_gamma   95.96300000
_symmetry_Int_Tables_number   1
_chemical_formula_structural   Zn4H5C17N3O13
_chemical_formula_sum   'Zn4 H5 C17 N3 O13'
_cell_volume   1505.93284149
_cell_formula_units_Z   1
loop_
 _symmetry_equiv_pos_site_id
 _symmetry_equiv_pos_as_xyz
  1  'x, y, z'
loop_
 _atom_site_type_symbol
 _atom_site_label
 _atom_site_symmetry_multiplicity
 _atom_site_fract_x
 _atom_site_fract_y
 _atom_site_fract_z
 _atom_site_occupancy
  Zn  Zn0  1  0.42311000  0.61910000  0.57859000  1.0
  Zn  Zn1  1  0.60383000  0.41519000  0.60388000  1.0
  Zn  Zn2  1  0.61960000  0.57898000  0.42765000  1.0
  Zn  Zn3  1  0.38072000  0.36534000  0.39821000  1.0
  H  H4  1  0.49170000  0.40317000  0.90753000  1.0
  H  H5  1  0.37861000  0.97092000  0.47426000  1.0
  H  H6  1  0.43775000  0.33586000  0.06212000  1.0
  H  H7  1  0.53549000  0.69288000  0.92876000  1.0
  H  H8  1  0.97710000  0.45469000  0.39383000  1.0
  C  C9  1  0.83786000  0.49738000  0.53960000  1.0
  C  C10  1  0.47976000  0.16251000  0.49389000  1.0
  C  C11  1  0.17342000  0.48268000  0.47711000  1.0
  C  C12  1  0.47794000  0.44506000  0.22230000  1.0
  C  C13  1  0.52320000  0.56442000  0.77894000  1.0
  C  C14  1  0.52484000  0.59335000  0.89257000  1.0
  C  C15  1  0.50707000  0.50163000  0.94756000  1.0
  C  C16  1  0.55371000  0.82353000  0.50507000  1.0
  C  C17  1  0.47297000  0.42957000  0.10842000  1.0
  C  C18  1  0.50753000  0.52464000  0.05949000  1.0
  C  C19  1  0.03552000  0.47964000  0.47127000  1.0
  C  C20  1  0.47221000  0.02510000  0.49273000  1.0
  C  C21  1  0.54558000  0.65232000  0.11406000  1.0
  C  C22  1  0.04442000  0.52976000  0.66074000  1.0
  C  C23  1  0.70059000  0.02292000  0.52990000  1.0
  C  C24  1  0.97902000  0.50276000  0.55536000  1.0
  C  C25  1  0.57334000  0.96394000  0.50997000  1.0
  N  N26  1  0.57514000  0.75954000  0.14870000  1.0
  N  N27  1  0.09390000  0.55311000  0.74819000  1.0
  N  N28  1  0.80634000  0.06665000  0.54768000  1.0
  O  O29  1  0.50411000  0.49090000  0.49947000  1.0
  O  O30  1  0.57161000  0.23226000  0.55633000  1.0
  O  O31  1  0.64123000  0.76312000  0.47825000  1.0
  O  O32  1  0.78521000  0.52012000  0.45301000  1.0
  O  O33  1  0.39219000  0.19642000  0.43280000  1.0
  O  O34  1  0.20846000  0.40643000  0.40592000  1.0
  O  O35  1  0.55034000  0.54031000  0.27891000  1.0
  O  O36  1  0.55278000  0.45772000  0.74004000  1.0
  O  O37  1  0.49181000  0.65012000  0.72848000  1.0
  O  O38  1  0.41036000  0.36118000  0.25380000  1.0
  O  O39  1  0.78526000  0.47168000  0.61406000  1.0
  O  O40  1  0.45126000  0.77906000  0.52847000  1.0
  O  O41  1  0.24250000  0.56239000  0.55154000  1.0
