# generated using pymatgen
data_CuH8C4Br2(N4O3)2
_symmetry_space_group_name_H-M   'P 1'
_cell_length_a   6.88149000
_cell_length_b   9.35507000
_cell_length_c   10.52140000
_cell_angle_alpha   103.21300000
_cell_angle_beta   89.99860000
_cell_angle_gamma   89.99890000
_symmetry_Int_Tables_number   1
_chemical_formula_structural   CuH8C4Br2(N4O3)2
_chemical_formula_sum   'Cu2 H16 C8 Br4 N16 O12'
_cell_volume   659.40325515
_cell_formula_units_Z   2
loop_
 _symmetry_equiv_pos_site_id
 _symmetry_equiv_pos_as_xyz
  1  'x, y, z'
loop_
 _atom_site_type_symbol
 _atom_site_label
 _atom_site_symmetry_multiplicity
 _atom_site_fract_x
 _atom_site_fract_y
 _atom_site_fract_z
 _atom_site_occupancy
  Cu  Cu0  1  0.00000000  0.00000000  0.00000000  1.0
  Cu  Cu1  1  0.50000000  0.50000000  0.00000000  1.0
  H  H2  1  0.62149000  0.11838000  0.38567000  1.0
  H  H3  1  0.12149000  0.38160000  0.61433000  1.0
  H  H4  1  0.37851000  0.88162000  0.61433000  1.0
  H  H5  1  0.87851000  0.61839000  0.38567000  1.0
  H  H6  1  0.44882000  0.17409000  0.51528000  1.0
  H  H7  1  0.94884000  0.32591000  0.48473000  1.0
  H  H8  1  0.55117000  0.82591000  0.48472000  1.0
  H  H9  1  0.05116000  0.67409000  0.51528000  1.0
  H  H10  1  0.50437000  0.29488000  0.40979000  1.0
  H  H11  1  0.00438000  0.20512000  0.59021000  1.0
  H  H12  1  0.49563000  0.70512000  0.59021000  1.0
  H  H13  1  0.99562000  0.79488000  0.40980000  1.0
  H  H14  1  0.37658000  0.17721000  0.14640000  1.0
  H  H15  1  0.87658000  0.32279000  0.85361000  1.0
  H  H16  1  0.62342000  0.82279000  0.85359000  1.0
  H  H17  1  0.12342000  0.67721000  0.14639000  1.0
  C  C18  1  0.48739000  0.18027000  0.41572000  1.0
  C  C19  1  0.98739000  0.31972000  0.58428000  1.0
  C  C20  1  0.51261000  0.81973000  0.58427000  1.0
  C  C21  1  0.01261000  0.68027000  0.41573000  1.0
  C  C22  1  0.29593000  0.11637000  0.20528000  1.0
  C  C23  1  0.79593000  0.38363000  0.79472000  1.0
  C  C24  1  0.70407000  0.88363000  0.79472000  1.0
  C  C25  1  0.20407000  0.61637000  0.20528000  1.0
  Br  Br26  1  0.81381000  0.31034000  0.14746000  1.0
  Br  Br27  1  0.31379000  0.18966000  0.85253000  1.0
  Br  Br28  1  0.18619000  0.68966000  0.85254000  1.0
  Br  Br29  1  0.68622000  0.81034000  0.14747000  1.0
  N  N30  1  0.08569000  0.97523000  0.26910000  1.0
  N  N31  1  0.58567000  0.52478000  0.73090000  1.0
  N  N32  1  0.91431000  0.02477000  0.73089000  1.0
  N  N33  1  0.41433000  0.47523000  0.26910000  1.0
  N  N34  1  0.14329000  0.03066000  0.16680000  1.0
  N  N35  1  0.64328000  0.46934000  0.83321000  1.0
  N  N36  1  0.85671000  0.96934000  0.83320000  1.0
  N  N37  1  0.35672000  0.53066000  0.16679000  1.0
  N  N38  1  0.19824000  0.02467000  0.36826000  1.0
  N  N39  1  0.69824000  0.47533000  0.63174000  1.0
  N  N40  1  0.80176000  0.97533000  0.63174000  1.0
  N  N41  1  0.30177000  0.52467000  0.36827000  1.0
  N  N42  1  0.33038000  0.11363000  0.32993000  1.0
  N  N43  1  0.83037000  0.38637000  0.67007000  1.0
  N  N44  1  0.66962000  0.88636000  0.67007000  1.0
  N  N45  1  0.16963000  0.61363000  0.32993000  1.0
  O  O46  1  0.96510000  0.21842000  0.02133000  1.0
  O  O47  1  0.46513000  0.28159000  0.97869000  1.0
  O  O48  1  0.03489000  0.78158000  0.97867000  1.0
  O  O49  1  0.53487000  0.71841000  0.02131000  1.0
  O  O50  1  0.80319000  0.47638000  0.11237000  1.0
  O  O51  1  0.30320000  0.02362000  0.88762000  1.0
  O  O52  1  0.19682000  0.52362000  0.88763000  1.0
  O  O53  1  0.69680000  0.97638000  0.11238000  1.0
  O  O54  1  0.94260000  0.32897000  0.28328000  1.0
  O  O55  1  0.44260000  0.17102000  0.71670000  1.0
  O  O56  1  0.05740000  0.67103000  0.71672000  1.0
  O  O57  1  0.55741000  0.82898000  0.28330000  1.0
