# generated using pymatgen
data_ZnH11C30NO22
_symmetry_space_group_name_H-M   'P 1'
_cell_length_a   10.62000000
_cell_length_b   14.50960000
_cell_length_c   14.86010000
_cell_angle_alpha   91.78510000
_cell_angle_beta   93.27490000
_cell_angle_gamma   91.01940000
_symmetry_Int_Tables_number   1
_chemical_formula_structural   ZnH11C30NO22
_chemical_formula_sum   'Zn2 H22 C60 N2 O44'
_cell_volume   2284.53347021
_cell_formula_units_Z   2
loop_
 _symmetry_equiv_pos_site_id
 _symmetry_equiv_pos_as_xyz
  1  'x, y, z'
loop_
 _atom_site_type_symbol
 _atom_site_label
 _atom_site_symmetry_multiplicity
 _atom_site_fract_x
 _atom_site_fract_y
 _atom_site_fract_z
 _atom_site_occupancy
  Zn  Zn0  1  0.48924000  0.61260000  0.50740000  1.0
  Zn  Zn1  1  0.49360000  0.40070000  0.49925000  1.0
  H  H2  1  0.10589000  0.52354000  0.39836000  1.0
  H  H3  1  0.06123000  0.51720000  0.17365000  1.0
  H  H4  1  0.15638000  0.28868000  0.77482000  1.0
  H  H5  1  0.91760000  0.38487000  0.20804000  1.0
  H  H6  1  0.17805000  0.25267000  0.14466000  1.0
  H  H7  1  0.96185000  0.42602000  0.85826000  1.0
  H  H8  1  0.74036000  0.67768000  0.66154000  1.0
  H  H9  1  0.37167000  0.29715000  0.22822000  1.0
  H  H10  1  0.24229000  0.63364000  0.35283000  1.0
  H  H11  1  0.64103000  0.29671000  0.73111000  1.0
  H  H12  1  0.08900000  0.88636000  0.22947000  1.0
  H  H13  1  0.88799000  0.44651000  0.66533000  1.0
  H  H14  1  0.94348000  0.15820000  0.50705000  1.0
  H  H15  1  0.89327000  0.87297000  0.71892000  1.0
  H  H16  1  0.04677000  0.13987000  0.31621000  1.0
  H  H17  1  0.34150000  0.45485000  0.75560000  1.0
  H  H18  1  0.67106000  0.52009000  0.25249000  1.0
  H  H19  1  0.95926000  0.76613000  0.41091000  1.0
  H  H20  1  0.00052000  0.20866000  0.66119000  1.0
  H  H21  1  0.23704000  0.65601000  0.73923000  1.0
  H  H22  1  0.81709000  0.27228000  0.33113000  1.0
  H  H23  1  0.89947000  0.63783000  0.81095000  1.0
  C  C24  1  0.46076000  0.51451000  0.33596000  1.0
  C  C25  1  0.74463000  0.49866000  0.98428000  1.0
  C  C26  1  0.55278000  0.81965000  0.55976000  1.0
  C  C27  1  0.42716000  0.20198000  0.41813000  1.0
  C  C28  1  0.39705000  0.81009000  0.44209000  1.0
  C  C29  1  0.58311000  0.20413000  0.53501000  1.0
  C  C30  1  0.39351000  0.90743000  0.43589000  1.0
  C  C31  1  0.59245000  0.10758000  0.53053000  1.0
  C  C32  1  0.57367000  0.91454000  0.54786000  1.0
  C  C33  1  0.41037000  0.10473000  0.42039000  1.0
  C  C34  1  0.48759000  0.95976000  0.48747000  1.0
  C  C35  1  0.52973000  0.52057000  0.67271000  1.0
  C  C36  1  0.49588000  0.05728000  0.47937000  1.0
  C  C37  1  0.30311000  0.95610000  0.37930000  1.0
  C  C38  1  0.69409000  0.05838000  0.57427000  1.0
  C  C39  1  0.68321000  0.96534000  0.58622000  1.0
  C  C40  1  0.31260000  0.05041000  0.37024000  1.0
  C  C41  1  0.73140000  0.50531000  0.49662000  1.0
  C  C42  1  0.26490000  0.46605000  0.54069000  1.0
  C  C43  1  0.97836000  0.57589000  0.51436000  1.0
  C  C44  1  0.01927000  0.39507000  0.55264000  1.0
  C  C45  1  0.04374000  0.54032000  0.60443000  1.0
  C  C46  1  0.51594000  0.47832000  0.95689000  1.0
  C  C47  1  0.95671000  0.42922000  0.46061000  1.0
  C  C48  1  0.05734000  0.50691000  0.45853000  1.0
  C  C49  1  0.93819000  0.46392000  0.60614000  1.0
  C  C50  1  0.12538000  0.47282000  0.54687000  1.0
  C  C51  1  0.87167000  0.49788000  0.51537000  1.0
  C  C52  1  0.63697000  0.52779000  0.83154000  1.0
  C  C53  1  0.36368000  0.48227000  0.17664000  1.0
  C  C54  1  0.53026000  0.50888000  0.77293000  1.0
  C  C55  1  0.46992000  0.50332000  0.23551000  1.0
  C  C56  1  0.41991000  0.47187000  0.80410000  1.0
  C  C57  1  0.50241000  0.47573000  0.05135000  1.0
  C  C58  1  0.59098000  0.50584000  0.20451000  1.0
  C  C59  1  0.40906000  0.45920000  0.89625000  1.0
  C  C60  1  0.60868000  0.49596000  0.11206000  1.0
  C  C61  1  0.98219000  0.67719000  0.49927000  1.0
  C  C62  1  0.03538000  0.29644000  0.57201000  1.0
  C  C63  1  0.08789000  0.60181000  0.68301000  1.0
  C  C64  1  0.92399000  0.36895000  0.37978000  1.0
  C  C65  1  0.74335000  0.57618000  0.79157000  1.0
  C  C66  1  0.23794000  0.50558000  0.21012000  1.0
  C  C67  1  0.19912000  0.38321000  0.86173000  1.0
  C  C68  1  0.63443000  0.50367000  0.92312000  1.0
  C  C69  1  0.84217000  0.48344000  0.14101000  1.0
  C  C70  1  0.19550000  0.34219000  0.05259000  1.0
  C  C71  1  0.87382000  0.48170000  0.95252000  1.0
  C  C72  1  0.61406000  0.77247000  0.64014000  1.0
  C  C73  1  0.35649000  0.25804000  0.34797000  1.0
  C  C74  1  0.32921000  0.74946000  0.36992000  1.0
  C  C75  1  0.65714000  0.25894000  0.60946000  1.0
  C  C76  1  0.18727000  0.90562000  0.33866000  1.0
  C  C77  1  0.82358000  0.10378000  0.58413000  1.0
  C  C78  1  0.80347000  0.91866000  0.61748000  1.0
  C  C79  1  0.38196000  0.45668000  0.08522000  1.0
  C  C80  1  0.21322000  0.09682000  0.31118000  1.0
  C  C81  1  0.29880000  0.41797000  0.93142000  1.0
  C  C82  1  0.73111000  0.49741000  0.07564000  1.0
  C  C83  1  0.28822000  0.41177000  0.02301000  1.0
  N  N84  1  0.47136000  0.76818000  0.50479000  1.0
  N  N85  1  0.50454000  0.24977000  0.47886000  1.0
  O  O86  1  0.48860000  0.59295000  0.37238000  1.0
  O  O87  1  0.93464000  0.70095000  0.41732000  1.0
  O  O88  1  0.04368000  0.23739000  0.51098000  1.0
  O  O89  1  0.03209000  0.27464000  0.65945000  1.0
  O  O90  1  0.02076000  0.63730000  0.73875000  1.0
  O  O91  1  0.21407000  0.61306000  0.68843000  1.0
  O  O92  1  0.97875000  0.37652000  0.30909000  1.0
  O  O93  1  0.83286000  0.30532000  0.38933000  1.0
  O  O94  1  0.75075000  0.57734000  0.70865000  1.0
  O  O95  1  0.82621000  0.62199000  0.84785000  1.0
  O  O96  1  0.22630000  0.54148000  0.28572000  1.0
  O  O97  1  0.54894000  0.44606000  0.62929000  1.0
  O  O98  1  0.14149000  0.49214000  0.15035000  1.0
  O  O99  1  0.11546000  0.43383000  0.83285000  1.0
  O  O100  1  0.21976000  0.29955000  0.82578000  1.0
  O  O101  1  0.90404000  0.54576000  0.18176000  1.0
  O  O102  1  0.85790000  0.39356000  0.15363000  1.0
  O  O103  1  0.10312000  0.31324000  0.00723000  1.0
  O  O104  1  0.23454000  0.30472000  0.13276000  1.0
  O  O105  1  0.97011000  0.50602000  0.99626000  1.0
  O  O106  1  0.87206000  0.43161000  0.87426000  1.0
  O  O107  1  0.56645000  0.77920000  0.71275000  1.0
  O  O108  1  0.49975000  0.59824000  0.64251000  1.0
  O  O109  1  0.71691000  0.72854000  0.61900000  1.0
  O  O110  1  0.25140000  0.28735000  0.35796000  1.0
  O  O111  1  0.42390000  0.26595000  0.27509000  1.0
  O  O112  1  0.34136000  0.76565000  0.29035000  1.0
  O  O113  1  0.26352000  0.68120000  0.40223000  1.0
  O  O114  1  0.75836000  0.29735000  0.60191000  1.0
  O  O115  1  0.59521000  0.25590000  0.68589000  1.0
  O  O116  1  0.11859000  0.85888000  0.38294000  1.0
  O  O117  1  0.16565000  0.92134000  0.25022000  1.0
  O  O118  1  0.88561000  0.11912000  0.65599000  1.0
  O  O119  1  0.43666000  0.44021000  0.37455000  1.0
  O  O120  1  0.86003000  0.12163000  0.50271000  1.0
  O  O121  1  0.88414000  0.90227000  0.56471000  1.0
  O  O122  1  0.81279000  0.90385000  0.70649000  1.0
  O  O123  1  0.22915000  0.12471000  0.23606000  1.0
  O  O124  1  0.10463000  0.10304000  0.35354000  1.0
  O  O125  1  0.68350000  0.58351000  0.50726000  1.0
  O  O126  1  0.31626000  0.38756000  0.54754000  1.0
  O  O127  1  0.31716000  0.54063000  0.51978000  1.0
  O  O128  1  0.67465000  0.42993000  0.47146000  1.0
  O  O129  1  0.03459000  0.73111000  0.55472000  1.0
