# generated using pymatgen
data_Co2H30C48N4O9
_symmetry_space_group_name_H-M   'P 1'
_cell_length_a   23.58280000
_cell_length_b   23.61580000
_cell_length_c   29.89614817
_cell_angle_alpha   113.26332316
_cell_angle_beta   113.22399020
_cell_angle_gamma   90.00830000
_symmetry_Int_Tables_number   1
_chemical_formula_structural   Co2H30C48N4O9
_chemical_formula_sum   'Co8 H120 C192 N16 O36'
_cell_volume   13815.15417806
_cell_formula_units_Z   4
loop_
 _symmetry_equiv_pos_site_id
 _symmetry_equiv_pos_as_xyz
  1  'x, y, z'
loop_
 _atom_site_type_symbol
 _atom_site_label
 _atom_site_symmetry_multiplicity
 _atom_site_fract_x
 _atom_site_fract_y
 _atom_site_fract_z
 _atom_site_occupancy
  Co  Co0  1  0.35356000  0.95997000  0.83328000  1.0
  Co  Co1  1  0.62119000  0.60407000  0.33275000  1.0
  Co  Co2  1  0.47977000  0.87336000  0.83332000  1.0
  Co  Co3  1  0.71152000  0.72864000  0.33274000  1.0
  Co  Co4  1  0.85347000  0.37337000  0.83332000  1.0
  Co  Co5  1  0.97974000  0.45994000  0.83325000  1.0
  Co  Co6  1  0.21010000  0.10357333  0.33333333  1.0
  Co  Co7  1  0.12322000  0.22975333  0.33333333  1.0
  H  H8  1  0.43138000  0.93409000  0.91243000  1.0
  H  H9  1  0.73191000  0.68522000  0.41165000  1.0
  H  H10  1  0.48099000  0.97842000  0.91246000  1.0
  H  H11  1  0.67967000  0.72654000  0.41165000  1.0
  H  H12  1  0.93140000  0.47845000  0.91245000  1.0
  H  H13  1  0.98091000  0.43406000  0.91238000  1.0
  H  H14  1  0.18403000  0.18150000  0.41247000  1.0
  H  H15  1  0.22837000  0.23105000  0.41246000  1.0
  H  H16  1  0.22158000  0.88882000  0.76468000  1.0
  H  H17  1  0.62610000  0.47207000  0.26517000  1.0
  H  H18  1  0.54281000  0.87584000  0.76438000  1.0
  H  H19  1  0.63902000  0.79309000  0.26513000  1.0
  H  H20  1  0.72142000  0.37581000  0.76440000  1.0
  H  H21  1  0.04295000  0.38863000  0.76440000  1.0
  H  H22  1  0.13845000  0.97167000  0.26437000  1.0
  H  H23  1  0.12601000  0.29300000  0.26467000  1.0
  H  H24  1  0.11747000  0.90718000  0.71040000  1.0
  H  H25  1  0.55358000  0.36781000  0.21064000  1.0
  H  H26  1  0.59277000  0.80323000  0.71022000  1.0
  H  H27  1  0.65705000  0.84292000  0.21067000  1.0
  H  H28  1  0.61733000  0.30310000  0.71024000  1.0
  H  H29  1  0.09285000  0.40715000  0.71022000  1.0
  H  H30  1  0.15686000  0.86758000  0.21027000  1.0
  H  H31  1  0.05343000  0.34285000  0.21045000  1.0
  H  H32  1  0.21162000  0.08982000  0.75179000  1.0
  H  H33  1  0.41174000  0.46104000  0.25195000  1.0
  H  H34  1  0.54020000  0.66210000  0.75180000  1.0
  H  H35  1  0.84020000  0.79094000  0.25198000  1.0
  H  H36  1  0.71165000  0.16205000  0.75181000  1.0
  H  H37  1  0.04016000  0.58979000  0.75177000  1.0
  H  H38  1  0.33984000  0.96142000  0.25171000  1.0
  H  H39  1  0.91180000  0.29030000  0.25172000  1.0
  H  H40  1  0.31145000  0.06372000  0.80502000  1.0
  H  H41  1  0.49044000  0.56094000  0.30482000  1.0
  H  H42  1  0.49347000  0.74138000  0.80492000  1.0
  H  H43  1  0.81434000  0.74391000  0.30484000  1.0
  H  H44  1  0.81146000  0.24144000  0.80496000  1.0
  H  H45  1  0.99344000  0.56353000  0.80487000  1.0
  H  H46  1  0.31368000  0.06124000  0.30477000  1.0
  H  H47  1  0.99106000  0.24367000  0.30490000  1.0
  H  H48  1  0.05913000  0.92190000  0.63191000  1.0
  H  H49  1  0.46020000  0.30891000  0.13195000  1.0
  H  H50  1  0.57280000  0.71007000  0.63189000  1.0
  H  H51  1  0.67185000  0.82300000  0.13200000  1.0
  H  H52  1  0.55913000  0.20999000  0.63205000  1.0
  H  H53  1  0.07297000  0.42199000  0.63199000  1.0
  H  H54  1  0.17186000  0.80899000  0.13195000  1.0
  H  H55  1  0.96008000  0.32288000  0.13200000  1.0
  H  H56  1  0.11361000  0.11055000  0.75651000  1.0
  H  H57  1  0.39577000  0.36339000  0.25641000  1.0
  H  H58  1  0.64273000  0.64593000  0.75644000  1.0
  H  H59  1  0.86070000  0.89313000  0.25645000  1.0
  H  H60  1  0.61352000  0.14576000  0.75648000  1.0
  H  H61  1  0.14288000  0.61069000  0.75644000  1.0
  H  H62  1  0.36064000  0.86361000  0.25653000  1.0
  H  H63  1  0.89601000  0.39309000  0.25664000  1.0
  H  H64  1  0.00053000  0.86965000  0.55191000  1.0
  H  H65  1  0.43224000  0.25138000  0.05239000  1.0
  H  H66  1  0.55147000  0.68247000  0.55200000  1.0
  H  H67  1  0.62007000  0.80109000  0.05248000  1.0
  H  H68  1  0.50155000  0.18246000  0.55266000  1.0
  H  H69  1  0.05104000  0.37030000  0.55256000  1.0
  H  H70  1  0.12018000  0.75135000  0.05253000  1.0
  H  H71  1  0.93234000  0.30104000  0.05254000  1.0
  H  H72  1  0.91551000  0.79479000  0.46565000  1.0
  H  H73  1  0.42047000  0.16721000  0.96556000  1.0
  H  H74  1  0.55022000  0.67107000  0.46573000  1.0
  H  H75  1  0.54508000  0.79838000  0.96561000  1.0
  H  H76  1  0.41741000  0.17058000  0.46579000  1.0
  H  H77  1  0.04838000  0.29524000  0.46573000  1.0
  H  H78  1  0.04524000  0.66722000  0.96566000  1.0
  H  H79  1  0.92042000  0.29830000  0.96566000  1.0
  H  H80  1  0.78581000  0.91817000  0.48885000  1.0
  H  H81  1  0.32210000  0.03583000  0.98853000  1.0
  H  H82  1  0.70311000  0.57082000  0.48889000  1.0
  H  H83  1  0.66646000  0.95268000  0.98860000  1.0
  H  H84  1  0.28581000  0.07212000  0.48855000  1.0
  H  H85  1  0.20278000  0.41642000  0.48850000  1.0
  H  H86  1  0.16656000  0.53588000  0.98863000  1.0
  H  H87  1  0.82207000  0.45260000  0.98865000  1.0
  H  H88  1  0.87126000  0.99406000  0.57705000  1.0
  H  H89  1  0.33322000  0.12080000  0.07648000  1.0
  H  H90  1  0.70581000  0.58312000  0.57708000  1.0
  H  H91  1  0.74331000  0.95562000  0.07653000  1.0
  H  H92  1  0.37082000  0.08320000  0.57649000  1.0
  H  H93  1  0.20574000  0.49329000  0.57646000  1.0
  H  H94  1  0.24331000  0.62084000  0.07664000  1.0
  H  H95  1  0.83330000  0.45567000  0.07666000  1.0
  H  H96  1  0.87093000  0.20471000  0.72141000  1.0
  H  H97  1  0.26660000  0.12105000  0.22148000  1.0
  H  H98  1  0.85036000  0.51665000  0.72125000  1.0
  H  H99  1  0.95470000  0.10037000  0.22130000  1.0
  H  H100  1  0.37086000  0.01652000  0.72129000  1.0
  H  H101  1  0.35053000  0.70497000  0.72148000  1.0
  H  H102  1  0.45593000  0.62143000  0.22079000  1.0
  H  H103  1  0.76484000  0.59938000  0.22094000  1.0
  H  H104  1  0.90366000  0.10391000  0.67788000  1.0
  H  H105  1  0.32400000  0.15365000  0.17789000  1.0
  H  H106  1  0.77407000  0.57397000  0.67779000  1.0
  H  H107  1  0.85383000  0.02401000  0.17770000  1.0
  H  H108  1  0.40363000  0.07382000  0.67776000  1.0
  H  H109  1  0.27440000  0.60402000  0.67794000  1.0
  H  H110  1  0.35449000  0.65383000  0.17801000  1.0
  H  H111  1  0.82357000  0.52430000  0.17816000  1.0
  H  H112  1  0.09465000  0.20142000  0.75502000  1.0
  H  H113  1  0.30346000  0.34442000  0.25494000  1.0
  H  H114  1  0.66029000  0.55345000  0.75496000  1.0
  H  H115  1  0.95162000  0.91051000  0.25489000  1.0
  H  H116  1  0.59457000  0.05337000  0.75489000  1.0
  H  H117  1  0.16035000  0.70135000  0.75492000  1.0
  H  H118  1  0.45138000  0.84487000  0.25497000  1.0
  H  H119  1  0.80381000  0.41011000  0.25509000  1.0
  H  H120  1  0.06133000  0.30142000  0.79605000  1.0
  H  H121  1  0.24445000  0.31122000  0.29606000  1.0
  H  H122  1  0.73465000  0.49442000  0.79589000  1.0
  H  H123  1  0.05166000  0.98496000  0.29598000  1.0
  H  H124  1  0.56119000  0.99437000  0.79589000  1.0
  H  H125  1  0.23458000  0.80146000  0.79597000  1.0
  H  H126  1  0.55182000  0.81198000  0.29600000  1.0
  H  H127  1  0.74442000  0.48400000  0.29621000  1.0
  C  C128  1  0.21669000  0.93261000  0.76052000  1.0
  C  C129  1  0.57794000  0.46694000  0.26064000  1.0
  C  C130  1  0.54362000  0.82793000  0.76031000  1.0
  C  C131  1  0.68267000  0.79374000  0.26064000  1.0
  C  C132  1  0.71657000  0.32789000  0.76034000  1.0
  C  C133  1  0.04369000  0.43247000  0.76030000  1.0
  C  C134  1  0.18234000  0.96673000  0.26028000  1.0
  C  C135  1  0.07799000  0.29376000  0.26050000  1.0
  C  C136  1  0.15932000  0.94312000  0.73010000  1.0
  C  C137  1  0.53712000  0.40953000  0.23022000  1.0
  C  C138  1  0.57065000  0.78702000  0.72995000  1.0
  C  C139  1  0.69310000  0.82080000  0.23027000  1.0
  C  C140  1  0.65921000  0.28692000  0.72998000  1.0
  C  C141  1  0.07069000  0.44305000  0.72993000  1.0
  C  C142  1  0.19289000  0.90935000  0.22997000  1.0
  C  C143  1  0.03710000  0.32074000  0.23012000  1.0
  C  C144  1  0.15541000  0.00069000  0.72672000  1.0
  C  C145  1  0.47601000  0.40527000  0.22672000  1.0
  C  C146  1  0.57126000  0.72610000  0.72666000  1.0
  C  C147  1  0.75073000  0.82155000  0.22679000  1.0
  C  C148  1  0.65537000  0.22601000  0.72671000  1.0
  C  C149  1  0.07127000  0.50068000  0.72663000  1.0
  C  C150  1  0.25059000  0.90533000  0.22667000  1.0
  C  C151  1  0.97607000  0.32138000  0.22675000  1.0
  C  C152  1  0.21136000  0.04478000  0.75389000  1.0
  C  C153  1  0.45888000  0.46101000  0.25392000  1.0
  C  C154  1  0.54247000  0.70920000  0.75382000  1.0
  C  C155  1  0.79502000  0.79296000  0.25395000  1.0
  C  C156  1  0.71136000  0.20916000  0.75386000  1.0
  C  C157  1  0.04244000  0.54470000  0.75378000  1.0
  C  C158  1  0.29471000  0.96121000  0.25375000  1.0
  C  C159  1  0.95901000  0.29263000  0.25385000  1.0
  C  C160  1  0.26711000  0.03068000  0.78317000  1.0
  C  C161  1  0.50210000  0.51682000  0.28308000  1.0
  C  C162  1  0.51591000  0.75256000  0.78303000  1.0
  C  C163  1  0.78096000  0.76629000  0.28310000  1.0
  C  C164  1  0.76709000  0.25259000  0.78310000  1.0
  C  C165  1  0.01592000  0.53051000  0.78300000  1.0
  C  C166  1  0.28056000  0.01697000  0.28293000  1.0
  C  C167  1  0.00236000  0.26612000  0.28308000  1.0
  C  C168  1  0.99083000  0.98324000  0.62325000  1.0
  C  C169  1  0.39004000  0.24070000  0.12324000  1.0
  C  C170  1  0.63237000  0.64001000  0.62321000  1.0
  C  C171  1  0.73327000  0.88245000  0.12322000  1.0
  C  C172  1  0.49081000  0.13989000  0.62326000  1.0
  C  C173  1  0.13257000  0.48332000  0.62328000  1.0
  C  C174  1  0.23327000  0.74074000  0.12338000  1.0
  C  C175  1  0.89018000  0.38262000  0.12344000  1.0
  C  C176  1  0.04900000  0.96861000  0.64900000  1.0
  C  C177  1  0.43048000  0.29886000  0.14902000  1.0
  C  C178  1  0.59995000  0.68041000  0.64896000  1.0
  C  C179  1  0.71862000  0.85014000  0.14904000  1.0
  C  C180  1  0.54900000  0.18029000  0.64907000  1.0
  C  C181  1  0.10013000  0.46871000  0.64905000  1.0
  C  C182  1  0.21860000  0.79890000  0.14910000  1.0
  C  C183  1  0.93050000  0.35015000  0.14914000  1.0
  C  C184  1  0.09465000  0.01472000  0.69720000  1.0
  C  C185  1  0.43252000  0.34450000  0.19719000  1.0
  C  C186  1  0.60249000  0.68251000  0.69715000  1.0
  C  C187  1  0.76474000  0.85275000  0.19725000  1.0
  C  C188  1  0.59465000  0.18239000  0.69725000  1.0
  C  C189  1  0.10259000  0.51481000  0.69720000  1.0
  C  C190  1  0.26469000  0.84457000  0.19725000  1.0
  C  C191  1  0.93259000  0.35272000  0.19733000  1.0
  C  C192  1  0.08014000  0.07423000  0.71804000  1.0
  C  C193  1  0.39373000  0.32995000  0.21797000  1.0
  C  C194  1  0.63777000  0.64378000  0.71798000  1.0
  C  C195  1  0.82432000  0.88804000  0.21798000  1.0
  C  C196  1  0.58010000  0.14363000  0.71801000  1.0
  C  C197  1  0.13793000  0.57432000  0.71801000  1.0
  C  C198  1  0.32428000  0.83012000  0.21811000  1.0
  C  C199  1  0.89393000  0.38812000  0.21820000  1.0
  C  C200  1  0.02020000  0.08485000  0.69116000  1.0
  C  C201  1  0.35627000  0.27004000  0.19111000  1.0
  C  C202  1  0.67079000  0.60622000  0.69109000  1.0
  C  C203  1  0.83494000  0.92095000  0.19103000  1.0
  C  C204  1  0.52014000  0.10609000  0.69106000  1.0
  C  C205  1  0.17107000  0.58489000  0.69115000  1.0
  C  C206  1  0.33494000  0.77021000  0.19128000  1.0
  C  C207  1  0.85647000  0.42120000  0.19137000  1.0
  C  C208  1  0.94137000  0.93710000  0.57117000  1.0
  C  C209  1  0.38419000  0.19146000  0.07111000  1.0
  C  C210  1  0.62984000  0.63419000  0.57119000  1.0
  C  C211  1  0.68696000  0.87960000  0.07115000  1.0
  C  C212  1  0.44158000  0.13417000  0.57120000  1.0
  C  C213  1  0.12970000  0.43702000  0.57117000  1.0
  C  C214  1  0.18700000  0.69148000  0.07127000  1.0
  C  C215  1  0.88430000  0.37969000  0.07131000  1.0
  C  C216  1  0.95348000  0.88068000  0.53922000  1.0
  C  C217  1  0.40860000  0.20423000  0.03938000  1.0
  C  C218  1  0.58581000  0.65875000  0.53929000  1.0
  C  C219  1  0.63075000  0.83518000  0.03946000  1.0
  C  C220  1  0.45438000  0.15874000  0.53959000  1.0
  C  C221  1  0.08521000  0.38090000  0.53952000  1.0
  C  C222  1  0.13085000  0.70423000  0.03954000  1.0
  C  C223  1  0.90869000  0.33518000  0.03956000  1.0
  C  C224  1  0.90611000  0.83848000  0.49040000  1.0
  C  C225  1  0.40195000  0.15740000  0.99039000  1.0
  C  C226  1  0.58438000  0.65214000  0.49047000  1.0
  C  C227  1  0.58845000  0.83299000  0.99045000  1.0
  C  C228  1  0.40756000  0.15204000  0.49058000  1.0
  C  C229  1  0.08304000  0.33855000  0.49052000  1.0
  C  C230  1  0.08858000  0.65742000  0.99051000  1.0
  C  C231  1  0.90195000  0.33296000  0.99052000  1.0
  C  C232  1  0.84544000  0.85189000  0.47214000  1.0
  C  C233  1  0.37090000  0.09648000  0.97198000  1.0
  C  C234  1  0.62675000  0.62039000  0.47219000  1.0
  C  C235  1  0.60114000  0.87546000  0.97202000  1.0
  C  C236  1  0.34659000  0.12090000  0.47208000  1.0
  C  C237  1  0.12555000  0.35116000  0.47204000  1.0
  C  C238  1  0.10124000  0.59651000  0.97205000  1.0
  C  C239  1  0.87086000  0.37543000  0.97209000  1.0
  C  C240  1  0.83310000  0.90822000  0.50363000  1.0
  C  C241  1  0.34632000  0.08332000  0.00331000  1.0
  C  C242  1  0.67058000  0.59556000  0.50367000  1.0
  C  C243  1  0.65703000  0.91995000  0.00336000  1.0
  C  C244  1  0.33333333  0.09633000  0.50336000  1.0
  C  C245  1  0.17005000  0.40702000  0.50331000  1.0
  C  C246  1  0.15711000  0.58335000  0.00340000  1.0
  C  C247  1  0.84631000  0.41992000  0.00344000  1.0
  C  C248  1  0.88034000  0.95013000  0.55245000  1.0
  C  C249  1  0.35270000  0.13029000  0.05211000  1.0
  C  C250  1  0.67214000  0.60247000  0.55248000  1.0
  C  C251  1  0.69945000  0.92175000  0.05214000  1.0
  C  C252  1  0.38034000  0.10268000  0.55214000  1.0
  C  C253  1  0.17187000  0.44945000  0.55210000  1.0
  C  C254  1  0.19947000  0.63031000  0.05224000  1.0
  C  C255  1  0.85275000  0.42180000  0.05227000  1.0
  C  C256  1  0.79407000  0.80734000  0.42014000  1.0
  C  C257  1  0.36451000  0.04652000  0.91982000  1.0
  C  C258  1  0.62602000  0.61280000  0.42014000  1.0
  C  C259  1  0.55539000  0.87323000  0.91981000  1.0
  C  C260  1  0.29664000  0.11440000  0.41985000  1.0
  C  C261  1  0.12331000  0.30539000  0.41985000  1.0
  C  C262  1  0.05547000  0.54654000  0.91983000  1.0
  C  C263  1  0.86440000  0.37319000  0.91986000  1.0
  C  C264  1  0.91971000  0.20326000  0.72812000  1.0
  C  C265  1  0.27480000  0.16975000  0.22815000  1.0
  C  C266  1  0.80825000  0.52473000  0.72793000  1.0
  C  C267  1  0.95327000  0.05831000  0.22794000  1.0
  C  C268  1  0.41963000  0.02462000  0.72794000  1.0
  C  C269  1  0.30843000  0.70341000  0.72814000  1.0
  C  C270  1  0.45417000  0.67017000  0.22771000  1.0
  C  C271  1  0.77365000  0.55762000  0.22793000  1.0
  C  C272  1  0.93792000  0.14739000  0.70423000  1.0
  C  C273  1  0.30683000  0.18789000  0.20425000  1.0
  C  C274  1  0.76614000  0.55672000  0.70407000  1.0
  C  C275  1  0.89740000  0.01617000  0.20402000  1.0
  C  C276  1  0.43784000  0.05658000  0.70404000  1.0
  C  C277  1  0.26643000  0.64749000  0.70426000  1.0
  C  C278  1  0.39797000  0.68817000  0.20417000  1.0
  C  C279  1  0.80635000  0.51612000  0.20438000  1.0
  C  C280  1  0.00121000  0.14551000  0.71429000  1.0
  C  C281  1  0.31874000  0.25108000  0.21428000  1.0
  C  C282  1  0.71292000  0.56863000  0.71416000  1.0
  C  C283  1  0.89563000  0.96303000  0.21410000  1.0
  C  C284  1  0.50113000  0.06848000  0.71411000  1.0
  C  C285  1  0.21319000  0.64555000  0.71430000  1.0
  C  C286  1  0.39579000  0.75138000  0.21433000  1.0
  C  C287  1  0.81871000  0.46305000  0.21448000  1.0
  C  C288  1  0.04550000  0.20162000  0.74761000  1.0
  C  C289  1  0.29590000  0.29536000  0.24759000  1.0
  C  C290  1  0.70197000  0.54579000  0.74746000  1.0
  C  C291  1  0.95180000  0.95214000  0.24742000  1.0
  C  C292  1  0.54541000  0.04569000  0.74741000  1.0
  C  C293  1  0.20211000  0.70160000  0.74756000  1.0
  C  C294  1  0.45182000  0.79580000  0.24752000  1.0
  C  C295  1  0.79593000  0.45177000  0.24770000  1.0
  C  C296  1  0.02710000  0.25782000  0.77039000  1.0
  C  C297  1  0.26245000  0.27703000  0.27041000  1.0
  C  C298  1  0.74316000  0.51234000  0.77020000  1.0
  C  C299  1  0.00802000  0.99337000  0.27023000  1.0
  C  C300  1  0.52698000  0.01225000  0.77018000  1.0
  C  C301  1  0.24322000  0.75788000  0.77035000  1.0
  C  C302  1  0.50828000  0.77766000  0.27021000  1.0
  C  C303  1  0.76219000  0.49259000  0.27046000  1.0
  C  C304  1  0.96416000  0.25909000  0.76143000  1.0
  C  C305  1  0.25225000  0.21418000  0.26145000  1.0
  C  C306  1  0.79711000  0.50212000  0.76119000  1.0
  C  C307  1  0.00917000  0.04725000  0.26126000  1.0
  C  C308  1  0.46406000  0.00206000  0.76121000  1.0
  C  C309  1  0.29719000  0.75921000  0.76141000  1.0
  C  C310  1  0.50993000  0.71478000  0.26100000  1.0
  C  C311  1  0.75124000  0.54624000  0.26123000  1.0
  C  C312  1  0.94478000  0.31930000  0.78701000  1.0
  C  C313  1  0.21760000  0.19479000  0.28703000  1.0
  C  C314  1  0.84211000  0.46754000  0.78683000  1.0
  C  C315  1  0.06938000  0.09229000  0.28696000  1.0
  C  C316  1  0.44472000  0.96753000  0.78689000  1.0
  C  C317  1  0.34211000  0.81945000  0.78697000  1.0
  C  C318  1  0.57058000  0.69599000  0.28682000  1.0
  C  C319  1  0.71628000  0.59076000  0.28695000  1.0
  N  N320  1  0.26997000  0.97565000  0.78707000  1.0
  N  N321  1  0.56110000  0.52006000  0.28697000  1.0
  N  N322  1  0.51692000  0.81147000  0.78689000  1.0
  N  N323  1  0.72582000  0.76692000  0.28696000  1.0
  N  N324  1  0.76988000  0.31149000  0.78694000  1.0
  N  N325  1  0.01697000  0.47547000  0.78688000  1.0
  N  N326  1  0.22545000  0.01994000  0.28683000  1.0
  N  N327  1  0.06137000  0.26708000  0.28701000  1.0
  N  N328  1  0.97685000  0.04014000  0.64487000  1.0
  N  N329  1  0.35470000  0.22667000  0.14482000  1.0
  N  N330  1  0.66788000  0.60465000  0.64480000  1.0
  N  N331  1  0.79020000  0.91799000  0.14474000  1.0
  N  N332  1  0.47676000  0.10454000  0.64479000  1.0
  N  N333  1  0.16820000  0.54019000  0.64487000  1.0
  N  N334  1  0.29022000  0.72679000  0.14502000  1.0
  N  N335  1  0.85492000  0.41832000  0.14510000  1.0
  O  O336  1  0.80390000  0.75353000  0.39281000  1.0
  O  O337  1  0.38259000  0.05969000  0.88941000  1.0
  O  O338  1  0.58881000  0.63922000  0.39279000  1.0
  O  O339  1  0.50695000  0.82961000  0.88936000  1.0
  O  O340  1  0.30992000  0.13231000  0.38941000  1.0
  O  O341  1  0.07963000  0.25700000  0.38945000  1.0
  O  O342  1  0.00705000  0.55974000  0.88939000  1.0
  O  O343  1  0.88244000  0.32961000  0.88943000  1.0
  O  O344  1  0.73998000  0.82146000  0.40259000  1.0
  O  O345  1  0.34145000  0.98943000  0.90535000  1.0
  O  O346  1  0.66255000  0.58112000  0.40260000  1.0
  O  O347  1  0.56397000  0.91589000  0.90538000  1.0
  O  O348  1  0.23946000  0.09145000  0.40538000  1.0
  O  O349  1  0.16599000  0.31390000  0.40536000  1.0
  O  O350  1  0.06398000  0.48944000  0.90539000  1.0
  O  O351  1  0.84138000  0.41585000  0.90544000  1.0
  O  O352  1  0.89123000  0.31595000  0.78786000  1.0
  O  O353  1  0.22180000  0.14131000  0.28785000  1.0
  O  O354  1  0.89652000  0.47182000  0.78772000  1.0
  O  O355  1  0.06594000  0.14658000  0.28777000  1.0
  O  O356  1  0.39116000  0.97174000  0.78772000  1.0
  O  O357  1  0.39649000  0.81611000  0.78778000  1.0
  O  O358  1  0.56792000  0.64129000  0.28517000  1.0
  O  O359  1  0.71715000  0.64377000  0.28521000  1.0
  O  O360  1  0.98327000  0.36981000  0.80578000  1.0
  O  O361  1  0.18587000  0.23327000  0.30585000  1.0
  O  O362  1  0.82245000  0.43589000  0.80570000  1.0
  O  O363  1  0.11996000  0.07273000  0.30587000  1.0
  O  O364  1  0.48326000  0.93594000  0.80580000  1.0
  O  O365  1  0.32239000  0.86993000  0.80577000  1.0
  O  O366  1  0.62063000  0.73650000  0.30836000  1.0
  O  O367  1  0.68781000  0.57177000  0.30851000  1.0
  O  O368  1  0.44453000  0.94449000  0.88902000  1.0
  O  O369  1  0.69409000  0.69417000  0.38833000  1.0
  O  O370  1  0.94442000  0.44456000  0.88899000  1.0
  O  O371  1  0.19456000  0.19450000  0.38905000  1.0
