# generated using pymatgen
data_Zn4H28C36N4O21
_symmetry_space_group_name_H-M   'P 1'
_cell_length_a   17.74710000
_cell_length_b   18.68160000
_cell_length_c   23.28830000
_cell_angle_alpha   66.40070000
_cell_angle_beta   69.77820000
_cell_angle_gamma   89.95170000
_symmetry_Int_Tables_number   1
_chemical_formula_structural   Zn4H28C36N4O21
_chemical_formula_sum   'Zn8 H56 C72 N8 O42'
_cell_volume   6553.77640792
_cell_formula_units_Z   2
loop_
 _symmetry_equiv_pos_site_id
 _symmetry_equiv_pos_as_xyz
  1  'x, y, z'
loop_
 _atom_site_type_symbol
 _atom_site_label
 _atom_site_symmetry_multiplicity
 _atom_site_fract_x
 _atom_site_fract_y
 _atom_site_fract_z
 _atom_site_occupancy
  Zn  Zn0  1  0.12004000  0.52837000  0.94355000  1.0
  Zn  Zn1  1  0.97129000  0.56203000  0.04883000  1.0
  Zn  Zn2  1  0.98083000  0.38878000  0.04943000  1.0
  Zn  Zn3  1  0.93550000  0.52959000  0.93755000  1.0
  Zn  Zn4  1  0.38462000  0.97475000  0.04803000  1.0
  Zn  Zn5  1  0.52937000  0.11637000  0.93916000  1.0
  Zn  Zn6  1  0.52223000  0.94426000  0.93841000  1.0
  Zn  Zn7  1  0.57198000  0.97588000  0.04782000  1.0
  H  H8  1  0.43552000  0.80005000  0.38801000  1.0
  H  H9  1  0.19741000  0.82111000  0.37663000  1.0
  H  H10  1  0.31680000  0.70342000  0.61365000  1.0
  H  H11  1  0.08056000  0.69331000  0.59909000  1.0
  H  H12  1  0.70395000  0.07975000  0.60633000  1.0
  H  H13  1  0.68986000  0.31189000  0.60524000  1.0
  H  H14  1  0.80303000  0.19334000  0.38108000  1.0
  H  H15  1  0.81549000  0.42396000  0.38319000  1.0
  H  H16  1  0.20376000  0.30276000  0.90645000  1.0
  H  H17  1  0.12901000  0.23225000  0.98229000  1.0
  H  H18  1  0.21514000  0.13773000  0.98324000  1.0
  H  H19  1  0.28920000  0.20831000  0.90675000  1.0
  H  H20  1  0.21598000  0.12304000  0.09560000  1.0
  H  H21  1  0.28855000  0.18422000  0.09859000  1.0
  H  H22  1  0.12811000  0.21659000  0.09546000  1.0
  H  H23  1  0.20093000  0.27693000  0.09944000  1.0
  H  H24  1  0.30767000  0.39087000  0.91182000  1.0
  H  H25  1  0.30737000  0.37952000  0.99053000  1.0
  H  H26  1  0.39547000  0.28686000  0.98801000  1.0
  H  H27  1  0.39380000  0.29657000  0.91020000  1.0
  H  H28  1  0.88879000  0.80101000  0.90265000  1.0
  H  H29  1  0.88789000  0.78755000  0.98257000  1.0
  H  H30  1  0.79835000  0.87882000  0.98633000  1.0
  H  H31  1  0.80091000  0.89287000  0.90573000  1.0
  H  H32  1  0.69235000  0.77505000  0.09223000  1.0
  H  H33  1  0.62162000  0.71418000  0.08684000  1.0
  H  H34  1  0.78271000  0.68409000  0.08953000  1.0
  H  H35  1  0.71071000  0.62297000  0.08536000  1.0
  H  H36  1  0.78650000  0.71237000  0.89593000  1.0
  H  H37  1  0.71293000  0.64073000  0.97050000  1.0
  H  H38  1  0.62520000  0.73404000  0.97030000  1.0
  H  H39  1  0.69974000  0.80630000  0.89698000  1.0
  H  H40  1  0.16308000  0.79271000  0.93468000  1.0
  H  H41  1  0.24777000  0.75520000  0.89585000  1.0
  H  H42  1  0.33380000  0.85150000  0.89372000  1.0
  H  H43  1  0.24856000  0.88564000  0.93617000  1.0
  H  H44  1  0.39225000  0.74015000  0.96091000  1.0
  H  H45  1  0.35270000  0.69954000  0.05002000  1.0
  H  H46  1  0.30235000  0.64388000  0.96649000  1.0
  H  H47  1  0.26032000  0.60621000  0.05568000  1.0
  H  H48  1  0.10078000  0.73712000  0.06351000  1.0
  H  H49  1  0.13843000  0.65917000  0.11287000  1.0
  H  H50  1  0.23092000  0.74969000  0.11122000  1.0
  H  H51  1  0.19048000  0.82763000  0.06454000  1.0
  H  H52  1  0.89590000  0.26952000  0.93262000  1.0
  H  H53  1  0.84835000  0.34496000  0.89016000  1.0
  H  H54  1  0.76436000  0.24778000  0.89142000  1.0
  H  H55  1  0.80676000  0.17217000  0.93983000  1.0
  H  H56  1  0.64813000  0.30285000  0.95020000  1.0
  H  H57  1  0.60170000  0.26036000  0.03910000  1.0
  H  H58  1  0.73272000  0.39401000  0.95545000  1.0
  H  H59  1  0.69091000  0.34639000  0.04479000  1.0
  H  H60  1  0.83754000  0.20204000  0.06144000  1.0
  H  H61  1  0.75774000  0.23641000  0.10765000  1.0
  H  H62  1  0.66176000  0.14979000  0.10886000  1.0
  H  H63  1  0.74186000  0.11027000  0.06808000  1.0
  C  C64  1  0.13978000  0.63443000  0.00344000  1.0
  C  C65  1  0.91403000  0.41484000  0.17203000  1.0
  C  C66  1  0.14835000  0.36387000  0.99821000  1.0
  C  C67  1  0.85883000  0.36467000  0.99655000  1.0
  C  C68  1  0.08860000  0.58989000  0.81662000  1.0
  C  C69  1  0.85930000  0.64378000  0.98803000  1.0
  C  C70  1  0.36083000  0.13933000  0.99497000  1.0
  C  C71  1  0.58661000  0.09162000  0.81565000  1.0
  C  C72  1  0.35564000  0.86053000  0.99827000  1.0
  C  C73  1  0.64472000  0.86694000  0.99060000  1.0
  C  C74  1  0.42289000  0.91175000  0.17186000  1.0
  C  C75  1  0.64211000  0.14233000  0.99769000  1.0
  C  C76  1  0.38508000  0.87581000  0.24786000  1.0
  C  C77  1  0.43081000  0.85066000  0.28891000  1.0
  C  C78  1  0.39659000  0.81756000  0.35904000  1.0
  C  C79  1  0.31142000  0.80561000  0.39216000  1.0
  C  C80  1  0.26335000  0.82939000  0.35266000  1.0
  C  C81  1  0.30060000  0.86447000  0.28274000  1.0
  C  C82  1  0.27445000  0.77025000  0.46363000  1.0
  C  C83  1  0.24157000  0.73941000  0.52521000  1.0
  C  C84  1  0.20382000  0.70321000  0.59662000  1.0
  C  C85  1  0.25085000  0.68763000  0.63693000  1.0
  C  C86  1  0.21251000  0.65280000  0.70678000  1.0
  C  C87  1  0.12795000  0.62935000  0.74074000  1.0
  C  C88  1  0.08330000  0.64508000  0.69884000  1.0
  C  C89  1  0.11862000  0.68192000  0.62878000  1.0
  C  C90  1  0.62632000  0.12909000  0.73993000  1.0
  C  C91  1  0.65138000  0.08434000  0.70258000  1.0
  C  C92  1  0.68697000  0.11765000  0.63258000  1.0
  C  C93  1  0.70179000  0.20062000  0.59613000  1.0
  C  C94  1  0.67900000  0.24765000  0.63197000  1.0
  C  C95  1  0.64111000  0.21140000  0.70182000  1.0
  C  C96  1  0.73842000  0.23628000  0.52477000  1.0
  C  C97  1  0.76923000  0.26757000  0.46313000  1.0
  C  C98  1  0.80466000  0.30380000  0.39173000  1.0
  C  C99  1  0.81893000  0.25751000  0.35501000  1.0
  C  C100  1  0.85230000  0.29448000  0.28497000  1.0
  C  C101  1  0.87582000  0.37666000  0.24785000  1.0
  C  C102  1  0.86179000  0.42063000  0.28618000  1.0
  C  C103  1  0.82600000  0.38669000  0.35618000  1.0
  C  C104  1  0.19308000  0.26015000  0.95858000  1.0
  C  C105  1  0.25036000  0.19753000  0.95872000  1.0
  C  C106  1  0.30512000  0.20087000  0.99728000  1.0
  C  C107  1  0.25011000  0.18321000  0.07057000  1.0
  C  C108  1  0.19198000  0.24506000  0.07093000  1.0
  C  C109  1  0.20792000  0.30546000  0.99770000  1.0
  C  C110  1  0.29680000  0.34663000  0.96334000  1.0
  C  C111  1  0.35458000  0.28468000  0.96222000  1.0
  C  C112  1  0.84870000  0.78684000  0.95515000  1.0
  C  C113  1  0.78975000  0.84782000  0.95713000  1.0
  C  C114  1  0.70062000  0.80517000  0.99000000  1.0
  C  C115  1  0.68513000  0.74406000  0.06271000  1.0
  C  C116  1  0.74446000  0.68341000  0.06138000  1.0
  C  C117  1  0.79999000  0.70259000  0.98750000  1.0
  C  C118  1  0.74712000  0.70065000  0.94796000  1.0
  C  C119  1  0.68900000  0.76241000  0.94853000  1.0
  C  C120  1  0.21912000  0.77001000  0.93880000  1.0
  C  C121  1  0.27673000  0.83266000  0.93827000  1.0
  C  C122  1  0.29652000  0.79763000  0.00307000  1.0
  C  C123  1  0.33567000  0.72325000  0.00551000  1.0
  C  C124  1  0.27558000  0.66056000  0.00856000  1.0
  C  C125  1  0.19658000  0.69359000  0.00529000  1.0
  C  C126  1  0.15698000  0.71374000  0.06577000  1.0
  C  C127  1  0.21697000  0.77437000  0.06522000  1.0
  C  C128  1  0.83679000  0.28899000  0.93509000  1.0
  C  C129  1  0.77859000  0.22523000  0.93730000  1.0
  C  C130  1  0.69838000  0.20148000  0.00017000  1.0
  C  C131  1  0.66071000  0.27676000  0.99668000  1.0
  C  C132  1  0.71888000  0.33632000  0.99905000  1.0
  C  C133  1  0.79902000  0.30408000  0.99914000  1.0
  C  C134  1  0.78058000  0.22541000  0.06217000  1.0
  C  C135  1  0.71835000  0.16566000  0.06420000  1.0
  N  N136  1  0.52037000  0.85510000  0.25896000  1.0
  N  N137  1  0.24482000  0.89285000  0.24614000  1.0
  N  N138  1  0.26718000  0.64450000  0.74435000  1.0
  N  N139  1  0.99382000  0.61968000  0.72759000  1.0
  N  N140  1  0.64429000  0.99700000  0.73700000  1.0
  N  N141  1  0.61302000  0.26528000  0.73478000  1.0
  N  N142  1  0.85825000  0.24190000  0.25032000  1.0
  N  N143  1  0.88852000  0.50758000  0.25312000  1.0
  O  O144  1  0.00190000  0.50308000  0.99323000  1.0
  O  O145  1  0.16870000  0.61161000  0.95626000  1.0
  O  O146  1  0.90245000  0.48516000  0.14290000  1.0
  O  O147  1  0.07291000  0.33411000  0.02941000  1.0
  O  O148  1  0.06761000  0.61291000  0.04800000  1.0
  O  O149  1  0.17686000  0.43760000  0.96735000  1.0
  O  O150  1  0.95423000  0.37284000  0.14482000  1.0
  O  O151  1  0.89024000  0.34076000  0.04132000  1.0
  O  O152  1  0.01325000  0.59184000  0.84211000  1.0
  O  O153  1  0.87379000  0.43466000  0.94930000  1.0
  O  O154  1  0.13521000  0.55859000  0.84733000  1.0
  O  O155  1  0.90494000  0.64163000  0.02065000  1.0
  O  O156  1  0.85969000  0.60109000  0.95676000  1.0
  O  O157  1  0.50203000  0.00193000  0.99503000  1.0
  O  O158  1  0.33384000  0.06879000  0.04126000  1.0
  O  O159  1  0.59600000  0.13366000  0.84480000  1.0
  O  O160  1  0.43050000  0.86681000  0.96229000  1.0
  O  O161  1  0.42984000  0.16225000  0.94592000  1.0
  O  O162  1  0.32664000  0.90388000  0.02867000  1.0
  O  O163  1  0.54778000  0.02193000  0.84284000  1.0
  O  O164  1  0.61374000  0.88887000  0.94554000  1.0
  O  O165  1  0.49757000  0.94189000  0.14479000  1.0
  O  O166  1  0.63406000  0.89315000  0.03542000  1.0
  O  O167  1  0.37550000  0.90792000  0.14265000  1.0
  O  O168  1  0.59698000  0.17097000  0.96423000  1.0
  O  O169  1  0.64513000  0.06889000  0.02746000  1.0
  O  O170  1  0.54466000  0.80768000  0.23469000  1.0
  O  O171  1  0.56237000  0.90300000  0.26420000  1.0
  O  O172  1  0.24695000  0.96514000  0.21938000  1.0
  O  O173  1  0.19796000  0.84157000  0.24912000  1.0
  O  O174  1  0.26519000  0.69099000  0.77022000  1.0
  O  O175  1  0.31315000  0.59514000  0.74291000  1.0
  O  O176  1  0.96984000  0.54824000  0.75032000  1.0
  O  O177  1  0.95169000  0.67276000  0.72269000  1.0
  O  O178  1  0.68786000  0.97156000  0.76978000  1.0
  O  O179  1  0.59856000  0.95766000  0.72697000  1.0
  O  O180  1  0.53877000  0.26218000  0.76011000  1.0
  O  O181  1  0.66642000  0.31121000  0.73091000  1.0
  O  O182  1  0.81411000  0.25002000  0.21789000  1.0
  O  O183  1  0.90365000  0.19202000  0.25977000  1.0
  O  O184  1  0.96258000  0.53087000  0.22573000  1.0
  O  O185  1  0.83437000  0.54870000  0.25882000  1.0
