# generated using pymatgen
data_Cu3H26C18N6O13
_symmetry_space_group_name_H-M   'P 1'
_cell_length_a   10.97910000
_cell_length_b   10.97890000
_cell_length_c   12.46320000
_cell_angle_alpha   105.47100000
_cell_angle_beta   105.44900000
_cell_angle_gamma   105.39500000
_symmetry_Int_Tables_number   1
_chemical_formula_structural   Cu3H26C18N6O13
_chemical_formula_sum   'Cu6 H52 C36 N12 O26'
_cell_volume   1300.75020477
_cell_formula_units_Z   2
loop_
 _symmetry_equiv_pos_site_id
 _symmetry_equiv_pos_as_xyz
  1  'x, y, z'
loop_
 _atom_site_type_symbol
 _atom_site_label
 _atom_site_symmetry_multiplicity
 _atom_site_fract_x
 _atom_site_fract_y
 _atom_site_fract_z
 _atom_site_occupancy
  Cu  Cu0  1  0.81521000  0.73958000  0.71299000  1.0
  Cu  Cu1  1  0.26036000  0.18467000  0.78705000  1.0
  Cu  Cu2  1  0.18476000  0.26039000  0.28699000  1.0
  Cu  Cu3  1  0.73964000  0.81535000  0.21293000  1.0
  Cu  Cu4  1  0.65281000  0.34722000  0.25003000  1.0
  Cu  Cu5  1  0.34723000  0.65284000  0.74998000  1.0
  H  H6  1  0.05908000  0.83925000  0.86016000  1.0
  H  H7  1  0.16072000  0.94076000  0.63991000  1.0
  H  H8  1  0.94086000  0.16068000  0.13983000  1.0
  H  H9  1  0.83926000  0.05925000  0.36011000  1.0
  H  H10  1  0.00010000  0.96447000  0.86244000  1.0
  H  H11  1  0.03550000  0.99974000  0.63771000  1.0
  H  H12  1  0.99986000  0.03548000  0.13755000  1.0
  H  H13  1  0.96449000  0.00028000  0.36236000  1.0
  H  H14  1  0.94872000  0.85609000  0.92733000  1.0
  H  H15  1  0.14379000  0.05107000  0.57273000  1.0
  H  H16  1  0.05121000  0.14385000  0.07264000  1.0
  H  H17  1  0.85612000  0.94890000  0.42726000  1.0
  H  H18  1  0.65184000  0.66451000  0.50049000  1.0
  H  H19  1  0.33503000  0.34758000  0.99971000  1.0
  H  H20  1  0.34819000  0.33548000  0.49948000  1.0
  H  H21  1  0.66479000  0.65229000  0.00029000  1.0
  H  H22  1  0.67125000  0.52531000  0.52125000  1.0
  H  H23  1  0.47442000  0.32848000  0.97903000  1.0
  H  H24  1  0.32874000  0.47467000  0.47874000  1.0
  H  H25  1  0.52548000  0.67150000  0.02104000  1.0
  H  H26  1  0.57780000  0.59782000  0.58240000  1.0
  H  H27  1  0.40188000  0.42205000  0.91813000  1.0
  H  H28  1  0.42217000  0.40219000  0.41754000  1.0
  H  H29  1  0.59804000  0.57797000  0.08199000  1.0
  H  H30  1  0.84337000  0.56573000  0.27019000  1.0
  H  H31  1  0.43435000  0.15664000  0.22989000  1.0
  H  H32  1  0.15655000  0.43426000  0.72955000  1.0
  H  H33  1  0.56583000  0.84340000  0.77027000  1.0
  H  H34  1  0.86062000  0.55489000  0.40323000  1.0
  H  H35  1  0.44518000  0.13928000  0.09682000  1.0
  H  H36  1  0.13938000  0.44529000  0.59658000  1.0
  H  H37  1  0.55503000  0.86057000  0.90332000  1.0
  H  H38  1  0.90416000  0.45360000  0.31051000  1.0
  H  H39  1  0.54650000  0.09584000  0.18957000  1.0
  H  H40  1  0.09577000  0.54646000  0.68935000  1.0
  H  H41  1  0.45379000  0.90425000  0.81074000  1.0
  H  H42  1  0.55769000  0.57557000  0.28718000  1.0
  H  H43  1  0.42438000  0.44223000  0.21310000  1.0
  H  H44  1  0.44225000  0.42442000  0.71283000  1.0
  H  H45  1  0.57558000  0.55773000  0.78695000  1.0
  H  H46  1  0.57649000  0.01737000  0.72203000  1.0
  H  H47  1  0.98269000  0.42337000  0.77796000  1.0
  H  H48  1  0.42336000  0.98260000  0.27780000  1.0
  H  H49  1  0.01739000  0.57661000  0.22213000  1.0
  H  H50  1  0.54631000  0.29999000  0.54535000  1.0
  H  H51  1  0.70002000  0.45371000  0.95464000  1.0
  H  H52  1  0.45383000  0.70012000  0.45459000  1.0
  H  H53  1  0.29992000  0.54625000  0.04531000  1.0
  H  H54  1  0.84559000  0.11793000  0.53798000  1.0
  H  H55  1  0.88200000  0.15437000  0.96201000  1.0
  H  H56  1  0.15457000  0.88217000  0.46214000  1.0
  H  H57  1  0.11790000  0.84556000  0.03798000  1.0
  C  C58  1  0.71407000  0.05176000  0.62837000  1.0
  C  C59  1  0.94819000  0.28585000  0.87162000  1.0
  C  C60  1  0.28592000  0.94825000  0.37160000  1.0
  C  C61  1  0.05177000  0.71409000  0.12841000  1.0
  C  C62  1  0.61142000  0.07213000  0.66872000  1.0
  C  C63  1  0.92788000  0.38851000  0.83127000  1.0
  C  C64  1  0.38853000  0.92787000  0.33118000  1.0
  C  C65  1  0.07214000  0.61146000  0.16877000  1.0
  C  C66  1  0.55286000  0.16364000  0.64123000  1.0
  C  C67  1  0.83639000  0.44710000  0.85878000  1.0
  C  C68  1  0.44714000  0.83641000  0.35867000  1.0
  C  C69  1  0.16362000  0.55287000  0.14124000  1.0
  C  C70  1  0.59538000  0.23279000  0.57073000  1.0
  C  C71  1  0.76722000  0.40462000  0.92928000  1.0
  C  C72  1  0.40472000  0.76729000  0.42923000  1.0
  C  C73  1  0.23274000  0.59533000  0.07070000  1.0
  C  C74  1  0.69981000  0.21540000  0.53203000  1.0
  C  C75  1  0.78457000  0.30020000  0.96797000  1.0
  C  C76  1  0.30034000  0.78471000  0.46800000  1.0
  C  C77  1  0.21536000  0.69974000  0.03201000  1.0
  C  C78  1  0.76091000  0.12752000  0.56406000  1.0
  C  C79  1  0.87243000  0.23905000  0.93594000  1.0
  C  C80  1  0.23919000  0.87256000  0.43599000  1.0
  C  C81  1  0.12749000  0.76088000  0.06406000  1.0
  C  C82  1  0.77170000  0.94711000  0.64865000  1.0
  C  C83  1  0.05281000  0.22818000  0.85130000  1.0
  C  C84  1  0.22828000  0.05289000  0.35133000  1.0
  C  C85  1  0.94710000  0.77173000  0.14871000  1.0
  C  C86  1  0.44364000  0.18654000  0.68452000  1.0
  C  C87  1  0.81348000  0.55629000  0.81549000  1.0
  C  C88  1  0.55634000  0.81352000  0.31535000  1.0
  C  C89  1  0.18653000  0.44367000  0.18452000  1.0
  C  C90  1  0.73890000  0.27887000  0.44754000  1.0
  C  C91  1  0.72106000  0.26113000  0.05246000  1.0
  C  C92  1  0.26138000  0.72129000  0.55256000  1.0
  C  C93  1  0.27884000  0.73881000  0.94750000  1.0
  N  N94  1  0.97413000  0.86431000  0.85517000  1.0
  N  N95  1  0.13564000  0.02570000  0.64491000  1.0
  N  N96  1  0.02581000  0.13564000  0.14481000  1.0
  N  N97  1  0.86433000  0.97430000  0.35510000  1.0
  N  N98  1  0.66323000  0.61675000  0.56120000  1.0
  N  N99  1  0.38297000  0.33646000  0.93909000  1.0
  N  N100  1  0.33677000  0.38324000  0.43878000  1.0
  N  N101  1  0.61693000  0.66350000  0.06095000  1.0
  N  N102  1  0.83470000  0.49946000  0.31504000  1.0
  N  N103  1  0.50062000  0.16528000  0.18502000  1.0
  N  N104  1  0.16526000  0.50063000  0.68479000  1.0
  N  N105  1  0.49958000  0.83471000  0.81516000  1.0
  O  O106  1  0.72890000  0.88240000  0.71222000  1.0
  O  O107  1  0.11757000  0.27101000  0.78777000  1.0
  O  O108  1  0.27107000  0.11760000  0.28775000  1.0
  O  O109  1  0.88237000  0.72890000  0.21227000  1.0
  O  O110  1  0.85513000  0.92287000  0.60148000  1.0
  O  O111  1  0.07699000  0.14471000  0.89842000  1.0
  O  O112  1  0.14485000  0.07713000  0.39848000  1.0
  O  O113  1  0.92288000  0.85515000  0.10157000  1.0
  O  O114  1  0.38092000  0.25786000  0.64692000  1.0
  O  O115  1  0.74212000  0.61900000  0.85312000  1.0
  O  O116  1  0.61903000  0.74215000  0.35291000  1.0
  O  O117  1  0.25785000  0.38095000  0.14687000  1.0
  O  O118  1  0.41752000  0.13222000  0.75933000  1.0
  O  O119  1  0.86776000  0.58243000  0.74066000  1.0
  O  O120  1  0.58249000  0.86789000  0.24058000  1.0
  O  O121  1  0.13223000  0.41753000  0.25934000  1.0
  O  O122  1  0.82434000  0.25189000  0.40561000  1.0
  O  O123  1  0.74794000  0.17563000  0.09431000  1.0
  O  O124  1  0.17603000  0.74835000  0.59459000  1.0
  O  O125  1  0.25193000  0.82427000  0.90563000  1.0
  O  O126  1  0.67143000  0.35371000  0.41724000  1.0
  O  O127  1  0.64628000  0.32869000  0.08283000  1.0
  O  O128  1  0.32884000  0.64644000  0.58282000  1.0
  O  O129  1  0.35362000  0.67126000  0.91714000  1.0
  O  O130  1  0.52464000  0.47521000  0.25053000  1.0
  O  O131  1  0.47531000  0.52476000  0.74966000  1.0
