# generated using pymatgen
data_Co3H16C30(NO)8
_symmetry_space_group_name_H-M   'P 1'
_cell_length_a   9.17742000
_cell_length_b   10.67400000
_cell_length_c   11.05530000
_cell_angle_alpha   63.30340000
_cell_angle_beta   86.68600000
_cell_angle_gamma   74.04310000
_symmetry_Int_Tables_number   1
_chemical_formula_structural   Co3H16C30(NO)8
_chemical_formula_sum   'Co3 H16 C30 N8 O8'
_cell_volume   927.52232660
_cell_formula_units_Z   1
loop_
 _symmetry_equiv_pos_site_id
 _symmetry_equiv_pos_as_xyz
  1  'x, y, z'
loop_
 _atom_site_type_symbol
 _atom_site_label
 _atom_site_symmetry_multiplicity
 _atom_site_fract_x
 _atom_site_fract_y
 _atom_site_fract_z
 _atom_site_occupancy
  Co  Co0  1  0.49969000  0.49917000  0.50060000  1.0
  Co  Co1  1  0.21666000  0.27046000  0.47900000  1.0
  Co  Co2  1  0.78317000  0.72950000  0.52123000  1.0
  H  H3  1  0.59844000  0.21822000  0.89256000  1.0
  H  H4  1  0.40180000  0.78169000  0.10786000  1.0
  H  H5  1  0.67510000  0.03676000  0.13661000  1.0
  H  H6  1  0.32534000  0.96295000  0.86361000  1.0
  H  H7  1  0.63903000  0.53236000  0.16604000  1.0
  H  H8  1  0.36147000  0.46723000  0.83406000  1.0
  H  H9  1  0.70711000  0.62108000  0.92347000  1.0
  H  H10  1  0.29341000  0.37847000  0.07663000  1.0
  H  H11  1  0.89420000  0.22470000  0.30126000  1.0
  H  H12  1  0.10555000  0.77536000  0.69861000  1.0
  H  H13  1  0.85899000  0.99372000  0.31641000  1.0
  H  H14  1  0.14092000  0.00622000  0.68364000  1.0
  H  H15  1  0.69087000  0.88458000  0.69511000  1.0
  H  H16  1  0.30879000  0.11562000  0.30480000  1.0
  H  H17  1  0.71780000  0.11245000  0.69576000  1.0
  H  H18  1  0.28204000  0.88762000  0.30418000  1.0
  C  C19  1  0.41206000  0.20963000  0.71804000  1.0
  C  C20  1  0.58870000  0.78992000  0.28208000  1.0
  C  C21  1  0.45695000  0.10146000  0.86400000  1.0
  C  C22  1  0.54327000  0.89846000  0.13623000  1.0
  C  C23  1  0.55655000  0.12203000  0.94057000  1.0
  C  C24  1  0.44357000  0.87795000  0.05973000  1.0
  C  C25  1  0.59904000  0.02134000  0.07568000  1.0
  C  C26  1  0.40118000  0.97856000  0.92457000  1.0
  C  C27  1  0.42313000  0.39795000  0.28035000  1.0
  C  C28  1  0.57685000  0.60235000  0.71962000  1.0
  C  C29  1  0.46281000  0.44987000  0.13560000  1.0
  C  C30  1  0.53745000  0.55001000  0.86446000  1.0
  C  C31  1  0.57979000  0.51808000  0.09246000  1.0
  C  C32  1  0.42058000  0.48167000  0.90761000  1.0
  C  C33  1  0.61666000  0.56772000  0.95805000  1.0
  C  C34  1  0.38373000  0.43199000  0.04204000  1.0
  C  C35  1  0.94538000  0.46343000  0.50277000  1.0
  C  C36  1  0.05391000  0.53711000  0.49655000  1.0
  C  C37  1  0.83889000  0.31277000  0.50168000  1.0
  C  C38  1  0.16068000  0.68745000  0.49817000  1.0
  C  C39  1  0.81083000  0.18544000  0.49931000  1.0
  C  C40  1  0.18880000  0.81478000  0.50053000  1.0
  C  C41  1  0.84930000  0.15203000  0.39052000  1.0
  C  C42  1  0.15037000  0.84811000  0.60935000  1.0
  C  C43  1  0.82969000  0.02439000  0.39832000  1.0
  C  C44  1  0.17000000  0.97572000  0.60160000  1.0
  C  C45  1  0.73494000  0.96366000  0.61018000  1.0
  C  C46  1  0.26466000  0.03656000  0.38970000  1.0
  C  C47  1  0.74987000  0.08971000  0.60984000  1.0
  C  C48  1  0.24980000  0.91048000  0.39002000  1.0
  N  N49  1  0.97729000  0.34182000  0.48487000  1.0
  N  N50  1  0.02206000  0.65888000  0.51420000  1.0
  N  N51  1  0.80364000  0.50956000  0.52764000  1.0
  N  N52  1  0.19586000  0.49040000  0.47251000  1.0
  N  N53  1  0.73311000  0.41300000  0.52680000  1.0
  N  N54  1  0.26648000  0.58686000  0.47363000  1.0
  N  N55  1  0.77646000  0.92949000  0.50726000  1.0
  N  N56  1  0.22311000  0.07071000  0.49263000  1.0
  O  O57  1  0.47009000  0.31500000  0.66666667  1.0
  O  O58  1  0.52895000  0.68584000  0.33412000  1.0
  O  O59  1  0.31948000  0.18104000  0.65743000  1.0
  O  O60  1  0.68374000  0.81721000  0.34156000  1.0
  O  O61  1  0.49791000  0.41469000  0.36140000  1.0
  O  O62  1  0.50190000  0.58648000  0.63810000  1.0
  O  O63  1  0.31525000  0.33499000  0.31109000  1.0
  O  O64  1  0.68481000  0.66526000  0.68903000  1.0
