# generated using pymatgen
data_ZnH18C26(NO2)4
_symmetry_space_group_name_H-M   'P 1'
_cell_length_a   10.29690000
_cell_length_b   10.96380000
_cell_length_c   12.65690851
_cell_angle_alpha   76.42354728
_cell_angle_beta   66.68983617
_cell_angle_gamma   79.64000000
_symmetry_Int_Tables_number   1
_chemical_formula_structural   ZnH18C26(NO2)4
_chemical_formula_sum   'Zn2 H36 C52 N8 O16'
_cell_volume   1269.51649345
_cell_formula_units_Z   2
loop_
 _symmetry_equiv_pos_site_id
 _symmetry_equiv_pos_as_xyz
  1  'x, y, z'
loop_
 _atom_site_type_symbol
 _atom_site_label
 _atom_site_symmetry_multiplicity
 _atom_site_fract_x
 _atom_site_fract_y
 _atom_site_fract_z
 _atom_site_occupancy
  Zn  Zn0  1  0.38635000  0.31750000  0.17231000  1.0
  Zn  Zn1  1  0.61366000  0.68250000  0.82768000  1.0
  H  H2  1  0.63595000  0.38483000  0.96099000  1.0
  H  H3  1  0.36404000  0.61517000  0.03901000  1.0
  H  H4  1  0.81173000  0.41348000  0.77435000  1.0
  H  H5  1  0.18828000  0.58651000  0.22564000  1.0
  H  H6  1  0.33544000  0.13399000  0.05231000  1.0
  H  H7  1  0.66456000  0.86601000  0.94768000  1.0
  H  H8  1  0.35913000  0.08801000  0.66090000  1.0
  H  H9  1  0.64088000  0.91199000  0.33910000  1.0
  H  H10  1  0.46101000  0.05516000  0.86302000  1.0
  H  H11  1  0.53898000  0.94484000  0.13698000  1.0
  H  H12  1  0.68558000  0.14666000  0.71810000  1.0
  H  H13  1  0.31442000  0.85334000  0.28189000  1.0
  H  H14  1  0.26254000  0.67652000  0.51263000  1.0
  H  H15  1  0.73746000  0.32348000  0.48737000  1.0
  H  H16  1  0.94945000  0.52133000  0.61924000  1.0
  H  H17  1  0.05055000  0.47866000  0.38076000  1.0
  H  H18  1  0.91227000  0.80509000  0.07843000  1.0
  H  H19  1  0.08774000  0.19492000  0.92157000  1.0
  H  H20  1  0.40337000  0.49240000  0.50845000  1.0
  H  H21  1  0.59662000  0.50761000  0.49156000  1.0
  H  H22  1  0.18044000  0.15572000  0.64441000  1.0
  H  H23  1  0.81956000  0.84427000  0.35559000  1.0
  H  H24  1  0.44616000  0.89948000  0.74872000  1.0
  H  H25  1  0.55385000  0.10053000  0.25128000  1.0
  H  H26  1  0.87550000  0.77794000  0.62423000  1.0
  H  H27  1  0.12451000  0.22206000  0.37577000  1.0
  H  H28  1  0.92738000  0.96266000  0.46100000  1.0
  H  H29  1  0.07263000  0.03735000  0.53900000  1.0
  H  H30  1  0.73143000  0.13081000  0.44836000  1.0
  H  H31  1  0.26858000  0.86919000  0.55163000  1.0
  H  H32  1  0.89849000  0.27556000  0.18120000  1.0
  H  H33  1  0.10149000  0.72444000  0.81881000  1.0
  H  H34  1  0.06338000  0.63291000  0.10752000  1.0
  H  H35  1  0.93663000  0.36708000  0.89248000  1.0
  H  H36  1  0.62928000  0.62030000  0.14972000  1.0
  H  H37  1  0.37073000  0.37971000  0.85028000  1.0
  C  C38  1  0.60092000  0.31121000  0.93660000  1.0
  C  C39  1  0.39909000  0.68879000  0.06339000  1.0
  C  C40  1  0.43394000  0.16924000  0.98771000  1.0
  C  C41  1  0.56607000  0.83076000  0.01228000  1.0
  C  C42  1  0.50438000  0.12746000  0.88179000  1.0
  C  C43  1  0.49562000  0.87254000  0.11820000  1.0
  C  C44  1  0.62801000  0.17834000  0.80106000  1.0
  C  C45  1  0.37199000  0.82166000  0.19893000  1.0
  C  C46  1  0.67829000  0.27252000  0.82908000  1.0
  C  C47  1  0.32171000  0.72748000  0.17091000  1.0
  C  C48  1  0.92366000  0.26234000  0.69103000  1.0
  C  C49  1  0.07635000  0.73765000  0.30896000  1.0
  C  C50  1  0.05418000  0.33123000  0.63637000  1.0
  C  C51  1  0.94582000  0.66875000  0.36363000  1.0
  C  C52  1  0.04977000  0.46265000  0.60638000  1.0
  C  C53  1  0.95023000  0.53734000  0.39362000  1.0
  C  C54  1  0.17602000  0.52104000  0.56025000  1.0
  C  C55  1  0.82399000  0.47896000  0.43975000  1.0
  C  C56  1  0.30566000  0.44703000  0.54391000  1.0
  C  C57  1  0.69433000  0.55297000  0.45609000  1.0
  C  C58  1  0.31030000  0.31565000  0.57487000  1.0
  C  C59  1  0.68971000  0.68435000  0.42513000  1.0
  C  C60  1  0.18412000  0.25750000  0.62036000  1.0
  C  C61  1  0.81588000  0.74249000  0.37964000  1.0
  C  C62  1  0.45297000  0.24534000  0.55798000  1.0
  C  C63  1  0.54703000  0.75466000  0.44202000  1.0
  C  C64  1  0.57353000  0.03296000  0.60174000  1.0
  C  C65  1  0.42647000  0.96704000  0.39826000  1.0
  C  C66  1  0.55186000  0.92215000  0.68580000  1.0
  C  C67  1  0.44815000  0.07785000  0.31420000  1.0
  C  C68  1  0.79171000  0.85062000  0.61472000  1.0
  C  C69  1  0.20830000  0.14939000  0.38528000  1.0
  C  C70  1  0.82021000  0.95615000  0.52609000  1.0
  C  C71  1  0.17980000  0.04386000  0.47391000  1.0
  C  C72  1  0.71110000  0.04886000  0.51812000  1.0
  C  C73  1  0.28890000  0.95114000  0.48188000  1.0
  C  C74  1  0.64012000  0.36358000  0.17505000  1.0
  C  C75  1  0.35988000  0.63643000  0.82495000  1.0
  C  C76  1  0.75259000  0.44049000  0.16524000  1.0
  C  C77  1  0.24740000  0.55952000  0.83477000  1.0
  C  C78  1  0.88285000  0.37807000  0.16664000  1.0
  C  C79  1  0.11715000  0.62193000  0.83336000  1.0
  C  C80  1  0.99346000  0.44701000  0.14926000  1.0
  C  C81  1  0.00653000  0.55299000  0.85074000  1.0
  C  C82  1  0.12758000  0.37640000  0.15900000  1.0
  C  C83  1  0.87242000  0.62360000  0.84100000  1.0
  C  C84  1  0.97525000  0.57883000  0.12610000  1.0
  C  C85  1  0.02475000  0.42116000  0.87390000  1.0
  C  C86  1  0.84409000  0.64123000  0.12708000  1.0
  C  C87  1  0.15591000  0.35877000  0.87292000  1.0
  C  C88  1  0.73169000  0.57230000  0.14857000  1.0
  C  C89  1  0.26830000  0.42771000  0.85144000  1.0
  N  N90  1  0.48251000  0.26013000  0.01386000  1.0
  N  N91  1  0.51749000  0.73987000  0.98613000  1.0
  N  N92  1  0.80308000  0.32840000  0.75643000  1.0
  N  N93  1  0.19691000  0.67160000  0.24357000  1.0
  N  N94  1  0.45441000  0.11927000  0.60593000  1.0
  N  N95  1  0.54559000  0.88073000  0.39407000  1.0
  N  N96  1  0.65861000  0.83377000  0.69213000  1.0
  N  N97  1  0.34139000  0.16623000  0.30788000  1.0
  O  O98  1  0.51734000  0.42437000  0.18055000  1.0
  O  O99  1  0.48265000  0.57564000  0.81946000  1.0
  O  O100  1  0.67057000  0.24790000  0.17268000  1.0
  O  O101  1  0.32942000  0.75211000  0.82732000  1.0
  O  O102  1  0.15210000  0.26095000  0.15854000  1.0
  O  O103  1  0.84790000  0.73905000  0.84146000  1.0
  O  O104  1  0.21584000  0.44040000  0.17154000  1.0
  O  O105  1  0.78416000  0.55960000  0.82846000  1.0
  O  O106  1  0.92754000  0.15117000  0.68289000  1.0
  O  O107  1  0.07247000  0.84883000  0.31710000  1.0
  O  O108  1  0.16751000  0.64888000  0.53361000  1.0
  O  O109  1  0.83249000  0.35111000  0.46639000  1.0
  O  O110  1  0.56426000  0.29817000  0.50388000  1.0
  O  O111  1  0.43575000  0.70183000  0.49611000  1.0
  O  O112  1  0.82090000  0.77077000  0.10829000  1.0
  O  O113  1  0.17911000  0.22924000  0.89171000  1.0
