# generated using pymatgen
data_MnPH10C6NO5
_symmetry_space_group_name_H-M   'P 1'
_cell_length_a   7.62666000
_cell_length_b   10.04390000
_cell_length_c   12.74590000
_cell_angle_alpha   104.26200000
_cell_angle_beta   89.99930000
_cell_angle_gamma   89.99980000
_symmetry_Int_Tables_number   1
_chemical_formula_structural   MnPH10C6NO5
_chemical_formula_sum   'Mn4 P4 H40 C24 N4 O20'
_cell_volume   946.26203866
_cell_formula_units_Z   4
loop_
 _symmetry_equiv_pos_site_id
 _symmetry_equiv_pos_as_xyz
  1  'x, y, z'
loop_
 _atom_site_type_symbol
 _atom_site_label
 _atom_site_symmetry_multiplicity
 _atom_site_fract_x
 _atom_site_fract_y
 _atom_site_fract_z
 _atom_site_occupancy
  Mn  Mn0  1  0.75078000  0.09404000  0.88713000  1.0
  Mn  Mn1  1  0.25078000  0.90596000  0.61288000  1.0
  Mn  Mn2  1  0.24923000  0.90595000  0.11288000  1.0
  Mn  Mn3  1  0.74923000  0.09405000  0.38713000  1.0
  P  P4  1  0.86184000  0.09765000  0.13568000  1.0
  P  P5  1  0.36185000  0.90235000  0.36432000  1.0
  P  P6  1  0.13817000  0.90234000  0.86432000  1.0
  P  P7  1  0.63816000  0.09766000  0.63568000  1.0
  H  H8  1  0.38823000  0.07822000  0.92752000  1.0
  H  H9  1  0.88822000  0.92178000  0.57248000  1.0
  H  H10  1  0.61177000  0.92177000  0.07248000  1.0
  H  H11  1  0.11179000  0.07823000  0.42752000  1.0
  H  H12  1  0.42865000  0.11324000  0.81734000  1.0
  H  H13  1  0.92864000  0.88675000  0.68265000  1.0
  H  H14  1  0.57134000  0.88676000  0.18266000  1.0
  H  H15  1  0.07137000  0.11326000  0.31735000  1.0
  H  H16  1  0.58474000  0.90374000  0.74004000  1.0
  H  H17  1  0.08475000  0.09626000  0.75998000  1.0
  H  H18  1  0.41527000  0.09626000  0.25996000  1.0
  H  H19  1  0.91526000  0.90373000  0.24003000  1.0
  H  H20  1  0.53551000  0.85095000  0.84003000  1.0
  H  H21  1  0.03549000  0.14905000  0.65999000  1.0
  H  H22  1  0.46449000  0.14905000  0.15996000  1.0
  H  H23  1  0.96452000  0.85096000  0.34002000  1.0
  H  H24  1  0.65303000  0.37724000  0.86602000  1.0
  H  H25  1  0.15303000  0.62274000  0.63397000  1.0
  H  H26  1  0.34695000  0.62273000  0.13398000  1.0
  H  H27  1  0.84697000  0.37726000  0.36603000  1.0
  H  H28  1  0.63711000  0.62294000  0.97701000  1.0
  H  H29  1  0.13713000  0.37704000  0.52297000  1.0
  H  H30  1  0.36283000  0.37702000  0.02298000  1.0
  H  H31  1  0.86287000  0.62297000  0.47702000  1.0
  H  H32  1  0.79317000  0.68427000  0.15566000  1.0
  H  H33  1  0.29320000  0.31572000  0.34433000  1.0
  H  H34  1  0.20678000  0.31571000  0.84433000  1.0
  H  H35  1  0.70680000  0.68430000  0.65567000  1.0
  H  H36  1  0.96154000  0.50199000  0.21443000  1.0
  H  H37  1  0.46156000  0.49802000  0.28555000  1.0
  H  H38  1  0.03844000  0.49802000  0.78556000  1.0
  H  H39  1  0.53845000  0.50200000  0.71444000  1.0
  H  H40  1  0.08180000  0.27331000  0.17171000  1.0
  H  H41  1  0.58180000  0.72669000  0.32829000  1.0
  H  H42  1  0.91821000  0.72668000  0.82829000  1.0
  H  H43  1  0.41821000  0.27332000  0.67172000  1.0
  H  H44  1  0.08001000  0.17996000  0.03435000  1.0
  H  H45  1  0.58001000  0.82004000  0.46565000  1.0
  H  H46  1  0.91999000  0.82004000  0.96565000  1.0
  H  H47  1  0.42000000  0.17998000  0.53436000  1.0
  C  C48  1  0.71805000  0.41042000  0.94435000  1.0
  C  C49  1  0.21805000  0.58957000  0.55564000  1.0
  C  C50  1  0.28193000  0.58956000  0.05565000  1.0
  C  C51  1  0.78196000  0.41044000  0.44436000  1.0
  C  C52  1  0.71022000  0.54556000  0.00537000  1.0
  C  C53  1  0.21024000  0.45443000  0.49462000  1.0
  C  C54  1  0.28974000  0.45441000  0.99462000  1.0
  C  C55  1  0.78976000  0.54558000  0.50538000  1.0
  C  C56  1  0.79607000  0.57959000  0.10506000  1.0
  C  C57  1  0.29608000  0.42041000  0.39494000  1.0
  C  C58  1  0.20390000  0.42040000  0.89495000  1.0
  C  C59  1  0.70392000  0.57961000  0.60506000  1.0
  C  C60  1  0.88843000  0.47775000  0.13854000  1.0
  C  C61  1  0.38844000  0.52225000  0.36145000  1.0
  C  C62  1  0.11155000  0.52224000  0.86145000  1.0
  C  C63  1  0.61156000  0.47776000  0.63855000  1.0
  C  C64  1  0.89292000  0.34409000  0.07227000  1.0
  C  C65  1  0.39293000  0.65591000  0.42772000  1.0
  C  C66  1  0.10707000  0.65590000  0.92773000  1.0
  C  C67  1  0.60709000  0.34411000  0.57228000  1.0
  C  C68  1  0.99595000  0.23235000  0.10219000  1.0
  C  C69  1  0.49595000  0.76764000  0.39781000  1.0
  C  C70  1  0.00406000  0.76765000  0.89781000  1.0
  C  C71  1  0.50407000  0.23237000  0.60220000  1.0
  N  N72  1  0.80554000  0.31134000  0.97689000  1.0
  N  N73  1  0.30555000  0.68866000  0.52310000  1.0
  N  N74  1  0.19444000  0.68865000  0.02310000  1.0
  N  N75  1  0.69446000  0.31136000  0.47691000  1.0
  O  O76  1  0.73876000  0.04074000  0.03819000  1.0
  O  O77  1  0.23879000  0.95928000  0.46182000  1.0
  O  O78  1  0.26124000  0.95926000  0.96182000  1.0
  O  O79  1  0.76122000  0.04073000  0.53818000  1.0
  O  O80  1  0.75628000  0.15706000  0.23887000  1.0
  O  O81  1  0.25626000  0.84294000  0.26114000  1.0
  O  O82  1  0.24374000  0.84294000  0.76114000  1.0
  O  O83  1  0.74375000  0.15706000  0.73886000  1.0
  O  O84  1  0.99308000  0.98734000  0.15367000  1.0
  O  O85  1  0.49310000  0.01264000  0.34631000  1.0
  O  O86  1  0.00692000  0.01265000  0.84633000  1.0
  O  O87  1  0.50691000  0.98736000  0.65368000  1.0
  O  O88  1  0.45810000  0.14249000  0.89448000  1.0
  O  O89  1  0.95810000  0.85751000  0.60552000  1.0
  O  O90  1  0.54190000  0.85751000  0.10553000  1.0
  O  O91  1  0.04191000  0.14249000  0.39448000  1.0
  O  O92  1  0.63883000  0.87465000  0.80296000  1.0
  O  O93  1  0.13882000  0.12535000  0.69704000  1.0
  O  O94  1  0.36118000  0.12535000  0.19704000  1.0
  O  O95  1  0.86119000  0.87465000  0.30296000  1.0
