# generated using pymatgen
data_NiH24C34(NO3)2
_symmetry_space_group_name_H-M   'P 1'
_cell_length_a   11.23090000
_cell_length_b   14.95050000
_cell_length_c   16.83130000
_cell_angle_alpha   90.00000000
_cell_angle_beta   90.00000000
_cell_angle_gamma   104.55700000
_symmetry_Int_Tables_number   1
_chemical_formula_structural   NiH24C34(NO3)2
_chemical_formula_sum   'Ni4 H96 C136 N8 O24'
_cell_volume   2735.37935071
_cell_formula_units_Z   4
loop_
 _symmetry_equiv_pos_site_id
 _symmetry_equiv_pos_as_xyz
  1  'x, y, z'
loop_
 _atom_site_type_symbol
 _atom_site_label
 _atom_site_symmetry_multiplicity
 _atom_site_fract_x
 _atom_site_fract_y
 _atom_site_fract_z
 _atom_site_occupancy
  Ni  Ni0  1  0.01680000  0.86949000  0.03842000  1.0
  Ni  Ni1  1  0.98320000  0.63051000  0.53842000  1.0
  Ni  Ni2  1  0.98320000  0.13051000  0.96158000  1.0
  Ni  Ni3  1  0.01680000  0.36949000  0.46158000  1.0
  H  H4  1  0.98790000  0.33909000  0.02113000  1.0
  H  H5  1  0.01210000  0.16092000  0.52113000  1.0
  H  H6  1  0.01210000  0.66091000  0.97887000  1.0
  H  H7  1  0.98790000  0.83909000  0.47887000  1.0
  H  H8  1  0.84246000  0.92654000  0.15197000  1.0
  H  H9  1  0.15754000  0.57346000  0.65197000  1.0
  H  H10  1  0.15754000  0.07346000  0.84803000  1.0
  H  H11  1  0.84246000  0.42654000  0.34803000  1.0
  H  H12  1  0.79816000  0.78537000  0.93807000  1.0
  H  H13  1  0.20184000  0.71463000  0.43807000  1.0
  H  H14  1  0.20184000  0.21463000  0.06193000  1.0
  H  H15  1  0.79816000  0.28536000  0.56193000  1.0
  H  H16  1  0.62901000  0.93950000  0.15154000  1.0
  H  H17  1  0.37098000  0.56050000  0.65154000  1.0
  H  H18  1  0.37099000  0.06050000  0.84846000  1.0
  H  H19  1  0.62902000  0.43950000  0.34846000  1.0
  H  H20  1  0.58099000  0.78961000  0.92833000  1.0
  H  H21  1  0.41901000  0.71039000  0.42833000  1.0
  H  H22  1  0.41900000  0.21039000  0.07167000  1.0
  H  H23  1  0.58099000  0.28961000  0.57167000  1.0
  H  H24  1  0.45364000  0.94210000  0.15053000  1.0
  H  H25  1  0.54636000  0.55790000  0.65053000  1.0
  H  H26  1  0.54636000  0.05790000  0.84947000  1.0
  H  H27  1  0.45364000  0.44210000  0.34947000  1.0
  H  H28  1  0.40703000  0.80442000  0.92140000  1.0
  H  H29  1  0.59297000  0.69558000  0.42140000  1.0
  H  H30  1  0.59297000  0.19558000  0.07860000  1.0
  H  H31  1  0.40703000  0.30442000  0.57860000  1.0
  H  H32  1  0.23455000  0.94330000  0.14332000  1.0
  H  H33  1  0.76545000  0.55670000  0.64332000  1.0
  H  H34  1  0.76545000  0.05670000  0.85668000  1.0
  H  H35  1  0.23455000  0.44330000  0.35669000  1.0
  H  H36  1  0.18984000  0.81057000  0.92601000  1.0
  H  H37  1  0.81016000  0.68943000  0.42601000  1.0
  H  H38  1  0.81016000  0.18943000  0.07399000  1.0
  H  H39  1  0.18984000  0.31057000  0.57399000  1.0
  H  H40  1  0.00940000  0.55951000  0.06243000  1.0
  H  H41  1  0.99060000  0.94049000  0.56243000  1.0
  H  H42  1  0.99060000  0.44049000  0.93757000  1.0
  H  H43  1  0.00940000  0.05952000  0.43757000  1.0
  H  H44  1  0.00581000  0.70436000  0.28398000  1.0
  H  H45  1  0.99419000  0.79565000  0.78398000  1.0
  H  H46  1  0.99419000  0.29565000  0.71602000  1.0
  H  H47  1  0.00581000  0.20436000  0.21602000  1.0
  H  H48  1  0.04980000  0.42630000  0.28245000  1.0
  H  H49  1  0.95021000  0.07370000  0.78245000  1.0
  H  H50  1  0.95021000  0.57370000  0.71755000  1.0
  H  H51  1  0.04980000  0.92630000  0.21755000  1.0
  H  H52  1  0.43833000  0.55946000  0.85045000  1.0
  H  H53  1  0.56167000  0.94054000  0.35045000  1.0
  H  H54  1  0.56167000  0.44054000  0.14955000  1.0
  H  H55  1  0.43833000  0.05946000  0.64955000  1.0
  H  H56  1  0.66579000  0.58824000  0.83359000  1.0
  H  H57  1  0.33421000  0.91176000  0.33359000  1.0
  H  H58  1  0.33421000  0.41176000  0.16641000  1.0
  H  H59  1  0.66579000  0.08824000  0.66641000  1.0
  H  H60  1  0.24741000  0.61009000  0.83184000  1.0
  H  H61  1  0.75259000  0.88991000  0.33184000  1.0
  H  H62  1  0.75259000  0.38991000  0.16816000  1.0
  H  H63  1  0.24741000  0.11009000  0.66816000  1.0
  H  H64  1  0.14145000  0.72694000  0.78406000  1.0
  H  H65  1  0.85855000  0.77306000  0.28406000  1.0
  H  H66  1  0.85855000  0.27306000  0.21594000  1.0
  H  H67  1  0.14145000  0.22694000  0.71594000  1.0
  H  H68  1  0.48845000  0.90535000  0.71107000  1.0
  H  H69  1  0.51155000  0.59465000  0.21106000  1.0
  H  H70  1  0.51155000  0.09464000  0.28894000  1.0
  H  H71  1  0.48845000  0.40535000  0.78894000  1.0
  H  H72  1  0.68070000  0.85135000  0.72464000  1.0
  H  H73  1  0.31931000  0.64865000  0.22464000  1.0
  H  H74  1  0.31931000  0.14865000  0.27536000  1.0
  H  H75  1  0.68070000  0.35135000  0.77536000  1.0
  H  H76  1  0.26195000  0.87551000  0.72668000  1.0
  H  H77  1  0.73805000  0.62449000  0.22668000  1.0
  H  H78  1  0.73805000  0.12449000  0.27332000  1.0
  H  H79  1  0.26195000  0.37551000  0.77332000  1.0
  H  H80  1  0.78415000  0.73086000  0.76947000  1.0
  H  H81  1  0.21585000  0.76914000  0.26947000  1.0
  H  H82  1  0.21585000  0.26914000  0.23053000  1.0
  H  H83  1  0.78415000  0.23086000  0.73053000  1.0
  H  H84  1  0.50534000  0.33067000  0.93274000  1.0
  H  H85  1  0.49466000  0.16932000  0.43274000  1.0
  H  H86  1  0.49466000  0.66932000  0.06726000  1.0
  H  H87  1  0.50533000  0.83068000  0.56726000  1.0
  H  H88  1  0.30111000  0.36643000  0.93946000  1.0
  H  H89  1  0.69889000  0.13357000  0.43946000  1.0
  H  H90  1  0.69889000  0.63357000  0.06054000  1.0
  H  H91  1  0.30111000  0.86643000  0.56054000  1.0
  H  H92  1  0.17466000  0.47404000  0.97574000  1.0
  H  H93  1  0.82534000  0.02596000  0.47574000  1.0
  H  H94  1  0.82534000  0.52596000  0.02426000  1.0
  H  H95  1  0.17466000  0.97404000  0.52426000  1.0
  H  H96  1  0.72977000  0.37493000  0.96082000  1.0
  H  H97  1  0.27023000  0.12507000  0.46082000  1.0
  H  H98  1  0.27023000  0.62507000  0.03918000  1.0
  H  H99  1  0.72977000  0.87493000  0.53918000  1.0
  C  C100  1  0.78212000  0.89892000  0.10248000  1.0
  C  C101  1  0.21788000  0.60108000  0.60248000  1.0
  C  C102  1  0.21788000  0.10108000  0.89752000  1.0
  C  C103  1  0.78212000  0.39891000  0.39752000  1.0
  C  C104  1  0.75693000  0.81985000  0.98370000  1.0
  C  C105  1  0.24307000  0.68015000  0.48370000  1.0
  C  C106  1  0.24307000  0.18015000  0.01630000  1.0
  C  C107  1  0.75693000  0.31985000  0.51630000  1.0
  C  C108  1  0.66101000  0.90543000  0.10177000  1.0
  C  C109  1  0.33899000  0.59457000  0.60177000  1.0
  C  C110  1  0.33899000  0.09457000  0.89823000  1.0
  C  C111  1  0.66101000  0.40543000  0.39823000  1.0
  C  C112  1  0.63452000  0.82301000  0.97888000  1.0
  C  C113  1  0.36548000  0.67699000  0.47888000  1.0
  C  C114  1  0.36548000  0.17699000  0.02112000  1.0
  C  C115  1  0.63452000  0.32301000  0.52112000  1.0
  C  C116  1  0.58332000  0.86777000  0.03844000  1.0
  C  C117  1  0.41668000  0.63223000  0.53844000  1.0
  C  C118  1  0.41668000  0.13223000  0.96156000  1.0
  C  C119  1  0.58332000  0.36777000  0.46156000  1.0
  C  C120  1  0.45299000  0.87268000  0.03621000  1.0
  C  C121  1  0.54701000  0.62732000  0.53621000  1.0
  C  C122  1  0.54701000  0.12732000  0.96379000  1.0
  C  C123  1  0.45299000  0.37268000  0.46379000  1.0
  C  C124  1  0.40080000  0.91260000  0.09845000  1.0
  C  C125  1  0.59920000  0.58739000  0.59845000  1.0
  C  C126  1  0.59920000  0.08739000  0.90155000  1.0
  C  C127  1  0.40080000  0.41260000  0.40155000  1.0
  C  C128  1  0.37495000  0.83617000  0.97259000  1.0
  C  C129  1  0.62505000  0.66383000  0.47259000  1.0
  C  C130  1  0.62505000  0.16383000  0.02741000  1.0
  C  C131  1  0.37495000  0.33617000  0.52741000  1.0
  C  C132  1  0.27735000  0.91310000  0.09571000  1.0
  C  C133  1  0.72265000  0.58690000  0.59572000  1.0
  C  C134  1  0.72265000  0.08690000  0.90429000  1.0
  C  C135  1  0.27735000  0.41310000  0.40429000  1.0
  C  C136  1  0.25221000  0.83894000  0.97443000  1.0
  C  C137  1  0.74779000  0.66106000  0.47443000  1.0
  C  C138  1  0.74779000  0.16106000  0.02557000  1.0
  C  C139  1  0.25221000  0.33894000  0.52557000  1.0
  C  C140  1  0.02396000  0.56074000  0.38204000  1.0
  C  C141  1  0.97604000  0.93925000  0.88204000  1.0
  C  C142  1  0.97604000  0.43926000  0.61796000  1.0
  C  C143  1  0.02396000  0.06074000  0.11796000  1.0
  C  C144  1  0.00736000  0.64177000  0.16775000  1.0
  C  C145  1  0.99264000  0.85824000  0.66775000  1.0
  C  C146  1  0.99264000  0.35823000  0.83225000  1.0
  C  C147  1  0.00736000  0.14177000  0.33225000  1.0
  C  C148  1  0.01336000  0.56168000  0.12683000  1.0
  C  C149  1  0.98664000  0.93832000  0.62683000  1.0
  C  C150  1  0.98664000  0.43832000  0.87317000  1.0
  C  C151  1  0.01336000  0.06168000  0.37317000  1.0
  C  C152  1  0.01091000  0.64262000  0.25114000  1.0
  C  C153  1  0.98910000  0.85738000  0.75114000  1.0
  C  C154  1  0.98910000  0.35738000  0.74886000  1.0
  C  C155  1  0.01091000  0.14262000  0.24886000  1.0
  C  C156  1  0.02854000  0.48440000  0.16814000  1.0
  C  C157  1  0.97146000  0.01560000  0.66815000  1.0
  C  C158  1  0.97146000  0.51560000  0.83186000  1.0
  C  C159  1  0.02854000  0.98440000  0.33186000  1.0
  C  C160  1  0.02470000  0.56471000  0.29265000  1.0
  C  C161  1  0.97530000  0.93529000  0.79265000  1.0
  C  C162  1  0.97530000  0.43529000  0.70735000  1.0
  C  C163  1  0.02470000  0.06471000  0.20735000  1.0
  C  C164  1  0.03752000  0.48674000  0.25076000  1.0
  C  C165  1  0.96248000  0.01326000  0.75076000  1.0
  C  C166  1  0.96248000  0.51326000  0.74924000  1.0
  C  C167  1  0.03753000  0.98674000  0.24924000  1.0
  C  C168  1  0.03549000  0.39933000  0.12428000  1.0
  C  C169  1  0.96451000  0.10067000  0.62428000  1.0
  C  C170  1  0.96451000  0.60067000  0.87572000  1.0
  C  C171  1  0.03549000  0.89934000  0.37572000  1.0
  C  C172  1  0.00019000  0.72599000  0.12264000  1.0
  C  C173  1  0.99981000  0.77402000  0.62264000  1.0
  C  C174  1  0.99981000  0.27401000  0.87736000  1.0
  C  C175  1  0.00020000  0.22599000  0.37736000  1.0
  C  C176  1  0.49150000  0.62254000  0.82205000  1.0
  C  C177  1  0.50850000  0.87746000  0.32205000  1.0
  C  C178  1  0.50850000  0.37746000  0.17795000  1.0
  C  C179  1  0.49151000  0.12254000  0.67795000  1.0
  C  C180  1  0.42894000  0.68903000  0.79644000  1.0
  C  C181  1  0.57106000  0.81097000  0.29644000  1.0
  C  C182  1  0.57106000  0.31097000  0.20356000  1.0
  C  C183  1  0.42895000  0.18903000  0.70356000  1.0
  C  C184  1  0.61709000  0.63827000  0.81262000  1.0
  C  C185  1  0.38290000  0.86173000  0.31262000  1.0
  C  C186  1  0.38290000  0.36173000  0.18738000  1.0
  C  C187  1  0.61710000  0.13827000  0.68738000  1.0
  C  C188  1  0.29965000  0.67438000  0.80478000  1.0
  C  C189  1  0.70035000  0.82562000  0.30478000  1.0
  C  C190  1  0.70035000  0.32562000  0.19522000  1.0
  C  C191  1  0.29965000  0.17438000  0.69522000  1.0
  C  C192  1  0.24101000  0.73991000  0.77930000  1.0
  C  C193  1  0.75898000  0.76009000  0.27930000  1.0
  C  C194  1  0.75898000  0.26009000  0.22070000  1.0
  C  C195  1  0.24102000  0.23991000  0.72070000  1.0
  C  C196  1  0.49858000  0.77375000  0.76123000  1.0
  C  C197  1  0.50143000  0.72625000  0.26123000  1.0
  C  C198  1  0.50143000  0.22625000  0.23877000  1.0
  C  C199  1  0.49857000  0.27375000  0.73877000  1.0
  C  C200  1  0.43556000  0.84069000  0.73723000  1.0
  C  C201  1  0.56444000  0.65931000  0.23723000  1.0
  C  C202  1  0.56444000  0.15931000  0.26277000  1.0
  C  C203  1  0.43556000  0.34069000  0.76277000  1.0
  C  C204  1  0.62772000  0.78732000  0.75186000  1.0
  C  C205  1  0.37228000  0.71268000  0.25186000  1.0
  C  C206  1  0.37228000  0.21268000  0.24814000  1.0
  C  C207  1  0.62772000  0.28732000  0.74814000  1.0
  C  C208  1  0.30963000  0.82403000  0.74584000  1.0
  C  C209  1  0.69037000  0.67597000  0.24584000  1.0
  C  C210  1  0.69037000  0.17597000  0.25416000  1.0
  C  C211  1  0.30963000  0.32403000  0.75416000  1.0
  C  C212  1  0.68543000  0.72088000  0.77660000  1.0
  C  C213  1  0.31457000  0.77912000  0.27660000  1.0
  C  C214  1  0.31456000  0.27912000  0.22340000  1.0
  C  C215  1  0.68543000  0.22088000  0.72340000  1.0
  C  C216  1  0.47228000  0.45639000  0.98155000  1.0
  C  C217  1  0.52772000  0.04361000  0.48155000  1.0
  C  C218  1  0.52772000  0.54361000  0.01845000  1.0
  C  C219  1  0.47228000  0.95639000  0.51845000  1.0
  C  C220  1  0.54785000  0.39666000  0.96093000  1.0
  C  C221  1  0.45215000  0.10334000  0.46093000  1.0
  C  C222  1  0.45215000  0.60334000  0.03907000  1.0
  C  C223  1  0.54785000  0.89666000  0.53907000  1.0
  C  C224  1  0.34360000  0.43285000  0.96700000  1.0
  C  C225  1  0.65640000  0.06715000  0.46700000  1.0
  C  C226  1  0.65640000  0.56715000  0.03300000  1.0
  C  C227  1  0.34360000  0.93285000  0.53300000  1.0
  C  C228  1  0.27301000  0.49265000  0.98752000  1.0
  C  C229  1  0.72698000  0.00735000  0.48751000  1.0
  C  C230  1  0.72698000  0.50735000  0.01249000  1.0
  C  C231  1  0.27301000  0.99265000  0.51248000  1.0
  C  C232  1  0.67251000  0.42143000  0.97623000  1.0
  C  C233  1  0.32749000  0.07857000  0.47623000  1.0
  C  C234  1  0.32749000  0.57857000  0.02377000  1.0
  C  C235  1  0.67251000  0.92143000  0.52377000  1.0
  N  N236  1  0.83101000  0.85861000  0.04391000  1.0
  N  N237  1  0.16898000  0.64138000  0.54391000  1.0
  N  N238  1  0.16898000  0.14139000  0.95609000  1.0
  N  N239  1  0.83101000  0.35861000  0.45609000  1.0
  N  N240  1  0.20332000  0.87622000  0.03509000  1.0
  N  N241  1  0.79668000  0.62378000  0.53509000  1.0
  N  N242  1  0.79668000  0.12379000  0.96491000  1.0
  N  N243  1  0.20332000  0.37622000  0.46491000  1.0
  O  O244  1  0.01041000  0.80192000  0.15819000  1.0
  O  O245  1  0.98959000  0.69808000  0.65818000  1.0
  O  O246  1  0.98959000  0.19808000  0.84181000  1.0
  O  O247  1  0.01041000  0.30193000  0.34181000  1.0
  O  O248  1  0.98639000  0.72303000  0.04616000  1.0
  O  O249  1  0.01362000  0.77697000  0.54615000  1.0
  O  O250  1  0.01362000  0.27697000  0.95384000  1.0
  O  O251  1  0.98639000  0.22303000  0.45384000  1.0
  O  O252  1  0.98102000  0.62034000  0.41899000  1.0
  O  O253  1  0.01898000  0.87966000  0.91899000  1.0
  O  O254  1  0.01898000  0.37966000  0.58101000  1.0
  O  O255  1  0.98102000  0.12034000  0.08101000  1.0
  O  O256  1  0.06650000  0.49856000  0.41401000  1.0
  O  O257  1  0.93350000  0.00144000  0.91401000  1.0
  O  O258  1  0.93350000  0.50144000  0.58599000  1.0
  O  O259  1  0.06650000  0.99856000  0.08599000  1.0
  O  O260  1  0.09438000  0.34532000  0.14729000  1.0
  O  O261  1  0.90561000  0.15468000  0.64729000  1.0
  O  O262  1  0.90561000  0.65468000  0.85271000  1.0
  O  O263  1  0.09439000  0.84532000  0.35271000  1.0
  O  O264  1  0.96905000  0.38898000  0.05727000  1.0
  O  O265  1  0.03095000  0.11102000  0.55727000  1.0
  O  O266  1  0.03095000  0.61102000  0.94273000  1.0
  O  O267  1  0.96905000  0.88898000  0.44273000  1.0
