# generated using pymatgen
data_NdH10C11NO7
_symmetry_space_group_name_H-M   'P 1'
_cell_length_a   7.75198000
_cell_length_b   8.12300000
_cell_length_c   10.16210000
_cell_angle_alpha   82.16960000
_cell_angle_beta   83.69350000
_cell_angle_gamma   70.44200000
_symmetry_Int_Tables_number   1
_chemical_formula_structural   NdH10C11NO7
_chemical_formula_sum   'Nd2 H20 C22 N2 O14'
_cell_volume   595.94198003
_cell_formula_units_Z   2
loop_
 _symmetry_equiv_pos_site_id
 _symmetry_equiv_pos_as_xyz
  1  'x, y, z'
loop_
 _atom_site_type_symbol
 _atom_site_label
 _atom_site_symmetry_multiplicity
 _atom_site_fract_x
 _atom_site_fract_y
 _atom_site_fract_z
 _atom_site_occupancy
  Nd  Nd0  1  0.23214000  0.09013000  0.53440000  1.0
  Nd  Nd1  1  0.76785000  0.90987000  0.46560000  1.0
  H  H2  1  0.86588000  0.08127000  0.84187000  1.0
  H  H3  1  0.13412000  0.91873000  0.15813000  1.0
  H  H4  1  0.91305000  0.18185000  0.04588000  1.0
  H  H5  1  0.08694000  0.81815000  0.95413000  1.0
  H  H6  1  0.32602000  0.34090000  0.14742000  1.0
  H  H7  1  0.67398000  0.65910000  0.85258000  1.0
  H  H8  1  0.28474000  0.23896000  0.94039000  1.0
  H  H9  1  0.71526000  0.76104000  0.05961000  1.0
  H  H10  1  0.37380000  0.53526000  0.24207000  1.0
  H  H11  1  0.62620000  0.46474000  0.75793000  1.0
  H  H12  1  0.52989000  0.54291000  0.35241000  1.0
  H  H13  1  0.47011000  0.45709000  0.64759000  1.0
  H  H14  1  0.79046000  0.51473000  0.27086000  1.0
  H  H15  1  0.20954000  0.48527000  0.72915000  1.0
  H  H16  1  0.88768000  0.41061000  0.12751000  1.0
  H  H17  1  0.11233000  0.58939000  0.87249000  1.0
  H  H18  1  0.86250000  0.39306000  0.58306000  1.0
  H  H19  1  0.13750000  0.60694000  0.41694000  1.0
  H  H20  1  0.83980000  0.20790000  0.64002000  1.0
  H  H21  1  0.16020000  0.79210000  0.35998000  1.0
  C  C22  1  0.57021000  0.16294000  0.87172000  1.0
  C  C23  1  0.42979000  0.83707000  0.12828000  1.0
  C  C24  1  0.74702000  0.14251000  0.90714000  1.0
  C  C25  1  0.25298000  0.85749000  0.09286000  1.0
  C  C26  1  0.77343000  0.20139000  0.02253000  1.0
  C  C27  1  0.22657000  0.79861000  0.97747000  1.0
  C  C28  1  0.62157000  0.28666000  0.10777000  1.0
  C  C29  1  0.37843000  0.71334000  0.89223000  1.0
  C  C30  1  0.44523000  0.29022000  0.07933000  1.0
  C  C31  1  0.55477000  0.70978000  0.92067000  1.0
  C  C32  1  0.42162000  0.23099000  0.96327000  1.0
  C  C33  1  0.57838000  0.76901000  0.03673000  1.0
  C  C34  1  0.54009000  0.12624000  0.73945000  1.0
  C  C35  1  0.45991000  0.87376000  0.26055000  1.0
  C  C36  1  0.49106000  0.45306000  0.29935000  1.0
  C  C37  1  0.50894000  0.54694000  0.70065000  1.0
  C  C38  1  0.41957000  0.33537000  0.40410000  1.0
  C  C39  1  0.58043000  0.66463000  0.59590000  1.0
  C  C40  1  0.81742000  0.39204000  0.22575000  1.0
  C  C41  1  0.18258000  0.60796000  0.77425000  1.0
  C  C42  1  0.95219000  0.25012000  0.31277000  1.0
  C  C43  1  0.04781000  0.74988000  0.68723000  1.0
  N  N44  1  0.64505000  0.36644000  0.21238000  1.0
  N  N45  1  0.35495000  0.63356000  0.78762000  1.0
  O  O46  1  0.67758000  0.09463000  0.65118000  1.0
  O  O47  1  0.32242000  0.90537000  0.34882000  1.0
  O  O48  1  0.37863000  0.13621000  0.71453000  1.0
  O  O49  1  0.62137000  0.86379000  0.28547000  1.0
  O  O50  1  0.28133000  0.40630000  0.48085000  1.0
  O  O51  1  0.71867000  0.59370000  0.51915000  1.0
  O  O52  1  0.49401000  0.16838000  0.41062000  1.0
  O  O53  1  0.50599000  0.83162000  0.58938000  1.0
  O  O54  1  0.91290000  0.11493000  0.36822000  1.0
  O  O55  1  0.08711000  0.88507000  0.63178000  1.0
  O  O56  1  0.09778000  0.27848000  0.33075000  1.0
  O  O57  1  0.90222000  0.72152000  0.66925000  1.0
  O  O58  1  0.93121000  0.27177000  0.62210000  1.0
  O  O59  1  0.06879000  0.72822000  0.37790000  1.0
