# generated using pymatgen
data_ZnH11C20N3O10
_symmetry_space_group_name_H-M   'P 1'
_cell_length_a   11.06130000
_cell_length_b   15.98660000
_cell_length_c   17.18360000
_cell_angle_alpha   83.23190000
_cell_angle_beta   89.84730000
_cell_angle_gamma   86.92790000
_symmetry_Int_Tables_number   1
_chemical_formula_structural   ZnH11C20N3O10
_chemical_formula_sum   'Zn2 H22 C40 N6 O20'
_cell_volume   3013.08815768
_cell_formula_units_Z   2
loop_
 _symmetry_equiv_pos_site_id
 _symmetry_equiv_pos_as_xyz
  1  'x, y, z'
loop_
 _atom_site_type_symbol
 _atom_site_label
 _atom_site_symmetry_multiplicity
 _atom_site_fract_x
 _atom_site_fract_y
 _atom_site_fract_z
 _atom_site_occupancy
  Zn  Zn0  1  0.50772000  0.40450000  0.50111000  1.0
  Zn  Zn1  1  0.50199000  0.59019000  0.49312000  1.0
  H  H2  1  0.60614000  0.71373000  0.57808000  1.0
  H  H3  1  0.60201000  0.87119000  0.57843000  1.0
  H  H4  1  0.31132000  0.88994000  0.40835000  1.0
  H  H5  1  0.68787000  0.10106000  0.57655000  1.0
  H  H6  1  0.35170000  0.12685000  0.44493000  1.0
  H  H7  1  0.36069000  0.28290000  0.44243000  1.0
  H  H8  1  0.51092000  0.61871000  0.73335000  1.0
  H  H9  1  0.51506000  0.61634000  0.87925000  1.0
  H  H10  1  0.47581000  0.34746000  0.90401000  1.0
  H  H11  1  0.49716000  0.66378000  0.09370000  1.0
  H  H12  1  0.52182000  0.39197000  0.11288000  1.0
  H  H13  1  0.52914000  0.38652000  0.25961000  1.0
  H  H14  1  0.23320000  0.59280000  0.59331000  1.0
  H  H15  1  0.78539000  0.58662000  0.61754000  1.0
  H  H16  1  0.30090000  0.66557000  0.43006000  1.0
  H  H17  1  0.71186000  0.32263000  0.55489000  1.0
  H  H18  1  0.47820000  0.34660000  0.69710000  1.0
  H  H19  1  0.50901000  0.65901000  0.30086000  1.0
  H  H20  1  0.84586000  0.48536000  0.33084000  1.0
  H  H21  1  0.17704000  0.50158000  0.33451000  1.0
  H  H22  1  0.28117000  0.62179000  0.70904000  1.0
  H  H23  1  0.82673000  0.76480000  0.63120000  1.0
  C  C24  1  0.48869000  0.48859000  0.65016000  1.0
  C  C25  1  0.74231000  0.49556000  0.50911000  1.0
  C  C26  1  0.51809000  0.51520000  0.34520000  1.0
  C  C27  1  0.26681000  0.49460000  0.48771000  1.0
  C  C28  1  0.54350000  0.75576000  0.54099000  1.0
  C  C29  1  0.54182000  0.84188000  0.54102000  1.0
  C  C30  1  0.45837000  0.89153000  0.49069000  1.0
  C  C31  1  0.37812000  0.85287000  0.44614000  1.0
  C  C32  1  0.38351000  0.76425000  0.45153000  1.0
  C  C33  1  0.61406000  0.13947000  0.54657000  1.0
  C  C34  1  0.52032000  0.10284000  0.51169000  1.0
  C  C35  1  0.42621000  0.15408000  0.47247000  1.0
  C  C36  1  0.43166000  0.24010000  0.47083000  1.0
  C  C37  1  0.61406000  0.22802000  0.54119000  1.0
  C  C38  1  0.49026000  0.48510000  0.73612000  1.0
  C  C39  1  0.50207000  0.55986000  0.77155000  1.0
  C  C40  1  0.50447000  0.55914000  0.85191000  1.0
  C  C41  1  0.49436000  0.48136000  0.89944000  1.0
  C  C42  1  0.48289000  0.40664000  0.86617000  1.0
  C  C43  1  0.48178000  0.40713000  0.78454000  1.0
  C  C44  1  0.50396000  0.60323000  0.13030000  1.0
  C  C45  1  0.50792000  0.52852000  0.09557000  1.0
  C  C46  1  0.51772000  0.44911000  0.14168000  1.0
  C  C47  1  0.52164000  0.44652000  0.22215000  1.0
  C  C48  1  0.51654000  0.52110000  0.25903000  1.0
  C  C49  1  0.50822000  0.60067000  0.21209000  1.0
  C  C50  1  0.13147000  0.49582000  0.49390000  1.0
  C  C51  1  0.07161000  0.54258000  0.54976000  1.0
  C  C52  1  0.06740000  0.44664000  0.44860000  1.0
  C  C53  1  0.13526000  0.59040000  0.59940000  1.0
  C  C54  1  0.07494000  0.63738000  0.65136000  1.0
  C  C55  1  0.87824000  0.49216000  0.50750000  1.0
  C  C56  1  0.93964000  0.44357000  0.45635000  1.0
  C  C57  1  0.94269000  0.54131000  0.55601000  1.0
  C  C58  1  0.88320000  0.58843000  0.61135000  1.0
  C  C59  1  0.94645000  0.63637000  0.65719000  1.0
  C  C60  1  0.87235000  0.38750000  0.40802000  1.0
  C  C61  1  0.13429000  0.39547000  0.39195000  1.0
  C  C62  1  0.13846000  0.69879000  0.69416000  1.0
  C  C63  1  0.87612000  0.68162000  0.71642000  1.0
  N  N64  1  0.46810000  0.71703000  0.49589000  1.0
  N  N65  1  0.44771000  0.98117000  0.48258000  1.0
  N  N66  1  0.52933000  0.01339000  0.51874000  1.0
  N  N67  1  0.52317000  0.27707000  0.50457000  1.0
  N  N68  1  0.49692000  0.47131000  0.98238000  1.0
  N  N69  1  0.50274000  0.53949000  0.01262000  1.0
  O  O70  1  0.49248000  0.41843000  0.61982000  1.0
  O  O71  1  0.48244000  0.56111000  0.60948000  1.0
  O  O72  1  0.68841000  0.56794000  0.50199000  1.0
  O  O73  1  0.69144000  0.42534000  0.51574000  1.0
  O  O74  1  0.51969000  0.58551000  0.37617000  1.0
  O  O75  1  0.51714000  0.44321000  0.38520000  1.0
  O  O76  1  0.32141000  0.42295000  0.49811000  1.0
  O  O77  1  0.31636000  0.56528000  0.47376000  1.0
  O  O78  1  0.30204000  0.72728000  0.41178000  1.0
  O  O79  1  0.70557000  0.26164000  0.57414000  1.0
  O  O80  1  0.47249000  0.33314000  0.75533000  1.0
  O  O81  1  0.50367000  0.67472000  0.24276000  1.0
  O  O82  1  0.82807000  0.42572000  0.33781000  1.0
  O  O83  1  0.85908000  0.31357000  0.42818000  1.0
  O  O84  1  0.19135000  0.44113000  0.33178000  1.0
  O  O85  1  0.13852000  0.31913000  0.39743000  1.0
  O  O86  1  0.25518000  0.67982000  0.71636000  1.0
  O  O87  1  0.08840000  0.76589000  0.70591000  1.0
  O  O88  1  0.80183000  0.74835000  0.68521000  1.0
  O  O89  1  0.87557000  0.65724000  0.78581000  1.0
