# generated using pymatgen
data_CuH18C24(NO4)2
_symmetry_space_group_name_H-M   'P 1'
_cell_length_a   6.65847000
_cell_length_b   8.14734000
_cell_length_c   10.99290000
_cell_angle_alpha   83.79840000
_cell_angle_beta   75.83730000
_cell_angle_gamma   76.99610000
_symmetry_Int_Tables_number   1
_chemical_formula_structural   CuH18C24(NO4)2
_chemical_formula_sum   'Cu1 H18 C24 N2 O8'
_cell_volume   562.51060623
_cell_formula_units_Z   1
loop_
 _symmetry_equiv_pos_site_id
 _symmetry_equiv_pos_as_xyz
  1  'x, y, z'
loop_
 _atom_site_type_symbol
 _atom_site_label
 _atom_site_symmetry_multiplicity
 _atom_site_fract_x
 _atom_site_fract_y
 _atom_site_fract_z
 _atom_site_occupancy
  Cu  Cu0  1  0.50000000  0.50000000  0.50000000  1.0
  H  H1  1  0.96830000  0.72476000  0.81462000  1.0
  H  H2  1  0.03170000  0.27524000  0.18538000  1.0
  H  H3  1  0.11320000  0.47168000  0.61161000  1.0
  H  H4  1  0.88680000  0.52832000  0.38839000  1.0
  H  H5  1  0.61934000  0.72042000  0.65109000  1.0
  H  H6  1  0.38067000  0.27957000  0.34891000  1.0
  H  H7  1  0.60260000  0.73892000  0.87645000  1.0
  H  H8  1  0.39740000  0.26108000  0.12355000  1.0
  H  H9  1  0.41475000  0.25388000  0.94137000  1.0
  H  H10  1  0.58526000  0.74611000  0.05863000  1.0
  H  H11  1  0.45207000  0.25431000  0.71243000  1.0
  H  H12  1  0.54793000  0.74569000  0.28757000  1.0
  H  H13  1  0.86962000  0.12558000  0.94455000  1.0
  H  H14  1  0.13038000  0.87442000  0.05546000  1.0
  H  H15  1  0.97087000  0.37195000  0.80886000  1.0
  H  H16  1  0.02913000  0.62806000  0.19114000  1.0
  H  H17  1  0.25379000  0.05211000  0.49847000  1.0
  H  H18  1  0.74621000  0.94790000  0.50153000  1.0
  C  C19  1  0.57504000  0.62078000  0.71979000  1.0
  C  C20  1  0.42495000  0.37922000  0.28021000  1.0
  C  C21  1  0.56308000  0.62943000  0.84665000  1.0
  C  C22  1  0.43692000  0.37057000  0.15335000  1.0
  C  C23  1  0.50566000  0.49761000  0.93213000  1.0
  C  C24  1  0.49434000  0.50239000  0.06787000  1.0
  C  C25  1  0.46298000  0.36073000  0.88233000  1.0
  C  C26  1  0.53702000  0.63927000  0.11767000  1.0
  C  C27  1  0.48082000  0.35976000  0.75398000  1.0
  C  C28  1  0.51918000  0.64024000  0.24602000  1.0
  C  C29  1  0.16880000  0.76043000  0.62081000  1.0
  C  C30  1  0.83120000  0.23957000  0.37919000  1.0
  C  C31  1  0.10601000  0.93110000  0.67037000  1.0
  C  C32  1  0.89400000  0.06891000  0.32963000  1.0
  C  C33  1  0.99097000  0.95236000  0.79663000  1.0
  C  C34  1  0.00904000  0.04764000  0.20337000  1.0
  C  C35  1  0.94864000  0.11120000  0.84590000  1.0
  C  C36  1  0.05136000  0.88880000  0.15410000  1.0
  C  C37  1  0.00734000  0.24831000  0.77007000  1.0
  C  C38  1  0.99266000  0.75169000  0.22993000  1.0
  C  C39  1  0.11177000  0.23012000  0.64293000  1.0
  C  C40  1  0.88823000  0.76988000  0.35707000  1.0
  C  C41  1  0.16609000  0.07045000  0.59527000  1.0
  C  C42  1  0.83391000  0.92956000  0.40473000  1.0
  N  N43  1  0.53285000  0.48868000  0.67429000  1.0
  N  N44  1  0.46715000  0.51132000  0.32571000  1.0
  O  O45  1  0.31868000  0.73344000  0.52224000  1.0
  O  O46  1  0.68132000  0.26656000  0.47776000  1.0
  O  O47  1  0.07544000  0.64494000  0.68272000  1.0
  O  O48  1  0.92456000  0.35506000  0.31728000  1.0
  O  O49  1  0.92518000  0.82178000  0.87243000  1.0
  O  O50  1  0.07482000  0.17822000  0.12757000  1.0
  O  O51  1  0.16352000  0.36418000  0.56519000  1.0
  O  O52  1  0.83647000  0.63583000  0.43481000  1.0
