# generated using pymatgen
data_CuSiH24C28(N2F3)2
_symmetry_space_group_name_H-M   'P 1'
_cell_length_a   8.01609000
_cell_length_b   13.72360000
_cell_length_c   13.72330000
_cell_angle_alpha   90.01350000
_cell_angle_beta   89.86130000
_cell_angle_gamma   89.86180000
_symmetry_Int_Tables_number   1
_chemical_formula_structural   CuSiH24C28(N2F3)2
_chemical_formula_sum   'Cu1 Si1 H24 C28 N4 F6'
_cell_volume   1509.68605912
_cell_formula_units_Z   1
loop_
 _symmetry_equiv_pos_site_id
 _symmetry_equiv_pos_as_xyz
  1  'x, y, z'
loop_
 _atom_site_type_symbol
 _atom_site_label
 _atom_site_symmetry_multiplicity
 _atom_site_fract_x
 _atom_site_fract_y
 _atom_site_fract_z
 _atom_site_occupancy
  Cu  Cu0  1  0.50001000  0.50001000  0.49999000  1.0
  Si  Si1  1  0.00002000  0.50000000  0.50000000  1.0
  H  H2  1  0.24147000  0.65806000  0.49994000  1.0
  H  H3  1  0.23750000  0.83979000  0.50002000  1.0
  H  H4  1  0.76011000  0.65321000  0.49995000  1.0
  H  H5  1  0.23990000  0.34679000  0.49989000  1.0
  H  H6  1  0.75854000  0.34194000  0.50015000  1.0
  H  H7  1  0.76251000  0.16020000  0.50013000  1.0
  H  H8  1  0.24148000  0.49994000  0.65807000  1.0
  H  H9  1  0.23751000  0.49994000  0.83980000  1.0
  H  H10  1  0.76011000  0.50012000  0.65321000  1.0
  H  H11  1  0.23992000  0.50004000  0.34679000  1.0
  H  H12  1  0.75856000  0.49996000  0.34194000  1.0
  H  H13  1  0.76253000  0.49991000  0.16021000  1.0
  H  H14  1  0.89977000  0.82232000  0.56427000  1.0
  H  H15  1  0.81948000  0.92533000  0.49980000  1.0
  H  H16  1  0.90028000  0.82196000  0.43586000  1.0
  H  H17  1  0.10004000  0.17762000  0.56440000  1.0
  H  H18  1  0.18053000  0.07467000  0.49968000  1.0
  H  H19  1  0.09993000  0.17809000  0.43597000  1.0
  H  H20  1  0.89996000  0.43559000  0.82236000  1.0
  H  H21  1  0.81949000  0.50029000  0.92533000  1.0
  H  H22  1  0.90011000  0.56401000  0.82192000  1.0
  H  H23  1  0.10025000  0.43574000  0.17766000  1.0
  H  H24  1  0.18056000  0.50023000  0.07467000  1.0
  H  H25  1  0.09977000  0.56416000  0.17805000  1.0
  C  C26  1  0.35677000  0.69985000  0.49998000  1.0
  C  C27  1  0.35589000  0.80070000  0.50000000  1.0
  C  C28  1  0.50769000  0.85256000  0.50004000  1.0
  C  C29  1  0.65883000  0.79904000  0.50003000  1.0
  C  C30  1  0.64708000  0.69741000  0.49996000  1.0
  C  C31  1  0.50468000  0.95561000  0.50008000  1.0
  C  C32  1  0.49533000  0.04439000  0.50007000  1.0
  C  C33  1  0.49231000  0.14744000  0.50005000  1.0
  C  C34  1  0.34116000  0.20096000  0.49996000  1.0
  C  C35  1  0.35293000  0.30258000  0.49997000  1.0
  C  C36  1  0.64325000  0.30014000  0.50007000  1.0
  C  C37  1  0.64411000  0.19930000  0.50010000  1.0
  C  C38  1  0.35677000  0.49999000  0.69986000  1.0
  C  C39  1  0.35591000  0.49996000  0.80070000  1.0
  C  C40  1  0.50771000  0.49998000  0.85256000  1.0
  C  C41  1  0.65886000  0.50005000  0.79903000  1.0
  C  C42  1  0.64709000  0.50006000  0.69741000  1.0
  C  C43  1  0.50468000  0.49994000  0.95561000  1.0
  C  C44  1  0.49537000  0.49993000  0.04439000  1.0
  C  C45  1  0.49234000  0.49994000  0.14744000  1.0
  C  C46  1  0.34118000  0.49996000  0.20097000  1.0
  C  C47  1  0.35294000  0.50002000  0.30259000  1.0
  C  C48  1  0.64326000  0.49996000  0.30015000  1.0
  C  C49  1  0.64414000  0.49994000  0.19931000  1.0
  C  C50  1  0.82823000  0.84559000  0.50000000  1.0
  C  C51  1  0.17179000  0.15441000  0.49997000  1.0
  C  C52  1  0.82824000  0.50001000  0.84558000  1.0
  C  C53  1  0.17179000  0.50001000  0.15441000  1.0
  N  N54  1  0.50135000  0.64906000  0.49997000  1.0
  N  N55  1  0.49867000  0.35094000  0.50001000  1.0
  N  N56  1  0.50135000  0.50003000  0.64906000  1.0
  N  N57  1  0.49869000  0.49998000  0.35094000  1.0
  F  F58  1  0.21560000  0.50204000  0.50204000  1.0
  F  F59  1  0.78443000  0.49796000  0.49797000  1.0
  F  F60  1  0.00002000  0.58828000  0.41172000  1.0
  F  F61  1  0.00001000  0.41172000  0.58828000  1.0
  F  F62  1  0.99493000  0.58829000  0.58829000  1.0
  F  F63  1  0.00509000  0.41171000  0.41171000  1.0
