# generated using pymatgen
data_Cd3H42C46(N4O9)2
_symmetry_space_group_name_H-M   'P 1'
_cell_length_a   10.35210000
_cell_length_b   10.55170000
_cell_length_c   12.97580000
_cell_angle_alpha   70.10780000
_cell_angle_beta   70.79890000
_cell_angle_gamma   84.58050000
_symmetry_Int_Tables_number   1
_chemical_formula_structural   Cd3H42C46(N4O9)2
_chemical_formula_sum   'Cd3 H42 C46 N8 O18'
_cell_volume   1258.42016351
_cell_formula_units_Z   1
loop_
 _symmetry_equiv_pos_site_id
 _symmetry_equiv_pos_as_xyz
  1  'x, y, z'
loop_
 _atom_site_type_symbol
 _atom_site_label
 _atom_site_symmetry_multiplicity
 _atom_site_fract_x
 _atom_site_fract_y
 _atom_site_fract_z
 _atom_site_occupancy
  Cd  Cd0  1  0.50000000  0.50000000  0.50000000  1.0
  Cd  Cd1  1  0.14857000  0.32750000  0.26318000  1.0
  Cd  Cd2  1  0.85142000  0.67250000  0.73682000  1.0
  H  H3  1  0.14768000  0.23683000  0.51166000  1.0
  H  H4  1  0.85232000  0.76317000  0.48834000  1.0
  H  H5  1  0.06996000  0.14485000  0.47260000  1.0
  H  H6  1  0.93004000  0.85515000  0.52740000  1.0
  H  H7  1  0.75501000  0.56252000  0.44527000  1.0
  H  H8  1  0.24499000  0.43748000  0.55473000  1.0
  H  H9  1  0.77930000  0.43206000  0.40050000  1.0
  H  H10  1  0.22070000  0.56794000  0.59950000  1.0
  H  H11  1  0.46774000  0.45453000  0.29559000  1.0
  H  H12  1  0.53226000  0.54547000  0.70441000  1.0
  H  H13  1  0.50208000  0.60952000  0.26506000  1.0
  H  H14  1  0.49792000  0.39049000  0.73495000  1.0
  H  H15  1  0.07356000  0.74599000  0.40340000  1.0
  H  H16  1  0.92644000  0.25401000  0.59660000  1.0
  H  H17  1  0.15995000  0.52794000  0.81960000  1.0
  H  H18  1  0.84005000  0.47206000  0.18040000  1.0
  H  H19  1  0.32978000  0.91226000  0.25711000  1.0
  H  H20  1  0.67022000  0.08775000  0.74288000  1.0
  H  H21  1  0.53478000  0.91532000  0.08786000  1.0
  H  H22  1  0.46522000  0.08468000  0.91214000  1.0
  H  H23  1  0.55855000  0.75053000  0.98637000  1.0
  H  H24  1  0.44145000  0.24947000  0.01362000  1.0
  H  H25  1  0.38457000  0.56614000  0.05623000  1.0
  H  H26  1  0.61543000  0.43386000  0.94377000  1.0
  H  H27  1  0.97586000  0.53903000  0.40421000  1.0
  H  H28  1  0.02414000  0.46097000  0.59579000  1.0
  H  H29  1  0.15789000  0.28095000  0.76166000  1.0
  H  H30  1  0.84212000  0.71905000  0.23833000  1.0
  H  H31  1  0.16071000  0.03213000  0.85178000  1.0
  H  H32  1  0.83929000  0.96787000  0.14822000  1.0
  H  H33  1  0.16836000  0.92810000  0.05131000  1.0
  H  H34  1  0.83163000  0.07190000  0.94869000  1.0
  H  H35  1  0.17030000  0.07054000  0.17083000  1.0
  H  H36  1  0.82969000  0.92946000  0.82917000  1.0
  H  H37  1  0.16824000  0.57328000  0.99789000  1.0
  H  H38  1  0.83175000  0.42672000  0.00211000  1.0
  H  H39  1  0.84713000  0.96047000  0.37406000  1.0
  H  H40  1  0.15287000  0.03953000  0.62594000  1.0
  H  H41  1  0.43466000  0.94645000  0.37072000  1.0
  H  H42  1  0.56534000  0.05355000  0.62928000  1.0
  H  H43  1  0.63235000  0.32777000  0.28269000  1.0
  H  H44  1  0.36765000  0.67223000  0.71731000  1.0
  C  C45  1  0.25774000  0.63732000  0.19532000  1.0
  C  C46  1  0.74225000  0.36268000  0.80468000  1.0
  C  C47  1  0.24253000  0.73592000  0.25043000  1.0
  C  C48  1  0.75747000  0.26408000  0.74957000  1.0
  C  C49  1  0.34091000  0.83745000  0.21405000  1.0
  C  C50  1  0.65909000  0.16255000  0.78595000  1.0
  C  C51  1  0.45454000  0.83896000  0.11883000  1.0
  C  C52  1  0.54546000  0.16104000  0.88117000  1.0
  C  C53  1  0.46850000  0.74412000  0.06111000  1.0
  C  C54  1  0.53150000  0.25588000  0.93889000  1.0
  C  C55  1  0.37127000  0.64185000  0.09854000  1.0
  C  C56  1  0.62874000  0.35815000  0.90145000  1.0
  C  C57  1  0.06974000  0.58895000  0.34034000  1.0
  C  C58  1  0.93025000  0.41106000  0.65966000  1.0
  C  C59  1  0.16625000  0.25557000  0.03206000  1.0
  C  C60  1  0.83375000  0.74443000  0.96794000  1.0
  C  C61  1  0.16290000  0.31450000  0.91717000  1.0
  C  C62  1  0.83710000  0.68550000  0.08283000  1.0
  C  C63  1  0.16038000  0.23626000  0.84990000  1.0
  C  C64  1  0.83963000  0.76374000  0.15010000  1.0
  C  C65  1  0.16251000  0.09701000  0.90109000  1.0
  C  C66  1  0.83749000  0.90299000  0.09891000  1.0
  C  C67  1  0.16654000  0.03761000  0.01520000  1.0
  C  C68  1  0.83346000  0.96239000  0.98480000  1.0
  C  C69  1  0.16786000  0.11538000  0.08255000  1.0
  C  C70  1  0.83213000  0.88461000  0.91745000  1.0
  C  C71  1  0.16797000  0.47332000  0.99143000  1.0
  C  C72  1  0.83202000  0.52668000  0.00857000  1.0
  C  C73  1  0.75082000  0.15107000  0.32994000  1.0
  C  C74  1  0.24919000  0.84893000  0.67006000  1.0
  C  C75  1  0.75366000  0.01041000  0.36269000  1.0
  C  C76  1  0.24634000  0.98958000  0.63731000  1.0
  C  C77  1  0.63978000  0.93631000  0.37884000  1.0
  C  C78  1  0.36022000  0.06369000  0.62116000  1.0
  C  C79  1  0.52370000  0.00422000  0.35759000  1.0
  C  C80  1  0.47630000  0.99578000  0.64241000  1.0
  C  C81  1  0.52117000  0.14505000  0.32042000  1.0
  C  C82  1  0.47883000  0.85495000  0.67958000  1.0
  C  C83  1  0.63438000  0.21829000  0.30858000  1.0
  C  C84  1  0.36562000  0.78171000  0.69142000  1.0
  C  C85  1  0.87404000  0.22572000  0.31753000  1.0
  C  C86  1  0.12596000  0.77428000  0.68247000  1.0
  C  C87  1  0.64099000  0.78549000  0.41686000  1.0
  C  C88  1  0.35901000  0.21451000  0.58314000  1.0
  C  C89  1  0.39662000  0.21514000  0.29526000  1.0
  C  C90  1  0.60338000  0.78486000  0.70474000  1.0
  N  N91  1  0.14775000  0.54616000  0.25486000  1.0
  N  N92  1  0.85225000  0.45385000  0.74514000  1.0
  N  N93  1  0.12095000  0.70199000  0.34066000  1.0
  N  N94  1  0.87905000  0.29801000  0.65934000  1.0
  N  N95  1  0.16971000  0.35840000  0.07579000  1.0
  N  N96  1  0.83028000  0.64160000  0.92421000  1.0
  N  N97  1  0.16418000  0.45246000  0.89516000  1.0
  N  N98  1  0.83583000  0.54754000  0.10484000  1.0
  O  O99  1  0.87061000  0.35414000  0.29525000  1.0
  O  O100  1  0.12939000  0.64586000  0.70475000  1.0
  O  O101  1  0.97988000  0.15789000  0.32849000  1.0
  O  O102  1  0.02012000  0.84211000  0.67151000  1.0
  O  O103  1  0.74974000  0.72539000  0.43359000  1.0
  O  O104  1  0.25026000  0.27461000  0.56641000  1.0
  O  O105  1  0.53357000  0.72618000  0.42882000  1.0
  O  O106  1  0.46643000  0.27382000  0.57118000  1.0
  O  O107  1  0.30181000  0.14499000  0.29670000  1.0
  O  O108  1  0.69819000  0.85502000  0.70330000  1.0
  O  O109  1  0.38754000  0.34288000  0.27326000  1.0
  O  O110  1  0.61246000  0.65712000  0.72674000  1.0
  O  O111  1  0.07098000  0.23365000  0.47999000  1.0
  O  O112  1  0.92902000  0.76635000  0.52001000  1.0
  O  O113  1  0.73541000  0.46386000  0.46730000  1.0
  O  O114  1  0.26459000  0.53615000  0.53270000  1.0
  O  O115  1  0.52221000  0.51867000  0.30838000  1.0
  O  O116  1  0.47779000  0.48133000  0.69163000  1.0
