# generated using pymatgen
data_ZnH20C26(NO3)2
_symmetry_space_group_name_H-M   'P 1'
_cell_length_a   9.39294000
_cell_length_b   11.70800000
_cell_length_c   12.89700000
_cell_angle_alpha   115.85700000
_cell_angle_beta   90.00000000
_cell_angle_gamma   113.64900000
_symmetry_Int_Tables_number   1
_chemical_formula_structural   ZnH20C26(NO3)2
_chemical_formula_sum   'Zn2 H40 C52 N4 O12'
_cell_volume   1142.50276750
_cell_formula_units_Z   2
loop_
 _symmetry_equiv_pos_site_id
 _symmetry_equiv_pos_as_xyz
  1  'x, y, z'
loop_
 _atom_site_type_symbol
 _atom_site_label
 _atom_site_symmetry_multiplicity
 _atom_site_fract_x
 _atom_site_fract_y
 _atom_site_fract_z
 _atom_site_occupancy
  Zn  Zn0  1  0.46610000  0.00003000  0.25018000  1.0
  Zn  Zn1  1  0.53390000  0.99997000  0.74982000  1.0
  H  H2  1  0.76589000  0.37025000  0.56035000  1.0
  H  H3  1  0.39556000  0.62972000  0.93962000  1.0
  H  H4  1  0.23411000  0.62975000  0.43964000  1.0
  H  H5  1  0.60444000  0.37028000  0.06038000  1.0
  H  H6  1  0.23421000  0.47279000  0.23537000  1.0
  H  H7  1  0.76164000  0.52768000  0.26488000  1.0
  H  H8  1  0.76579000  0.52721000  0.76463000  1.0
  H  H9  1  0.23835000  0.47232000  0.73512000  1.0
  H  H10  1  0.14446000  0.58821000  0.26849000  1.0
  H  H11  1  0.55659000  0.41196000  0.23170000  1.0
  H  H12  1  0.85554000  0.41179000  0.73151000  1.0
  H  H13  1  0.44340000  0.58803000  0.76829000  1.0
  H  H14  1  0.14956000  0.47023000  0.04955000  1.0
  H  H15  1  0.67944000  0.53005000  0.45065000  1.0
  H  H16  1  0.85045000  0.52978000  0.95045000  1.0
  H  H17  1  0.32055000  0.46994000  0.54935000  1.0
  H  H18  1  0.82738000  0.26888000  0.06917000  1.0
  H  H19  1  0.55815000  0.73104000  0.43083000  1.0
  H  H20  1  0.17262000  0.73112000  0.93083000  1.0
  H  H21  1  0.44185000  0.26896000  0.56917000  1.0
  H  H22  1  0.88252000  0.28686000  0.93587000  1.0
  H  H23  1  0.59525000  0.71312000  0.56418000  1.0
  H  H24  1  0.11748000  0.71314000  0.06413000  1.0
  H  H25  1  0.40475000  0.28687000  0.43582000  1.0
  H  H26  1  0.47387000  0.13577000  0.08075000  1.0
  H  H27  1  0.33766000  0.86406000  0.41944000  1.0
  H  H28  1  0.52613000  0.86423000  0.91925000  1.0
  H  H29  1  0.66234000  0.13594000  0.58056000  1.0
  H  H30  1  0.29072000  0.21083000  0.01643000  1.0
  H  H31  1  0.07925000  0.78896000  0.48351000  1.0
  H  H32  1  0.70928000  0.78917000  0.98357000  1.0
  H  H33  1  0.92074000  0.21104000  0.51649000  1.0
  H  H34  1  0.03260000  0.17095000  0.08467000  1.0
  H  H35  1  0.86141000  0.82939000  0.41544000  1.0
  H  H36  1  0.96740000  0.82905000  0.91534000  1.0
  H  H37  1  0.13859000  0.17062000  0.58456000  1.0
  H  H38  1  0.84003000  0.06404000  0.19088000  1.0
  H  H39  1  0.77628000  0.93669000  0.30945000  1.0
  H  H40  1  0.15997000  0.93596000  0.80912000  1.0
  H  H41  1  0.22372000  0.06331000  0.69055000  1.0
  C  C42  1  0.73074000  0.23922000  0.33108000  1.0
  C  C43  1  0.49164000  0.76089000  0.16899000  1.0
  C  C44  1  0.26926000  0.76078000  0.66892000  1.0
  C  C45  1  0.50836000  0.23911000  0.83100000  1.0
  C  C46  1  0.87158000  0.37370000  0.41517000  1.0
  C  C47  1  0.49784000  0.62630000  0.08485000  1.0
  C  C48  1  0.12842000  0.62630000  0.58483000  1.0
  C  C49  1  0.50217000  0.37370000  0.91515000  1.0
  C  C50  1  0.00339000  0.44753000  0.37844000  1.0
  C  C51  1  0.55588000  0.55251000  0.12159000  1.0
  C  C52  1  0.99661000  0.55247000  0.62156000  1.0
  C  C53  1  0.44412000  0.44750000  0.87841000  1.0
  C  C54  1  0.87070000  0.42840000  0.53583000  1.0
  C  C55  1  0.44220000  0.57155000  0.96415000  1.0
  C  C56  1  0.12930000  0.57160000  0.46417000  1.0
  C  C57  1  0.55780000  0.42845000  0.03585000  1.0
  C  C58  1  0.12025000  0.47569000  0.21956000  1.0
  C  C59  1  0.64466000  0.52456000  0.28062000  1.0
  C  C60  1  0.87974000  0.52431000  0.78044000  1.0
  C  C61  1  0.35534000  0.47544000  0.71937000  1.0
  C  C62  1  0.06215000  0.42005000  0.09117000  1.0
  C  C63  1  0.64204000  0.58013000  0.40899000  1.0
  C  C64  1  0.93786000  0.57996000  0.90883000  1.0
  C  C65  1  0.35796000  0.41987000  0.59101000  1.0
  C  C66  1  0.91638000  0.31964000  0.02889000  1.0
  C  C67  1  0.59642000  0.68037000  0.47118000  1.0
  C  C68  1  0.08363000  0.68036000  0.97111000  1.0
  C  C69  1  0.40358000  0.31963000  0.52882000  1.0
  C  C70  1  0.36073000  0.11954000  0.10815000  1.0
  C  C71  1  0.24091000  0.88051000  0.39209000  1.0
  C  C72  1  0.63927000  0.88046000  0.89185000  1.0
  C  C73  1  0.75908000  0.11949000  0.60791000  1.0
  C  C74  1  0.25711000  0.16168000  0.07304000  1.0
  C  C75  1  0.09504000  0.83834000  0.42705000  1.0
  C  C76  1  0.74289000  0.83831000  0.92696000  1.0
  C  C77  1  0.90496000  0.16167000  0.57295000  1.0
  C  C78  1  0.11468000  0.13864000  0.11011000  1.0
  C  C79  1  0.97587000  0.86169000  0.39007000  1.0
  C  C80  1  0.88532000  0.86136000  0.88989000  1.0
  C  C81  1  0.02413000  0.13832000  0.60993000  1.0
  C  C82  1  0.07382000  0.07072000  0.18077000  1.0
  C  C83  1  0.00328000  0.92986000  0.31962000  1.0
  C  C84  1  0.92618000  0.92928000  0.81923000  1.0
  C  C85  1  0.99672000  0.07014000  0.68038000  1.0
  C  C86  1  0.18638000  0.03388000  0.21343000  1.0
  C  C87  1  0.15273000  0.96670000  0.28708000  1.0
  C  C88  1  0.81362000  0.96612000  0.78657000  1.0
  C  C89  1  0.84727000  0.03330000  0.71293000  1.0
  C  C90  1  0.92518000  0.03526000  0.21751000  1.0
  C  C91  1  0.89027000  0.96547000  0.28289000  1.0
  C  C92  1  0.07482000  0.96474000  0.78249000  1.0
  C  C93  1  0.10973000  0.03453000  0.71711000  1.0
  N  N94  1  0.32688000  0.05936000  0.17784000  1.0
  N  N95  1  0.26757000  0.94098000  0.32261000  1.0
  N  N96  1  0.67312000  0.94065000  0.82216000  1.0
  N  N97  1  0.73243000  0.05902000  0.67740000  1.0
  O  O98  1  0.69488000  0.20541000  0.22473000  1.0
  O  O99  1  0.49010000  0.79489000  0.27542000  1.0
  O  O100  1  0.30513000  0.79459000  0.77527000  1.0
  O  O101  1  0.50990000  0.20511000  0.72458000  1.0
  O  O102  1  0.64855000  0.16076000  0.37734000  1.0
  O  O103  1  0.48756000  0.83928000  0.12275000  1.0
  O  O104  1  0.35145000  0.83924000  0.62266000  1.0
  O  O105  1  0.51244000  0.16072000  0.87725000  1.0
  O  O106  1  0.00158000  0.39290000  0.26077000  1.0
  O  O107  1  0.60851000  0.60710000  0.23928000  1.0
  O  O108  1  0.99842000  0.60710000  0.73923000  1.0
  O  O109  1  0.39150000  0.39290000  0.76072000  1.0
