# generated using pymatgen
data_Zn2H19C20N7O9
_symmetry_space_group_name_H-M   'P 1'
_cell_length_a   9.77359000
_cell_length_b   11.01370000
_cell_length_c   11.20870000
_cell_angle_alpha   97.06120000
_cell_angle_beta   91.75510000
_cell_angle_gamma   90.56900000
_symmetry_Int_Tables_number   1
_chemical_formula_structural   Zn2H19C20N7O9
_chemical_formula_sum   'Zn2 H19 C20 N7 O9'
_cell_volume   1196.71550159
_cell_formula_units_Z   1
loop_
 _symmetry_equiv_pos_site_id
 _symmetry_equiv_pos_as_xyz
  1  'x, y, z'
loop_
 _atom_site_type_symbol
 _atom_site_label
 _atom_site_symmetry_multiplicity
 _atom_site_fract_x
 _atom_site_fract_y
 _atom_site_fract_z
 _atom_site_occupancy
  Zn  Zn0  1  0.63662000  0.52657000  0.49380000  1.0
  Zn  Zn1  1  0.35097000  0.53262000  0.49514000  1.0
  H  H2  1  0.36552000  0.94294000  0.63223000  1.0
  H  H3  1  0.71489000  0.55859000  0.84693000  1.0
  H  H4  1  0.04941000  0.25447000  0.35523000  1.0
  H  H5  1  0.21895000  0.30612000  0.39896000  1.0
  H  H6  1  0.68083000  0.80301000  0.02304000  1.0
  H  H7  1  0.74942000  0.72758000  0.12782000  1.0
  H  H8  1  0.79406000  0.98681000  0.04717000  1.0
  H  H9  1  0.62215000  0.29842000  0.29908000  1.0
  H  H10  1  0.66783000  0.23666000  0.15877000  1.0
  H  H11  1  0.20550000  0.63066000  0.05529000  1.0
  H  H12  1  0.26599000  0.59440000  0.19578000  1.0
  H  H13  1  0.85624000  0.37957000  0.35880000  1.0
  H  H14  1  0.90520000  0.57168000  0.56007000  1.0
  H  H15  1  0.09386000  0.60185000  0.50410000  1.0
  H  H16  1  0.61721000  0.75565000  0.30300000  1.0
  H  H17  1  0.36481000  0.16628000  0.60983000  1.0
  H  H18  1  0.58038000  0.45700000  0.08778000  1.0
  H  H19  1  0.29973000  0.52854000  0.87418000  1.0
  H  H20  1  0.66150000  0.56376000  0.99599000  1.0
  C  C21  1  0.50215000  0.52785000  0.72704000  1.0
  C  C22  1  0.51204000  0.53296000  0.86249000  1.0
  C  C23  1  0.91410000  0.44218000  0.42631000  1.0
  C  C24  1  0.49494000  0.76505000  0.50410000  1.0
  C  C25  1  0.06646000  0.43194000  0.43235000  1.0
  C  C26  1  0.49724000  0.51696000  0.25887000  1.0
  C  C27  1  0.49563000  0.28377000  0.46432000  1.0
  C  C28  1  0.61941000  0.85275000  0.29381000  1.0
  C  C29  1  0.67572000  0.89203000  0.19363000  1.0
  C  C30  1  0.68000000  0.01762000  0.18135000  1.0
  C  C31  1  0.62222000  0.10579000  0.26448000  1.0
  C  C32  1  0.56088000  0.93745000  0.38253000  1.0
  C  C33  1  0.55938000  0.06650000  0.36805000  1.0
  C  C34  1  0.49278000  0.89657000  0.48210000  1.0
  C  C35  1  0.41975000  0.97734000  0.55948000  1.0
  C  C36  1  0.41814000  0.10220000  0.54589000  1.0
  C  C37  1  0.48945000  0.14705000  0.45495000  1.0
  C  C38  1  0.38749000  0.53937000  0.05651000  1.0
  C  C39  1  0.49446000  0.50512000  0.12944000  1.0
  C  C40  1  0.39554000  0.53161000  0.92692000  1.0
  N  N41  1  0.84659000  0.51740000  0.49658000  1.0
  N  N42  1  0.14505000  0.52290000  0.47977000  1.0
  N  N43  1  0.64399000  0.53984000  0.90663000  1.0
  N  N44  1  0.11507000  0.32326000  0.38727000  1.0
  N  N45  1  0.73818000  0.81241000  0.10160000  1.0
  N  N46  1  0.62185000  0.22401000  0.23611000  1.0
  N  N47  1  0.26702000  0.58063000  0.10393000  1.0
  O  O48  1  0.61575000  0.54290000  0.67696000  1.0
  O  O49  1  0.38600000  0.50948000  0.67422000  1.0
  O  O50  1  0.60864000  0.70938000  0.49313000  1.0
  O  O51  1  0.38275000  0.71790000  0.53305000  1.0
  O  O52  1  0.61171000  0.49261000  0.31196000  1.0
  O  O53  1  0.38979000  0.55188000  0.31758000  1.0
  O  O54  1  0.61170000  0.33534000  0.48871000  1.0
  O  O55  1  0.38320000  0.34095000  0.45390000  1.0
  O  O56  1  0.74186000  0.05678000  0.08345000  1.0
