# generated using pymatgen
data_CdH10C8(NO)6
_symmetry_space_group_name_H-M   'P 1'
_cell_length_a   9.87876000
_cell_length_b   11.17600000
_cell_length_c   12.55450000
_cell_angle_alpha   71.17600000
_cell_angle_beta   89.95740000
_cell_angle_gamma   89.98440000
_symmetry_Int_Tables_number   1
_chemical_formula_structural   CdH10C8(NO)6
_chemical_formula_sum   'Cd4 H40 C32 N24 O24'
_cell_volume   1311.94387449
_cell_formula_units_Z   4
loop_
 _symmetry_equiv_pos_site_id
 _symmetry_equiv_pos_as_xyz
  1  'x, y, z'
loop_
 _atom_site_type_symbol
 _atom_site_label
 _atom_site_symmetry_multiplicity
 _atom_site_fract_x
 _atom_site_fract_y
 _atom_site_fract_z
 _atom_site_occupancy
  Cd  Cd0  1  0.35994000  0.62114000  0.64165000  1.0
  Cd  Cd1  1  0.64007000  0.37886000  0.35835000  1.0
  Cd  Cd2  1  0.85990000  0.87850000  0.85836000  1.0
  Cd  Cd3  1  0.14010000  0.12150000  0.14164000  1.0
  H  H4  1  0.66577000  0.72624000  0.18821000  1.0
  H  H5  1  0.33423000  0.27376000  0.81179000  1.0
  H  H6  1  0.79970000  0.77041000  0.09205000  1.0
  H  H7  1  0.20030000  0.22959000  0.90795000  1.0
  H  H8  1  0.30028000  0.72981000  0.40778000  1.0
  H  H9  1  0.69972000  0.27019000  0.59222000  1.0
  H  H10  1  0.16674000  0.77438000  0.31143000  1.0
  H  H11  1  0.83326000  0.22562000  0.68857000  1.0
  H  H12  1  0.52323000  0.41157000  0.77614000  1.0
  H  H13  1  0.47677000  0.58842000  0.22386000  1.0
  H  H14  1  0.52647000  0.41064000  0.64737000  1.0
  H  H15  1  0.47353000  0.58936000  0.35263000  1.0
  H  H16  1  0.02301000  0.08813000  0.72391000  1.0
  H  H17  1  0.97698000  0.91187000  0.27609000  1.0
  H  H18  1  0.02667000  0.08899000  0.85267000  1.0
  H  H19  1  0.97333000  0.91101000  0.14733000  1.0
  H  H20  1  0.76731000  0.98719000  0.32607000  1.0
  H  H21  1  0.23269000  0.01282000  0.67393000  1.0
  H  H22  1  0.62833000  0.00136000  0.41124000  1.0
  H  H23  1  0.37167000  0.99864000  0.58876000  1.0
  H  H24  1  0.13487000  0.76637000  0.73420000  1.0
  H  H25  1  0.86513000  0.23364000  0.26579000  1.0
  H  H26  1  0.26690000  0.51276000  0.17404000  1.0
  H  H27  1  0.73310000  0.48724000  0.82596000  1.0
  H  H28  1  0.12803000  0.49853000  0.08892000  1.0
  H  H29  1  0.87197000  0.50147000  0.91109000  1.0
  H  H30  1  0.09938000  0.65806000  0.19597000  1.0
  H  H31  1  0.90062000  0.34194000  0.80403000  1.0
  H  H32  1  0.22774000  0.75236000  0.11042000  1.0
  H  H33  1  0.77226000  0.24764000  0.88958000  1.0
  H  H34  1  0.60021000  0.84155000  0.30436000  1.0
  H  H35  1  0.39979000  0.15845000  0.69564000  1.0
  H  H36  1  0.72850000  0.74747000  0.39001000  1.0
  H  H37  1  0.27150000  0.25253000  0.60998000  1.0
  H  H38  1  0.63481000  0.73339000  0.76567000  1.0
  H  H39  1  0.36519000  0.26661000  0.23433000  1.0
  H  H40  1  0.66529000  0.94874000  0.62126000  1.0
  H  H41  1  0.33471000  0.05126000  0.37874000  1.0
  H  H42  1  0.16515000  0.55107000  0.87896000  1.0
  H  H43  1  0.83485000  0.44893000  0.12105000  1.0
  C  C44  1  0.62620000  0.70509000  0.03734000  1.0
  C  C45  1  0.37380000  0.29491000  0.96266000  1.0
  C  C46  1  0.12663000  0.79506000  0.46248000  1.0
  C  C47  1  0.87337000  0.20494000  0.53752000  1.0
  C  C48  1  0.92662000  0.86283000  0.50747000  1.0
  C  C49  1  0.07339000  0.13717000  0.49253000  1.0
  C  C50  1  0.42628000  0.63721000  0.99248000  1.0
  C  C51  1  0.57372000  0.36279000  0.00752000  1.0
  C  C52  1  0.46505000  0.66327000  0.87886000  1.0
  C  C53  1  0.53495000  0.33673000  0.12114000  1.0
  C  C54  1  0.96525000  0.83661000  0.62109000  1.0
  C  C55  1  0.03476000  0.16339000  0.37891000  1.0
  C  C56  1  0.70780000  0.93728000  0.40117000  1.0
  C  C57  1  0.29220000  0.06272000  0.59883000  1.0
  C  C58  1  0.09444000  0.78834000  0.64926000  1.0
  C  C59  1  0.90556000  0.21166000  0.35074000  1.0
  C  C60  1  0.20740000  0.56265000  0.09898000  1.0
  C  C61  1  0.79260000  0.43735000  0.90103000  1.0
  C  C62  1  0.14774000  0.68272000  0.11274000  1.0
  C  C63  1  0.85226000  0.31728000  0.88726000  1.0
  C  C64  1  0.64838000  0.81707000  0.38758000  1.0
  C  C65  1  0.35161000  0.18294000  0.61242000  1.0
  C  C66  1  0.59429000  0.71149000  0.85062000  1.0
  C  C67  1  0.40571000  0.28850000  0.14938000  1.0
  C  C68  1  0.76192000  0.91300000  0.60397000  1.0
  C  C69  1  0.23808000  0.08700000  0.39603000  1.0
  C  C70  1  0.26173000  0.58689000  0.89614000  1.0
  C  C71  1  0.73827000  0.41311000  0.10386000  1.0
  C  C72  1  0.04200000  0.74814000  0.02666000  1.0
  C  C73  1  0.95799000  0.25186000  0.97334000  1.0
  C  C74  1  0.54249000  0.75169000  0.47366000  1.0
  C  C75  1  0.45751000  0.24831000  0.52633000  1.0
  N  N76  1  0.79720000  0.91090000  0.49891000  1.0
  N  N77  1  0.20281000  0.08910000  0.50109000  1.0
  N  N78  1  0.70812000  0.72641000  0.11468000  1.0
  N  N79  1  0.29188000  0.27360000  0.88532000  1.0
  N  N80  1  0.20880000  0.77396000  0.38509000  1.0
  N  N81  1  0.79120000  0.22604000  0.61491000  1.0
  N  N82  1  0.29686000  0.58914000  0.00115000  1.0
  N  N83  1  0.70314000  0.41085000  0.99885000  1.0
  N  N84  1  0.67360000  0.73336000  0.92925000  1.0
  N  N85  1  0.32641000  0.26664000  0.07075000  1.0
  N  N86  1  0.17388000  0.76660000  0.57056000  1.0
  N  N87  1  0.82612000  0.23340000  0.42944000  1.0
  N  N88  1  0.50322000  0.65349000  0.07309000  1.0
  N  N89  1  0.49678000  0.34651000  0.92691000  1.0
  N  N90  1  0.85915000  0.86968000  0.67923000  1.0
  N  N91  1  0.14086000  0.13032000  0.32077000  1.0
  N  N92  1  0.00367000  0.84668000  0.42677000  1.0
  N  N93  1  0.99633000  0.15332000  0.57322000  1.0
  N  N94  1  0.35901000  0.63012000  0.82081000  1.0
  N  N95  1  0.64099000  0.36988000  0.17919000  1.0
  N  N96  1  0.11729000  0.44272000  0.67221000  1.0
  N  N97  1  0.88271000  0.55728000  0.32779000  1.0
  N  N98  1  0.61720000  0.05798000  0.82654000  1.0
  N  N99  1  0.38280000  0.94201000  0.17346000  1.0
  O  O100  1  0.52642000  0.78141000  0.56247000  1.0
  O  O101  1  0.47358000  0.21860000  0.43752000  1.0
  O  O102  1  0.02601000  0.71832000  0.93791000  1.0
  O  O103  1  0.97399000  0.28167000  0.06209000  1.0
  O  O104  1  0.46890000  0.66596000  0.45420000  1.0
  O  O105  1  0.53111000  0.33404000  0.54580000  1.0
  O  O106  1  0.96848000  0.83401000  0.04607000  1.0
  O  O107  1  0.03151000  0.16599000  0.95393000  1.0
  O  O108  1  0.22733000  0.46564000  0.61237000  1.0
  O  O109  1  0.77267000  0.53435000  0.38764000  1.0
  O  O110  1  0.52971000  0.46585000  0.69572000  1.0
  O  O111  1  0.47029000  0.53415000  0.30428000  1.0
  O  O112  1  0.02981000  0.03380000  0.80429000  1.0
  O  O113  1  0.97019000  0.96620000  0.19571000  1.0
  O  O114  1  0.08807000  0.51016000  0.73243000  1.0
  O  O115  1  0.91193000  0.48985000  0.26757000  1.0
  O  O116  1  0.72738000  0.03497000  0.88609000  1.0
  O  O117  1  0.27261000  0.96503000  0.11392000  1.0
  O  O118  1  0.58672000  0.98963000  0.76750000  1.0
  O  O119  1  0.41328000  0.01036000  0.23249000  1.0
  O  O120  1  0.04453000  0.35281000  0.66846000  1.0
  O  O121  1  0.95547000  0.64719000  0.33155000  1.0
  O  O122  1  0.54559000  0.14900000  0.82943000  1.0
  O  O123  1  0.45440000  0.85099000  0.17056000  1.0
