# generated using pymatgen
data_Co3H18C28(N2O9)2
_symmetry_space_group_name_H-M   'P 1'
_cell_length_a   8.81307000
_cell_length_b   9.50320000
_cell_length_c   10.00980000
_cell_angle_alpha   79.15960000
_cell_angle_beta   87.49320000
_cell_angle_gamma   73.28470000
_symmetry_Int_Tables_number   1
_chemical_formula_structural   Co3H18C28(N2O9)2
_chemical_formula_sum   'Co3 H18 C28 N4 O18'
_cell_volume   788.54480352
_cell_formula_units_Z   1
loop_
 _symmetry_equiv_pos_site_id
 _symmetry_equiv_pos_as_xyz
  1  'x, y, z'
loop_
 _atom_site_type_symbol
 _atom_site_label
 _atom_site_symmetry_multiplicity
 _atom_site_fract_x
 _atom_site_fract_y
 _atom_site_fract_z
 _atom_site_occupancy
  Co  Co0  1  0.00021000  0.50009000  0.49972000  1.0
  Co  Co1  1  0.89282000  0.41535000  0.82948000  1.0
  Co  Co2  1  0.10697000  0.58467000  0.17053000  1.0
  H  H3  1  0.69480000  0.78544000  0.48145000  1.0
  H  H4  1  0.30504000  0.21479000  0.51865000  1.0
  H  H5  1  0.73375000  0.23469000  0.39479000  1.0
  H  H6  1  0.26628000  0.76549000  0.60522000  1.0
  H  H7  1  0.92746000  0.94497000  0.76880000  1.0
  H  H8  1  0.07277000  0.05514000  0.23108000  1.0
  H  H9  1  0.38397000  0.30323000  0.99484000  1.0
  H  H10  1  0.61635000  0.69616000  0.00517000  1.0
  H  H11  1  0.65805000  0.31932000  0.02066000  1.0
  H  H12  1  0.34209000  0.68035000  0.97928000  1.0
  H  H13  1  0.66356000  0.53161000  0.61854000  1.0
  H  H14  1  0.33608000  0.46876000  0.38161000  1.0
  H  H15  1  0.39330000  0.51445000  0.57547000  1.0
  H  H16  1  0.60637000  0.48568000  0.42475000  1.0
  H  H17  1  0.01743000  0.27125000  0.05123000  1.0
  H  H18  1  0.98268000  0.72827000  0.94838000  1.0
  H  H19  1  0.97200000  0.17156000  0.95542000  1.0
  H  H20  1  0.02790000  0.82829000  0.04405000  1.0
  C  C21  1  0.85034000  0.70098000  0.72922000  1.0
  C  C22  1  0.14978000  0.29912000  0.27066000  1.0
  C  C23  1  0.81646000  0.84802000  0.63546000  1.0
  C  C24  1  0.18360000  0.15211000  0.36449000  1.0
  C  C25  1  0.73285000  0.87315000  0.51362000  1.0
  C  C26  1  0.26714000  0.12705000  0.48639000  1.0
  C  C27  1  0.70122000  0.01410000  0.43135000  1.0
  C  C28  1  0.29872000  0.98608000  0.56867000  1.0
  C  C29  1  0.75544000  0.12763000  0.46345000  1.0
  C  C30  1  0.24454000  0.87255000  0.53655000  1.0
  C  C31  1  0.83841000  0.10176000  0.58577000  1.0
  C  C32  1  0.16175000  0.89833000  0.41413000  1.0
  C  C33  1  0.86482000  0.96351000  0.67282000  1.0
  C  C34  1  0.13534000  0.03659000  0.32708000  1.0
  C  C35  1  0.20680000  0.39919000  0.75027000  1.0
  C  C36  1  0.79302000  0.60064000  0.25013000  1.0
  C  C37  1  0.36818000  0.40571000  0.78089000  1.0
  C  C38  1  0.63176000  0.59407000  0.21926000  1.0
  C  C39  1  0.44257000  0.35305000  0.90841000  1.0
  C  C40  1  0.55758000  0.64655000  0.09161000  1.0
  C  C41  1  0.59507000  0.36293000  0.92394000  1.0
  C  C42  1  0.40501000  0.63683000  0.07603000  1.0
  C  C43  1  0.59870000  0.48022000  0.69844000  1.0
  C  C44  1  0.40103000  0.51993000  0.30169000  1.0
  C  C45  1  0.44933000  0.47036000  0.67513000  1.0
  C  C46  1  0.55046000  0.52964000  0.32502000  1.0
  C  C47  1  0.89909000  0.22329000  0.62046000  1.0
  C  C48  1  0.10127000  0.77671000  0.37943000  1.0
  N  N49  1  0.67402000  0.42507000  0.82071000  1.0
  N  N50  1  0.32594000  0.57497000  0.17933000  1.0
  N  N51  1  0.60793000  0.04362000  0.30517000  1.0
  N  N52  1  0.39196000  0.95662000  0.69491000  1.0
  O  O53  1  0.85826000  0.69148000  0.85567000  1.0
  O  O54  1  0.14195000  0.30857000  0.14427000  1.0
  O  O55  1  0.86650000  0.58137000  0.67724000  1.0
  O  O56  1  0.13342000  0.41886000  0.32260000  1.0
  O  O57  1  0.56161000  0.94096000  0.27751000  1.0
  O  O58  1  0.43868000  0.05912000  0.72232000  1.0
  O  O59  1  0.57945000  0.17090000  0.23425000  1.0
  O  O60  1  0.41991000  0.82945000  0.76610000  1.0
  O  O61  1  0.10829000  0.40554000  0.84805000  1.0
  O  O62  1  0.89168000  0.59462000  0.15236000  1.0
  O  O63  1  0.94154000  0.21327000  0.74229000  1.0
  O  O64  1  0.05866000  0.78680000  0.25758000  1.0
  O  O65  1  0.90053000  0.32932000  0.52144000  1.0
  O  O66  1  0.09993000  0.67057000  0.47837000  1.0
  O  O67  1  0.17946000  0.39089000  0.62886000  1.0
  O  O68  1  0.82009000  0.60884000  0.37159000  1.0
  O  O69  1  0.92881000  0.25944000  0.99776000  1.0
  O  O70  1  0.07117000  0.74013000  0.00212000  1.0
