# generated using pymatgen
data_ZnH8C10(BrN)2
_symmetry_space_group_name_H-M   'P 1'
_cell_length_a   4.93631000
_cell_length_b   8.52780000
_cell_length_c   14.61072678
_cell_angle_alpha   97.58125308
_cell_angle_beta   99.67750281
_cell_angle_gamma   106.81760000
_symmetry_Int_Tables_number   1
_chemical_formula_structural   ZnH8C10(BrN)2
_chemical_formula_sum   'Zn2 H16 C20 Br4 N4'
_cell_volume   569.64255419
_cell_formula_units_Z   2
loop_
 _symmetry_equiv_pos_site_id
 _symmetry_equiv_pos_as_xyz
  1  'x, y, z'
loop_
 _atom_site_type_symbol
 _atom_site_label
 _atom_site_symmetry_multiplicity
 _atom_site_fract_x
 _atom_site_fract_y
 _atom_site_fract_z
 _atom_site_occupancy
  Zn  Zn0  1  0.81141000  0.24979000  0.25014000  1.0
  Zn  Zn1  1  0.18860000  0.75021000  0.74986000  1.0
  H  H2  1  0.89527000  0.91946000  0.26173000  1.0
  H  H3  1  0.21022000  0.57988000  0.23784000  1.0
  H  H4  1  0.10474000  0.08054000  0.73827000  1.0
  H  H5  1  0.78979000  0.42011000  0.76216000  1.0
  H  H6  1  0.19830000  0.80046000  0.36448000  1.0
  H  H7  1  0.52918000  0.69983000  0.13489000  1.0
  H  H8  1  0.80170000  0.19953000  0.63552000  1.0
  H  H9  1  0.47084000  0.30018000  0.86512000  1.0
  H  H10  1  0.52866000  0.28308000  0.55402000  1.0
  H  H11  1  0.19482000  0.21620000  0.94631000  1.0
  H  H12  1  0.47133000  0.71692000  0.44599000  1.0
  H  H13  1  0.80517000  0.78381000  0.05368000  1.0
  H  H14  1  0.20190000  0.37799000  0.44375000  1.0
  H  H15  1  0.88227000  0.12098000  0.05619000  1.0
  H  H16  1  0.79809000  0.62201000  0.55625000  1.0
  H  H17  1  0.11771000  0.87903000  0.94380000  1.0
  C  C18  1  0.04131000  0.99542000  0.32705000  1.0
  C  C19  1  0.21652000  0.50409000  0.17259000  1.0
  C  C20  1  0.95870000  0.00457000  0.67296000  1.0
  C  C21  1  0.78348000  0.49591000  0.82741000  1.0
  C  C22  1  0.21496000  0.93068000  0.38540000  1.0
  C  C23  1  0.39644000  0.56931000  0.11422000  1.0
  C  C24  1  0.78502000  0.06931000  0.61460000  1.0
  C  C25  1  0.60357000  0.43070000  0.88578000  1.0
  C  C26  1  0.40247000  0.03198000  0.46887000  1.0
  C  C27  1  0.40133000  0.46789000  0.03106000  1.0
  C  C28  1  0.59752000  0.96802000  0.53113000  1.0
  C  C29  1  0.59868000  0.53211000  0.96894000  1.0
  C  C30  1  0.39434000  0.19589000  0.49030000  1.0
  C  C31  1  0.20959000  0.30356000  0.00981000  1.0
  C  C32  1  0.60565000  0.80410000  0.50970000  1.0
  C  C33  1  0.79041000  0.69645000  0.99019000  1.0
  C  C34  1  0.21384000  0.25187000  0.42851000  1.0
  C  C35  1  0.03445000  0.24727000  0.07148000  1.0
  C  C36  1  0.78616000  0.74813000  0.57149000  1.0
  C  C37  1  0.96554000  0.75274000  0.92851000  1.0
  Br  Br38  1  0.43564000  0.00878000  0.15709000  1.0
  Br  Br39  1  0.77089000  0.49120000  0.34337000  1.0
  Br  Br40  1  0.56436000  0.99123000  0.84291000  1.0
  Br  Br41  1  0.22910000  0.50879000  0.65663000  1.0
  N  N42  1  0.04188000  0.15420000  0.34721000  1.0
  N  N43  1  0.03988000  0.34491000  0.15262000  1.0
  N  N44  1  0.95812000  0.84579000  0.65279000  1.0
  N  N45  1  0.96011000  0.65510000  0.84737000  1.0
