# generated using pymatgen
data_AgH12C22SN4(OF)3
_symmetry_space_group_name_H-M   'P 1'
_cell_length_a   10.58740000
_cell_length_b   10.64920000
_cell_length_c   13.01270000
_cell_angle_alpha   100.89000000
_cell_angle_beta   98.77230000
_cell_angle_gamma   91.31930000
_symmetry_Int_Tables_number   1
_chemical_formula_structural   AgH12C22SN4(OF)3
_chemical_formula_sum   'Ag2 H24 C44 S2 N8 O6 F6'
_cell_volume   1421.84070627
_cell_formula_units_Z   2
loop_
 _symmetry_equiv_pos_site_id
 _symmetry_equiv_pos_as_xyz
  1  'x, y, z'
loop_
 _atom_site_type_symbol
 _atom_site_label
 _atom_site_symmetry_multiplicity
 _atom_site_fract_x
 _atom_site_fract_y
 _atom_site_fract_z
 _atom_site_occupancy
  Ag  Ag0  1  0.54958000  0.49805000  0.36590000  1.0
  Ag  Ag1  1  0.45041000  0.50195000  0.63411000  1.0
  H  H2  1  0.86290000  0.16050000  0.47894000  1.0
  H  H3  1  0.13710000  0.83950000  0.52105000  1.0
  H  H4  1  0.05431000  0.07167000  0.56772000  1.0
  H  H5  1  0.94569000  0.92833000  0.43228000  1.0
  H  H6  1  0.19666000  0.45286000  0.72635000  1.0
  H  H7  1  0.80334000  0.54715000  0.27365000  1.0
  H  H8  1  0.99731000  0.54076000  0.64583000  1.0
  H  H9  1  0.00270000  0.45924000  0.35416000  1.0
  H  H10  1  0.25223000  0.16035000  0.48290000  1.0
  H  H11  1  0.74778000  0.83966000  0.51710000  1.0
  H  H12  1  0.32778000  0.96804000  0.37734000  1.0
  H  H13  1  0.67223000  0.03197000  0.62267000  1.0
  H  H14  1  0.43832000  0.81486000  0.66055000  1.0
  H  H15  1  0.56167000  0.18514000  0.33945000  1.0
  H  H16  1  0.35639000  0.00529000  0.76694000  1.0
  H  H17  1  0.64361000  0.99470000  0.23306000  1.0
  H  H18  1  0.50443000  0.21798000  0.75559000  1.0
  H  H19  1  0.49557000  0.78203000  0.24443000  1.0
  H  H20  1  0.61900000  0.29747000  0.93736000  1.0
  H  H21  1  0.38100000  0.70254000  0.06266000  1.0
  H  H22  1  0.25898000  0.38611000  0.04497000  1.0
  H  H23  1  0.74101000  0.61390000  0.95503000  1.0
  H  H24  1  0.14405000  0.30426000  0.86211000  1.0
  H  H25  1  0.85595000  0.69574000  0.13789000  1.0
  C  C26  1  0.80904000  0.40379000  0.50361000  1.0
  C  C27  1  0.19095000  0.59621000  0.49637000  1.0
  C  C28  1  0.91930000  0.35641000  0.55629000  1.0
  C  C29  1  0.08071000  0.64359000  0.44370000  1.0
  C  C30  1  0.93555000  0.22371000  0.53395000  1.0
  C  C31  1  0.06446000  0.77629000  0.46605000  1.0
  C  C32  1  0.04307000  0.17447000  0.58284000  1.0
  C  C33  1  0.95693000  0.82552000  0.41716000  1.0
  C  C34  1  0.13932000  0.25644000  0.65094000  1.0
  C  C35  1  0.86068000  0.74356000  0.34906000  1.0
  C  C36  1  0.12223000  0.38871000  0.67406000  1.0
  C  C37  1  0.87777000  0.61129000  0.32593000  1.0
  C  C38  1  0.01226000  0.43853000  0.62828000  1.0
  C  C39  1  0.98774000  0.56148000  0.37172000  1.0
  C  C40  1  0.29838000  0.09527000  0.63237000  1.0
  C  C41  1  0.70163000  0.90473000  0.36764000  1.0
  C  C42  1  0.29065000  0.08416000  0.52198000  1.0
  C  C43  1  0.70935000  0.91585000  0.47803000  1.0
  C  C44  1  0.33333333  0.97617000  0.46246000  1.0
  C  C45  1  0.66666667  0.02384000  0.53754000  1.0
  C  C46  1  0.38643000  0.87863000  0.51215000  1.0
  C  C47  1  0.61357000  0.12138000  0.48785000  1.0
  C  C48  1  0.43006000  0.76891000  0.45096000  1.0
  C  C49  1  0.56994000  0.23109000  0.54904000  1.0
  C  C50  1  0.39590000  0.89008000  0.62272000  1.0
  C  C51  1  0.60410000  0.10991000  0.37728000  1.0
  C  C52  1  0.35097000  0.99723000  0.68170000  1.0
  C  C53  1  0.64903000  0.00277000  0.31831000  1.0
  C  C54  1  0.31656000  0.25398000  0.79695000  1.0
  C  C55  1  0.68343000  0.74603000  0.20306000  1.0
  C  C56  1  0.45075000  0.25265000  0.81916000  1.0
  C  C57  1  0.54925000  0.74735000  0.18084000  1.0
  C  C58  1  0.51498000  0.29771000  0.92082000  1.0
  C  C59  1  0.48501000  0.70230000  0.07919000  1.0
  C  C60  1  0.44593000  0.34650000  0.00260000  1.0
  C  C61  1  0.55405000  0.65351000  0.99741000  1.0
  C  C62  1  0.51226000  0.39049000  0.10675000  1.0
  C  C63  1  0.48774000  0.60952000  0.89327000  1.0
  C  C64  1  0.31174000  0.35015000  0.98070000  1.0
  C  C65  1  0.68825000  0.64986000  0.01931000  1.0
  C  C66  1  0.24801000  0.30373000  0.87867000  1.0
  C  C67  1  0.75199000  0.69628000  0.12133000  1.0
  C  C68  1  0.24462000  0.16511000  0.19508000  1.0
  C  C69  1  0.75537000  0.83488000  0.80490000  1.0
  S  S70  1  0.25756000  0.31624000  0.29821000  1.0
  S  S71  1  0.74245000  0.68375000  0.70177000  1.0
  N  N72  1  0.71686000  0.43608000  0.45664000  1.0
  N  N73  1  0.28315000  0.56391000  0.54335000  1.0
  N  N74  1  0.25254000  0.20398000  0.69335000  1.0
  N  N75  1  0.74747000  0.79603000  0.30666000  1.0
  N  N76  1  0.46493000  0.67781000  0.40038000  1.0
  N  N77  1  0.53506000  0.32219000  0.59962000  1.0
  N  N78  1  0.56858000  0.42610000  0.19221000  1.0
  N  N79  1  0.43141000  0.57391000  0.80779000  1.0
  O  O80  1  0.38896000  0.31512000  0.35481000  1.0
  O  O81  1  0.61105000  0.68484000  0.64517000  1.0
  O  O82  1  0.23724000  0.41581000  0.23566000  1.0
  O  O83  1  0.76278000  0.58417000  0.76434000  1.0
  O  O84  1  0.15815000  0.29475000  0.36005000  1.0
  O  O85  1  0.84185000  0.70525000  0.63995000  1.0
  F  F86  1  0.24411000  0.05859000  0.23950000  1.0
  F  F87  1  0.75590000  0.94139000  0.76050000  1.0
  F  F88  1  0.13522000  0.15763000  0.12408000  1.0
  F  F89  1  0.86476000  0.84233000  0.87593000  1.0
  F  F90  1  0.34503000  0.15792000  0.14024000  1.0
  F  F91  1  0.65494000  0.84207000  0.85973000  1.0
