# generated using pymatgen
data_SnH16C11O6
_symmetry_space_group_name_H-M   'P 1'
_cell_length_a   8.21363000
_cell_length_b   10.21780000
_cell_length_c   15.98640000
_cell_angle_alpha   90.00020000
_cell_angle_beta   90.00000000
_cell_angle_gamma   102.78500000
_symmetry_Int_Tables_number   1
_chemical_formula_structural   SnH16C11O6
_chemical_formula_sum   'Sn4 H64 C44 O24'
_cell_volume   1308.39887414
_cell_formula_units_Z   4
loop_
 _symmetry_equiv_pos_site_id
 _symmetry_equiv_pos_as_xyz
  1  'x, y, z'
loop_
 _atom_site_type_symbol
 _atom_site_label
 _atom_site_symmetry_multiplicity
 _atom_site_fract_x
 _atom_site_fract_y
 _atom_site_fract_z
 _atom_site_occupancy
  Sn  Sn0  1  0.17888000  0.14810000  0.00392000  1.0
  Sn  Sn1  1  0.82112000  0.85189000  0.50392000  1.0
  Sn  Sn2  1  0.95902000  0.41995000  0.14678000  1.0
  Sn  Sn3  1  0.04099000  0.58005000  0.64678000  1.0
  H  H4  1  0.95297000  0.78611000  0.98701000  1.0
  H  H5  1  0.04702000  0.21389000  0.48701000  1.0
  H  H6  1  0.30072000  0.53805000  0.85073000  1.0
  H  H7  1  0.69927000  0.46194000  0.35074000  1.0
  H  H8  1  0.11418000  0.63148000  0.94513000  1.0
  H  H9  1  0.88581000  0.36851000  0.44513000  1.0
  H  H10  1  0.26815000  0.66103000  0.02412000  1.0
  H  H11  1  0.73185000  0.33896000  0.52412000  1.0
  H  H12  1  0.29565000  0.79132000  0.85050000  1.0
  H  H13  1  0.70434000  0.20867000  0.35050000  1.0
  H  H14  1  0.54913000  0.84095000  0.99434000  1.0
  H  H15  1  0.45087000  0.15905000  0.49434000  1.0
  H  H16  1  0.56786000  0.92835000  0.89766000  1.0
  H  H17  1  0.43213000  0.07165000  0.39766000  1.0
  H  H18  1  0.57148000  0.71718000  0.82113000  1.0
  H  H19  1  0.42851000  0.28281000  0.32113000  1.0
  H  H20  1  0.55270000  0.58824000  0.99515000  1.0
  H  H21  1  0.44730000  0.41175000  0.49515000  1.0
  H  H22  1  0.57457000  0.50562000  0.89971000  1.0
  H  H23  1  0.42542000  0.49438000  0.39971000  1.0
  H  H24  1  0.85061000  0.05860000  0.98479000  1.0
  H  H25  1  0.14939000  0.94140000  0.48479000  1.0
  H  H26  1  0.95450000  0.03783000  0.88875000  1.0
  H  H27  1  0.04551000  0.96217000  0.38875000  1.0
  H  H28  1  0.91933000  0.19989000  0.91639000  1.0
  H  H29  1  0.08067000  0.80011000  0.41639000  1.0
  H  H30  1  0.35612000  0.26664000  0.13479000  1.0
  H  H31  1  0.64390000  0.73336000  0.63479000  1.0
  H  H32  1  0.46389000  0.15306000  0.08379000  1.0
  H  H33  1  0.53611000  0.84694000  0.58379000  1.0
  H  H34  1  0.29274000  0.08916000  0.15349000  1.0
  H  H35  1  0.70728000  0.91084000  0.65349000  1.0
  H  H36  1  0.18129000  0.77814000  0.14770000  1.0
  H  H37  1  0.81871000  0.22186000  0.64771000  1.0
  H  H38  1  0.82659000  0.77218000  0.29536000  1.0
  H  H39  1  0.17341000  0.22782000  0.79536000  1.0
  H  H40  1  0.02228000  0.93305000  0.20447000  1.0
  H  H41  1  0.97772000  0.06695000  0.70447000  1.0
  H  H42  1  0.87730000  0.90254000  0.12117000  1.0
  H  H43  1  0.12270000  0.09746000  0.62117000  1.0
  H  H44  1  0.82424000  0.02361000  0.29233000  1.0
  H  H45  1  0.17576000  0.97639000  0.79233000  1.0
  H  H46  1  0.55756000  0.05808000  0.23537000  1.0
  H  H47  1  0.44244000  0.94192000  0.73537000  1.0
  H  H48  1  0.58958000  0.97606000  0.14116000  1.0
  H  H49  1  0.41042000  0.02394000  0.64117000  1.0
  H  H50  1  0.55562000  0.84807000  0.31566000  1.0
  H  H51  1  0.44438000  0.15194000  0.81566000  1.0
  H  H52  1  0.59294000  0.72269000  0.14429000  1.0
  H  H53  1  0.40706000  0.27731000  0.64429000  1.0
  H  H54  1  0.56461000  0.63655000  0.24187000  1.0
  H  H55  1  0.43539000  0.36345000  0.74187000  1.0
  H  H56  1  0.18451000  0.52902000  0.26099000  1.0
  H  H57  1  0.81549000  0.47098000  0.76099000  1.0
  H  H58  1  0.28974000  0.50126000  0.16622000  1.0
  H  H59  1  0.71026000  0.49874000  0.66622000  1.0
  H  H60  1  0.20801000  0.36179000  0.23541000  1.0
  H  H61  1  0.79198000  0.63821000  0.73541000  1.0
  H  H62  1  0.85179000  0.47349000  0.99422000  1.0
  H  H63  1  0.14821000  0.52650000  0.49422000  1.0
  H  H64  1  0.67904000  0.42416000  0.06471000  1.0
  H  H65  1  0.32096000  0.57584000  0.56471000  1.0
  H  H66  1  0.77396000  0.29889000  0.01816000  1.0
  H  H67  1  0.22604000  0.70111000  0.51816000  1.0
  C  C68  1  0.32966000  0.54880000  0.91817000  1.0
  C  C69  1  0.67033000  0.45120000  0.41818000  1.0
  C  C70  1  0.24964000  0.65708000  0.95594000  1.0
  C  C71  1  0.75036000  0.34291000  0.45594000  1.0
  C  C72  1  0.32574000  0.79462000  0.91797000  1.0
  C  C73  1  0.67426000  0.20538000  0.41797000  1.0
  C  C74  1  0.51697000  0.83096000  0.92733000  1.0
  C  C75  1  0.48303000  0.16904000  0.42733000  1.0
  C  C76  1  0.59560000  0.72127000  0.88898000  1.0
  C  C77  1  0.40440000  0.27873000  0.38898000  1.0
  C  C78  1  0.52089000  0.58443000  0.92814000  1.0
  C  C79  1  0.47911000  0.41556000  0.42815000  1.0
  C  C80  1  0.26403000  0.41170000  0.95575000  1.0
  C  C81  1  0.73597000  0.58829000  0.45575000  1.0
  C  C82  1  0.25354000  0.90674000  0.95369000  1.0
  C  C83  1  0.74646000  0.09326000  0.45369000  1.0
  C  C84  1  0.78334000  0.76192000  0.89993000  1.0
  C  C85  1  0.21665000  0.23808000  0.39993000  1.0
  C  C86  1  0.94653000  0.10671000  0.94028000  1.0
  C  C87  1  0.05348000  0.89329000  0.44028000  1.0
  C  C88  1  0.34387000  0.16675000  0.10762000  1.0
  C  C89  1  0.65614000  0.83325000  0.60762000  1.0
  C  C90  1  0.80762000  0.77009000  0.22704000  1.0
  C  C91  1  0.19238000  0.22992000  0.72704000  1.0
  C  C92  1  0.88829000  0.90715000  0.18976000  1.0
  C  C93  1  0.11171000  0.09285000  0.68976000  1.0
  C  C94  1  0.80390000  0.01508000  0.22427000  1.0
  C  C95  1  0.19610000  0.98492000  0.72428000  1.0
  C  C96  1  0.61407000  0.97932000  0.20897000  1.0
  C  C97  1  0.38593000  0.02068000  0.70897000  1.0
  C  C98  1  0.53568000  0.84289000  0.24776000  1.0
  C  C99  1  0.46432000  0.15712000  0.74776000  1.0
  C  C100  1  0.61738000  0.73336000  0.21205000  1.0
  C  C101  1  0.38262000  0.26664000  0.71205000  1.0
  C  C102  1  0.88164000  0.65694000  0.19490000  1.0
  C  C103  1  0.11837000  0.34306000  0.69490000  1.0
  C  C104  1  0.34858000  0.80501000  0.23495000  1.0
  C  C105  1  0.65142000  0.19499000  0.73496000  1.0
  C  C106  1  0.87382000  0.15352000  0.18975000  1.0
  C  C107  1  0.12618000  0.84648000  0.68975000  1.0
  C  C108  1  0.19126000  0.45777000  0.21061000  1.0
  C  C109  1  0.80874000  0.54223000  0.71061000  1.0
  C  C110  1  0.79569000  0.40145000  0.04227000  1.0
  C  C111  1  0.20431000  0.59855000  0.54227000  1.0
  O  O112  1  0.31458000  0.31109000  0.92366000  1.0
  O  O113  1  0.68542000  0.68890000  0.42366000  1.0
  O  O114  1  0.16518000  0.39170000  0.01773000  1.0
  O  O115  1  0.83483000  0.60830000  0.51773000  1.0
  O  O116  1  0.32111000  0.02801000  0.93069000  1.0
  O  O117  1  0.67889000  0.97199000  0.43069000  1.0
  O  O118  1  0.13256000  0.88641000  0.00484000  1.0
  O  O119  1  0.86743000  0.11358000  0.50483000  1.0
  O  O120  1  0.83012000  0.74455000  0.97877000  1.0
  O  O121  1  0.16988000  0.25545000  0.47877000  1.0
  O  O122  1  0.88097000  0.80933000  0.84369000  1.0
  O  O123  1  0.11903000  0.19067000  0.34368000  1.0
  O  O124  1  0.82178000  0.53779000  0.22417000  1.0
  O  O125  1  0.17822000  0.46222000  0.72417000  1.0
  O  O126  1  0.99396000  0.67330000  0.13894000  1.0
  O  O127  1  0.00605000  0.32670000  0.63894000  1.0
  O  O128  1  0.81900000  0.25245000  0.22143000  1.0
  O  O129  1  0.18100000  0.74756000  0.72143000  1.0
  O  O130  1  0.97850000  0.17611000  0.13041000  1.0
  O  O131  1  0.02150000  0.82390000  0.63041000  1.0
  O  O132  1  0.30477000  0.81574000  0.15450000  1.0
  O  O133  1  0.69523000  0.18426000  0.65450000  1.0
  O  O134  1  0.24719000  0.76639000  0.29114000  1.0
  O  O135  1  0.75282000  0.23362000  0.79114000  1.0
