# generated using pymatgen
data_Sb2P2H2CO7
_symmetry_space_group_name_H-M   'P 1'
_cell_length_a   4.70131000
_cell_length_b   7.22921000
_cell_length_c   11.01250000
_cell_angle_alpha   89.99970000
_cell_angle_beta   93.92820000
_cell_angle_gamma   89.99980000
_symmetry_Int_Tables_number   1
_chemical_formula_structural   Sb2P2H2CO7
_chemical_formula_sum   'Sb4 P4 H4 C2 O14'
_cell_volume   373.39986361
_cell_formula_units_Z   2
loop_
 _symmetry_equiv_pos_site_id
 _symmetry_equiv_pos_as_xyz
  1  'x, y, z'
loop_
 _atom_site_type_symbol
 _atom_site_label
 _atom_site_symmetry_multiplicity
 _atom_site_fract_x
 _atom_site_fract_y
 _atom_site_fract_z
 _atom_site_occupancy
  Sb  Sb0  1  0.52339000  0.34305000  0.44378000  1.0
  Sb  Sb1  1  0.52337000  0.65694000  0.94378000  1.0
  Sb  Sb2  1  0.53908000  0.24408000  0.75302000  1.0
  Sb  Sb3  1  0.53908000  0.75592000  0.25301000  1.0
  P  P4  1  0.02472000  0.91944000  0.77513000  1.0
  P  P5  1  0.02473000  0.08055000  0.27513000  1.0
  P  P6  1  0.08564000  0.57024000  0.61377000  1.0
  P  P7  1  0.08562000  0.42976000  0.11377000  1.0
  H  H8  1  0.33171000  0.85616000  0.61895000  1.0
  H  H9  1  0.33170000  0.14384000  0.11895000  1.0
  H  H10  1  0.97548000  0.88548000  0.55902000  1.0
  H  H11  1  0.97548000  0.11451000  0.05902000  1.0
  C  C12  1  0.10930000  0.81817000  0.63201000  1.0
  C  C13  1  0.10930000  0.18183000  0.13202000  1.0
  O  O14  1  0.77334000  0.50888000  0.60413000  1.0
  O  O15  1  0.77334000  0.49112000  0.10414000  1.0
  O  O16  1  0.50991000  0.16832000  0.58139000  1.0
  O  O17  1  0.50991000  0.83168000  0.08140000  1.0
  O  O18  1  0.25503000  0.47980000  0.72283000  1.0
  O  O19  1  0.25504000  0.52020000  0.22284000  1.0
  O  O20  1  0.14046000  0.79985000  0.88235000  1.0
  O  O21  1  0.14047000  0.20016000  0.38236000  1.0
  O  O22  1  0.69980000  0.94232000  0.78207000  1.0
  O  O23  1  0.69981000  0.05767000  0.28208000  1.0
  O  O24  1  0.15175000  0.11894000  0.77904000  1.0
  O  O25  1  0.15177000  0.88106000  0.27905000  1.0
  O  O26  1  0.22361000  0.53387000  0.49130000  1.0
  O  O27  1  0.22359000  0.46614000  0.99130000  1.0
