# generated using pymatgen
data_Al2H9C20S4O16F
_symmetry_space_group_name_H-M   'P 1'
_cell_length_a   6.65994000
_cell_length_b   11.05030000
_cell_length_c   12.52830000
_cell_angle_alpha   89.59600000
_cell_angle_beta   77.98920000
_cell_angle_gamma   74.75400000
_symmetry_Int_Tables_number   1
_chemical_formula_structural   Al2H9C20S4O16F
_chemical_formula_sum   'Al2 H9 C20 S4 O16 F1'
_cell_volume   868.97751943
_cell_formula_units_Z   1
loop_
 _symmetry_equiv_pos_site_id
 _symmetry_equiv_pos_as_xyz
  1  'x, y, z'
loop_
 _atom_site_type_symbol
 _atom_site_label
 _atom_site_symmetry_multiplicity
 _atom_site_fract_x
 _atom_site_fract_y
 _atom_site_fract_z
 _atom_site_occupancy
  Al  Al0  1  0.50462000  0.49575000  0.50007000  1.0
  Al  Al1  1  0.99933000  0.50221000  0.50145000  1.0
  H  H2  1  0.22662000  0.43714000  0.62803000  1.0
  H  H3  1  0.75584000  0.60101000  0.38827000  1.0
  H  H4  1  0.74285000  0.48472000  0.16159000  1.0
  H  H5  1  0.23470000  0.22270000  0.33416000  1.0
  H  H6  1  0.46843000  0.76412000  0.36279000  1.0
  H  H7  1  0.76940000  0.88425000  0.58626000  1.0
  H  H8  1  0.65271000  0.11784000  0.57794000  1.0
  H  H9  1  0.64323000  0.29582000  0.30223000  1.0
  H  H10  1  0.70162000  0.76109000  0.08602000  1.0
  C  C11  1  0.87167000  0.27175000  0.48628000  1.0
  C  C12  1  0.65653000  0.51956000  0.69734000  1.0
  C  C13  1  0.14027000  0.72654000  0.49946000  1.0
  C  C14  1  0.34561000  0.49044000  0.30359000  1.0
  C  C15  1  0.39617000  0.53999000  0.88125000  1.0
  C  C16  1  0.60327000  0.50143000  0.12582000  1.0
  C  C17  1  0.59823000  0.52505000  0.81661000  1.0
  C  C18  1  0.39997000  0.51115000  0.18710000  1.0
  C  C19  1  0.60072000  0.51251000  0.01393000  1.0
  C  C20  1  0.39439000  0.53176000  0.99348000  1.0
  C  C21  1  0.94528000  0.13135000  0.47697000  1.0
  C  C22  1  0.15120000  0.06410000  0.41597000  1.0
  C  C23  1  0.81097000  0.06536000  0.53455000  1.0
  C  C24  1  0.28810000  0.12246000  0.34402000  1.0
  C  C25  1  0.48442000  0.05653000  0.28354000  1.0
  C  C26  1  0.07990000  0.86614000  0.48799000  1.0
  C  C27  1  0.87696000  0.93419000  0.53980000  1.0
  C  C28  1  0.21853000  0.93044000  0.42268000  1.0
  C  C29  1  0.41855000  0.86502000  0.35888000  1.0
  C  C30  1  0.55159000  0.92406000  0.29212000  1.0
  S  S31  1  0.79098000  0.50300000  0.89500000  1.0
  S  S32  1  0.20536000  0.53598000  0.11024000  1.0
  S  S33  1  0.62344000  0.14905000  0.19284000  1.0
  S  S34  1  0.79769000  0.81747000  0.22526000  1.0
  O  O35  1  0.67160000  0.32333000  0.50702000  1.0
  O  O36  1  0.85339000  0.50148000  0.65205000  1.0
  O  O37  1  0.98582000  0.67624000  0.52155000  1.0
  O  O38  1  0.50454000  0.45138000  0.35106000  1.0
  O  O39  1  0.33694000  0.66768000  0.48581000  1.0
  O  O40  1  0.15165000  0.50951000  0.35112000  1.0
  O  O41  1  0.01601000  0.32942000  0.47712000  1.0
  O  O42  1  0.50404000  0.53099000  0.64783000  1.0
  O  O43  1  0.25379000  0.44904000  0.55001000  1.0
  O  O44  1  0.74816000  0.54874000  0.45151000  1.0
  O  O45  1  0.73467000  0.21120000  0.27057000  1.0
  O  O46  1  0.79171000  0.06925000  0.11395000  1.0
  O  O47  1  0.46103000  0.24648000  0.15905000  1.0
  O  O48  1  0.78796000  0.81723000  0.09804000  1.0
  O  O49  1  0.97588000  0.86263000  0.23466000  1.0
  O  O50  1  0.78785000  0.69358000  0.26101000  1.0
  F  F51  1  0.21737000  0.55924000  0.84242000  1.0
