# generated using pymatgen
data_ZnH12(CO)8
_symmetry_space_group_name_H-M   'P 1'
_cell_length_a   8.05455000
_cell_length_b   9.94969000
_cell_length_c   13.90800000
_cell_angle_alpha   93.60730000
_cell_angle_beta   90.00000000
_cell_angle_gamma   89.99990000
_symmetry_Int_Tables_number   1
_chemical_formula_structural   ZnH12(CO)8
_chemical_formula_sum   'Zn4 H48 C32 O32'
_cell_volume   1112.38263641
_cell_formula_units_Z   4
loop_
 _symmetry_equiv_pos_site_id
 _symmetry_equiv_pos_as_xyz
  1  'x, y, z'
loop_
 _atom_site_type_symbol
 _atom_site_label
 _atom_site_symmetry_multiplicity
 _atom_site_fract_x
 _atom_site_fract_y
 _atom_site_fract_z
 _atom_site_occupancy
  Zn  Zn0  1  0.83727000  0.24315000  0.79993000  1.0
  Zn  Zn1  1  0.33727000  0.25685000  0.70007000  1.0
  Zn  Zn2  1  0.16273000  0.75685000  0.20007000  1.0
  Zn  Zn3  1  0.66273000  0.74315000  0.29993000  1.0
  H  H4  1  0.12245000  0.22543000  0.88880000  1.0
  H  H5  1  0.62245000  0.27457000  0.61120000  1.0
  H  H6  1  0.87755000  0.77457000  0.11120000  1.0
  H  H7  1  0.37754000  0.72543000  0.38880000  1.0
  H  H8  1  0.98221000  0.19941000  0.97009000  1.0
  H  H9  1  0.48222000  0.30060000  0.52991000  1.0
  H  H10  1  0.01779000  0.80059000  0.02992000  1.0
  H  H11  1  0.51778000  0.69940000  0.47009000  1.0
  H  H12  1  0.00621000  0.40389000  0.30290000  1.0
  H  H13  1  0.50620000  0.09611000  0.19709000  1.0
  H  H14  1  0.99379000  0.59611000  0.69709000  1.0
  H  H15  1  0.49379000  0.90389000  0.80291000  1.0
  H  H16  1  0.78482000  0.34785000  0.44264000  1.0
  H  H17  1  0.28480000  0.15214000  0.05736000  1.0
  H  H18  1  0.21519000  0.65215000  0.55736000  1.0
  H  H19  1  0.71519000  0.84786000  0.94264000  1.0
  H  H20  1  0.76124000  0.50107000  0.77215000  1.0
  H  H21  1  0.26124000  0.99894000  0.72785000  1.0
  H  H22  1  0.23876000  0.49893000  0.22785000  1.0
  H  H23  1  0.73876000  0.00106000  0.27215000  1.0
  H  H24  1  0.66683000  0.51313000  0.93086000  1.0
  H  H25  1  0.16683000  0.98687000  0.56914000  1.0
  H  H26  1  0.33317000  0.48686000  0.06914000  1.0
  H  H27  1  0.83318000  0.01314000  0.43086000  1.0
  H  H28  1  0.84105000  0.62362000  0.91923000  1.0
  H  H29  1  0.34105000  0.87638000  0.58077000  1.0
  H  H30  1  0.15895000  0.37638000  0.08077000  1.0
  H  H31  1  0.65896000  0.12362000  0.41923000  1.0
  H  H32  1  0.87000000  0.46185000  0.96621000  1.0
  H  H33  1  0.36999000  0.03815000  0.53379000  1.0
  H  H34  1  0.13001000  0.53815000  0.03379000  1.0
  H  H35  1  0.63001000  0.96186000  0.46622000  1.0
  H  H36  1  0.94867000  0.99073000  0.78103000  1.0
  H  H37  1  0.44867000  0.50927000  0.71897000  1.0
  H  H38  1  0.05133000  0.00926000  0.21897000  1.0
  H  H39  1  0.55134000  0.49074000  0.28103000  1.0
  H  H40  1  0.64165000  0.01978000  0.67507000  1.0
  H  H41  1  0.14165000  0.48022000  0.82494000  1.0
  H  H42  1  0.35835000  0.98022000  0.32493000  1.0
  H  H43  1  0.85835000  0.51977000  0.17506000  1.0
  H  H44  1  0.74751000  0.86543000  0.69391000  1.0
  H  H45  1  0.24752000  0.63457000  0.80610000  1.0
  H  H46  1  0.25248000  0.13457000  0.30609000  1.0
  H  H47  1  0.75248000  0.36543000  0.19391000  1.0
  H  H48  1  0.84043000  0.98664000  0.62080000  1.0
  H  H49  1  0.34044000  0.51336000  0.87920000  1.0
  H  H50  1  0.15956000  0.01335000  0.37920000  1.0
  H  H51  1  0.65956000  0.48664000  0.12080000  1.0
  C  C52  1  0.97193000  0.28169000  0.62498000  1.0
  C  C53  1  0.47193000  0.21831000  0.87501000  1.0
  C  C54  1  0.02807000  0.71831000  0.37501000  1.0
  C  C55  1  0.52807000  0.78169000  0.12499000  1.0
  C  C56  1  0.01280000  0.31267000  0.52645000  1.0
  C  C57  1  0.51280000  0.18733000  0.97354000  1.0
  C  C58  1  0.98720000  0.68733000  0.47354000  1.0
  C  C59  1  0.48720000  0.81267000  0.02646000  1.0
  C  C60  1  0.19113000  0.36025000  0.41292000  1.0
  C  C61  1  0.69112000  0.13975000  0.08708000  1.0
  C  C62  1  0.80887000  0.63975000  0.58707000  1.0
  C  C63  1  0.30887000  0.86025000  0.91293000  1.0
  C  C64  1  0.03434000  0.37416000  0.37476000  1.0
  C  C65  1  0.53433000  0.12584000  0.12524000  1.0
  C  C66  1  0.96566000  0.62584000  0.62524000  1.0
  C  C67  1  0.46566000  0.87416000  0.87476000  1.0
  C  C68  1  0.91942000  0.34392000  0.44760000  1.0
  C  C69  1  0.41941000  0.15608000  0.05240000  1.0
  C  C70  1  0.08058000  0.65608000  0.55240000  1.0
  C  C71  1  0.58058000  0.84392000  0.94760000  1.0
  C  C72  1  0.36136000  0.37922000  0.37543000  1.0
  C  C73  1  0.86135000  0.12078000  0.12457000  1.0
  C  C74  1  0.63864000  0.62078000  0.62457000  1.0
  C  C75  1  0.13864000  0.87922000  0.87543000  1.0
  C  C76  1  0.80041000  0.51804000  0.91430000  1.0
  C  C77  1  0.30040000  0.98196000  0.58570000  1.0
  C  C78  1  0.19959000  0.48195000  0.08570000  1.0
  C  C79  1  0.69960000  0.01805000  0.41430000  1.0
  C  C80  1  0.76334000  0.97355000  0.68499000  1.0
  C  C81  1  0.26334000  0.52645000  0.81501000  1.0
  C  C82  1  0.23666000  0.02645000  0.31501000  1.0
  C  C83  1  0.73666000  0.47355000  0.18499000  1.0
  O  O84  1  0.81944000  0.27968000  0.65066000  1.0
  O  O85  1  0.31944000  0.22032000  0.84933000  1.0
  O  O86  1  0.18056000  0.72032000  0.34933000  1.0
  O  O87  1  0.68056000  0.77969000  0.15067000  1.0
  O  O88  1  0.08527000  0.25851000  0.68577000  1.0
  O  O89  1  0.58527000  0.24149000  0.81423000  1.0
  O  O90  1  0.91473000  0.74149000  0.31423000  1.0
  O  O91  1  0.41473000  0.75851000  0.18577000  1.0
  O  O92  1  0.37283000  0.42678000  0.29197000  1.0
  O  O93  1  0.87283000  0.07322000  0.20803000  1.0
  O  O94  1  0.62717000  0.57322000  0.70803000  1.0
  O  O95  1  0.12717000  0.92678000  0.79197000  1.0
  O  O96  1  0.48455000  0.34843000  0.42548000  1.0
  O  O97  1  0.98455000  0.15157000  0.07452000  1.0
  O  O98  1  0.51544000  0.65157000  0.57452000  1.0
  O  O99  1  0.01545000  0.84843000  0.92548000  1.0
  O  O100  1  0.00380000  0.23922000  0.90569000  1.0
  O  O101  1  0.50380000  0.26079000  0.59431000  1.0
  O  O102  1  0.99620000  0.76077000  0.09431000  1.0
  O  O103  1  0.49619000  0.73922000  0.40569000  1.0
  O  O104  1  0.17880000  0.32139000  0.50535000  1.0
  O  O105  1  0.67879000  0.17862000  0.99465000  1.0
  O  O106  1  0.82120000  0.67861000  0.49464000  1.0
  O  O107  1  0.32121000  0.82139000  0.00536000  1.0
  O  O108  1  0.83523000  0.45728000  0.81996000  1.0
  O  O109  1  0.33523000  0.04272000  0.68004000  1.0
  O  O110  1  0.16477000  0.54272000  0.18004000  1.0
  O  O111  1  0.66477000  0.95728000  0.31997000  1.0
  O  O112  1  0.83756000  0.03594000  0.77019000  1.0
  O  O113  1  0.33756000  0.46406000  0.72981000  1.0
  O  O114  1  0.16244000  0.96405000  0.22981000  1.0
  O  O115  1  0.66245000  0.53594000  0.27019000  1.0
