# generated using pymatgen
data_Ag2H11C7N3O5
_symmetry_space_group_name_H-M   'P 1'
_cell_length_a   4.80402000
_cell_length_b   5.41722000
_cell_length_c   20.29030000
_cell_angle_alpha   90.00370000
_cell_angle_beta   90.00320000
_cell_angle_gamma   75.73900000
_symmetry_Int_Tables_number   1
_chemical_formula_structural   Ag2H11C7N3O5
_chemical_formula_sum   'Ag4 H22 C14 N6 O10'
_cell_volume   511.77117232
_cell_formula_units_Z   2
loop_
 _symmetry_equiv_pos_site_id
 _symmetry_equiv_pos_as_xyz
  1  'x, y, z'
loop_
 _atom_site_type_symbol
 _atom_site_label
 _atom_site_symmetry_multiplicity
 _atom_site_fract_x
 _atom_site_fract_y
 _atom_site_fract_z
 _atom_site_occupancy
  Ag  Ag0  1  0.20324000  0.57830000  0.85671000  1.0
  Ag  Ag1  1  0.79676000  0.42170000  0.35671000  1.0
  Ag  Ag2  1  0.52268000  0.99762000  0.86718000  1.0
  Ag  Ag3  1  0.47733000  0.00238000  0.36718000  1.0
  H  H4  1  0.92704000  0.91344000  0.65127000  1.0
  H  H5  1  0.07295000  0.08656000  0.15127000  1.0
  H  H6  1  0.25308000  0.96676000  0.68403000  1.0
  H  H7  1  0.74690000  0.03325000  0.18402000  1.0
  H  H8  1  0.01329000  0.49677000  0.70477000  1.0
  H  H9  1  0.98669000  0.50325000  0.20477000  1.0
  H  H10  1  0.56046000  0.39320000  0.52531000  1.0
  H  H11  1  0.43954000  0.60680000  0.02530000  1.0
  H  H12  1  0.57614000  0.96102000  0.57052000  1.0
  H  H13  1  0.42389000  0.03897000  0.07052000  1.0
  H  H14  1  0.27255000  0.94793000  0.52160000  1.0
  H  H15  1  0.72748000  0.05206000  0.02161000  1.0
  H  H16  1  0.54582000  0.60696000  0.75530000  1.0
  H  H17  1  0.45417000  0.39305000  0.25530000  1.0
  H  H18  1  0.46249000  0.32671000  0.75892000  1.0
  H  H19  1  0.53750000  0.67330000  0.25892000  1.0
  H  H20  1  0.00873000  0.41269000  0.59523000  1.0
  H  H21  1  0.99127000  0.58730000  0.09524000  1.0
  H  H22  1  0.71097000  0.74730000  0.46730000  1.0
  H  H23  1  0.28904000  0.25270000  0.96730000  1.0
  H  H24  1  0.82194000  0.01498000  0.46820000  1.0
  H  H25  1  0.17808000  0.98503000  0.96820000  1.0
  C  C26  1  0.91425000  0.99522000  0.75453000  1.0
  C  C27  1  0.08574000  0.00479000  0.25453000  1.0
  C  C28  1  0.07652000  0.87600000  0.69323000  1.0
  C  C29  1  0.92347000  0.12400000  0.19323000  1.0
  C  C30  1  0.19327000  0.58658000  0.70004000  1.0
  C  C31  1  0.80671000  0.41343000  0.20004000  1.0
  C  C32  1  0.36728000  0.48706000  0.63802000  1.0
  C  C33  1  0.63271000  0.51295000  0.13802000  1.0
  C  C34  1  0.36749000  0.31989000  0.52684000  1.0
  C  C35  1  0.63253000  0.68010000  0.02684000  1.0
  C  C36  1  0.46007000  0.02904000  0.52451000  1.0
  C  C37  1  0.53995000  0.97095000  0.02451000  1.0
  C  C38  1  0.18194000  0.43446000  0.46755000  1.0
  C  C39  1  0.81808000  0.56553000  0.96755000  1.0
  N  N40  1  0.37836000  0.51978000  0.75844000  1.0
  N  N41  1  0.62163000  0.48023000  0.25843000  1.0
  N  N42  1  0.22137000  0.41024000  0.58836000  1.0
  N  N43  1  0.77863000  0.58975000  0.08836000  1.0
  N  N44  1  0.64409000  0.94178000  0.46673000  1.0
  N  N45  1  0.35593000  0.05822000  0.96673000  1.0
  O  O46  1  0.99507000  0.16270000  0.78595000  1.0
  O  O47  1  0.00491000  0.83732000  0.28594000  1.0
  O  O48  1  0.69016000  0.91143000  0.76932000  1.0
  O  O49  1  0.30984000  0.08856000  0.26932000  1.0
  O  O50  1  0.62828000  0.48253000  0.63440000  1.0
  O  O51  1  0.37170000  0.51749000  0.13439000  1.0
  O  O52  1  0.24726000  0.60683000  0.43503000  1.0
  O  O53  1  0.75278000  0.39313000  0.93503000  1.0
  O  O54  1  0.96129000  0.34214000  0.45625000  1.0
  O  O55  1  0.03872000  0.65786000  0.95625000  1.0
