# generated using pymatgen
data_NdP2H17C16O11
_symmetry_space_group_name_H-M   'P 1'
_cell_length_a   5.63665000
_cell_length_b   9.45999000
_cell_length_c   18.27663689
_cell_angle_alpha   75.24743869
_cell_angle_beta   84.93715986
_cell_angle_gamma   83.94900000
_symmetry_Int_Tables_number   1
_chemical_formula_structural   NdP2H17C16O11
_chemical_formula_sum   'Nd2 P4 H34 C32 O22'
_cell_volume   935.26863452
_cell_formula_units_Z   2
loop_
 _symmetry_equiv_pos_site_id
 _symmetry_equiv_pos_as_xyz
  1  'x, y, z'
loop_
 _atom_site_type_symbol
 _atom_site_label
 _atom_site_symmetry_multiplicity
 _atom_site_fract_x
 _atom_site_fract_y
 _atom_site_fract_z
 _atom_site_occupancy
  Nd  Nd0  1  0.12294000  0.19949000  0.99716000  1.0
  Nd  Nd1  1  0.87704000  0.80050000  0.00285000  1.0
  P  P2  1  0.38410000  0.00715000  0.89119000  1.0
  P  P3  1  0.61590000  0.99286000  0.10881000  1.0
  P  P4  1  0.26027000  0.57593000  0.89066000  1.0
  P  P5  1  0.73974000  0.42408000  0.10934000  1.0
  H  H6  1  0.59676000  0.17476000  0.67971000  1.0
  H  H7  1  0.40323000  0.82524000  0.32029000  1.0
  H  H8  1  0.47830000  0.40664000  0.58844000  1.0
  H  H9  1  0.52171000  0.59335000  0.41156000  1.0
  H  H10  1  0.77547000  0.41389000  0.70063000  1.0
  H  H11  1  0.22452000  0.58612000  0.29936000  1.0
  H  H12  1  0.89140000  0.17848000  0.79249000  1.0
  H  H13  1  0.10860000  0.82152000  0.20751000  1.0
  H  H14  1  0.49792000  0.96813000  0.76999000  1.0
  H  H15  1  0.50209000  0.03188000  0.23000000  1.0
  H  H16  1  0.19740000  0.93392000  0.79827000  1.0
  H  H17  1  0.80262000  0.06608000  0.20173000  1.0
  H  H18  1  0.52702000  0.66402000  0.68414000  1.0
  H  H19  1  0.47298000  0.33598000  0.31585000  1.0
  H  H20  1  0.47001000  0.89635000  0.58493000  1.0
  H  H21  1  0.52997000  0.10366000  0.41507000  1.0
  H  H22  1  0.74953000  0.96578000  0.67401000  1.0
  H  H23  1  0.25046000  0.03423000  0.32599000  1.0
  H  H24  1  0.80561000  0.73486000  0.77609000  1.0
  H  H25  1  0.19439000  0.26514000  0.22391000  1.0
  H  H26  1  0.34781000  0.46996000  0.78531000  1.0
  H  H27  1  0.65219000  0.53004000  0.21469000  1.0
  H  H28  1  0.03837000  0.48869000  0.81047000  1.0
  H  H29  1  0.96164000  0.51131000  0.18953000  1.0
  H  H30  1  0.17084000  0.69807000  0.48850000  1.0
  H  H31  1  0.82915000  0.30192000  0.51150000  1.0
  H  H32  1  0.54294000  0.71930000  0.89291000  1.0
  H  H33  1  0.45708000  0.28070000  0.10709000  1.0
  H  H34  1  0.19742000  0.22236000  0.47693000  1.0
  H  H35  1  0.80257000  0.77763000  0.52308000  1.0
  H  H36  1  0.71428000  0.41362000  0.91553000  1.0
  H  H37  1  0.28573000  0.58638000  0.08447000  1.0
  H  H38  1  0.66798000  0.25525000  0.90746000  1.0
  H  H39  1  0.33203000  0.74475000  0.09254000  1.0
  C  C40  1  0.25326000  0.15961000  0.74285000  1.0
  C  C41  1  0.74673000  0.84039000  0.25715000  1.0
  C  C42  1  0.41662000  0.22660000  0.68550000  1.0
  C  C43  1  0.58337000  0.77340000  0.31450000  1.0
  C  C44  1  0.35115000  0.35689000  0.63356000  1.0
  C  C45  1  0.64884000  0.64312000  0.36643000  1.0
  C  C46  1  0.11907000  0.42483000  0.63861000  1.0
  C  C47  1  0.88094000  0.57517000  0.36139000  1.0
  C  C48  1  0.95568000  0.36067000  0.69692000  1.0
  C  C49  1  0.04431000  0.63932000  0.30308000  1.0
  C  C50  1  0.02165000  0.22885000  0.74832000  1.0
  C  C51  1  0.97834000  0.77115000  0.25168000  1.0
  C  C52  1  0.33033000  0.01354000  0.79380000  1.0
  C  C53  1  0.66968000  0.98647000  0.20620000  1.0
  C  C54  1  0.05137000  0.56180000  0.58139000  1.0
  C  C55  1  0.94863000  0.43819000  0.41861000  1.0
  C  C56  1  0.17147000  0.68502000  0.73815000  1.0
  C  C57  1  0.82853000  0.31498000  0.26185000  1.0
  C  C58  1  0.35720000  0.73101000  0.68376000  1.0
  C  C59  1  0.64281000  0.26900000  0.31624000  1.0
  C  C60  1  0.32640000  0.86108000  0.62744000  1.0
  C  C61  1  0.67359000  0.13893000  0.37256000  1.0
  C  C62  1  0.10777000  0.94690000  0.62482000  1.0
  C  C63  1  0.89222000  0.05309000  0.37519000  1.0
  C  C64  1  0.92040000  0.90005000  0.67846000  1.0
  C  C65  1  0.07960000  0.09996000  0.32154000  1.0
  C  C66  1  0.95196000  0.77121000  0.73470000  1.0
  C  C67  1  0.04805000  0.22879000  0.26530000  1.0
  C  C68  1  0.20180000  0.54668000  0.79983000  1.0
  C  C69  1  0.79821000  0.45332000  0.20017000  1.0
  C  C70  1  0.06576000  0.08650000  0.56707000  1.0
  C  C71  1  0.93423000  0.91350000  0.43293000  1.0
  O  O72  1  0.46207000  0.15160000  0.90136000  1.0
  O  O73  1  0.53794000  0.84841000  0.09864000  1.0
  O  O74  1  0.14220000  0.98689000  0.93971000  1.0
  O  O75  1  0.85780000  0.01312000  0.06029000  1.0
  O  O76  1  0.57069000  0.87478000  0.91578000  1.0
  O  O77  1  0.42930000  0.12521000  0.08423000  1.0
  O  O78  1  0.21809000  0.59818000  0.52636000  1.0
  O  O79  1  0.78192000  0.40181000  0.47365000  1.0
  O  O80  1  0.85411000  0.63479000  0.58522000  1.0
  O  O81  1  0.14590000  0.36521000  0.41478000  1.0
  O  O82  1  0.26011000  0.42866000  0.94865000  1.0
  O  O83  1  0.73991000  0.57134000  0.05135000  1.0
  O  O84  1  0.52887000  0.62325000  0.87958000  1.0
  O  O85  1  0.47114000  0.37675000  0.12042000  1.0
  O  O86  1  0.08928000  0.69865000  0.90951000  1.0
  O  O87  1  0.91072000  0.30135000  0.09049000  1.0
  O  O88  1  0.24180000  0.12309000  0.51523000  1.0
  O  O89  1  0.75819000  0.87691000  0.48477000  1.0
  O  O90  1  0.87135000  0.16310000  0.56889000  1.0
  O  O91  1  0.12863000  0.83690000  0.43110000  1.0
  O  O92  1  0.79427000  0.31637000  0.91556000  1.0
  O  O93  1  0.20574000  0.68363000  0.08444000  1.0
