# generated using pymatgen
data_CdH24C24N2O11
_symmetry_space_group_name_H-M   'P 1'
_cell_length_a   10.52670000
_cell_length_b   11.25710000
_cell_length_c   11.34550000
_cell_angle_alpha   70.58150000
_cell_angle_beta   73.80570000
_cell_angle_gamma   81.92030000
_symmetry_Int_Tables_number   1
_chemical_formula_structural   CdH24C24N2O11
_chemical_formula_sum   'Cd2 H48 C48 N4 O22'
_cell_volume   1215.95489612
_cell_formula_units_Z   2
loop_
 _symmetry_equiv_pos_site_id
 _symmetry_equiv_pos_as_xyz
  1  'x, y, z'
loop_
 _atom_site_type_symbol
 _atom_site_label
 _atom_site_symmetry_multiplicity
 _atom_site_fract_x
 _atom_site_fract_y
 _atom_site_fract_z
 _atom_site_occupancy
  Cd  Cd0  1  0.45621000  0.71043000  0.58880000  1.0
  Cd  Cd1  1  0.54380000  0.28957000  0.41120000  1.0
  H  H2  1  0.89128000  0.68783000  0.43166000  1.0
  H  H3  1  0.10873000  0.31216000  0.56834000  1.0
  H  H4  1  0.59813000  0.14584000  0.00453000  1.0
  H  H5  1  0.40187000  0.85416000  0.99547000  1.0
  H  H6  1  0.80953000  0.14512000  0.61984000  1.0
  H  H7  1  0.19048000  0.85488000  0.38016000  1.0
  H  H8  1  0.78220000  0.79828000  0.94074000  1.0
  H  H9  1  0.21779000  0.20173000  0.05926000  1.0
  H  H10  1  0.48192000  0.01143000  0.16322000  1.0
  H  H11  1  0.51807000  0.98857000  0.83678000  1.0
  H  H12  1  0.62793000  0.04122000  0.19617000  1.0
  H  H13  1  0.37207000  0.95878000  0.80383000  1.0
  H  H14  1  0.58950000  0.35089000  0.91509000  1.0
  H  H15  1  0.41050000  0.64911000  0.08491000  1.0
  H  H16  1  0.47901000  0.28264000  0.86418000  1.0
  H  H17  1  0.52099000  0.71737000  0.13581000  1.0
  H  H18  1  0.82619000  0.72424000  0.78542000  1.0
  H  H19  1  0.17381000  0.27576000  0.21458000  1.0
  H  H20  1  0.99441000  0.76326000  0.75821000  1.0
  H  H21  1  0.00558000  0.23673000  0.24179000  1.0
  H  H22  1  0.29556000  0.66981000  0.87207000  1.0
  H  H23  1  0.70443000  0.33018000  0.12794000  1.0
  H  H24  1  0.13610000  0.77807000  0.01699000  1.0
  H  H25  1  0.86389000  0.22193000  0.98301000  1.0
  H  H26  1  0.08536000  0.07750000  0.67381000  1.0
  H  H27  1  0.91464000  0.92250000  0.32618000  1.0
  H  H28  1  0.24745000  0.95724000  0.54503000  1.0
  H  H29  1  0.75255000  0.04275000  0.45497000  1.0
  H  H30  1  0.95488000  0.09304000  0.88228000  1.0
  H  H31  1  0.04512000  0.90696000  0.11771000  1.0
  H  H32  1  0.69137000  0.79087000  0.60920000  1.0
  H  H33  1  0.30863000  0.20913000  0.39081000  1.0
  H  H34  1  0.57883000  0.89962000  0.62762000  1.0
  H  H35  1  0.42117000  0.10038000  0.37238000  1.0
  H  H36  1  0.22110000  0.63541000  0.55474000  1.0
  H  H37  1  0.77890000  0.36458000  0.44526000  1.0
  H  H38  1  0.34271000  0.56825000  0.47400000  1.0
  H  H39  1  0.65729000  0.43175000  0.52600000  1.0
  H  H40  1  0.88706000  0.38458000  0.62877000  1.0
  H  H41  1  0.11294000  0.61542000  0.37123000  1.0
  H  H42  1  0.80976000  0.47152000  0.81656000  1.0
  H  H43  1  0.19025000  0.52849000  0.18344000  1.0
  H  H44  1  0.21620000  0.41342000  0.85256000  1.0
  H  H45  1  0.78380000  0.58658000  0.14745000  1.0
  H  H46  1  0.27277000  0.32301000  0.67142000  1.0
  H  H47  1  0.72723000  0.67699000  0.32858000  1.0
  H  H48  1  0.85469000  0.51813000  0.99084000  1.0
  H  H49  1  0.14532000  0.48187000  0.00916000  1.0
  C  C50  1  0.68730000  0.96570000  0.98543000  1.0
  C  C51  1  0.31269000  0.03430000  0.01457000  1.0
  C  C52  1  0.65616000  0.09505000  0.93970000  1.0
  C  C53  1  0.34384000  0.90495000  0.06030000  1.0
  C  C54  1  0.70144000  0.15844000  0.80764000  1.0
  C  C55  1  0.29856000  0.84157000  0.19236000  1.0
  C  C56  1  0.77641000  0.09527000  0.72233000  1.0
  C  C57  1  0.22359000  0.90474000  0.27767000  1.0
  C  C58  1  0.80251000  0.96485000  0.76980000  1.0
  C  C59  1  0.19749000  0.03515000  0.23020000  1.0
  C  C60  1  0.76001000  0.89875000  0.90122000  1.0
  C  C61  1  0.23999000  0.10125000  0.09878000  1.0
  C  C62  1  0.57079000  0.96640000  0.19664000  1.0
  C  C63  1  0.42920000  0.03360000  0.80336000  1.0
  C  C64  1  0.52488000  0.88398000  0.33499000  1.0
  C  C65  1  0.47512000  0.11602000  0.66501000  1.0
  C  C66  1  0.56518000  0.34138000  0.83011000  1.0
  C  C67  1  0.43482000  0.65863000  0.16989000  1.0
  C  C68  1  0.52605000  0.47209000  0.75001000  1.0
  C  C69  1  0.47396000  0.52792000  0.24999000  1.0
  C  C70  1  0.90932000  0.77939000  0.71541000  1.0
  C  C71  1  0.09068000  0.22061000  0.28459000  1.0
  C  C72  1  0.94466000  0.73665000  0.59472000  1.0
  C  C73  1  0.05534000  0.26335000  0.40529000  1.0
  C  C74  1  0.24551000  0.76039000  0.83361000  1.0
  C  C75  1  0.75448000  0.23961000  0.16639000  1.0
  C  C76  1  0.15730000  0.82183000  0.91302000  1.0
  C  C77  1  0.84269000  0.17816000  0.08698000  1.0
  C  C78  1  0.09771000  0.94003000  0.85859000  1.0
  C  C79  1  0.90229000  0.05997000  0.14140000  1.0
  C  C80  1  0.12938000  0.98778000  0.72315000  1.0
  C  C81  1  0.87062000  0.01221000  0.27684000  1.0
  C  C82  1  0.21932000  0.92073000  0.64994000  1.0
  C  C83  1  0.78068000  0.07926000  0.35005000  1.0
  C  C84  1  0.00882000  0.01254000  0.93582000  1.0
  C  C85  1  0.99118000  0.98746000  0.06417000  1.0
  C  C86  1  0.95301000  0.39317000  0.68393000  1.0
  C  C87  1  0.04700000  0.60683000  0.31607000  1.0
  C  C88  1  0.91304000  0.43975000  0.78763000  1.0
  C  C89  1  0.08696000  0.56025000  0.21237000  1.0
  C  C90  1  0.00565000  0.44674000  0.85397000  1.0
  C  C91  1  0.99435000  0.55326000  0.14603000  1.0
  C  C92  1  0.13778000  0.40640000  0.81001000  1.0
  C  C93  1  0.86222000  0.59360000  0.18999000  1.0
  C  C94  1  0.17243000  0.35916000  0.70672000  1.0
  C  C95  1  0.82757000  0.64084000  0.29328000  1.0
  C  C96  1  0.96080000  0.49356000  0.96462000  1.0
  C  C97  1  0.03920000  0.50645000  0.03538000  1.0
  N  N98  1  0.27778000  0.80908000  0.70382000  1.0
  N  N99  1  0.72221000  0.19092000  0.29618000  1.0
  N  N100  1  0.08022000  0.35295000  0.64737000  1.0
  N  N101  1  0.91978000  0.64705000  0.35263000  1.0
  O  O102  1  0.64944000  0.89724000  0.11341000  1.0
  O  O103  1  0.35055000  0.10276000  0.88659000  1.0
  O  O104  1  0.67441000  0.28503000  0.75572000  1.0
  O  O105  1  0.32560000  0.71498000  0.24427000  1.0
  O  O106  1  0.86996000  0.91048000  0.67706000  1.0
  O  O107  1  0.13004000  0.08952000  0.32295000  1.0
  O  O108  1  0.55789000  0.76679000  0.36810000  1.0
  O  O109  1  0.44211000  0.23321000  0.63189000  1.0
  O  O110  1  0.45317000  0.94036000  0.41218000  1.0
  O  O111  1  0.54683000  0.05964000  0.58783000  1.0
  O  O112  1  0.42749000  0.52768000  0.80670000  1.0
  O  O113  1  0.57251000  0.47232000  0.19330000  1.0
  O  O114  1  0.59218000  0.51889000  0.63361000  1.0
  O  O115  1  0.40783000  0.48111000  0.36638000  1.0
  O  O116  1  0.05751000  0.68755000  0.55970000  1.0
  O  O117  1  0.94250000  0.31245000  0.44031000  1.0
  O  O118  1  0.85109000  0.75196000  0.53766000  1.0
  O  O119  1  0.14891000  0.24804000  0.46235000  1.0
  O  O120  1  0.59686000  0.80600000  0.65248000  1.0
  O  O121  1  0.40314000  0.19400000  0.34753000  1.0
  O  O122  1  0.31173000  0.59688000  0.55192000  1.0
  O  O123  1  0.68827000  0.40312000  0.44808000  1.0
