# generated using pymatgen
data_Ho2Cd3H36(C2O3)12
_symmetry_space_group_name_H-M   'P 1'
_cell_length_a   18.47360000
_cell_length_b   18.47360000
_cell_length_c   18.47360000
_cell_angle_alpha   60.00000000
_cell_angle_beta   60.00000000
_cell_angle_gamma   60.00000000
_symmetry_Int_Tables_number   1
_chemical_formula_structural   Ho2Cd3H36(C2O3)12
_chemical_formula_sum   'Ho8 Cd12 H144 C96 O144'
_cell_volume   4457.99533438
_cell_formula_units_Z   4
loop_
 _symmetry_equiv_pos_site_id
 _symmetry_equiv_pos_as_xyz
  1  'x, y, z'
loop_
 _atom_site_type_symbol
 _atom_site_label
 _atom_site_symmetry_multiplicity
 _atom_site_fract_x
 _atom_site_fract_y
 _atom_site_fract_z
 _atom_site_occupancy
  Ho  Ho0  1  0.25000000  0.75000000  0.25000000  1.0
  Ho  Ho1  1  0.75000000  0.75000000  0.75000000  1.0
  Ho  Ho2  1  0.75000000  0.75000000  0.25000000  1.0
  Ho  Ho3  1  0.75000000  0.25000000  0.25000000  1.0
  Ho  Ho4  1  0.75000000  0.25000000  0.75000000  1.0
  Ho  Ho5  1  0.25001000  0.24999000  0.25000000  1.0
  Ho  Ho6  1  0.25000000  0.25000000  0.75000000  1.0
  Ho  Ho7  1  0.25000000  0.75000000  0.75000000  1.0
  Cd  Cd8  1  0.50000000  0.50000000  0.50000000  1.0
  Cd  Cd9  1  0.00000000  0.00000000  0.50000000  1.0
  Cd  Cd10  1  0.50000000  0.00000000  1.00000000  1.0
  Cd  Cd11  1  0.50000000  0.00000000  0.50000000  1.0
  Cd  Cd12  1  0.50000000  0.50000000  0.00000000  1.0
  Cd  Cd13  1  0.00000000  0.50000000  0.50000000  1.0
  Cd  Cd14  1  0.00000000  0.50000000  1.00000000  1.0
  Cd  Cd15  1  0.00000000  0.00000000  0.00000000  1.0
  Cd  Cd16  1  0.87500000  0.87500000  0.37500000  1.0
  Cd  Cd17  1  0.62500000  0.62500000  0.12500000  1.0
  Cd  Cd18  1  0.12500000  0.12500000  0.62500000  1.0
  Cd  Cd19  1  0.37500000  0.37500000  0.87500000  1.0
  H  H20  1  0.27867000  0.65206000  0.49520000  1.0
  H  H21  1  0.84794000  0.92593000  0.72133000  1.0
  H  H22  1  0.57406000  0.99521000  0.15206000  1.0
  H  H23  1  0.50480000  0.22133000  0.42593000  1.0
  H  H24  1  0.65206000  0.27867000  0.07407000  1.0
  H  H25  1  0.22133000  0.50480000  0.34794000  1.0
  H  H26  1  0.99520000  0.57407000  0.77867000  1.0
  H  H27  1  0.92594000  0.84794000  0.00479000  1.0
  H  H28  1  0.57406000  0.27867000  0.49521000  1.0
  H  H29  1  0.22134000  0.84794000  0.42593000  1.0
  H  H30  1  0.65206000  0.99521000  0.77867000  1.0
  H  H31  1  0.50479000  0.92594000  0.34794000  1.0
  H  H32  1  0.27866000  0.57407000  0.15206000  1.0
  H  H33  1  0.92593000  0.50480000  0.72133000  1.0
  H  H34  1  0.99520000  0.65206000  0.07407000  1.0
  H  H35  1  0.84794000  0.22133000  0.00480000  1.0
  H  H36  1  0.65206000  0.57407000  0.49520000  1.0
  H  H37  1  0.22134000  0.92593000  0.00479000  1.0
  H  H38  1  0.92594000  0.22133000  0.34794000  1.0
  H  H39  1  0.84794000  0.50480000  0.42593000  1.0
  H  H40  1  0.50479000  0.84794000  0.72133000  1.0
  H  H41  1  0.57407000  0.65206000  0.77867000  1.0
  H  H42  1  0.27867000  0.99520000  0.07407000  1.0
  H  H43  1  0.99520000  0.27867000  0.15206000  1.0
  H  H44  1  0.72133000  0.34794000  0.50480000  1.0
  H  H45  1  0.15206000  0.07407000  0.27867000  1.0
  H  H46  1  0.42594000  0.00479000  0.84794000  1.0
  H  H47  1  0.49520000  0.77867000  0.57407000  1.0
  H  H48  1  0.34794000  0.72133000  0.92593000  1.0
  H  H49  1  0.77867000  0.49520000  0.65206000  1.0
  H  H50  1  0.00480000  0.42593000  0.22133000  1.0
  H  H51  1  0.07406000  0.15206000  0.99521000  1.0
  H  H52  1  0.42594000  0.72133000  0.50479000  1.0
  H  H53  1  0.77867000  0.15206000  0.57407000  1.0
  H  H54  1  0.34794000  0.00480000  0.22133000  1.0
  H  H55  1  0.49520000  0.07407000  0.65206000  1.0
  H  H56  1  0.72134000  0.42593000  0.84794000  1.0
  H  H57  1  0.07406000  0.49521000  0.27867000  1.0
  H  H58  1  0.00480000  0.34794000  0.92593000  1.0
  H  H59  1  0.15206000  0.77867000  0.99520000  1.0
  H  H60  1  0.34794000  0.42593000  0.50480000  1.0
  H  H61  1  0.77867000  0.07406000  0.99521000  1.0
  H  H62  1  0.07406000  0.77867000  0.65206000  1.0
  H  H63  1  0.15206000  0.49520000  0.57407000  1.0
  H  H64  1  0.49520000  0.15206000  0.27867000  1.0
  H  H65  1  0.42594000  0.34794000  0.22133000  1.0
  H  H66  1  0.72133000  0.00480000  0.92593000  1.0
  H  H67  1  0.00479000  0.72133000  0.84794000  1.0
  H  H68  1  0.35704000  0.70890000  0.41940000  1.0
  H  H69  1  0.79110000  0.98535000  0.64296000  1.0
  H  H70  1  0.51465000  0.91941000  0.20890000  1.0
  H  H71  1  0.58059000  0.14296000  0.48535000  1.0
  H  H72  1  0.70890000  0.35704000  0.01466000  1.0
  H  H73  1  0.14297000  0.58059000  0.29110000  1.0
  H  H74  1  0.91940000  0.51466000  0.85704000  1.0
  H  H75  1  0.98534000  0.79110000  0.08060000  1.0
  H  H76  1  0.51466000  0.35704000  0.41940000  1.0
  H  H77  1  0.14296000  0.79110000  0.48534000  1.0
  H  H78  1  0.70890000  0.91940000  0.85704000  1.0
  H  H79  1  0.58059000  0.98535000  0.29110000  1.0
  H  H80  1  0.35703000  0.51466000  0.20890000  1.0
  H  H81  1  0.98534000  0.58060000  0.64296000  1.0
  H  H82  1  0.91940000  0.70890000  0.01466000  1.0
  H  H83  1  0.79110000  0.14296000  0.08060000  1.0
  H  H84  1  0.70890000  0.51466000  0.41940000  1.0
  H  H85  1  0.14296000  0.98534000  0.08060000  1.0
  H  H86  1  0.98535000  0.14296000  0.29110000  1.0
  H  H87  1  0.79110000  0.58060000  0.48534000  1.0
  H  H88  1  0.58060000  0.79110000  0.64296000  1.0
  H  H89  1  0.51466000  0.70890000  0.85704000  1.0
  H  H90  1  0.35703000  0.91941000  0.01466000  1.0
  H  H91  1  0.91941000  0.35704000  0.20890000  1.0
  H  H92  1  0.64296000  0.29110000  0.58060000  1.0
  H  H93  1  0.20890000  0.01466000  0.35704000  1.0
  H  H94  1  0.48535000  0.08059000  0.79110000  1.0
  H  H95  1  0.41940000  0.85704000  0.51466000  1.0
  H  H96  1  0.29111000  0.64296000  0.98534000  1.0
  H  H97  1  0.85704000  0.41940000  0.70890000  1.0
  H  H98  1  0.08060000  0.48534000  0.14296000  1.0
  H  H99  1  0.01466000  0.20890000  0.91940000  1.0
  H  H100  1  0.48534000  0.64296000  0.58060000  1.0
  H  H101  1  0.85704000  0.20890000  0.51466000  1.0
  H  H102  1  0.29110000  0.08060000  0.14296000  1.0
  H  H103  1  0.41940000  0.01466000  0.70890000  1.0
  H  H104  1  0.64297000  0.48534000  0.79110000  1.0
  H  H105  1  0.01465000  0.41941000  0.35704000  1.0
  H  H106  1  0.08059000  0.29110000  0.98535000  1.0
  H  H107  1  0.20890000  0.85704000  0.91940000  1.0
  H  H108  1  0.29111000  0.48534000  0.58059000  1.0
  H  H109  1  0.85704000  0.01466000  0.91940000  1.0
  H  H110  1  0.01465000  0.85704000  0.70890000  1.0
  H  H111  1  0.20890000  0.41940000  0.51466000  1.0
  H  H112  1  0.41941000  0.20890000  0.35704000  1.0
  H  H113  1  0.48534000  0.29110000  0.14296000  1.0
  H  H114  1  0.64296000  0.08059000  0.98535000  1.0
  H  H115  1  0.08059000  0.64296000  0.79110000  1.0
  H  H116  1  0.94462000  0.02468000  0.24742000  1.0
  H  H117  1  0.47532000  0.71672000  0.05538000  1.0
  H  H118  1  0.78329000  0.74742000  0.52467000  1.0
  H  H119  1  0.75257000  0.55539000  0.21672000  1.0
  H  H120  1  0.02468000  0.94462000  0.28328000  1.0
  H  H121  1  0.55538000  0.75258000  0.97532000  1.0
  H  H122  1  0.74742000  0.78328000  0.44462000  1.0
  H  H123  1  0.71671000  0.47533000  0.25258000  1.0
  H  H124  1  0.78328000  0.94462000  0.24742000  1.0
  H  H125  1  0.55538000  0.47532000  0.21672000  1.0
  H  H126  1  0.02468000  0.74742000  0.44462000  1.0
  H  H127  1  0.75258000  0.71672000  0.97532000  1.0
  H  H128  1  0.94463000  0.78328000  0.52467000  1.0
  H  H129  1  0.71672000  0.75258000  0.05538000  1.0
  H  H130  1  0.74743000  0.02467000  0.28328000  1.0
  H  H131  1  0.47532000  0.55538000  0.25258000  1.0
  H  H132  1  0.02468000  0.78328000  0.24742000  1.0
  H  H133  1  0.55538000  0.71672000  0.25258000  1.0
  H  H134  1  0.71672000  0.55538000  0.97532000  1.0
  H  H135  1  0.47532000  0.75258000  0.21672000  1.0
  H  H136  1  0.75258000  0.47532000  0.05538000  1.0
  H  H137  1  0.78328000  0.02468000  0.44462000  1.0
  H  H138  1  0.94462000  0.74742000  0.28328000  1.0
  H  H139  1  0.74742000  0.94462000  0.52468000  1.0
  H  H140  1  0.05538000  0.97532000  0.75258000  1.0
  H  H141  1  0.52469000  0.28328000  0.94461000  1.0
  H  H142  1  0.21672000  0.25258000  0.47532000  1.0
  H  H143  1  0.24743000  0.44461000  0.78328000  1.0
  H  H144  1  0.97532000  0.05538000  0.71672000  1.0
  H  H145  1  0.44463000  0.24742000  0.02467000  1.0
  H  H146  1  0.25258000  0.21672000  0.55538000  1.0
  H  H147  1  0.28328000  0.52467000  0.74742000  1.0
  H  H148  1  0.21672000  0.05538000  0.75258000  1.0
  H  H149  1  0.44462000  0.52467000  0.78328000  1.0
  H  H150  1  0.97531000  0.25258000  0.55539000  1.0
  H  H151  1  0.24743000  0.28328000  0.02468000  1.0
  H  H152  1  0.05537000  0.21672000  0.47533000  1.0
  H  H153  1  0.28329000  0.24742000  0.94462000  1.0
  H  H154  1  0.25257000  0.97533000  0.71672000  1.0
  H  H155  1  0.52468000  0.44462000  0.74742000  1.0
  H  H156  1  0.97532000  0.21672000  0.75258000  1.0
  H  H157  1  0.44462000  0.28328000  0.74742000  1.0
  H  H158  1  0.28329000  0.44462000  0.02467000  1.0
  H  H159  1  0.52468000  0.24742000  0.78328000  1.0
  H  H160  1  0.24742000  0.52468000  0.94462000  1.0
  H  H161  1  0.21672000  0.97532000  0.55538000  1.0
  H  H162  1  0.05538000  0.25258000  0.71672000  1.0
  H  H163  1  0.25258000  0.05538000  0.47532000  1.0
  C  C164  1  0.36852000  0.61107000  0.37982000  1.0
  C  C165  1  0.88894000  0.85942000  0.63147000  1.0
  C  C166  1  0.64059000  0.87982000  0.11107000  1.0
  C  C167  1  0.62018000  0.13148000  0.35941000  1.0
  C  C168  1  0.61107000  0.36852000  0.14059000  1.0
  C  C169  1  0.13149000  0.62018000  0.38892000  1.0
  C  C170  1  0.87982000  0.64059000  0.86852000  1.0
  C  C171  1  0.85941000  0.88893000  0.12018000  1.0
  C  C172  1  0.64059000  0.36852000  0.37982000  1.0
  C  C173  1  0.13148000  0.88893000  0.35941000  1.0
  C  C174  1  0.61107000  0.87982000  0.86852000  1.0
  C  C175  1  0.62017000  0.85942000  0.38893000  1.0
  C  C176  1  0.36852000  0.64059000  0.11107000  1.0
  C  C177  1  0.85941000  0.62018000  0.63148000  1.0
  C  C178  1  0.87982000  0.61107000  0.14059000  1.0
  C  C179  1  0.88893000  0.13148000  0.12018000  1.0
  C  C180  1  0.61107000  0.64059000  0.37982000  1.0
  C  C181  1  0.13149000  0.85941000  0.12017000  1.0
  C  C182  1  0.85941000  0.13148000  0.38893000  1.0
  C  C183  1  0.88893000  0.62018000  0.35941000  1.0
  C  C184  1  0.62018000  0.88893000  0.63148000  1.0
  C  C185  1  0.64059000  0.61107000  0.86852000  1.0
  C  C186  1  0.36852000  0.87982000  0.14059000  1.0
  C  C187  1  0.87981000  0.36852000  0.11108000  1.0
  C  C188  1  0.63148000  0.38893000  0.62018000  1.0
  C  C189  1  0.11108000  0.14058000  0.36852000  1.0
  C  C190  1  0.35941000  0.12017000  0.88894000  1.0
  C  C191  1  0.37981000  0.86852000  0.64059000  1.0
  C  C192  1  0.38893000  0.63148000  0.85941000  1.0
  C  C193  1  0.86851000  0.37982000  0.61108000  1.0
  C  C194  1  0.12018000  0.35941000  0.13148000  1.0
  C  C195  1  0.14058000  0.11106000  0.87983000  1.0
  C  C196  1  0.35941000  0.63148000  0.62018000  1.0
  C  C197  1  0.86852000  0.11107000  0.64059000  1.0
  C  C198  1  0.38893000  0.12018000  0.13148000  1.0
  C  C199  1  0.37983000  0.14058000  0.61107000  1.0
  C  C200  1  0.63148000  0.35941000  0.88893000  1.0
  C  C201  1  0.14058000  0.37982000  0.36853000  1.0
  C  C202  1  0.12018000  0.38893000  0.85941000  1.0
  C  C203  1  0.11107000  0.86852000  0.87982000  1.0
  C  C204  1  0.38894000  0.35941000  0.62017000  1.0
  C  C205  1  0.86852000  0.14059000  0.87982000  1.0
  C  C206  1  0.14059000  0.86852000  0.61107000  1.0
  C  C207  1  0.11107000  0.37982000  0.64059000  1.0
  C  C208  1  0.37982000  0.11107000  0.36852000  1.0
  C  C209  1  0.35941000  0.38893000  0.13148000  1.0
  C  C210  1  0.63149000  0.12018000  0.85941000  1.0
  C  C211  1  0.12019000  0.63148000  0.88892000  1.0
  C  C212  1  0.31254000  0.68197000  0.42436000  1.0
  C  C213  1  0.81802000  0.91888000  0.68746000  1.0
  C  C214  1  0.58113000  0.92436000  0.18197000  1.0
  C  C215  1  0.57564000  0.18746000  0.41888000  1.0
  C  C216  1  0.68197000  0.31254000  0.08113000  1.0
  C  C217  1  0.18747000  0.57564000  0.31802000  1.0
  C  C218  1  0.92436000  0.58113000  0.81254000  1.0
  C  C219  1  0.91887000  0.81803000  0.07564000  1.0
  C  C220  1  0.58113000  0.31254000  0.42436000  1.0
  C  C221  1  0.18746000  0.81803000  0.41887000  1.0
  C  C222  1  0.68197000  0.92436000  0.81254000  1.0
  C  C223  1  0.57564000  0.91887000  0.31803000  1.0
  C  C224  1  0.31254000  0.58113000  0.18197000  1.0
  C  C225  1  0.91887000  0.57564000  0.68746000  1.0
  C  C226  1  0.92435000  0.68198000  0.08113000  1.0
  C  C227  1  0.81804000  0.18745000  0.07564000  1.0
  C  C228  1  0.68197000  0.58113000  0.42436000  1.0
  C  C229  1  0.18746000  0.91887000  0.07564000  1.0
  C  C230  1  0.91887000  0.18746000  0.31803000  1.0
  C  C231  1  0.81803000  0.57564000  0.41887000  1.0
  C  C232  1  0.57564000  0.81803000  0.68746000  1.0
  C  C233  1  0.58112000  0.68198000  0.81254000  1.0
  C  C234  1  0.31254000  0.92436000  0.08113000  1.0
  C  C235  1  0.92436000  0.31254000  0.18198000  1.0
  C  C236  1  0.68746000  0.31803000  0.57564000  1.0
  C  C237  1  0.18198000  0.08113000  0.31254000  1.0
  C  C238  1  0.41887000  0.07564000  0.81803000  1.0
  C  C239  1  0.42436000  0.81254000  0.58112000  1.0
  C  C240  1  0.31802000  0.68746000  0.91887000  1.0
  C  C241  1  0.81253000  0.42436000  0.68198000  1.0
  C  C242  1  0.07565000  0.41887000  0.18746000  1.0
  C  C243  1  0.08113000  0.18197000  0.92436000  1.0
  C  C244  1  0.41887000  0.68746000  0.57564000  1.0
  C  C245  1  0.81254000  0.18197000  0.58113000  1.0
  C  C246  1  0.31802000  0.07565000  0.18746000  1.0
  C  C247  1  0.42435000  0.08113000  0.68198000  1.0
  C  C248  1  0.68746000  0.41887000  0.81803000  1.0
  C  C249  1  0.08113000  0.42436000  0.31254000  1.0
  C  C250  1  0.07565000  0.31802000  0.91887000  1.0
  C  C251  1  0.18197000  0.81254000  0.92436000  1.0
  C  C252  1  0.31803000  0.41887000  0.57564000  1.0
  C  C253  1  0.81254000  0.08113000  0.92436000  1.0
  C  C254  1  0.08113000  0.81254000  0.68197000  1.0
  C  C255  1  0.18197000  0.42436000  0.58113000  1.0
  C  C256  1  0.42436000  0.18198000  0.31254000  1.0
  C  C257  1  0.41887000  0.31803000  0.18746000  1.0
  C  C258  1  0.68746000  0.07564000  0.91887000  1.0
  C  C259  1  0.07563000  0.68746000  0.81803000  1.0
  O  O260  1  0.42240000  0.54043000  0.41323000  1.0
  O  O261  1  0.95956000  0.87607000  0.57760000  1.0
  O  O262  1  0.62394000  0.91323000  0.04044000  1.0
  O  O263  1  0.58678000  0.07760000  0.37606000  1.0
  O  O264  1  0.54044000  0.42240000  0.12393000  1.0
  O  O265  1  0.07761000  0.58677000  0.45956000  1.0
  O  O266  1  0.91322000  0.62394000  0.92240000  1.0
  O  O267  1  0.87606000  0.95956000  0.08677000  1.0
  O  O268  1  0.62393000  0.42240000  0.41323000  1.0
  O  O269  1  0.07761000  0.95956000  0.37606000  1.0
  O  O270  1  0.54043000  0.91323000  0.92240000  1.0
  O  O271  1  0.58677000  0.87606000  0.45956000  1.0
  O  O272  1  0.42240000  0.62394000  0.04043000  1.0
  O  O273  1  0.87607000  0.58677000  0.57760000  1.0
  O  O274  1  0.91323000  0.54044000  0.12394000  1.0
  O  O275  1  0.95957000  0.07760000  0.08677000  1.0
  O  O276  1  0.54043000  0.62394000  0.41323000  1.0
  O  O277  1  0.07761000  0.87606000  0.08677000  1.0
  O  O278  1  0.87606000  0.07760000  0.45957000  1.0
  O  O279  1  0.95956000  0.58677000  0.37607000  1.0
  O  O280  1  0.58677000  0.95957000  0.57760000  1.0
  O  O281  1  0.62393000  0.54044000  0.92240000  1.0
  O  O282  1  0.42240000  0.91323000  0.12394000  1.0
  O  O283  1  0.91322000  0.42240000  0.04044000  1.0
  O  O284  1  0.57760000  0.45957000  0.58677000  1.0
  O  O285  1  0.04044000  0.12393000  0.42240000  1.0
  O  O286  1  0.37607000  0.08677000  0.95956000  1.0
  O  O287  1  0.41322000  0.92240000  0.62394000  1.0
  O  O288  1  0.45956000  0.57761000  0.87606000  1.0
  O  O289  1  0.92240000  0.41323000  0.54044000  1.0
  O  O290  1  0.08677000  0.37606000  0.07761000  1.0
  O  O291  1  0.12394000  0.04044000  0.91323000  1.0
  O  O292  1  0.37606000  0.57760000  0.58677000  1.0
  O  O293  1  0.92239000  0.04044000  0.62394000  1.0
  O  O294  1  0.45956000  0.08677000  0.07761000  1.0
  O  O295  1  0.41323000  0.12394000  0.54044000  1.0
  O  O296  1  0.57760000  0.37606000  0.95957000  1.0
  O  O297  1  0.12394000  0.41323000  0.42240000  1.0
  O  O298  1  0.08678000  0.45956000  0.87606000  1.0
  O  O299  1  0.04043000  0.92240000  0.91323000  1.0
  O  O300  1  0.45956000  0.37606000  0.58677000  1.0
  O  O301  1  0.92239000  0.12394000  0.91323000  1.0
  O  O302  1  0.12393000  0.92240000  0.54044000  1.0
  O  O303  1  0.04043000  0.41323000  0.62394000  1.0
  O  O304  1  0.41323000  0.04044000  0.42239000  1.0
  O  O305  1  0.37607000  0.45956000  0.07760000  1.0
  O  O306  1  0.57761000  0.08677000  0.87606000  1.0
  O  O307  1  0.08676000  0.57760000  0.95957000  1.0
  O  O308  1  0.35739000  0.62646000  0.31003000  1.0
  O  O309  1  0.87353000  0.79388000  0.64262000  1.0
  O  O310  1  0.70613000  0.81003000  0.12646000  1.0
  O  O311  1  0.68996000  0.14262000  0.29388000  1.0
  O  O312  1  0.62647000  0.35738000  0.20612000  1.0
  O  O313  1  0.14262000  0.68996000  0.37354000  1.0
  O  O314  1  0.81004000  0.70612000  0.85738000  1.0
  O  O315  1  0.79388000  0.87354000  0.18996000  1.0
  O  O316  1  0.70612000  0.35738000  0.31004000  1.0
  O  O317  1  0.14262000  0.87354000  0.29388000  1.0
  O  O318  1  0.62647000  0.81003000  0.85738000  1.0
  O  O319  1  0.68997000  0.79388000  0.37353000  1.0
  O  O320  1  0.35738000  0.70612000  0.12646000  1.0
  O  O321  1  0.79387000  0.68997000  0.64262000  1.0
  O  O322  1  0.81004000  0.62646000  0.20612000  1.0
  O  O323  1  0.87353000  0.14262000  0.18997000  1.0
  O  O324  1  0.62646000  0.70613000  0.31003000  1.0
  O  O325  1  0.14261000  0.79388000  0.18997000  1.0
  O  O326  1  0.79388000  0.14262000  0.37354000  1.0
  O  O327  1  0.87353000  0.68997000  0.29388000  1.0
  O  O328  1  0.68996000  0.87354000  0.64262000  1.0
  O  O329  1  0.70611000  0.62647000  0.85738000  1.0
  O  O330  1  0.35738000  0.81004000  0.20612000  1.0
  O  O331  1  0.81003000  0.35738000  0.12647000  1.0
  O  O332  1  0.64262000  0.37354000  0.68996000  1.0
  O  O333  1  0.12647000  0.20612000  0.35738000  1.0
  O  O334  1  0.29387000  0.18997000  0.87354000  1.0
  O  O335  1  0.31003000  0.85738000  0.70612000  1.0
  O  O336  1  0.37353000  0.64262000  0.79388000  1.0
  O  O337  1  0.85739000  0.31003000  0.62646000  1.0
  O  O338  1  0.18997000  0.29388000  0.14262000  1.0
  O  O339  1  0.20613000  0.12646000  0.81003000  1.0
  O  O340  1  0.29388000  0.64262000  0.68996000  1.0
  O  O341  1  0.85738000  0.12646000  0.70612000  1.0
  O  O342  1  0.37354000  0.18997000  0.14262000  1.0
  O  O343  1  0.31003000  0.20612000  0.62647000  1.0
  O  O344  1  0.64261000  0.29388000  0.87354000  1.0
  O  O345  1  0.20612000  0.31003000  0.35739000  1.0
  O  O346  1  0.18997000  0.37353000  0.79388000  1.0
  O  O347  1  0.12646000  0.85738000  0.81004000  1.0
  O  O348  1  0.37353000  0.29388000  0.68997000  1.0
  O  O349  1  0.85739000  0.20612000  0.81003000  1.0
  O  O350  1  0.20612000  0.85738000  0.62646000  1.0
  O  O351  1  0.12646000  0.31004000  0.70612000  1.0
  O  O352  1  0.31003000  0.12647000  0.35738000  1.0
  O  O353  1  0.29388000  0.37354000  0.14262000  1.0
  O  O354  1  0.64262000  0.18996000  0.79388000  1.0
  O  O355  1  0.18996000  0.64261000  0.87354000  1.0
  O  O356  1  0.25000000  0.75000000  0.38063000  1.0
  O  O357  1  0.75000000  0.88063000  0.75000000  1.0
  O  O358  1  0.61937000  0.88063000  0.25000000  1.0
  O  O359  1  0.61937000  0.25000000  0.38063000  1.0
  O  O360  1  0.75000000  0.25000000  0.11937000  1.0
  O  O361  1  0.25000000  0.61937000  0.25000000  1.0
  O  O362  1  0.88062000  0.61938000  0.75000000  1.0
  O  O363  1  0.88063000  0.75000000  0.11937000  1.0
  O  O364  1  0.75000000  0.61937000  0.38063000  1.0
  O  O365  1  0.25000000  0.88063000  0.11937000  1.0
  O  O366  1  0.88063000  0.25000000  0.25000000  1.0
  O  O367  1  0.61937000  0.75000000  0.75000000  1.0
  O  O368  1  0.75000000  0.25000000  0.61937000  1.0
  O  O369  1  0.25001000  0.11937000  0.25000000  1.0
  O  O370  1  0.38063000  0.11937000  0.75000000  1.0
  O  O371  1  0.38063000  0.75000000  0.61937000  1.0
  O  O372  1  0.24999000  0.75000000  0.88063000  1.0
  O  O373  1  0.75000000  0.38063000  0.75000000  1.0
  O  O374  1  0.11937000  0.38063000  0.25000000  1.0
  O  O375  1  0.11937000  0.25000000  0.88063000  1.0
  O  O376  1  0.24999000  0.38063000  0.61938000  1.0
  O  O377  1  0.74999000  0.11938000  0.88063000  1.0
  O  O378  1  0.11937000  0.75000000  0.75000000  1.0
  O  O379  1  0.38062000  0.25001000  0.25000000  1.0
  O  O380  1  0.96331000  0.96332000  0.28670000  1.0
  O  O381  1  0.53668000  0.71331000  0.03669000  1.0
  O  O382  1  0.78669000  0.78669000  0.46331000  1.0
  O  O383  1  0.71332000  0.53669000  0.21331000  1.0
  O  O384  1  0.78670000  0.96331000  0.28668000  1.0
  O  O385  1  0.53670000  0.53668000  0.21332000  1.0
  O  O386  1  0.96330000  0.78667000  0.46332000  1.0
  O  O387  1  0.71331000  0.71331000  0.03669000  1.0
  O  O388  1  0.96330000  0.78670000  0.28668000  1.0
  O  O389  1  0.53670000  0.71333000  0.21329000  1.0
  O  O390  1  0.71332000  0.53669000  0.03669000  1.0
  O  O391  1  0.78669000  0.96331000  0.46331000  1.0
  O  O392  1  0.03670000  0.03668000  0.71329000  1.0
  O  O393  1  0.46331000  0.28669000  0.96331000  1.0
  O  O394  1  0.21333000  0.21329000  0.53668000  1.0
  O  O395  1  0.28670000  0.46330000  0.78668000  1.0
  O  O396  1  0.21332000  0.03669000  0.71331000  1.0
  O  O397  1  0.46331000  0.46331000  0.78670000  1.0
  O  O398  1  0.03670000  0.21333000  0.53668000  1.0
  O  O399  1  0.28666000  0.28671000  0.96331000  1.0
  O  O400  1  0.03670000  0.21330000  0.71332000  1.0
  O  O401  1  0.46331000  0.28668000  0.78669000  1.0
  O  O402  1  0.28667000  0.46330000  0.96332000  1.0
  O  O403  1  0.21332000  0.03668000  0.53669000  1.0
