# generated using pymatgen
data_Zn4H44C57(NO5)4
_symmetry_space_group_name_H-M   'P 1'
_cell_length_a   17.86260000
_cell_length_b   19.13800000
_cell_length_c   19.25500000
_cell_angle_alpha   94.78800000
_cell_angle_beta   99.00040000
_cell_angle_gamma   103.77300000
_symmetry_Int_Tables_number   1
_chemical_formula_structural   Zn4H44C57(NO5)4
_chemical_formula_sum   'Zn4 H44 C57 N4 O20'
_cell_volume   6264.22944097
_cell_formula_units_Z   1
loop_
 _symmetry_equiv_pos_site_id
 _symmetry_equiv_pos_as_xyz
  1  'x, y, z'
loop_
 _atom_site_type_symbol
 _atom_site_label
 _atom_site_symmetry_multiplicity
 _atom_site_fract_x
 _atom_site_fract_y
 _atom_site_fract_z
 _atom_site_occupancy
  Zn  Zn0  1  0.56149000  0.44890000  0.45280000  1.0
  Zn  Zn1  1  0.43321000  0.43234000  0.55022000  1.0
  Zn  Zn2  1  0.43774000  0.54220000  0.43250000  1.0
  Zn  Zn3  1  0.56886000  0.57776000  0.57558000  1.0
  H  H4  1  0.06418000  0.59044000  0.67753000  1.0
  H  H5  1  0.57404000  0.92767000  0.62257000  1.0
  H  H6  1  0.57683000  0.79614000  0.61571000  1.0
  H  H7  1  0.41854000  0.88342000  0.42097000  1.0
  H  H8  1  0.47485000  0.08222000  0.36468000  1.0
  H  H9  1  0.41758000  0.75139000  0.41611000  1.0
  H  H10  1  0.20393000  0.36119000  0.35793000  1.0
  H  H11  1  0.92980000  0.32476000  0.36818000  1.0
  H  H12  1  0.94669000  0.61497000  0.70177000  1.0
  H  H13  1  0.80288000  0.60438000  0.66687000  1.0
  H  H14  1  0.13872000  0.53846000  0.60070000  1.0
  H  H15  1  0.56564000  0.39461000  0.10833000  1.0
  H  H16  1  0.03572000  0.20406000  0.28406000  1.0
  H  H17  1  0.12759000  0.24621000  0.33992000  1.0
  H  H18  1  0.07110000  0.28589000  0.19271000  1.0
  H  H19  1  0.16491000  0.32379000  0.24484000  1.0
  H  H20  1  0.19160000  0.19889000  0.23998000  1.0
  H  H21  1  0.17059000  0.22389000  0.15380000  1.0
  H  H22  1  0.09778000  0.16158000  0.18641000  1.0
  H  H23  1  0.46475000  0.38453000  0.71402000  1.0
  H  H24  1  0.49489000  0.40702000  0.95983000  1.0
  H  H25  1  0.53596000  0.68646000  0.89203000  1.0
  H  H26  1  0.57314000  0.40895000  0.24017000  1.0
  H  H27  1  0.38844000  0.27432000  0.36356000  1.0
  H  H28  1  0.35388000  0.19661000  0.29825000  1.0
  H  H29  1  0.48182000  0.33326000  0.29071000  1.0
  H  H30  1  0.44991000  0.25692000  0.22501000  1.0
  H  H31  1  0.31342000  0.27764000  0.20409000  1.0
  H  H32  1  0.38473000  0.35458000  0.19001000  1.0
  H  H33  1  0.34606000  0.35509000  0.26930000  1.0
  H  H34  1  0.80644000  0.43913000  0.43497000  1.0
  H  H35  1  0.83120000  0.35529000  0.54089000  1.0
  H  H36  1  0.83351000  0.27734000  0.48387000  1.0
  H  H37  1  0.52818000  0.62595000  0.78215000  1.0
  H  H38  1  0.69825000  0.35219000  0.47474000  1.0
  H  H39  1  0.69978000  0.27552000  0.41717000  1.0
  H  H40  1  0.70856000  0.20394000  0.52263000  1.0
  H  H41  1  0.62345000  0.23721000  0.51224000  1.0
  H  H42  1  0.70534000  0.28126000  0.57895000  1.0
  H  H43  1  0.45918000  0.57358000  0.09307000  1.0
  H  H44  1  0.46011000  0.58321000  0.22432000  1.0
  H  H45  1  0.45816000  0.22523000  0.58615000  1.0
  H  H46  1  0.19871000  0.50058000  0.54189000  1.0
  H  H47  1  0.46880000  0.09694000  0.58819000  1.0
  C  C48  1  0.50272000  0.50670000  0.69217000  1.0
  C  C49  1  0.91836000  0.40137000  0.44946000  1.0
  C  C50  1  0.96087000  0.36946000  0.40911000  1.0
  C  C51  1  0.51525000  0.50081000  0.31708000  1.0
  C  C52  1  0.04359000  0.39228000  0.42125000  1.0
  C  C53  1  0.08292000  0.44514000  0.48045000  1.0
  C  C54  1  0.08795000  0.35992000  0.37834000  1.0
  C  C55  1  0.16899000  0.38249000  0.39173000  1.0
  C  C56  1  0.16578000  0.46266000  0.49603000  1.0
  C  C57  1  0.51690000  0.49678000  0.23981000  1.0
  C  C58  1  0.48451000  0.54320000  0.19847000  1.0
  C  C59  1  0.83420000  0.57770000  0.63325000  1.0
  C  C60  1  0.48331000  0.53771000  0.12599000  1.0
  C  C61  1  0.51243000  0.48359000  0.09366000  1.0
  C  C62  1  0.54356000  0.43622000  0.13455000  1.0
  C  C63  1  0.47066000  0.30605000  0.48214000  1.0
  C  C64  1  0.54761000  0.44413000  0.20746000  1.0
  C  C65  1  0.49350000  0.45027000  0.87554000  1.0
  C  C66  1  0.48723000  0.44477000  0.80070000  1.0
  C  C67  1  0.50748000  0.51952000  0.91623000  1.0
  C  C68  1  0.50200000  0.50922000  0.76894000  1.0
  C  C69  1  0.51747000  0.57790000  0.80955000  1.0
  C  C70  1  0.83088000  0.50507000  0.52130000  1.0
  C  C71  1  0.51796000  0.58349000  0.88140000  1.0
  C  C72  1  0.49748000  0.76646000  0.51550000  1.0
  C  C73  1  0.45234000  0.79066000  0.46054000  1.0
  C  C74  1  0.45264000  0.86331000  0.46307000  1.0
  C  C75  1  0.49795000  0.68837000  0.51180000  1.0
  C  C76  1  0.49726000  0.91265000  0.52161000  1.0
  C  C77  1  0.54086000  0.88840000  0.57746000  1.0
  C  C78  1  0.54205000  0.81583000  0.57374000  1.0
  C  C79  1  0.46876000  0.12247000  0.53976000  1.0
  C  C80  1  0.46244000  0.19309000  0.53816000  1.0
  C  C81  1  0.91056000  0.50151000  0.54405000  1.0
  C  C82  1  0.47497000  0.08304000  0.47685000  1.0
  C  C83  1  0.46431000  0.22662000  0.47583000  1.0
  C  C84  1  0.46791000  0.18579000  0.41230000  1.0
  C  C85  1  0.47261000  0.11417000  0.41352000  1.0
  C  C86  1  0.29464000  0.45560000  0.46732000  1.0
  C  C87  1  0.70623000  0.52976000  0.55125000  1.0
  C  C88  1  0.79218000  0.53819000  0.56809000  1.0
  C  C89  1  0.20724000  0.43324000  0.45166000  1.0
  C  C90  1  0.91283000  0.58257000  0.65267000  1.0
  C  C91  1  0.08252000  0.25473000  0.29761000  1.0
  C  C92  1  0.95166000  0.54568000  0.60902000  1.0
  C  C93  1  0.11673000  0.27409000  0.23199000  1.0
  C  C94  1  0.14578000  0.21124000  0.20131000  1.0
  C  C95  1  0.40503000  0.24236000  0.32096000  1.0
  C  C96  1  0.43054000  0.28951000  0.26516000  1.0
  C  C97  1  0.36499000  0.32080000  0.23030000  1.0
  C  C98  1  0.80880000  0.32481000  0.48756000  1.0
  C  C99  1  0.72003000  0.30311000  0.47175000  1.0
  C  C100  1  0.68770000  0.25360000  0.52432000  1.0
  C  C101  1  0.95350000  0.46124000  0.50438000  1.0
  C  C102  1  0.03710000  0.47801000  0.52279000  1.0
  C  C103  1  0.07536000  0.52639000  0.58537000  1.0
  C  C104  1  0.03409000  0.55593000  0.62833000  1.0
  N  N105  1  0.51074000  0.47291000  0.02027000  1.0
  N  N106  1  0.51163000  0.52944000  0.98852000  1.0
  N  N107  1  0.49905000  0.98713000  0.52892000  1.0
  N  N108  1  0.47971000  0.01033000  0.47078000  1.0
  O  O109  1  0.50038000  0.50149000  0.50318000  1.0
  O  O110  1  0.32775000  0.44933000  0.52958000  1.0
  O  O111  1  0.67940000  0.57923000  0.58058000  1.0
  O  O112  1  0.32941000  0.47897000  0.41741000  1.0
  O  O113  1  0.66440000  0.47214000  0.51232000  1.0
  O  O114  1  0.04487000  0.30680000  0.32568000  1.0
  O  O115  1  0.47003000  0.37744000  0.76508000  1.0
  O  O116  1  0.48493000  0.38954000  0.90629000  1.0
  O  O117  1  0.52959000  0.64823000  0.92265000  1.0
  O  O118  1  0.46909000  0.21258000  0.34869000  1.0
  O  O119  1  0.79216000  0.48364000  0.45435000  1.0
  O  O120  1  0.51796000  0.34336000  0.44802000  1.0
  O  O121  1  0.83741000  0.37056000  0.43502000  1.0
  O  O122  1  0.54951000  0.67197000  0.55674000  1.0
  O  O123  1  0.47235000  0.44428000  0.65377000  1.0
  O  O124  1  0.47318000  0.53925000  0.34097000  1.0
  O  O125  1  0.53260000  0.56462000  0.66786000  1.0
  O  O126  1  0.55516000  0.46444000  0.35316000  1.0
  O  O127  1  0.43046000  0.33034000  0.52337000  1.0
  O  O128  1  0.44678000  0.64451000  0.46367000  1.0
