# generated using pymatgen
data_La2H14C24O13
_symmetry_space_group_name_H-M   'P 1'
_cell_length_a   8.60581000
_cell_length_b   10.55620000
_cell_length_c   14.32300000
_cell_angle_alpha   97.28970000
_cell_angle_beta   102.22900000
_cell_angle_gamma   104.47900000
_symmetry_Int_Tables_number   1
_chemical_formula_structural   La2H14C24O13
_chemical_formula_sum   'La4 H28 C48 O26'
_cell_volume   1208.81230069
_cell_formula_units_Z   2
loop_
 _symmetry_equiv_pos_site_id
 _symmetry_equiv_pos_as_xyz
  1  'x, y, z'
loop_
 _atom_site_type_symbol
 _atom_site_label
 _atom_site_symmetry_multiplicity
 _atom_site_fract_x
 _atom_site_fract_y
 _atom_site_fract_z
 _atom_site_occupancy
  La  La0  1  0.16936000  0.21960000  0.50807000  1.0
  La  La1  1  0.83065000  0.78039000  0.49193000  1.0
  La  La2  1  0.69835000  0.34786000  0.49757000  1.0
  La  La3  1  0.30165000  0.65213000  0.50243000  1.0
  H  H4  1  0.77370000  0.09679000  0.15222000  1.0
  H  H5  1  0.22629000  0.90322000  0.84778000  1.0
  H  H6  1  0.59236000  0.15964000  0.01535000  1.0
  H  H7  1  0.40763000  0.84037000  0.98465000  1.0
  H  H8  1  0.54075000  0.38239000  0.03811000  1.0
  H  H9  1  0.45926000  0.61763000  0.96189000  1.0
  H  H10  1  0.67962000  0.54538000  0.19324000  1.0
  H  H11  1  0.32039000  0.45462000  0.80678000  1.0
  H  H12  1  0.60327000  0.27997000  0.85079000  1.0
  H  H13  1  0.39672000  0.72002000  0.14921000  1.0
  H  H14  1  0.83436000  0.43357000  0.98574000  1.0
  H  H15  1  0.16563000  0.56641000  0.01426000  1.0
  H  H16  1  0.97120000  0.66059000  0.96394000  1.0
  H  H17  1  0.02882000  0.33938000  0.03607000  1.0
  H  H18  1  0.88025000  0.73619000  0.80900000  1.0
  H  H19  1  0.11978000  0.26380000  0.19102000  1.0
  H  H20  1  0.55014000  0.86731000  0.80306000  1.0
  H  H21  1  0.44984000  0.13273000  0.19693000  1.0
  H  H22  1  0.75386000  0.96243000  0.96435000  1.0
  H  H23  1  0.24609000  0.03759000  0.03565000  1.0
  H  H24  1  0.01411000  0.13887000  0.97611000  1.0
  H  H25  1  0.98587000  0.86114000  0.02388000  1.0
  H  H26  1  0.06452000  0.22729000  0.82770000  1.0
  H  H27  1  0.93547000  0.77271000  0.17230000  1.0
  H  H28  1  0.14885000  0.02088000  0.63226000  1.0
  H  H29  1  0.85115000  0.97912000  0.36774000  1.0
  H  H30  1  0.26118000  0.96280000  0.57577000  1.0
  H  H31  1  0.73883000  0.03720000  0.42424000  1.0
  C  C32  1  0.92336000  0.24403000  0.33223000  1.0
  C  C33  1  0.07663000  0.75597000  0.66777000  1.0
  C  C34  1  0.82550000  0.28436000  0.24825000  1.0
  C  C35  1  0.17450000  0.71564000  0.75175000  1.0
  C  C36  1  0.75229000  0.19478000  0.15967000  1.0
  C  C37  1  0.24772000  0.80521000  0.84034000  1.0
  C  C38  1  0.65054000  0.23012000  0.08397000  1.0
  C  C39  1  0.34947000  0.76988000  0.91604000  1.0
  C  C40  1  0.62219000  0.35529000  0.09664000  1.0
  C  C41  1  0.37783000  0.64473000  0.90337000  1.0
  C  C42  1  0.69892000  0.44677000  0.18366000  1.0
  C  C43  1  0.30110000  0.55324000  0.81636000  1.0
  C  C44  1  0.80159000  0.41193000  0.25946000  1.0
  C  C45  1  0.19842000  0.58805000  0.74055000  1.0
  C  C46  1  0.89413000  0.51199000  0.35133000  1.0
  C  C47  1  0.10586000  0.48801000  0.64868000  1.0
  C  C48  1  0.47768000  0.33164000  0.67589000  1.0
  C  C49  1  0.52232000  0.66835000  0.32411000  1.0
  C  C50  1  0.64003000  0.59747000  0.64982000  1.0
  C  C51  1  0.35999000  0.40254000  0.35019000  1.0
  C  C52  1  0.69663000  0.54905000  0.74210000  1.0
  C  C53  1  0.30339000  0.45096000  0.25791000  1.0
  C  C54  1  0.61733000  0.42102000  0.75495000  1.0
  C  C55  1  0.38267000  0.57900000  0.24505000  1.0
  C  C56  1  0.66631000  0.37999000  0.84295000  1.0
  C  C57  1  0.33370000  0.62000000  0.15705000  1.0
  C  C58  1  0.79494000  0.46555000  0.91757000  1.0
  C  C59  1  0.20507000  0.53444000  0.08243000  1.0
  C  C60  1  0.87152000  0.59337000  0.90521000  1.0
  C  C61  1  0.12850000  0.40661000  0.09480000  1.0
  C  C62  1  0.82208000  0.63597000  0.81838000  1.0
  C  C63  1  0.17794000  0.36403000  0.18163000  1.0
  C  C64  1  0.58058000  0.92088000  0.62960000  1.0
  C  C65  1  0.41942000  0.07912000  0.37039000  1.0
  C  C66  1  0.69053000  0.99577000  0.72668000  1.0
  C  C67  1  0.30945000  0.00423000  0.27331000  1.0
  C  C68  1  0.66093000  0.94866000  0.81006000  1.0
  C  C69  1  0.33904000  0.05135000  0.18993000  1.0
  C  C70  1  0.77646000  0.00104000  0.89980000  1.0
  C  C71  1  0.22350000  0.99898000  0.10018000  1.0
  C  C72  1  0.92246000  0.10022000  0.90639000  1.0
  C  C73  1  0.07753000  0.89980000  0.09360000  1.0
  C  C74  1  0.95168000  0.14909000  0.82360000  1.0
  C  C75  1  0.04832000  0.85092000  0.17639000  1.0
  C  C76  1  0.83565000  0.09804000  0.73378000  1.0
  C  C77  1  0.16434000  0.90195000  0.26621000  1.0
  C  C78  1  0.86322000  0.15525000  0.64606000  1.0
  C  C79  1  0.13679000  0.84475000  0.35393000  1.0
  O  O80  1  0.91710000  0.29309000  0.41889000  1.0
  O  O81  1  0.08290000  0.70689000  0.58111000  1.0
  O  O82  1  0.01007000  0.16580000  0.32036000  1.0
  O  O83  1  0.98993000  0.83420000  0.67965000  1.0
  O  O84  1  0.35697000  0.25182000  0.69328000  1.0
  O  O85  1  0.64303000  0.74818000  0.30673000  1.0
  O  O86  1  0.48090000  0.34398000  0.58692000  1.0
  O  O87  1  0.51912000  0.65601000  0.41308000  1.0
  O  O88  1  0.71681000  0.58875000  0.58237000  1.0
  O  O89  1  0.28322000  0.41125000  0.41763000  1.0
  O  O90  1  0.52119000  0.64774000  0.64489000  1.0
  O  O91  1  0.47884000  0.35228000  0.35511000  1.0
  O  O92  1  0.65236000  0.88706000  0.56526000  1.0
  O  O93  1  0.34764000  0.11293000  0.43473000  1.0
  O  O94  1  0.42349000  0.88367000  0.61704000  1.0
  O  O95  1  0.57651000  0.11633000  0.38294000  1.0
  O  O96  1  0.80991000  0.54416000  0.41038000  1.0
  O  O97  1  0.19008000  0.45583000  0.58963000  1.0
  O  O98  1  0.04785000  0.55823000  0.36528000  1.0
  O  O99  1  0.95214000  0.44177000  0.63474000  1.0
  O  O100  1  0.74112000  0.18357000  0.59473000  1.0
  O  O101  1  0.25888000  0.81640000  0.40524000  1.0
  O  O102  1  0.00556000  0.17355000  0.62948000  1.0
  O  O103  1  0.99446000  0.82645000  0.37051000  1.0
  O  O104  1  0.16093000  0.99490000  0.56666000  1.0
  O  O105  1  0.83908000  0.00509000  0.43335000  1.0
