# generated using pymatgen
data_TmH7C8NO8
_symmetry_space_group_name_H-M   'P 1'
_cell_length_a   7.41799000
_cell_length_b   9.80216000
_cell_length_c   14.57970000
_cell_angle_alpha   90.00000000
_cell_angle_beta   97.58060000
_cell_angle_gamma   89.99990000
_symmetry_Int_Tables_number   1
_chemical_formula_structural   TmH7C8NO8
_chemical_formula_sum   'Tm4 H28 C32 N4 O32'
_cell_volume   1050.85868055
_cell_formula_units_Z   4
loop_
 _symmetry_equiv_pos_site_id
 _symmetry_equiv_pos_as_xyz
  1  'x, y, z'
loop_
 _atom_site_type_symbol
 _atom_site_label
 _atom_site_symmetry_multiplicity
 _atom_site_fract_x
 _atom_site_fract_y
 _atom_site_fract_z
 _atom_site_occupancy
  Tm  Tm0  1  0.85190000  0.54484000  0.64225000  1.0
  Tm  Tm1  1  0.64810000  0.04484000  0.85775000  1.0
  Tm  Tm2  1  0.14810000  0.45516000  0.35775000  1.0
  Tm  Tm3  1  0.35190000  0.95516000  0.14225000  1.0
  H  H4  1  0.83384000  0.11933000  0.64728000  1.0
  H  H5  1  0.66615000  0.61933000  0.85272000  1.0
  H  H6  1  0.16615000  0.88066000  0.35272000  1.0
  H  H7  1  0.33385000  0.38066000  0.14728000  1.0
  H  H8  1  0.60716000  0.78353000  0.47992000  1.0
  H  H9  1  0.89283000  0.28353000  0.02008000  1.0
  H  H10  1  0.39284000  0.21647000  0.52007000  1.0
  H  H11  1  0.10716000  0.71647000  0.97993000  1.0
  H  H12  1  0.79070000  0.12160000  0.34903000  1.0
  H  H13  1  0.70931000  0.62160000  0.15097000  1.0
  H  H14  1  0.20931000  0.87840000  0.65097000  1.0
  H  H15  1  0.29069000  0.37840000  0.84903000  1.0
  H  H16  1  0.07545000  0.63302000  0.81923000  1.0
  H  H17  1  0.42455000  0.13302000  0.68077000  1.0
  H  H18  1  0.92455000  0.36698000  0.18077000  1.0
  H  H19  1  0.57545000  0.86698000  0.31923000  1.0
  H  H20  1  0.23593000  0.55264000  0.70670000  1.0
  H  H21  1  0.26407000  0.05264000  0.79330000  1.0
  H  H22  1  0.76408000  0.44737000  0.29330000  1.0
  H  H23  1  0.73592000  0.94736000  0.20670000  1.0
  H  H24  1  0.20521000  0.44117000  0.62987000  1.0
  H  H25  1  0.29479000  0.94117000  0.87013000  1.0
  H  H26  1  0.79480000  0.55883000  0.37013000  1.0
  H  H27  1  0.70519000  0.05883000  0.12987000  1.0
  H  H28  1  0.95841000  0.76887000  0.79087000  1.0
  H  H29  1  0.54159000  0.26887000  0.70913000  1.0
  H  H30  1  0.04159000  0.23113000  0.20913000  1.0
  H  H31  1  0.45841000  0.73113000  0.29087000  1.0
  C  C32  1  0.72106000  0.93895000  0.57467000  1.0
  C  C33  1  0.77894000  0.43895000  0.92533000  1.0
  C  C34  1  0.27894000  0.06105000  0.42533000  1.0
  C  C35  1  0.22106000  0.56105000  0.07467000  1.0
  C  C36  1  0.69193000  0.85769000  0.65871000  1.0
  C  C37  1  0.80807000  0.35769000  0.84129000  1.0
  C  C38  1  0.30807000  0.14231000  0.34129000  1.0
  C  C39  1  0.19193000  0.64231000  0.15871000  1.0
  C  C40  1  0.79653000  0.06968000  0.58052000  1.0
  C  C41  1  0.70346000  0.56968000  0.91948000  1.0
  C  C42  1  0.20347000  0.93031000  0.41948000  1.0
  C  C43  1  0.29653000  0.43031000  0.08052000  1.0
  C  C44  1  0.54506000  0.53135000  0.46020000  1.0
  C  C45  1  0.95493000  0.03134000  0.03980000  1.0
  C  C46  1  0.45495000  0.46867000  0.53979000  1.0
  C  C47  1  0.04505000  0.96866000  0.96021000  1.0
  C  C48  1  0.66991000  0.88374000  0.48685000  1.0
  C  C49  1  0.83009000  0.38374000  0.01315000  1.0
  C  C50  1  0.33009000  0.11626000  0.51315000  1.0
  C  C51  1  0.16991000  0.61626000  0.98685000  1.0
  C  C52  1  0.90861000  0.27568000  0.50107000  1.0
  C  C53  1  0.59139000  0.77568000  0.99893000  1.0
  C  C54  1  0.09141000  0.72431000  0.49893000  1.0
  C  C55  1  0.40859000  0.22431000  0.00107000  1.0
  C  C56  1  0.82535000  0.13613000  0.49890000  1.0
  C  C57  1  0.67464000  0.63613000  0.00110000  1.0
  C  C58  1  0.17465000  0.86387000  0.50111000  1.0
  C  C59  1  0.32534000  0.36387000  0.99889000  1.0
  C  C60  1  0.77194000  0.07159000  0.41398000  1.0
  C  C61  1  0.72806000  0.57159000  0.08601000  1.0
  C  C62  1  0.22807000  0.92841000  0.58602000  1.0
  C  C63  1  0.27194000  0.42841000  0.91398000  1.0
  N  N64  1  0.69226000  0.94839000  0.40817000  1.0
  N  N65  1  0.80774000  0.44839000  0.09183000  1.0
  N  N66  1  0.30775000  0.05161000  0.59183000  1.0
  N  N67  1  0.19226000  0.55161000  0.90817000  1.0
  O  O68  1  0.16098000  0.47323000  0.68788000  1.0
  O  O69  1  0.33902000  0.97323000  0.81212000  1.0
  O  O70  1  0.83902000  0.52677000  0.31212000  1.0
  O  O71  1  0.66098000  0.02677000  0.18788000  1.0
  O  O72  1  0.71147000  0.56364000  0.47892000  1.0
  O  O73  1  0.78853000  0.06363000  0.02108000  1.0
  O  O74  1  0.28854000  0.43637000  0.52107000  1.0
  O  O75  1  0.21146000  0.93637000  0.97893000  1.0
  O  O76  1  0.66947000  0.72937000  0.64923000  1.0
  O  O77  1  0.83053000  0.22937000  0.85077000  1.0
  O  O78  1  0.33053000  0.27063000  0.35077000  1.0
  O  O79  1  0.16947000  0.77062000  0.14923000  1.0
  O  O80  1  0.99713000  0.68211000  0.76671000  1.0
  O  O81  1  0.50287000  0.18211000  0.73329000  1.0
  O  O82  1  0.00287000  0.31789000  0.23329000  1.0
  O  O83  1  0.49714000  0.81789000  0.26671000  1.0
  O  O84  1  0.90464000  0.34569000  0.57369000  1.0
  O  O85  1  0.59535000  0.84569000  0.92631000  1.0
  O  O86  1  0.09537000  0.65431000  0.42632000  1.0
  O  O87  1  0.40463000  0.15431000  0.07368000  1.0
  O  O88  1  0.69291000  0.92066000  0.73433000  1.0
  O  O89  1  0.80709000  0.42065000  0.76567000  1.0
  O  O90  1  0.30709000  0.07934000  0.26568000  1.0
  O  O91  1  0.19291000  0.57934000  0.23432000  1.0
  O  O92  1  0.97531000  0.31278000  0.42944000  1.0
  O  O93  1  0.52470000  0.81278000  0.07056000  1.0
  O  O94  1  0.02471000  0.68722000  0.57057000  1.0
  O  O95  1  0.47530000  0.18722000  0.92943000  1.0
  O  O96  1  0.44769000  0.54690000  0.38295000  1.0
  O  O97  1  0.05231000  0.04689000  0.11706000  1.0
  O  O98  1  0.55232000  0.45311000  0.61704000  1.0
  O  O99  1  0.94768000  0.95311000  0.88296000  1.0
