# generated using pymatgen
data_Zr3H11C25(N3O13)2
_symmetry_space_group_name_H-M   'P 1'
_cell_length_a   14.76560000
_cell_length_b   14.78034090
_cell_length_c   14.78520000
_cell_angle_alpha   90.43219938
_cell_angle_beta   119.74170000
_cell_angle_gamma   119.69019165
_symmetry_Int_Tables_number   1
_chemical_formula_structural   Zr3H11C25(N3O13)2
_chemical_formula_sum   'Zr6 H22 C50 N12 O52'
_cell_volume   2292.56475530
_cell_formula_units_Z   2
loop_
 _symmetry_equiv_pos_site_id
 _symmetry_equiv_pos_as_xyz
  1  'x, y, z'
loop_
 _atom_site_type_symbol
 _atom_site_label
 _atom_site_symmetry_multiplicity
 _atom_site_fract_x
 _atom_site_fract_y
 _atom_site_fract_z
 _atom_site_occupancy
  Zr  Zr0  1  0.50012000  0.61852000  0.12208000  1.0
  Zr  Zr1  1  0.50328000  0.38059000  0.88380000  1.0
  Zr  Zr2  1  0.73805000  0.61763000  0.12196000  1.0
  Zr  Zr3  1  0.26153000  0.37770000  0.88045000  1.0
  Zr  Zr4  1  0.49929000  0.37853000  0.12092000  1.0
  Zr  Zr5  1  0.50065000  0.61811000  0.88274000  1.0
  H  H6  1  0.68698000  0.59482000  0.28447000  1.0
  H  H7  1  0.31313000  0.21646000  0.90409000  1.0
  H  H8  1  0.69131000  0.59328000  0.91011000  1.0
  H  H9  1  0.31080000  0.59131000  0.90747000  1.0
  H  H10  1  0.53051000  0.37190000  0.42721000  1.0
  H  H11  1  0.45186000  0.61356000  0.56763000  1.0
  H  H12  1  0.53713000  0.92661000  0.87846000  1.0
  H  H13  1  0.47270000  0.07454000  0.12854000  1.0
  H  H14  1  0.94410000  0.09278000  0.86506000  1.0
  H  H15  1  0.05472000  0.90817000  0.14092000  1.0
  H  H16  1  0.94735000  0.35683000  0.59127000  1.0
  H  H17  1  0.05383000  0.63444000  0.40721000  1.0
  H  H18  1  0.70562000  0.96426000  0.36611000  1.0
  H  H19  1  0.71495000  0.88724000  0.45832000  1.0
  H  H20  1  0.88389000  0.06467000  0.61994000  1.0
  H  H21  1  0.87730000  0.14116000  0.52677000  1.0
  H  H22  1  0.23211000  0.64086000  0.14493000  1.0
  H  H23  1  0.77105000  0.35367000  0.86396000  1.0
  H  H24  1  0.32758000  0.15905000  0.65036000  1.0
  H  H25  1  0.27571000  0.03936000  0.56639000  1.0
  H  H26  1  0.01157000  0.86153000  0.32042000  1.0
  H  H27  1  0.16315000  0.98286000  0.40390000  1.0
  C  C28  1  0.48553000  0.49140000  0.29790000  1.0
  C  C29  1  0.51158000  0.20080000  0.00564000  1.0
  C  C30  1  0.50152000  0.49766000  0.69902000  1.0
  C  C31  1  0.50029000  0.80181000  0.00281000  1.0
  C  C32  1  0.80378000  0.80794000  0.29952000  1.0
  C  C33  1  0.19609000  0.49389000  0.00302000  1.0
  C  C34  1  0.20101000  0.20276000  0.69161000  1.0
  C  C35  1  0.80709000  0.49799000  0.00834000  1.0
  C  C36  1  0.80190000  0.49426000  0.30309000  1.0
  C  C37  1  0.80305000  0.80586000  0.00506000  1.0
  C  C38  1  0.19875000  0.49617000  0.69466000  1.0
  C  C39  1  0.19666000  0.19632000  0.00309000  1.0
  C  C40  1  0.50074000  0.49656000  0.59748000  1.0
  C  C41  1  0.48307000  0.49006000  0.39787000  1.0
  C  C42  1  0.52344000  0.42996000  0.55638000  1.0
  C  C43  1  0.46157000  0.55731000  0.43957000  1.0
  C  C44  1  0.51286000  0.42456000  0.45761000  1.0
  C  C45  1  0.47006000  0.56134000  0.53739000  1.0
  C  C46  1  0.51105000  0.09937000  0.00459000  1.0
  C  C47  1  0.49711000  0.90142000  0.00111000  1.0
  C  C48  1  0.52629000  0.05451000  0.93349000  1.0
  C  C49  1  0.47611000  0.94357000  0.06864000  1.0
  C  C50  1  0.52173000  0.95845000  0.93232000  1.0
  C  C51  1  0.48683000  0.04234000  0.07372000  1.0
  C  C52  1  0.90224000  0.90587000  0.00229000  1.0
  C  C53  1  0.09667000  0.09529000  0.00412000  1.0
  C  C54  1  0.87360000  0.95835000  0.92408000  1.0
  C  C55  1  0.12518000  0.04155000  0.08103000  1.0
  C  C56  1  0.96813000  0.05172000  0.92497000  1.0
  C  C57  1  0.03074000  0.94933000  0.08117000  1.0
  C  C58  1  0.90239000  0.49352000  0.40412000  1.0
  C  C59  1  0.09857000  0.49787000  0.59440000  1.0
  C  C60  1  0.87501000  0.41630000  0.45782000  1.0
  C  C61  1  0.12607000  0.57639000  0.54201000  1.0
  C  C62  1  0.97032000  0.41726000  0.55045000  1.0
  C  C63  1  0.03068000  0.57418000  0.44814000  1.0
  C  C64  1  0.90622000  0.91089000  0.39359000  1.0
  C  C65  1  0.10462000  0.10940000  0.58802000  1.0
  C  C66  1  0.87945000  0.96473000  0.44590000  1.0
  C  C67  1  0.13619000  0.05803000  0.53768000  1.0
  C  C68  1  0.97336000  0.06045000  0.53635000  1.0
  C  C69  1  0.03736000  0.96224000  0.43786000  1.0
  C  C70  1  0.77158000  0.95834000  0.44139000  1.0
  C  C71  1  0.87896000  0.06942000  0.54362000  1.0
  C  C72  1  0.90888000  0.49917000  0.00845000  1.0
  C  C73  1  0.09443000  0.49413000  0.00187000  1.0
  C  C74  1  0.03963000  0.57987000  0.08640000  1.0
  C  C75  1  0.96362000  0.41450000  0.92281000  1.0
  C  C76  1  0.13120000  0.57801000  0.08386000  1.0
  C  C77  1  0.87204000  0.41609000  0.92562000  1.0
  N  N78  1  0.56937000  0.36772000  0.61996000  1.0
  N  N79  1  0.42151000  0.62376000  0.37877000  1.0
  N  N80  1  0.55018000  0.10738000  0.85599000  1.0
  N  N81  1  0.42994000  0.88059000  0.13089000  1.0
  N  N82  1  0.74064000  0.91708000  0.83473000  1.0
  N  N83  1  0.25747000  0.07800000  0.16614000  1.0
  N  N84  1  0.74272000  0.32944000  0.42015000  1.0
  N  N85  1  0.25853000  0.66776000  0.58401000  1.0
  N  N86  1  0.08811000  0.67223000  0.17628000  1.0
  N  N87  1  0.91482000  0.32436000  0.83054000  1.0
  N  N88  1  0.25866000  0.09583000  0.57712000  1.0
  N  N89  1  0.08031000  0.92456000  0.39381000  1.0
  O  O90  1  0.48970000  0.57026000  0.26154000  1.0
  O  O91  1  0.51059000  0.23931000  0.92856000  1.0
  O  O92  1  0.50115000  0.42093000  0.73777000  1.0
  O  O93  1  0.50414000  0.76510000  0.08131000  1.0
  O  O94  1  0.83589000  0.76135000  0.25777000  1.0
  O  O95  1  0.15946000  0.41678000  0.92675000  1.0
  O  O96  1  0.16364000  0.24012000  0.73451000  1.0
  O  O97  1  0.84332000  0.57479000  0.08470000  1.0
  O  O98  1  0.68620000  0.41831000  0.26405000  1.0
  O  O99  1  0.68710000  0.76703000  0.93009000  1.0
  O  O100  1  0.31454000  0.57132000  0.73313000  1.0
  O  O101  1  0.31231000  0.23575000  0.07977000  1.0
  O  O102  1  0.84255000  0.76718000  0.08107000  1.0
  O  O103  1  0.16000000  0.42057000  0.73386000  1.0
  O  O104  1  0.15820000  0.23378000  0.92557000  1.0
  O  O105  1  0.84047000  0.57150000  0.26536000  1.0
  O  O106  1  0.68746000  0.76599000  0.26298000  1.0
  O  O107  1  0.69209000  0.42140000  0.93135000  1.0
  O  O108  1  0.32029000  0.24327000  0.73804000  1.0
  O  O109  1  0.31111000  0.57123000  0.07931000  1.0
  O  O110  1  0.50061000  0.76290000  0.92584000  1.0
  O  O111  1  0.48829000  0.41578000  0.26009000  1.0
  O  O112  1  0.50911000  0.23835000  0.08153000  1.0
  O  O113  1  0.50094000  0.57459000  0.73758000  1.0
  O  O114  1  0.36497000  0.56513000  0.93375000  1.0
  O  O115  1  0.63720000  0.56727000  0.93626000  1.0
  O  O116  1  0.36740000  0.29654000  0.93478000  1.0
  O  O117  1  0.63282000  0.56483000  0.20432000  1.0
  O  O118  1  0.60019000  0.44900000  0.05268000  1.0
  O  O119  1  0.40094000  0.44857000  0.05043000  1.0
  O  O120  1  0.40320000  0.44986000  0.85346000  1.0
  O  O121  1  0.59820000  0.64680000  0.05124000  1.0
  O  O122  1  0.67970000  0.42408000  0.70474000  1.0
  O  O123  1  0.49750000  0.26601000  0.58135000  1.0
  O  O124  1  0.50026000  0.72474000  0.41589000  1.0
  O  O125  1  0.30893000  0.57160000  0.29818000  1.0
  O  O126  1  0.45711000  0.06869000  0.75907000  1.0
  O  O127  1  0.66168000  0.18191000  0.89340000  1.0
  O  O128  1  0.32142000  0.79356000  0.07397000  1.0
  O  O129  1  0.49832000  0.92176000  0.23240000  1.0
  O  O130  1  0.68966000  0.84808000  0.74776000  1.0
  O  O131  1  0.69491000  0.95948000  0.85327000  1.0
  O  O132  1  0.30234000  0.04238000  0.13708000  1.0
  O  O133  1  0.30864000  0.13547000  0.25985000  1.0
  O  O134  1  0.69714000  0.35565000  0.45729000  1.0
  O  O135  1  0.69212000  0.23741000  0.35979000  1.0
  O  O136  1  0.30766000  0.75343000  0.65377000  1.0
  O  O137  1  0.30572000  0.65236000  0.54146000  1.0
  O  O138  1  0.10439000  0.75786000  0.15585000  1.0
  O  O139  1  0.11313000  0.65772000  0.26549000  1.0
  O  O140  1  0.89868000  0.34491000  0.74506000  1.0
  O  O141  1  0.88908000  0.23498000  0.84496000  1.0
