# generated using pymatgen
data_GdH10C6O11
_symmetry_space_group_name_H-M   'P 1'
_cell_length_a   8.21236000
_cell_length_b   8.57087000
_cell_length_c   16.90040000
_cell_angle_alpha   101.05500000
_cell_angle_beta   89.99940000
_cell_angle_gamma   90.00000000
_symmetry_Int_Tables_number   1
_chemical_formula_structural   GdH10C6O11
_chemical_formula_sum   'Gd4 H40 C24 O44'
_cell_volume   1167.49546856
_cell_formula_units_Z   4
loop_
 _symmetry_equiv_pos_site_id
 _symmetry_equiv_pos_as_xyz
  1  'x, y, z'
loop_
 _atom_site_type_symbol
 _atom_site_label
 _atom_site_symmetry_multiplicity
 _atom_site_fract_x
 _atom_site_fract_y
 _atom_site_fract_z
 _atom_site_occupancy
  Gd  Gd0  1  0.40908000  0.95619000  0.66117000  1.0
  Gd  Gd1  1  0.90908000  0.54381000  0.83883000  1.0
  Gd  Gd2  1  0.59092000  0.04381000  0.33883000  1.0
  Gd  Gd3  1  0.09093000  0.45619000  0.16117000  1.0
  H  H4  1  0.45739000  0.98358000  0.83379000  1.0
  H  H5  1  0.95739000  0.51640000  0.66621000  1.0
  H  H6  1  0.54261000  0.01643000  0.16621000  1.0
  H  H7  1  0.04262000  0.48357000  0.33378000  1.0
  H  H8  1  0.30474000  0.09325000  0.83523000  1.0
  H  H9  1  0.80474000  0.40672000  0.66477000  1.0
  H  H10  1  0.69527000  0.90675000  0.16477000  1.0
  H  H11  1  0.19527000  0.59324000  0.33523000  1.0
  H  H12  1  0.69995000  0.14589000  0.67389000  1.0
  H  H13  1  0.19995000  0.35411000  0.82611000  1.0
  H  H14  1  0.30005000  0.85410000  0.32611000  1.0
  H  H15  1  0.80005000  0.64591000  0.17388000  1.0
  H  H16  1  0.74780000  0.06528000  0.74653000  1.0
  H  H17  1  0.24782000  0.43472000  0.75347000  1.0
  H  H18  1  0.25218000  0.93472000  0.25347000  1.0
  H  H19  1  0.75220000  0.56528000  0.24653000  1.0
  H  H20  1  0.05729000  0.06288000  0.71641000  1.0
  H  H21  1  0.55729000  0.43711000  0.78359000  1.0
  H  H22  1  0.94271000  0.93712000  0.28359000  1.0
  H  H23  1  0.44271000  0.56288000  0.21641000  1.0
  H  H24  1  0.12870000  0.17766000  0.66392000  1.0
  H  H25  1  0.62867000  0.32238000  0.83612000  1.0
  H  H26  1  0.87131000  0.82234000  0.33609000  1.0
  H  H27  1  0.37130000  0.67768000  0.16392000  1.0
  H  H28  1  0.50752000  0.64761000  0.70362000  1.0
  H  H29  1  0.00750000  0.85238000  0.79638000  1.0
  H  H30  1  0.49249000  0.35238000  0.29638000  1.0
  H  H31  1  0.99249000  0.14762000  0.20361000  1.0
  H  H32  1  0.62761000  0.76375000  0.75820000  1.0
  H  H33  1  0.12760000  0.73624000  0.74180000  1.0
  H  H34  1  0.37239000  0.23625000  0.24181000  1.0
  H  H35  1  0.87240000  0.26376000  0.25818000  1.0
  H  H36  1  0.73072000  0.83647000  0.59101000  1.0
  H  H37  1  0.23072000  0.66354000  0.90899000  1.0
  H  H38  1  0.26929000  0.16353000  0.40900000  1.0
  H  H39  1  0.76929000  0.33647000  0.09100000  1.0
  H  H40  1  0.67610000  0.94720000  0.53000000  1.0
  H  H41  1  0.17610000  0.55280000  0.97000000  1.0
  H  H42  1  0.32390000  0.05279000  0.47000000  1.0
  H  H43  1  0.82390000  0.44721000  0.03000000  1.0
  C  C44  1  0.46809000  0.42850000  0.56524000  1.0
  C  C45  1  0.96808000  0.07150000  0.93477000  1.0
  C  C46  1  0.53190000  0.57147000  0.43477000  1.0
  C  C47  1  0.03191000  0.92852000  0.06523000  1.0
  C  C48  1  0.43401000  0.35681000  0.63774000  1.0
  C  C49  1  0.93400000  0.14320000  0.86226000  1.0
  C  C50  1  0.56599000  0.64318000  0.36226000  1.0
  C  C51  1  0.06600000  0.85681000  0.13773000  1.0
  C  C52  1  0.36937000  0.55465000  0.55174000  1.0
  C  C53  1  0.86937000  0.94535000  0.94826000  1.0
  C  C54  1  0.63064000  0.44533000  0.44825000  1.0
  C  C55  1  0.13064000  0.05467000  0.05174000  1.0
  C  C56  1  0.22586000  0.60042000  0.60741000  1.0
  C  C57  1  0.72586000  0.89959000  0.89259000  1.0
  C  C58  1  0.77414000  0.39956000  0.39259000  1.0
  C  C59  1  0.27415000  0.10043000  0.10740000  1.0
  C  C60  1  0.59793000  0.37195000  0.51376000  1.0
  C  C61  1  0.09793000  0.12806000  0.98624000  1.0
  C  C62  1  0.40204000  0.62806000  0.48624000  1.0
  C  C63  1  0.90205000  0.87194000  0.01376000  1.0
  C  C64  1  0.69233000  0.23065000  0.53084000  1.0
  C  C65  1  0.19234000  0.26935000  0.96916000  1.0
  C  C66  1  0.30767000  0.76934000  0.46916000  1.0
  C  C67  1  0.80766000  0.73067000  0.03084000  1.0
  O  O68  1  0.41059000  0.20910000  0.62853000  1.0
  O  O69  1  0.91058000  0.29091000  0.87147000  1.0
  O  O70  1  0.58942000  0.79090000  0.37146000  1.0
  O  O71  1  0.08942000  0.70909000  0.12853000  1.0
  O  O72  1  0.42919000  0.45485000  0.70544000  1.0
  O  O73  1  0.92918000  0.04514000  0.79456000  1.0
  O  O74  1  0.57082000  0.54512000  0.29456000  1.0
  O  O75  1  0.07082000  0.95486000  0.20544000  1.0
  O  O76  1  0.11482000  0.50002000  0.60570000  1.0
  O  O77  1  0.61482000  0.99998000  0.89429000  1.0
  O  O78  1  0.88517000  0.49996000  0.39430000  1.0
  O  O79  1  0.38517000  0.00005000  0.10570000  1.0
  O  O80  1  0.23101000  0.73706000  0.65518000  1.0
  O  O81  1  0.73102000  0.76295000  0.84483000  1.0
  O  O82  1  0.76898000  0.26295000  0.34482000  1.0
  O  O83  1  0.26899000  0.23705000  0.15518000  1.0
  O  O84  1  0.75873000  0.24171000  0.59927000  1.0
  O  O85  1  0.25873000  0.25829000  0.90073000  1.0
  O  O86  1  0.24128000  0.75828000  0.40073000  1.0
  O  O87  1  0.74128000  0.74171000  0.09927000  1.0
  O  O88  1  0.69253000  0.10377000  0.47691000  1.0
  O  O89  1  0.19253000  0.39623000  0.02309000  1.0
  O  O90  1  0.30748000  0.89621000  0.52309000  1.0
  O  O91  1  0.80747000  0.60379000  0.97691000  1.0
  O  O92  1  0.35974000  0.00101000  0.80036000  1.0
  O  O93  1  0.85976000  0.49897000  0.69964000  1.0
  O  O94  1  0.64024000  0.99899000  0.19965000  1.0
  O  O95  1  0.14025000  0.50102000  0.30036000  1.0
  O  O96  1  0.65204000  0.09802000  0.71783000  1.0
  O  O97  1  0.15204000  0.40197000  0.78216000  1.0
  O  O98  1  0.34796000  0.90196000  0.28216000  1.0
  O  O99  1  0.84797000  0.59804000  0.21783000  1.0
  O  O100  1  0.13540000  0.06839000  0.67221000  1.0
  O  O101  1  0.63539000  0.43164000  0.82780000  1.0
  O  O102  1  0.86460000  0.93161000  0.32779000  1.0
  O  O103  1  0.36460000  0.56839000  0.17221000  1.0
  O  O104  1  0.56023000  0.75340000  0.70815000  1.0
  O  O105  1  0.06022000  0.74660000  0.79185000  1.0
  O  O106  1  0.43977000  0.24660000  0.29185000  1.0
  O  O107  1  0.93977000  0.25339000  0.20815000  1.0
  O  O108  1  0.63635000  0.87824000  0.56727000  1.0
  O  O109  1  0.13635000  0.62177000  0.93274000  1.0
  O  O110  1  0.36365000  0.12175000  0.43274000  1.0
  O  O111  1  0.86366000  0.37824000  0.06726000  1.0
