# generated using pymatgen
data_CoH20C24(NO)4
_symmetry_space_group_name_H-M   'P 1'
_cell_length_a   8.17886000
_cell_length_b   8.53042000
_cell_length_c   9.36226000
_cell_angle_alpha   79.20650000
_cell_angle_beta   84.01210000
_cell_angle_gamma   73.44610000
_symmetry_Int_Tables_number   1
_chemical_formula_structural   CoH20C24(NO)4
_chemical_formula_sum   'Co1 H20 C24 N4 O4'
_cell_volume   614.14440431
_cell_formula_units_Z   1
loop_
 _symmetry_equiv_pos_site_id
 _symmetry_equiv_pos_as_xyz
  1  'x, y, z'
loop_
 _atom_site_type_symbol
 _atom_site_label
 _atom_site_symmetry_multiplicity
 _atom_site_fract_x
 _atom_site_fract_y
 _atom_site_fract_z
 _atom_site_occupancy
  Co  Co0  1  0.00000000  0.50001000  0.00003000  1.0
  H  H1  1  0.75895000  0.78484000  0.81669000  1.0
  H  H2  1  0.24108000  0.21518000  0.18336000  1.0
  H  H3  1  0.44589000  0.92532000  0.85356000  1.0
  H  H4  1  0.55413000  0.07469000  0.14646000  1.0
  H  H5  1  0.28147000  0.81402000  0.07297000  1.0
  H  H6  1  0.71852000  0.18596000  0.92702000  1.0
  H  H7  1  0.43879000  0.55836000  0.24176000  1.0
  H  H8  1  0.56119000  0.44162000  0.75823000  1.0
  H  H9  1  0.11135000  0.12774000  0.97548000  1.0
  H  H10  1  0.88872000  0.87226000  0.02447000  1.0
  H  H11  1  0.08316000  0.93011000  0.81743000  1.0
  H  H12  1  0.91686000  0.06989000  0.18254000  1.0
  H  H13  1  0.81941000  0.35284000  0.51864000  1.0
  H  H14  1  0.18055000  0.64717000  0.48137000  1.0
  H  H15  1  0.86505000  0.53430000  0.68567000  1.0
  H  H16  1  0.13495000  0.46570000  0.31433000  1.0
  H  H17  1  0.80508000  0.06535000  0.50490000  1.0
  H  H18  1  0.19489000  0.93465000  0.49510000  1.0
  H  H19  1  0.92795000  0.89045000  0.62423000  1.0
  H  H20  1  0.07203000  0.10955000  0.37577000  1.0
  C  C21  1  0.68048000  0.73986000  0.90765000  1.0
  C  C22  1  0.31952000  0.26016000  0.09238000  1.0
  C  C23  1  0.50754000  0.81719000  0.93046000  1.0
  C  C24  1  0.49247000  0.18282000  0.06956000  1.0
  C  C25  1  0.41637000  0.75489000  0.05179000  1.0
  C  C26  1  0.58363000  0.24511000  0.94822000  1.0
  C  C27  1  0.50121000  0.61429000  0.14537000  1.0
  C  C28  1  0.49878000  0.38571000  0.85463000  1.0
  C  C29  1  0.67294000  0.54156000  0.11526000  1.0
  C  C30  1  0.32705000  0.45843000  0.88475000  1.0
  C  C31  1  0.77624000  0.38858000  0.20635000  1.0
  C  C32  1  0.22375000  0.61141000  0.79365000  1.0
  C  C33  1  0.04955000  0.17305000  0.87212000  1.0
  C  C34  1  0.95049000  0.82695000  0.12785000  1.0
  C  C35  1  0.03313000  0.06361000  0.78508000  1.0
  C  C36  1  0.96688000  0.93638000  0.21491000  1.0
  C  C37  1  0.94749000  0.12619000  0.65571000  1.0
  C  C38  1  0.05249000  0.87382000  0.34429000  1.0
  C  C39  1  0.88689000  0.29896000  0.61853000  1.0
  C  C40  1  0.11309000  0.70104000  0.38146000  1.0
  C  C41  1  0.91083000  0.39942000  0.71145000  1.0
  C  C42  1  0.08916000  0.60058000  0.28854000  1.0
  C  C43  1  0.92619000  0.01233000  0.55915000  1.0
  C  C44  1  0.07378000  0.98768000  0.44084000  1.0
  N  N45  1  0.76235000  0.60492000  0.99928000  1.0
  N  N46  1  0.23765000  0.39508000  0.00074000  1.0
  N  N47  1  0.98855000  0.33855000  0.83769000  1.0
  N  N48  1  0.01148000  0.66145000  0.16228000  1.0
  O  O49  1  0.93691000  0.34495000  0.16075000  1.0
  O  O50  1  0.06308000  0.65504000  0.83927000  1.0
  O  O51  1  0.70998000  0.31310000  0.31267000  1.0
  O  O52  1  0.28999000  0.68686000  0.68732000  1.0
