# generated using pymatgen
data_CdP2H12C8(NO2)4
_symmetry_space_group_name_H-M   'P 1'
_cell_length_a   7.19054000
_cell_length_b   12.49050000
_cell_length_c   16.04100000
_cell_angle_alpha   90.00000000
_cell_angle_beta   90.00020000
_cell_angle_gamma   89.99990000
_symmetry_Int_Tables_number   1
_chemical_formula_structural   CdP2H12C8(NO2)4
_chemical_formula_sum   'Cd4 P8 H48 C32 N16 O32'
_cell_volume   1440.69738894
_cell_formula_units_Z   4
loop_
 _symmetry_equiv_pos_site_id
 _symmetry_equiv_pos_as_xyz
  1  'x, y, z'
loop_
 _atom_site_type_symbol
 _atom_site_label
 _atom_site_symmetry_multiplicity
 _atom_site_fract_x
 _atom_site_fract_y
 _atom_site_fract_z
 _atom_site_occupancy
  Cd  Cd0  1  0.00000000  0.50000000  0.50000000  1.0
  Cd  Cd1  1  0.00000000  0.00000000  0.00000000  1.0
  Cd  Cd2  1  0.50000000  0.00000000  0.50000000  1.0
  Cd  Cd3  1  0.50000000  0.50000000  0.00000000  1.0
  P  P4  1  0.24462000  0.35929000  0.83876000  1.0
  P  P5  1  0.75538000  0.14070000  0.33876000  1.0
  P  P6  1  0.25538000  0.85929000  0.16125000  1.0
  P  P7  1  0.74462000  0.64071000  0.66124000  1.0
  P  P8  1  0.75538000  0.64071000  0.16124000  1.0
  P  P9  1  0.24462000  0.85930000  0.66124000  1.0
  P  P10  1  0.74462000  0.14071000  0.83876000  1.0
  P  P11  1  0.25538000  0.35930000  0.33876000  1.0
  H  H12  1  0.59498000  0.32296000  0.74102000  1.0
  H  H13  1  0.40502000  0.17704000  0.24102000  1.0
  H  H14  1  0.90502000  0.82296000  0.25898000  1.0
  H  H15  1  0.09498000  0.67704000  0.75898000  1.0
  H  H16  1  0.40502000  0.67704000  0.25898000  1.0
  H  H17  1  0.59498000  0.82296000  0.75897000  1.0
  H  H18  1  0.09498000  0.17704000  0.74102000  1.0
  H  H19  1  0.90502000  0.32296000  0.24102000  1.0
  H  H20  1  0.43205000  0.40625000  0.50147000  1.0
  H  H21  1  0.56795000  0.09375000  0.00147000  1.0
  H  H22  1  0.06795000  0.90625000  0.49853000  1.0
  H  H23  1  0.93205000  0.59375000  0.99853000  1.0
  H  H24  1  0.56795000  0.59375000  0.49853000  1.0
  H  H25  1  0.43206000  0.90625000  0.99853000  1.0
  H  H26  1  0.93205000  0.09375000  0.50147000  1.0
  H  H27  1  0.06795000  0.40625000  0.00147000  1.0
  H  H28  1  0.03781000  0.43496000  0.68833000  1.0
  H  H29  1  0.96219000  0.06504000  0.18832000  1.0
  H  H30  1  0.46219000  0.93496000  0.31168000  1.0
  H  H31  1  0.53781000  0.56504000  0.81167000  1.0
  H  H32  1  0.96218000  0.56504000  0.31167000  1.0
  H  H33  1  0.03781000  0.93496000  0.81167000  1.0
  H  H34  1  0.53781000  0.06504000  0.68832000  1.0
  H  H35  1  0.46219000  0.43496000  0.18832000  1.0
  H  H36  1  0.20692000  0.69290000  0.53738000  1.0
  H  H37  1  0.79308000  0.80710000  0.03738000  1.0
  H  H38  1  0.29308000  0.19290000  0.46262000  1.0
  H  H39  1  0.70692000  0.30710000  0.96262000  1.0
  H  H40  1  0.79308000  0.30710000  0.46262000  1.0
  H  H41  1  0.20692000  0.19290000  0.96262000  1.0
  H  H42  1  0.70692000  0.80710000  0.53738000  1.0
  H  H43  1  0.29308000  0.69290000  0.03738000  1.0
  H  H44  1  0.26830000  0.65816000  0.44417000  1.0
  H  H45  1  0.73170000  0.84184000  0.94417000  1.0
  H  H46  1  0.23170000  0.15816000  0.55583000  1.0
  H  H47  1  0.76830000  0.34184000  0.05583000  1.0
  H  H48  1  0.73170000  0.34184000  0.55583000  1.0
  H  H49  1  0.26830000  0.15816000  0.05583000  1.0
  H  H50  1  0.76830000  0.84184000  0.44417000  1.0
  H  H51  1  0.23170000  0.65816000  0.94417000  1.0
  H  H52  1  0.93382000  0.32924000  0.84984000  1.0
  H  H53  1  0.06618000  0.17076000  0.34984000  1.0
  H  H54  1  0.56618000  0.82924000  0.15016000  1.0
  H  H55  1  0.43382000  0.67076000  0.65016000  1.0
  H  H56  1  0.06618000  0.67076000  0.15016000  1.0
  H  H57  1  0.93382000  0.82924000  0.65016000  1.0
  H  H58  1  0.43382000  0.17076000  0.84984000  1.0
  H  H59  1  0.56618000  0.32924000  0.34984000  1.0
  C  C60  1  0.30544000  0.37215000  0.72914000  1.0
  C  C61  1  0.69457000  0.12785000  0.22914000  1.0
  C  C62  1  0.19457000  0.87215000  0.27086000  1.0
  C  C63  1  0.80543000  0.62785000  0.77086000  1.0
  C  C64  1  0.69456000  0.62785000  0.27086000  1.0
  C  C65  1  0.30543000  0.87215000  0.77086000  1.0
  C  C66  1  0.80543000  0.12785000  0.72914000  1.0
  C  C67  1  0.19456000  0.37215000  0.22914000  1.0
  C  C68  1  0.48449000  0.34950000  0.69899000  1.0
  C  C69  1  0.51551000  0.15050000  0.19899000  1.0
  C  C70  1  0.01552000  0.84949000  0.30101000  1.0
  C  C71  1  0.98449000  0.65050000  0.80101000  1.0
  C  C72  1  0.51551000  0.65051000  0.30100000  1.0
  C  C73  1  0.48449000  0.84950000  0.80100000  1.0
  C  C74  1  0.98449000  0.15050000  0.69899000  1.0
  C  C75  1  0.01551000  0.34950000  0.19899000  1.0
  C  C76  1  0.39683000  0.39726000  0.56732000  1.0
  C  C77  1  0.60317000  0.10274000  0.06732000  1.0
  C  C78  1  0.10317000  0.89726000  0.43268000  1.0
  C  C79  1  0.89683000  0.60274000  0.93268000  1.0
  C  C80  1  0.60317000  0.60274000  0.43268000  1.0
  C  C81  1  0.39683000  0.89727000  0.93268000  1.0
  C  C82  1  0.89683000  0.10274000  0.56732000  1.0
  C  C83  1  0.10317000  0.39726000  0.06732000  1.0
  C  C84  1  0.17870000  0.41159000  0.67092000  1.0
  C  C85  1  0.82130000  0.08841000  0.17092000  1.0
  C  C86  1  0.32130000  0.91158000  0.32908000  1.0
  C  C87  1  0.67870000  0.58841000  0.82908000  1.0
  C  C88  1  0.82129000  0.58841000  0.32908000  1.0
  C  C89  1  0.17870000  0.91159000  0.82908000  1.0
  C  C90  1  0.67870000  0.08841000  0.67092000  1.0
  C  C91  1  0.32130000  0.41159000  0.17092000  1.0
  N  N92  1  0.52907000  0.36024000  0.61832000  1.0
  N  N93  1  0.47093000  0.13976000  0.11832000  1.0
  N  N94  1  0.97093000  0.86023000  0.38168000  1.0
  N  N95  1  0.02907000  0.63976000  0.88168000  1.0
  N  N96  1  0.47093000  0.63977000  0.38168000  1.0
  N  N97  1  0.52907000  0.86024000  0.88168000  1.0
  N  N98  1  0.02907000  0.13976000  0.61832000  1.0
  N  N99  1  0.97093000  0.36024000  0.11832000  1.0
  N  N100  1  0.22515000  0.42528000  0.59048000  1.0
  N  N101  1  0.77485000  0.07472000  0.09048000  1.0
  N  N102  1  0.27485000  0.92528000  0.40952000  1.0
  N  N103  1  0.72515000  0.57472000  0.90952000  1.0
  N  N104  1  0.77485000  0.57472000  0.40952000  1.0
  N  N105  1  0.22516000  0.92529000  0.90952000  1.0
  N  N106  1  0.72516000  0.07472000  0.59048000  1.0
  N  N107  1  0.27485000  0.42528000  0.09048000  1.0
  O  O108  1  0.03165000  0.38974000  0.84338000  1.0
  O  O109  1  0.96835000  0.11026000  0.34338000  1.0
  O  O110  1  0.46835000  0.88974000  0.15662000  1.0
  O  O111  1  0.53165000  0.61026000  0.65662000  1.0
  O  O112  1  0.96835000  0.61026000  0.15662000  1.0
  O  O113  1  0.03165000  0.88974000  0.65662000  1.0
  O  O114  1  0.53165000  0.11026000  0.84338000  1.0
  O  O115  1  0.46835000  0.38974000  0.34338000  1.0
  O  O116  1  0.27196000  0.24264000  0.86443000  1.0
  O  O117  1  0.72804000  0.25736000  0.36443000  1.0
  O  O118  1  0.22804000  0.74264000  0.13557000  1.0
  O  O119  1  0.77196000  0.75736000  0.63557000  1.0
  O  O120  1  0.72804000  0.75736000  0.13557000  1.0
  O  O121  1  0.27196000  0.74264000  0.63557000  1.0
  O  O122  1  0.77196000  0.25736000  0.86443000  1.0
  O  O123  1  0.22804000  0.24264000  0.36443000  1.0
  O  O124  1  0.35687000  0.44406000  0.88250000  1.0
  O  O125  1  0.64314000  0.05593000  0.38250000  1.0
  O  O126  1  0.14314000  0.94406000  0.11750000  1.0
  O  O127  1  0.85686000  0.55594000  0.61750000  1.0
  O  O128  1  0.64313000  0.55594000  0.11750000  1.0
  O  O129  1  0.35686000  0.94406000  0.61750000  1.0
  O  O130  1  0.85686000  0.05594000  0.88250000  1.0
  O  O131  1  0.14314000  0.44407000  0.38250000  1.0
  O  O132  1  0.16147000  0.66185000  0.48412000  1.0
  O  O133  1  0.83853000  0.83815000  0.98412000  1.0
  O  O134  1  0.33853000  0.16185000  0.51588000  1.0
  O  O135  1  0.66147000  0.33815000  0.01587000  1.0
  O  O136  1  0.83853000  0.33815000  0.51588000  1.0
  O  O137  1  0.16147000  0.16185000  0.01588000  1.0
  O  O138  1  0.66147000  0.83815000  0.48413000  1.0
  O  O139  1  0.33853000  0.66185000  0.98412000  1.0
