# generated using pymatgen
data_CdH14C24N4(O2F)2
_symmetry_space_group_name_H-M   'P 1'
_cell_length_a   7.95789000
_cell_length_b   13.87040000
_cell_length_c   21.70210000
_cell_angle_alpha   72.86200000
_cell_angle_beta   89.99990000
_cell_angle_gamma   89.99880000
_symmetry_Int_Tables_number   1
_chemical_formula_structural   CdH14C24N4(O2F)2
_chemical_formula_sum   'Cd4 H56 C96 N16 O16 F8'
_cell_volume   2289.09498583
_cell_formula_units_Z   4
loop_
 _symmetry_equiv_pos_site_id
 _symmetry_equiv_pos_as_xyz
  1  'x, y, z'
loop_
 _atom_site_type_symbol
 _atom_site_label
 _atom_site_symmetry_multiplicity
 _atom_site_fract_x
 _atom_site_fract_y
 _atom_site_fract_z
 _atom_site_occupancy
  Cd  Cd0  1  0.02433000  0.79491000  0.48831000  1.0
  Cd  Cd1  1  0.52435000  0.70509000  0.01169000  1.0
  Cd  Cd2  1  0.97567000  0.20510000  0.51169000  1.0
  Cd  Cd3  1  0.47565000  0.29491000  0.98831000  1.0
  H  H4  1  0.42039000  0.79699000  0.48865000  1.0
  H  H5  1  0.92038000  0.70302000  0.01135000  1.0
  H  H6  1  0.57963000  0.20303000  0.51135000  1.0
  H  H7  1  0.07961000  0.29698000  0.98865000  1.0
  H  H8  1  0.09318000  0.93832000  0.58481000  1.0
  H  H9  1  0.59319000  0.56169000  0.91518000  1.0
  H  H10  1  0.90683000  0.06169000  0.41519000  1.0
  H  H11  1  0.40681000  0.43830000  0.08482000  1.0
  H  H12  1  0.63039000  0.96282000  0.60989000  1.0
  H  H13  1  0.13041000  0.53719000  0.89012000  1.0
  H  H14  1  0.36961000  0.03720000  0.39011000  1.0
  H  H15  1  0.86960000  0.46282000  0.10988000  1.0
  H  H16  1  0.99222000  0.92490000  0.22313000  1.0
  H  H17  1  0.49220000  0.57508000  0.27687000  1.0
  H  H18  1  0.00777000  0.07508000  0.77688000  1.0
  H  H19  1  0.50777000  0.42491000  0.72314000  1.0
  H  H20  1  0.12353000  0.22459000  0.13464000  1.0
  H  H21  1  0.62353000  0.27539000  0.36535000  1.0
  H  H22  1  0.87647000  0.77538000  0.86536000  1.0
  H  H23  1  0.37647000  0.72461000  0.63464000  1.0
  H  H24  1  0.13887000  0.10876000  0.34259000  1.0
  H  H25  1  0.63893000  0.39124000  0.15740000  1.0
  H  H26  1  0.86111000  0.89124000  0.65740000  1.0
  H  H27  1  0.36111000  0.60877000  0.84260000  1.0
  H  H28  1  0.88238000  0.71211000  0.64221000  1.0
  H  H29  1  0.38236000  0.78789000  0.85779000  1.0
  H  H30  1  0.11764000  0.28790000  0.35779000  1.0
  H  H31  1  0.61762000  0.21210000  0.14222000  1.0
  H  H32  1  0.88298000  0.55557000  0.73694000  1.0
  H  H33  1  0.38297000  0.94443000  0.76306000  1.0
  H  H34  1  0.11703000  0.44443000  0.26306000  1.0
  H  H35  1  0.61703000  0.05556000  0.23695000  1.0
  H  H36  1  0.02394000  0.39985000  0.72510000  1.0
  H  H37  1  0.52395000  0.10015000  0.77490000  1.0
  H  H38  1  0.97606000  0.60016000  0.27489000  1.0
  H  H39  1  0.47608000  0.89983000  0.22511000  1.0
  H  H40  1  0.17738000  0.31503000  0.65424000  1.0
  H  H41  1  0.67737000  0.18497000  0.84576000  1.0
  H  H42  1  0.82261000  0.68498000  0.34576000  1.0
  H  H43  1  0.32264000  0.81502000  0.15424000  1.0
  H  H44  1  0.31519000  0.32670000  0.55036000  1.0
  H  H45  1  0.81516000  0.17331000  0.94964000  1.0
  H  H46  1  0.68482000  0.67332000  0.44964000  1.0
  H  H47  1  0.18485000  0.82669000  0.05035000  1.0
  H  H48  1  0.39899000  0.43052000  0.43828000  1.0
  H  H49  1  0.89899000  0.06948000  0.06172000  1.0
  H  H50  1  0.60102000  0.56949000  0.56172000  1.0
  H  H51  1  0.10102000  0.93052000  0.93827000  1.0
  H  H52  1  0.38620000  0.59497000  0.35266000  1.0
  H  H53  1  0.88622000  0.90502000  0.14734000  1.0
  H  H54  1  0.61379000  0.40504000  0.64734000  1.0
  H  H55  1  0.11378000  0.09498000  0.85266000  1.0
  H  H56  1  0.22978000  0.73947000  0.37373000  1.0
  H  H57  1  0.72980000  0.76053000  0.12627000  1.0
  H  H58  1  0.77021000  0.26054000  0.62627000  1.0
  H  H59  1  0.27020000  0.23947000  0.87373000  1.0
  C  C60  1  0.71877000  0.84806000  0.53096000  1.0
  C  C61  1  0.21877000  0.65194000  0.96904000  1.0
  C  C62  1  0.28124000  0.15195000  0.46905000  1.0
  C  C63  1  0.78122000  0.34806000  0.03095000  1.0
  C  C64  1  0.54602000  0.87504000  0.54799000  1.0
  C  C65  1  0.04602000  0.62496000  0.95202000  1.0
  C  C66  1  0.45400000  0.12497000  0.45201000  1.0
  C  C67  1  0.95398000  0.37504000  0.04798000  1.0
  C  C68  1  0.40475000  0.84202000  0.52181000  1.0
  C  C69  1  0.90476000  0.65797000  0.97820000  1.0
  C  C70  1  0.59526000  0.15798000  0.47819000  1.0
  C  C71  1  0.09524000  0.34202000  0.02181000  1.0
  C  C72  1  0.22231000  0.91961000  0.57583000  1.0
  C  C73  1  0.72232000  0.58040000  0.92418000  1.0
  C  C74  1  0.77771000  0.08039000  0.42418000  1.0
  C  C75  1  0.27768000  0.41960000  0.07583000  1.0
  C  C76  1  0.35900000  0.95427000  0.60342000  1.0
  C  C77  1  0.85901000  0.54574000  0.89657000  1.0
  C  C78  1  0.64101000  0.04574000  0.39658000  1.0
  C  C79  1  0.14099000  0.45427000  0.10342000  1.0
  C  C80  1  0.52297000  0.93343000  0.58996000  1.0
  C  C81  1  0.02297000  0.56657000  0.91005000  1.0
  C  C82  1  0.47704000  0.06658000  0.41004000  1.0
  C  C83  1  0.97703000  0.43343000  0.08995000  1.0
  C  C84  1  0.03902000  0.91408000  0.34692000  1.0
  C  C85  1  0.53901000  0.58592000  0.15309000  1.0
  C  C86  1  0.96097000  0.08592000  0.65309000  1.0
  C  C87  1  0.46097000  0.41408000  0.84691000  1.0
  C  C88  1  0.06251000  0.00567000  0.28908000  1.0
  C  C89  1  0.56249000  0.49432000  0.21092000  1.0
  C  C90  1  0.93748000  0.99433000  0.71092000  1.0
  C  C91  1  0.43748000  0.50567000  0.78909000  1.0
  C  C92  1  0.03277000  0.99791000  0.22721000  1.0
  C  C93  1  0.53273000  0.50206000  0.27279000  1.0
  C  C94  1  0.96722000  0.00207000  0.77279000  1.0
  C  C95  1  0.46722000  0.49792000  0.72722000  1.0
  C  C96  1  0.10513000  0.16271000  0.17862000  1.0
  C  C97  1  0.60513000  0.33728000  0.32137000  1.0
  C  C98  1  0.89485000  0.83728000  0.82138000  1.0
  C  C99  1  0.39486000  0.66272000  0.67862000  1.0
  C  C100  1  0.13707000  0.17607000  0.23862000  1.0
  C  C101  1  0.63707000  0.32392000  0.26137000  1.0
  C  C102  1  0.86291000  0.82392000  0.76137000  1.0
  C  C103  1  0.36291000  0.67608000  0.73863000  1.0
  C  C104  1  0.11562000  0.09857000  0.29527000  1.0
  C  C105  1  0.61562000  0.40142000  0.20472000  1.0
  C  C106  1  0.88437000  0.90142000  0.70473000  1.0
  C  C107  1  0.38437000  0.59858000  0.79528000  1.0
  C  C108  1  0.94370000  0.64327000  0.63938000  1.0
  C  C109  1  0.44369000  0.85673000  0.86063000  1.0
  C  C110  1  0.05631000  0.35674000  0.36062000  1.0
  C  C111  1  0.55631000  0.14326000  0.13938000  1.0
  C  C112  1  0.94435000  0.55531000  0.69217000  1.0
  C  C113  1  0.44434000  0.94468000  0.80783000  1.0
  C  C114  1  0.05565000  0.44469000  0.30782000  1.0
  C  C115  1  0.55566000  0.05530000  0.19218000  1.0
  C  C116  1  0.02246000  0.46994000  0.68554000  1.0
  C  C117  1  0.52246000  0.03005000  0.81446000  1.0
  C  C118  1  0.97753000  0.53006000  0.31445000  1.0
  C  C119  1  0.47756000  0.96993000  0.18554000  1.0
  C  C120  1  0.10131000  0.47286000  0.62671000  1.0
  C  C121  1  0.60130000  0.02714000  0.87329000  1.0
  C  C122  1  0.89868000  0.52715000  0.37329000  1.0
  C  C123  1  0.39872000  0.97285000  0.12671000  1.0
  C  C124  1  0.09633000  0.56573000  0.57636000  1.0
  C  C125  1  0.59632000  0.93427000  0.92364000  1.0
  C  C126  1  0.90367000  0.43428000  0.42364000  1.0
  C  C127  1  0.40369000  0.06572000  0.07636000  1.0
  C  C128  1  0.18222000  0.38691000  0.61629000  1.0
  C  C129  1  0.68221000  0.11310000  0.88371000  1.0
  C  C130  1  0.81778000  0.61311000  0.38371000  1.0
  C  C131  1  0.31781000  0.88689000  0.11629000  1.0
  C  C132  1  0.25753000  0.39303000  0.55874000  1.0
  C  C133  1  0.75752000  0.10697000  0.94126000  1.0
  C  C134  1  0.74247000  0.60698000  0.44126000  1.0
  C  C135  1  0.24249000  0.89302000  0.05873000  1.0
  C  C136  1  0.25773000  0.48544000  0.50724000  1.0
  C  C137  1  0.75772000  0.01456000  0.99276000  1.0
  C  C138  1  0.74228000  0.51458000  0.49276000  1.0
  C  C139  1  0.24228000  0.98543000  0.00724000  1.0
  C  C140  1  0.17684000  0.57235000  0.51545000  1.0
  C  C141  1  0.67684000  0.92765000  0.98455000  1.0
  C  C142  1  0.82316000  0.42766000  0.48455000  1.0
  C  C143  1  0.32318000  0.07234000  0.01546000  1.0
  C  C144  1  0.33482000  0.49462000  0.44716000  1.0
  C  C145  1  0.83482000  0.00538000  0.05284000  1.0
  C  C146  1  0.66519000  0.50539000  0.55284000  1.0
  C  C147  1  0.16519000  0.99462000  0.94716000  1.0
  C  C148  1  0.32807000  0.58581000  0.39928000  1.0
  C  C149  1  0.82807000  0.91419000  0.10071000  1.0
  C  C150  1  0.67194000  0.41420000  0.60072000  1.0
  C  C151  1  0.17193000  0.08581000  0.89929000  1.0
  C  C152  1  0.24390000  0.66745000  0.41107000  1.0
  C  C153  1  0.74391000  0.83255000  0.08892000  1.0
  C  C154  1  0.75609000  0.33256000  0.58892000  1.0
  C  C155  1  0.25610000  0.16745000  0.91108000  1.0
  N  N156  1  0.24737000  0.86330000  0.53574000  1.0
  N  N157  1  0.74737000  0.63669000  0.96427000  1.0
  N  N158  1  0.75265000  0.13669000  0.46426000  1.0
  N  N159  1  0.25261000  0.36330000  0.03574000  1.0
  N  N160  1  0.05207000  0.07398000  0.17282000  1.0
  N  N161  1  0.55203000  0.42600000  0.32718000  1.0
  N  N162  1  0.94792000  0.92600000  0.82718000  1.0
  N  N163  1  0.44793000  0.57399000  0.67282000  1.0
  N  N164  1  0.01700000  0.64821000  0.58337000  1.0
  N  N165  1  0.51698000  0.85179000  0.91663000  1.0
  N  N166  1  0.98301000  0.35180000  0.41663000  1.0
  N  N167  1  0.48302000  0.14820000  0.08338000  1.0
  N  N168  1  0.17121000  0.66095000  0.46747000  1.0
  N  N169  1  0.67122000  0.83906000  0.03253000  1.0
  N  N170  1  0.82879000  0.33907000  0.53253000  1.0
  N  N171  1  0.32879000  0.16094000  0.96747000  1.0
  O  O172  1  0.73072000  0.80586000  0.48607000  1.0
  O  O173  1  0.23074000  0.69414000  0.01393000  1.0
  O  O174  1  0.26928000  0.19415000  0.51394000  1.0
  O  O175  1  0.76927000  0.30586000  0.98606000  1.0
  O  O176  1  0.84303000  0.86803000  0.56146000  1.0
  O  O177  1  0.34303000  0.63198000  0.93854000  1.0
  O  O178  1  0.15698000  0.13198000  0.43854000  1.0
  O  O179  1  0.65697000  0.36802000  0.06146000  1.0
  O  O180  1  0.07979000  0.92719000  0.40146000  1.0
  O  O181  1  0.57979000  0.57281000  0.09854000  1.0
  O  O182  1  0.92021000  0.07282000  0.59854000  1.0
  O  O183  1  0.42020000  0.42719000  0.90146000  1.0
  O  O184  1  0.98620000  0.83376000  0.33859000  1.0
  O  O185  1  0.48621000  0.66623000  0.16142000  1.0
  O  O186  1  0.01378000  0.16623000  0.66143000  1.0
  O  O187  1  0.51379000  0.33378000  0.83859000  1.0
  F  F188  1  0.33002000  0.00994000  0.64437000  1.0
  F  F189  1  0.83003000  0.49008000  0.85562000  1.0
  F  F190  1  0.66999000  0.99007000  0.35563000  1.0
  F  F191  1  0.16996000  0.50993000  0.14438000  1.0
  F  F192  1  0.19164000  0.26853000  0.24112000  1.0
  F  F193  1  0.69168000  0.23146000  0.25887000  1.0
  F  F194  1  0.80833000  0.73147000  0.75887000  1.0
  F  F195  1  0.30832000  0.76854000  0.74112000  1.0
