# generated using pymatgen
data_Zn4H27C36Cl3O13
_symmetry_space_group_name_H-M   'P 1'
_cell_length_a   18.42770000
_cell_length_b   18.43800000
_cell_length_c   18.45645718
_cell_angle_alpha   119.96497736
_cell_angle_beta   90.56059651
_cell_angle_gamma   119.32970000
_symmetry_Int_Tables_number   1
_chemical_formula_structural   Zn4H27C36Cl3O13
_chemical_formula_sum   'Zn8 H54 C72 Cl6 O26'
_cell_volume   4459.47020094
_cell_formula_units_Z   2
loop_
 _symmetry_equiv_pos_site_id
 _symmetry_equiv_pos_as_xyz
  1  'x, y, z'
loop_
 _atom_site_type_symbol
 _atom_site_label
 _atom_site_symmetry_multiplicity
 _atom_site_fract_x
 _atom_site_fract_y
 _atom_site_fract_z
 _atom_site_occupancy
  Zn  Zn0  1  0.86972000  0.41576000  0.96184000  1.0
  Zn  Zn1  1  0.45612000  0.58827000  0.54724000  1.0
  Zn  Zn2  1  0.04308000  0.58915000  0.13500000  1.0
  Zn  Zn3  1  0.04038000  0.41174000  0.95612000  1.0
  Zn  Zn4  1  0.45893000  0.41090000  0.37295000  1.0
  Zn  Zn5  1  0.45458000  0.41424000  0.54591000  1.0
  Zn  Zn6  1  0.04305000  0.58861000  0.96153000  1.0
  Zn  Zn7  1  0.62985000  0.59041000  0.54698000  1.0
  H  H8  1  0.68449000  0.09804000  0.84629000  1.0
  H  H9  1  0.30223000  0.61400000  0.41099000  1.0
  H  H10  1  0.98380000  0.19056000  0.73513000  1.0
  H  H11  1  0.98357000  0.08456000  0.65387000  1.0
  H  H12  1  0.61846000  0.16569000  0.22849000  1.0
  H  H13  1  0.56111000  0.04153000  0.20319000  1.0
  H  H14  1  0.60703000  0.06449000  0.12681000  1.0
  H  H15  1  0.44163000  0.97747000  0.07752000  1.0
  H  H16  1  0.49685000  0.09747000  0.09593000  1.0
  H  H17  1  0.48190000  0.17551000  0.24528000  1.0
  H  H18  1  0.44030000  0.06204000  0.23728000  1.0
  H  H19  1  0.20599000  0.61453000  0.31628000  1.0
  H  H20  1  0.24666000  0.27436000  0.12592000  1.0
  H  H21  1  0.15028000  0.27573000  0.02919000  1.0
  H  H22  1  0.34266000  0.36716000  0.12353000  1.0
  H  H23  1  0.24633000  0.36954000  0.02790000  1.0
  H  H24  1  0.23939000  0.09803000  0.40616000  1.0
  H  H25  1  0.68248000  0.38438000  0.79834000  1.0
  H  H26  1  0.58675000  0.38429000  0.70232000  1.0
  H  H27  1  0.86843000  0.71917000  0.75424000  1.0
  H  H28  1  0.96617000  0.71920000  0.85145000  1.0
  H  H29  1  0.87101000  0.62526000  0.65794000  1.0
  H  H30  1  0.96801000  0.62469000  0.75497000  1.0
  H  H31  1  0.58969000  0.90834000  0.75148000  1.0
  H  H32  1  0.14158000  0.90874000  0.31181000  1.0
  H  H33  1  0.83836000  0.89943000  0.61239000  1.0
  H  H34  1  0.30621000  0.89085000  0.07947000  1.0
  H  H35  1  0.97068000  0.09499000  0.79408000  1.0
  H  H36  1  0.34591000  0.09458000  0.12982000  1.0
  H  H37  1  0.89869000  0.67141000  0.31099000  1.0
  H  H38  1  0.30873000  0.63109000  0.72068000  1.0
  H  H39  1  0.80292000  0.66953000  0.40499000  1.0
  H  H40  1  0.59424000  0.27202000  0.18973000  1.0
  H  H41  1  0.21474000  0.63129000  0.81665000  1.0
  H  H42  1  0.75696000  0.16168000  0.13879000  1.0
  H  H43  1  0.84838000  0.25105000  0.12950000  1.0
  H  H44  1  0.84890000  0.27423000  0.23524000  1.0
  H  H45  1  0.81587000  0.38149000  0.21711000  1.0
  H  H46  1  0.72557000  0.29506000  0.22823000  1.0
  H  H47  1  0.65119000  0.17682000  0.06068000  1.0
  H  H48  1  0.74392000  0.26318000  0.05072000  1.0
  H  H49  1  0.13282000  0.27242000  0.72821000  1.0
  H  H50  1  0.13101000  0.12549000  0.42308000  1.0
  H  H51  1  0.06710000  0.05843000  0.46676000  1.0
  H  H52  1  0.02879000  0.10945000  0.42922000  1.0
  H  H53  1  0.08899000  0.22138000  0.59387000  1.0
  H  H54  1  0.15583000  0.28735000  0.55184000  1.0
  H  H55  1  0.26577000  0.25284000  0.57335000  1.0
  H  H56  1  0.19895000  0.17875000  0.61011000  1.0
  H  H57  1  0.94183000  0.20447000  0.61035000  1.0
  H  H58  1  0.93190000  0.09191000  0.52613000  1.0
  H  H59  1  0.84075000  0.10096000  0.52079000  1.0
  H  H60  1  0.82029000  0.99244000  0.57368000  1.0
  H  H61  1  0.82549000  0.10141000  0.65457000  1.0
  C  C62  1  0.13598000  0.50090000  0.86413000  1.0
  C  C63  1  0.18250000  0.89094000  0.19850000  1.0
  C  C64  1  0.36452000  0.49680000  0.36029000  1.0
  C  C65  1  0.12977000  0.77763000  0.14364000  1.0
  C  C66  1  0.63481000  0.77854000  0.64957000  1.0
  C  C67  1  0.85770000  0.22470000  0.87088000  1.0
  C  C68  1  0.35790000  0.22338000  0.36678000  1.0
  C  C69  1  0.83410000  0.05419000  0.76946000  1.0
  C  C70  1  0.69239000  0.89203000  0.70942000  1.0
  C  C71  1  0.29528000  0.05214000  0.22219000  1.0
  C  C72  1  0.80151000  0.11140000  0.81678000  1.0
  C  C73  1  0.29743000  0.11012000  0.30871000  1.0
  C  C74  1  0.71218000  0.05585000  0.80999000  1.0
  C  C75  1  0.23921000  0.05525000  0.33877000  1.0
  C  C76  1  0.70455000  0.25818000  0.09458000  1.0
  C  C77  1  0.76377000  0.29985000  0.18333000  1.0
  C  C78  1  0.80677000  0.24352000  0.17110000  1.0
  C  C79  1  0.21717000  0.24402000  0.60794000  1.0
  C  C80  1  0.13566000  0.22356667  0.55690000  1.0
  C  C81  1  0.08805000  0.12381000  0.46395000  1.0
  C  C82  1  0.78147000  0.94798000  0.71862000  1.0
  C  C83  1  0.94164000  0.10691000  0.68758000  1.0
  C  C84  1  0.86530000  0.07621000  0.61968000  1.0
  C  C85  1  0.89658000  0.12073000  0.56628000  1.0
  C  C86  1  0.44173000  0.09184000  0.19780000  1.0
  C  C87  1  0.48607000  0.05995000  0.12992000  1.0
  C  C88  1  0.57293000  0.08418000  0.17407000  1.0
  C  C89  1  0.23821000  0.94603000  0.16855000  1.0
  C  C90  1  0.85345000  0.94010000  0.68450000  1.0
  C  C91  1  0.27846000  0.93565000  0.09597000  1.0
  C  C92  1  0.64079000  0.50952000  0.36829000  1.0
  C  C93  1  0.91304000  0.06089000  0.74046000  1.0
  C  C94  1  0.34742000  0.05581000  0.15901000  1.0
  C  C95  1  0.72060000  0.42911000  0.17048000  1.0
  C  C96  1  0.27140000  0.43359000  0.72162000  1.0
  C  C97  1  0.80549000  0.51527000  0.20021000  1.0
  C  C98  1  0.30443000  0.50308000  0.69921000  1.0
  C  C99  1  0.83292000  0.60245000  0.28551000  1.0
  C  C100  1  0.28304000  0.57480000  0.73572000  1.0
  C  C101  1  0.77915000  0.60139000  0.33844000  1.0
  C  C102  1  0.23022000  0.57486000  0.78950000  1.0
  C  C103  1  0.69505000  0.51296000  0.30930000  1.0
  C  C104  1  0.19504000  0.50260000  0.80957000  1.0
  C  C105  1  0.86490000  0.51295000  0.14616000  1.0
  C  C106  1  0.35959000  0.50287000  0.64069000  1.0
  C  C107  1  0.66734000  0.42785000  0.22340000  1.0
  C  C108  1  0.65906000  0.94934000  0.75719000  1.0
  C  C109  1  0.21820000  0.43328000  0.77471000  1.0
  C  C110  1  0.59949000  0.31398000  0.16169000  1.0
  C  C111  1  0.20144000  0.33959000  0.76500000  1.0
  C  C112  1  0.66218000  0.31414000  0.10149000  1.0
  C  C113  1  0.26301000  0.33919000  0.70369000  1.0
  C  C114  1  0.18392000  0.94888000  0.28567000  1.0
  C  C115  1  0.22232000  0.43012000  0.15606000  1.0
  C  C116  1  0.27630000  0.42961000  0.20944000  1.0
  C  C117  1  0.19554000  0.49598000  0.19220000  1.0
  C  C118  1  0.30673000  0.49519000  0.30192000  1.0
  C  C119  1  0.22578000  0.56220000  0.28587000  1.0
  C  C120  1  0.27966000  0.56189000  0.33892000  1.0
  C  C121  1  0.27744000  0.34553000  0.13065000  1.0
  C  C122  1  0.21681000  0.34646000  0.07036000  1.0
  C  C123  1  0.84052000  0.56510000  0.77934000  1.0
  C  C124  1  0.78674000  0.56497000  0.72531000  1.0
  C  C125  1  0.80520000  0.50041000  0.80659000  1.0
  C  C126  1  0.69478000  0.50014000  0.69562000  1.0
  C  C127  1  0.71205000  0.43525000  0.77754000  1.0
  C  C128  1  0.65847000  0.43516000  0.72375000  1.0
  C  C129  1  0.86173000  0.49930000  0.86328000  1.0
  C  C130  1  0.63710000  0.49858000  0.63742000  1.0
  C  C131  1  0.86445000  0.64812000  0.72369000  1.0
  C  C132  1  0.92537000  0.64805000  0.78462000  1.0
  C  C133  1  0.13839000  0.49795000  0.13673000  1.0
  Cl  Cl134  1  0.61179000  0.27140000  0.99249000  1.0
  Cl  Cl135  1  0.23399000  0.35063000  0.86271000  1.0
  Cl  Cl136  1  0.48974000  0.26854000  0.11316000  1.0
  Cl  Cl137  1  0.36468000  0.36385000  0.75030000  1.0
  Cl  Cl138  1  0.89634000  0.88842000  0.71754000  1.0
  Cl  Cl139  1  0.20990000  0.88838000  0.99258000  1.0
  O  O140  1  0.99966000  0.50169000  0.00455000  1.0
  O  O141  1  0.38602000  0.43401000  0.32144000  1.0
  O  O142  1  0.11595000  0.43679000  0.05262000  1.0
  O  O143  1  0.12336000  0.57138000  0.89599000  1.0
  O  O144  1  0.67899000  0.58244000  0.45073000  1.0
  O  O145  1  0.94799000  0.57383000  0.18770000  1.0
  O  O146  1  0.38005000  0.56391000  0.61840000  1.0
  O  O147  1  0.49986000  0.50145000  0.50343000  1.0
  O  O148  1  0.10269000  0.42833000  0.87363000  1.0
  O  O149  1  0.56046000  0.43240000  0.33071000  1.0
  O  O150  1  0.82607000  0.44797000  0.06257000  1.0
  O  O151  1  0.38119000  0.44057000  0.61784000  1.0
  O  O152  1  0.94522000  0.56078000  0.88547000  1.0
  O  O153  1  0.67654000  0.55860000  0.61397000  1.0
  O  O154  1  0.11661000  0.56015000  0.17746000  1.0
  O  O155  1  0.38766000  0.56061000  0.44398000  1.0
  O  O156  1  0.11501000  0.73346000  0.06037000  1.0
  O  O157  1  0.67492000  0.73521000  0.62200000  1.0
  O  O158  1  0.94034000  0.26696000  0.88307000  1.0
  O  O159  1  0.39217000  0.26625000  0.32776000  1.0
  O  O160  1  0.10583000  0.73509000  0.18430000  1.0
  O  O161  1  0.55129000  0.73473000  0.63005000  1.0
  O  O162  1  0.81929000  0.27003000  0.90030000  1.0
  O  O163  1  0.82270000  0.43741000  0.88484000  1.0
  O  O164  1  0.37038000  0.26818000  0.44992000  1.0
  O  O165  1  0.55366000  0.43766000  0.61563000  1.0
