# generated using pymatgen
data_CuH11C9N6Cl
_symmetry_space_group_name_H-M   'P 1'
_cell_length_a   6.07795000
_cell_length_b   7.12044000
_cell_length_c   13.64960000
_cell_angle_alpha   90.00030000
_cell_angle_beta   90.00060000
_cell_angle_gamma   89.99950000
_symmetry_Int_Tables_number   1
_chemical_formula_structural   CuH11C9N6Cl
_chemical_formula_sum   'Cu2 H22 C18 N12 Cl2'
_cell_volume   590.72299763
_cell_formula_units_Z   2
loop_
 _symmetry_equiv_pos_site_id
 _symmetry_equiv_pos_as_xyz
  1  'x, y, z'
loop_
 _atom_site_type_symbol
 _atom_site_label
 _atom_site_symmetry_multiplicity
 _atom_site_fract_x
 _atom_site_fract_y
 _atom_site_fract_z
 _atom_site_occupancy
  Cu  Cu0  1  0.32648000  0.91691000  0.50000000  1.0
  Cu  Cu1  1  0.67352000  0.41689000  0.00001000  1.0
  H  H2  1  0.50456000  0.77913000  0.13654000  1.0
  H  H3  1  0.49542000  0.27913000  0.36346000  1.0
  H  H4  1  0.49543000  0.27913000  0.63655000  1.0
  H  H5  1  0.50456000  0.77913000  0.86345000  1.0
  H  H6  1  0.99313000  0.98132000  0.31901000  1.0
  H  H7  1  0.00687000  0.48131000  0.18099000  1.0
  H  H8  1  0.00687000  0.48131000  0.81902000  1.0
  H  H9  1  0.99313000  0.98131000  0.68098000  1.0
  H  H10  1  0.10208000  0.88884000  0.12813000  1.0
  H  H11  1  0.89790000  0.38885000  0.37188000  1.0
  H  H12  1  0.89791000  0.38885000  0.62814000  1.0
  H  H13  1  0.10209000  0.88885000  0.87186000  1.0
  H  H14  1  0.64306000  0.77196000  0.31415000  1.0
  H  H15  1  0.35694000  0.27195000  0.18585000  1.0
  H  H16  1  0.35693000  0.27195000  0.81416000  1.0
  H  H17  1  0.64307000  0.77195000  0.68584000  1.0
  H  H18  1  0.05827000  0.56655000  0.50000000  1.0
  H  H19  1  0.94173000  0.06652000  0.00000000  1.0
  H  H20  1  0.59719000  0.56389000  0.50000000  1.0
  H  H21  1  0.40282000  0.06386000  0.00000000  1.0
  H  H22  1  0.82522000  0.12385000  0.49999000  1.0
  H  H23  1  0.17479000  0.62382000  0.00001000  1.0
  C  C24  1  0.14423000  0.92356000  0.28995000  1.0
  C  C25  1  0.85578000  0.42355000  0.21006000  1.0
  C  C26  1  0.85577000  0.42355000  0.78996000  1.0
  C  C27  1  0.14423000  0.92355000  0.71005000  1.0
  C  C28  1  0.19697000  0.87883000  0.19495000  1.0
  C  C29  1  0.80302000  0.37883000  0.30505000  1.0
  C  C30  1  0.80304000  0.37882000  0.69497000  1.0
  C  C31  1  0.19695000  0.87883000  0.80504000  1.0
  C  C32  1  0.48133000  0.81855000  0.29118000  1.0
  C  C33  1  0.51868000  0.31855000  0.20882000  1.0
  C  C34  1  0.51868000  0.31855000  0.79119000  1.0
  C  C35  1  0.48132000  0.81855000  0.70881000  1.0
  C  C36  1  0.94037000  0.68144000  0.49999000  1.0
  C  C37  1  0.05964000  0.18143000  0.00000000  1.0
  C  C38  1  0.71327000  0.68016000  0.50000000  1.0
  C  C39  1  0.28673000  0.18012000  0.00000000  1.0
  C  C40  1  0.82523000  0.97166000  0.50000000  1.0
  C  C41  1  0.17478000  0.47165000  0.00000000  1.0
  N  N42  1  0.32267000  0.88479000  0.34952000  1.0
  N  N43  1  0.67733000  0.38478000  0.15049000  1.0
  N  N44  1  0.67733000  0.38478000  0.84952000  1.0
  N  N45  1  0.32265000  0.88479000  0.65048000  1.0
  N  N46  1  0.40998000  0.81274000  0.19731000  1.0
  N  N47  1  0.59001000  0.31274000  0.30269000  1.0
  N  N48  1  0.59000000  0.31274000  0.69732000  1.0
  N  N49  1  0.40999000  0.81274000  0.80269000  1.0
  N  N50  1  0.00858000  0.86550000  0.49999000  1.0
  N  N51  1  0.99141000  0.36547000  0.00001000  1.0
  N  N52  1  0.64276000  0.86412000  0.50000000  1.0
  N  N53  1  0.35726000  0.36407000  0.00000000  1.0
  Cl  Cl54  1  0.31421000  0.27879000  0.50001000  1.0
  Cl  Cl55  1  0.68580000  0.77877000  0.00000000  1.0
