# generated using pymatgen
data_NiH20C22(NO2)2
_symmetry_space_group_name_H-M   'P 1'
_cell_length_a   8.69727000
_cell_length_b   8.69726000
_cell_length_c   13.22640000
_cell_angle_alpha   75.85520000
_cell_angle_beta   75.85500000
_cell_angle_gamma   75.82520000
_symmetry_Int_Tables_number   1
_chemical_formula_structural   NiH20C22(NO2)2
_chemical_formula_sum   'Ni2 H40 C44 N4 O8'
_cell_volume   922.30903149
_cell_formula_units_Z   2
loop_
 _symmetry_equiv_pos_site_id
 _symmetry_equiv_pos_as_xyz
  1  'x, y, z'
loop_
 _atom_site_type_symbol
 _atom_site_label
 _atom_site_symmetry_multiplicity
 _atom_site_fract_x
 _atom_site_fract_y
 _atom_site_fract_z
 _atom_site_occupancy
  Ni  Ni0  1  0.58408000  0.41592000  0.25000000  1.0
  Ni  Ni1  1  0.41592000  0.58409000  0.75000000  1.0
  H  H2  1  0.38420000  0.81088000  0.26547000  1.0
  H  H3  1  0.18913000  0.61580000  0.23453000  1.0
  H  H4  1  0.61580000  0.18913000  0.73453000  1.0
  H  H5  1  0.81087000  0.38420000  0.76547000  1.0
  H  H6  1  0.21567000  0.96360000  0.23591000  1.0
  H  H7  1  0.03640000  0.78433000  0.26408000  1.0
  H  H8  1  0.78433000  0.03640000  0.76408000  1.0
  H  H9  1  0.96360000  0.21567000  0.73592000  1.0
  H  H10  1  0.37726000  0.01549000  0.26881000  1.0
  H  H11  1  0.98451000  0.62275000  0.23119000  1.0
  H  H12  1  0.62274000  0.98452000  0.73119000  1.0
  H  H13  1  0.01548000  0.37726000  0.76881000  1.0
  H  H14  1  0.82865000  0.73585000  0.88234000  1.0
  H  H15  1  0.26415000  0.17135000  0.61766000  1.0
  H  H16  1  0.17135000  0.26416000  0.11765000  1.0
  H  H17  1  0.73584000  0.82865000  0.38235000  1.0
  H  H18  1  0.66835000  0.74056000  0.82136000  1.0
  H  H19  1  0.25944000  0.33166000  0.67864000  1.0
  H  H20  1  0.33166000  0.25944000  0.17864000  1.0
  H  H21  1  0.74056000  0.66834000  0.32136000  1.0
  H  H22  1  0.67890000  0.61669000  0.94690000  1.0
  H  H23  1  0.38331000  0.32110000  0.55310000  1.0
  H  H24  1  0.32111000  0.38331000  0.05309000  1.0
  H  H25  1  0.61669000  0.67889000  0.44691000  1.0
  H  H26  1  0.84786000  0.45133000  0.05926000  1.0
  H  H27  1  0.54867000  0.15214000  0.44074000  1.0
  H  H28  1  0.15214000  0.54867000  0.94074000  1.0
  H  H29  1  0.45133000  0.84786000  0.55926000  1.0
  H  H30  1  0.05109000  0.26757000  0.95321000  1.0
  H  H31  1  0.73243000  0.94891000  0.54679000  1.0
  H  H32  1  0.94891000  0.73243000  0.04679000  1.0
  H  H33  1  0.26757000  0.05108000  0.45321000  1.0
  H  H34  1  0.79037000  0.88594000  0.12766000  1.0
  H  H35  1  0.11406000  0.20963000  0.37234000  1.0
  H  H36  1  0.20964000  0.11406000  0.87234000  1.0
  H  H37  1  0.88594000  0.79036000  0.62766000  1.0
  H  H38  1  0.60316000  0.08621000  0.22555000  1.0
  H  H39  1  0.91379000  0.39683000  0.27445000  1.0
  H  H40  1  0.39684000  0.91379000  0.77445000  1.0
  H  H41  1  0.08621000  0.60316000  0.72555000  1.0
  C  C42  1  0.55753000  0.67733000  0.12323000  1.0
  C  C43  1  0.32267000  0.44246000  0.37676000  1.0
  C  C44  1  0.44246000  0.32267000  0.87676000  1.0
  C  C45  1  0.67733000  0.55754000  0.62324000  1.0
  C  C46  1  0.52528000  0.84461000  0.05878000  1.0
  C  C47  1  0.15538000  0.47472000  0.44122000  1.0
  C  C48  1  0.47472000  0.15539000  0.94121000  1.0
  C  C49  1  0.84461000  0.52528000  0.55879000  1.0
  C  C50  1  0.59836000  0.87216000  0.95040000  1.0
  C  C51  1  0.12784000  0.40164000  0.54960000  1.0
  C  C52  1  0.40164000  0.12784000  0.04959000  1.0
  C  C53  1  0.87215000  0.59836000  0.45040000  1.0
  C  C54  1  0.42623000  0.96910000  0.10948000  1.0
  C  C55  1  0.03090000  0.57377000  0.39052000  1.0
  C  C56  1  0.57376000  0.03091000  0.89052000  1.0
  C  C57  1  0.96909000  0.42623000  0.60948000  1.0
  C  C58  1  0.34846000  0.93637000  0.22547000  1.0
  C  C59  1  0.06363000  0.65154000  0.27453000  1.0
  C  C60  1  0.65154000  0.06363000  0.77453000  1.0
  C  C61  1  0.93637000  0.34846000  0.72547000  1.0
  C  C62  1  0.69853000  0.73438000  0.89831000  1.0
  C  C63  1  0.26562000  0.30147000  0.60169000  1.0
  C  C64  1  0.30148000  0.26562000  0.10169000  1.0
  C  C65  1  0.73437000  0.69853000  0.39831000  1.0
  C  C66  1  0.84033000  0.32495000  0.07033000  1.0
  C  C67  1  0.67505000  0.15967000  0.42967000  1.0
  C  C68  1  0.15968000  0.67505000  0.92967000  1.0
  C  C69  1  0.32495000  0.84032000  0.57033000  1.0
  C  C70  1  0.95301000  0.22060000  0.01169000  1.0
  C  C71  1  0.77940000  0.04699000  0.48831000  1.0
  C  C72  1  0.04700000  0.77940000  0.98831000  1.0
  C  C73  1  0.22060000  0.95300000  0.51169000  1.0
  C  C74  1  0.94083000  0.05747000  0.03002000  1.0
  C  C75  1  0.94253000  0.05917000  0.46999000  1.0
  C  C76  1  0.05918000  0.94253000  0.96999000  1.0
  C  C77  1  0.05748000  0.94082000  0.53001000  1.0
  C  C78  1  0.81119000  0.00913000  0.10855000  1.0
  C  C79  1  0.99087000  0.18881000  0.39145000  1.0
  C  C80  1  0.18882000  0.99087000  0.89146000  1.0
  C  C81  1  0.00913000  0.81119000  0.60854000  1.0
  C  C82  1  0.70375000  0.12110000  0.16368000  1.0
  C  C83  1  0.87891000  0.29625000  0.33632000  1.0
  C  C84  1  0.29625000  0.87891000  0.83632000  1.0
  C  C85  1  0.12110000  0.70375000  0.66368000  1.0
  N  N86  1  0.71694000  0.27687000  0.14594000  1.0
  N  N87  1  0.72314000  0.28306000  0.35406000  1.0
  N  N88  1  0.28306000  0.72313000  0.85406000  1.0
  N  N89  1  0.27687000  0.71694000  0.64594000  1.0
  O  O90  1  0.68422000  0.62964000  0.16538000  1.0
  O  O91  1  0.37036000  0.31577000  0.33462000  1.0
  O  O92  1  0.31577000  0.37036000  0.83461000  1.0
  O  O93  1  0.62964000  0.68423000  0.66539000  1.0
  O  O94  1  0.45935000  0.58349000  0.13808000  1.0
  O  O95  1  0.41650000  0.54065000  0.36192000  1.0
  O  O96  1  0.54065000  0.41651000  0.86192000  1.0
  O  O97  1  0.58349000  0.45935000  0.63808000  1.0
