# generated using pymatgen
data_DyH10C4O8F
_symmetry_space_group_name_H-M   'P 1'
_cell_length_a   7.03021000
_cell_length_b   7.34974000
_cell_length_c   17.23470000
_cell_angle_alpha   100.92600000
_cell_angle_beta   89.99970000
_cell_angle_gamma   90.00000000
_symmetry_Int_Tables_number   1
_chemical_formula_structural   DyH10C4O8F
_chemical_formula_sum   'Dy4 H40 C16 O32 F4'
_cell_volume   874.37802186
_cell_formula_units_Z   4
loop_
 _symmetry_equiv_pos_site_id
 _symmetry_equiv_pos_as_xyz
  1  'x, y, z'
loop_
 _atom_site_type_symbol
 _atom_site_label
 _atom_site_symmetry_multiplicity
 _atom_site_fract_x
 _atom_site_fract_y
 _atom_site_fract_z
 _atom_site_occupancy
  Dy  Dy0  1  0.95115000  0.86483000  0.19986000  1.0
  Dy  Dy1  1  0.45115000  0.63516000  0.30014000  1.0
  Dy  Dy2  1  0.04885000  0.13517000  0.80014000  1.0
  Dy  Dy3  1  0.54885000  0.36484000  0.69986000  1.0
  H  H4  1  0.45088000  0.73639000  0.08739000  1.0
  H  H5  1  0.95087000  0.76361000  0.41261000  1.0
  H  H6  1  0.54913000  0.26361000  0.91261000  1.0
  H  H7  1  0.04914000  0.23639000  0.58740000  1.0
  H  H8  1  0.56608000  0.82560000  0.00926000  1.0
  H  H9  1  0.06607000  0.67439000  0.49074000  1.0
  H  H10  1  0.43393000  0.17439000  0.99073000  1.0
  H  H11  1  0.93394000  0.32561000  0.50927000  1.0
  H  H12  1  0.75604000  0.50637000  0.99233000  1.0
  H  H13  1  0.25603000  0.99363000  0.50767000  1.0
  H  H14  1  0.24396000  0.49364000  0.00767000  1.0
  H  H15  1  0.74397000  0.00637000  0.49233000  1.0
  H  H16  1  0.61978000  0.46890000  0.07588000  1.0
  H  H17  1  0.11977000  0.03110000  0.42412000  1.0
  H  H18  1  0.38022000  0.53111000  0.92412000  1.0
  H  H19  1  0.88023000  0.96890000  0.57588000  1.0
  H  H20  1  0.09180000  0.83093000  0.02644000  1.0
  H  H21  1  0.59180000  0.66907000  0.47356000  1.0
  H  H22  1  0.90820000  0.16906000  0.97356000  1.0
  H  H23  1  0.40820000  0.33094000  0.52644000  1.0
  H  H24  1  0.22079000  0.97986000  0.08525000  1.0
  H  H25  1  0.72079000  0.52013000  0.41475000  1.0
  H  H26  1  0.77921000  0.02013000  0.91475000  1.0
  H  H27  1  0.27921000  0.47987000  0.58525000  1.0
  H  H28  1  0.11935000  0.26614000  0.25068000  1.0
  H  H29  1  0.61935000  0.23385000  0.24932000  1.0
  H  H30  1  0.88065000  0.73386000  0.74932000  1.0
  H  H31  1  0.38065000  0.76614000  0.75068000  1.0
  H  H32  1  0.04678000  0.21686000  0.16011000  1.0
  H  H33  1  0.54677000  0.28314000  0.33989000  1.0
  H  H34  1  0.95322000  0.78314000  0.83989000  1.0
  H  H35  1  0.45323000  0.71686000  0.66011000  1.0
  H  H36  1  0.74608000  0.00203000  0.34232000  1.0
  H  H37  1  0.24609000  0.49797000  0.15769000  1.0
  H  H38  1  0.25392000  0.99797000  0.65768000  1.0
  H  H39  1  0.75391000  0.50203000  0.84231000  1.0
  H  H40  1  0.90300000  0.16172000  0.34677000  1.0
  H  H41  1  0.40301000  0.33828000  0.15323000  1.0
  H  H42  1  0.09700000  0.83828000  0.65323000  1.0
  H  H43  1  0.59699000  0.66172000  0.84677000  1.0
  C  C44  1  0.56462000  0.00829000  0.12231000  1.0
  C  C45  1  0.06462000  0.49171000  0.37769000  1.0
  C  C46  1  0.43538000  0.99171000  0.87769000  1.0
  C  C47  1  0.93538000  0.50829000  0.62231000  1.0
  C  C48  1  0.57416000  0.81553000  0.07211000  1.0
  C  C49  1  0.07415000  0.68446000  0.42789000  1.0
  C  C50  1  0.42584000  0.18447000  0.92788000  1.0
  C  C51  1  0.92585000  0.31554000  0.57212000  1.0
  C  C52  1  0.74954000  0.53311000  0.05737000  1.0
  C  C53  1  0.24953000  0.96689000  0.44263000  1.0
  C  C54  1  0.25046000  0.46689000  0.94263000  1.0
  C  C55  1  0.75047000  0.03311000  0.55737000  1.0
  C  C56  1  0.92036000  0.44761000  0.09050000  1.0
  C  C57  1  0.42035000  0.05239000  0.40950000  1.0
  C  C58  1  0.07965000  0.55239000  0.90949000  1.0
  C  C59  1  0.57965000  0.94761000  0.59050000  1.0
  O  O60  1  0.68932000  0.05311000  0.17635000  1.0
  O  O61  1  0.18931000  0.44689000  0.32365000  1.0
  O  O62  1  0.31067000  0.94690000  0.82365000  1.0
  O  O63  1  0.81069000  0.55311000  0.67635000  1.0
  O  O64  1  0.74742000  0.72782000  0.08808000  1.0
  O  O65  1  0.24741000  0.77218000  0.41192000  1.0
  O  O66  1  0.25258000  0.27218000  0.91192000  1.0
  O  O67  1  0.75259000  0.22783000  0.58808000  1.0
  O  O68  1  0.43117000  0.11208000  0.10768000  1.0
  O  O69  1  0.93116000  0.38791000  0.39232000  1.0
  O  O70  1  0.56883000  0.88792000  0.89231000  1.0
  O  O71  1  0.06884000  0.61209000  0.60769000  1.0
  O  O72  1  0.01983000  0.55351000  0.14253000  1.0
  O  O73  1  0.51983000  0.94649000  0.35747000  1.0
  O  O74  1  0.98017000  0.44649000  0.85746000  1.0
  O  O75  1  0.48018000  0.05351000  0.64253000  1.0
  O  O76  1  0.95577000  0.27816000  0.06668000  1.0
  O  O77  1  0.45576000  0.22184000  0.43333000  1.0
  O  O78  1  0.04423000  0.72183000  0.93332000  1.0
  O  O79  1  0.54424000  0.77817000  0.56668000  1.0
  O  O80  1  0.07655000  0.16461000  0.20748000  1.0
  O  O81  1  0.57655000  0.33538000  0.29252000  1.0
  O  O82  1  0.92344000  0.83538000  0.79252000  1.0
  O  O83  1  0.42345000  0.66462000  0.70748000  1.0
  O  O84  1  0.11640000  0.88819000  0.08288000  1.0
  O  O85  1  0.61639000  0.61180000  0.41712000  1.0
  O  O86  1  0.88360000  0.11180000  0.91712000  1.0
  O  O87  1  0.38360000  0.38820000  0.58288000  1.0
  O  O88  1  0.88257000  0.02488000  0.33052000  1.0
  O  O89  1  0.38258000  0.47513000  0.16948000  1.0
  O  O90  1  0.11743000  0.97513000  0.66948000  1.0
  O  O91  1  0.61742000  0.52487000  0.83052000  1.0
  F  F92  1  0.22544000  0.79820000  0.25044000  1.0
  F  F93  1  0.72543000  0.70180000  0.24956000  1.0
  F  F94  1  0.77456000  0.20180000  0.74956000  1.0
  F  F95  1  0.27456000  0.29820000  0.75043000  1.0
