# generated using pymatgen
data_HgH6C8S2N4O
_symmetry_space_group_name_H-M   'P 1'
_cell_length_a   5.83387000
_cell_length_b   13.22920000
_cell_length_c   15.11820000
_cell_angle_alpha   83.51350000
_cell_angle_beta   89.99910000
_cell_angle_gamma   89.99970000
_symmetry_Int_Tables_number   1
_chemical_formula_structural   HgH6C8S2N4O
_chemical_formula_sum   'Hg4 H24 C32 S8 N16 O4'
_cell_volume   1159.31470170
_cell_formula_units_Z   4
loop_
 _symmetry_equiv_pos_site_id
 _symmetry_equiv_pos_as_xyz
  1  'x, y, z'
loop_
 _atom_site_type_symbol
 _atom_site_label
 _atom_site_symmetry_multiplicity
 _atom_site_fract_x
 _atom_site_fract_y
 _atom_site_fract_z
 _atom_site_occupancy
  Hg  Hg0  1  0.16599000  0.45886000  0.87965000  1.0
  Hg  Hg1  1  0.66600000  0.04114000  0.12036000  1.0
  Hg  Hg2  1  0.83400000  0.54114000  0.12036000  1.0
  Hg  Hg3  1  0.33400000  0.95886000  0.87963000  1.0
  H  H4  1  0.99426000  0.29345000  0.75635000  1.0
  H  H5  1  0.49426000  0.20655000  0.24366000  1.0
  H  H6  1  0.00573000  0.70655000  0.24365000  1.0
  H  H7  1  0.50574000  0.79345000  0.75635000  1.0
  H  H8  1  0.10487000  0.21496000  0.61967000  1.0
  H  H9  1  0.60487000  0.28504000  0.38033000  1.0
  H  H10  1  0.89513000  0.78503000  0.38033000  1.0
  H  H11  1  0.39515000  0.71496000  0.61968000  1.0
  H  H12  1  0.44483000  0.28573000  0.53098000  1.0
  H  H13  1  0.94483000  0.21427000  0.46902000  1.0
  H  H14  1  0.55516000  0.71427000  0.46902000  1.0
  H  H15  1  0.05520000  0.78572000  0.53098000  1.0
  H  H16  1  0.52624000  0.50202000  0.72253000  1.0
  H  H17  1  0.02625000  0.99798000  0.27747000  1.0
  H  H18  1  0.47375000  0.49798000  0.27746000  1.0
  H  H19  1  0.97374000  0.00201000  0.72253000  1.0
  H  H20  1  0.96446000  0.55264000  0.55509000  1.0
  H  H21  1  0.46446000  0.94736000  0.44490000  1.0
  H  H22  1  0.03553000  0.44736000  0.44490000  1.0
  H  H23  1  0.53554000  0.05264000  0.55509000  1.0
  H  H24  1  0.76424000  0.56177000  0.64069000  1.0
  H  H25  1  0.26423000  0.93823000  0.35931000  1.0
  H  H26  1  0.23575000  0.43822000  0.35931000  1.0
  H  H27  1  0.73577000  0.06178000  0.64068000  1.0
  C  C28  1  0.64259000  0.37177000  0.93020000  1.0
  C  C29  1  0.14260000  0.12822000  0.06981000  1.0
  C  C30  1  0.35742000  0.62824000  0.06981000  1.0
  C  C31  1  0.85743000  0.87177000  0.93020000  1.0
  C  C32  1  0.87886000  0.64223000  0.79315000  1.0
  C  C33  1  0.37885000  0.85777000  0.20685000  1.0
  C  C34  1  0.12114000  0.35778000  0.20684000  1.0
  C  C35  1  0.62115000  0.14222000  0.79316000  1.0
  C  C36  1  0.13984000  0.32192000  0.71584000  1.0
  C  C37  1  0.63984000  0.17808000  0.28416000  1.0
  C  C38  1  0.86016000  0.67808000  0.28416000  1.0
  C  C39  1  0.36017000  0.82192000  0.71584000  1.0
  C  C40  1  0.20192000  0.27894000  0.63949000  1.0
  C  C41  1  0.70191000  0.22106000  0.36051000  1.0
  C  C42  1  0.79808000  0.72106000  0.36051000  1.0
  C  C43  1  0.29810000  0.77894000  0.63949000  1.0
  C  C44  1  0.39018000  0.31814000  0.59059000  1.0
  C  C45  1  0.89018000  0.18186000  0.40941000  1.0
  C  C46  1  0.60981000  0.68185000  0.40941000  1.0
  C  C47  1  0.10984000  0.81814000  0.59059000  1.0
  C  C48  1  0.51172000  0.40008000  0.61862000  1.0
  C  C49  1  0.01172000  0.09992000  0.38138000  1.0
  C  C50  1  0.48827000  0.59992000  0.38138000  1.0
  C  C51  1  0.98830000  0.90008000  0.61862000  1.0
  C  C52  1  0.43936000  0.43875000  0.69625000  1.0
  C  C53  1  0.93936000  0.06125000  0.30375000  1.0
  C  C54  1  0.56063000  0.56125000  0.30375000  1.0
  C  C55  1  0.06064000  0.93875000  0.69625000  1.0
  C  C56  1  0.71558000  0.44119000  0.56531000  1.0
  C  C57  1  0.21558000  0.05881000  0.43469000  1.0
  C  C58  1  0.28441000  0.55881000  0.43468000  1.0
  C  C59  1  0.78443000  0.94119000  0.56531000  1.0
  S  S60  1  0.41634000  0.36115000  0.99537000  1.0
  S  S61  1  0.91635000  0.13885000  0.00464000  1.0
  S  S62  1  0.58365000  0.63886000  0.00464000  1.0
  S  S63  1  0.08367000  0.86114000  0.99536000  1.0
  S  S64  1  0.08288000  0.64402000  0.86890000  1.0
  S  S65  1  0.58287000  0.85598000  0.13109000  1.0
  S  S66  1  0.91712000  0.35598000  0.13110000  1.0
  S  S67  1  0.41713000  0.14402000  0.86891000  1.0
  N  N68  1  0.80583000  0.37651000  0.88358000  1.0
  N  N69  1  0.30584000  0.12348000  0.11643000  1.0
  N  N70  1  0.19415000  0.62349000  0.11643000  1.0
  N  N71  1  0.69417000  0.87652000  0.88357000  1.0
  N  N72  1  0.73295000  0.64288000  0.73911000  1.0
  N  N73  1  0.23294000  0.85711000  0.26089000  1.0
  N  N74  1  0.26706000  0.35713000  0.26088000  1.0
  N  N75  1  0.76707000  0.14288000  0.73911000  1.0
  N  N76  1  0.25780000  0.40010000  0.74338000  1.0
  N  N77  1  0.75781000  0.09990000  0.25662000  1.0
  N  N78  1  0.74219000  0.59990000  0.25662000  1.0
  N  N79  1  0.24219000  0.90011000  0.74338000  1.0
  N  N80  1  0.81977000  0.52404000  0.58924000  1.0
  N  N81  1  0.31977000  0.97596000  0.41076000  1.0
  N  N82  1  0.18022000  0.47596000  0.41076000  1.0
  N  N83  1  0.68024000  0.02404000  0.58923000  1.0
  O  O84  1  0.78113000  0.39668000  0.50065000  1.0
  O  O85  1  0.28113000  0.10332000  0.49935000  1.0
  O  O86  1  0.21886000  0.60332000  0.49935000  1.0
  O  O87  1  0.71888000  0.89668000  0.50064000  1.0
