# generated using pymatgen
data_Ag2H32C25(SN5)2
_symmetry_space_group_name_H-M   'P 1'
_cell_length_a   7.91786000
_cell_length_b   11.73920000
_cell_length_c   16.89530000
_cell_angle_alpha   81.81250000
_cell_angle_beta   76.47150000
_cell_angle_gamma   70.29280000
_symmetry_Int_Tables_number   1
_chemical_formula_structural   Ag2H32C25(SN5)2
_chemical_formula_sum   'Ag4 H64 C50 S4 N20'
_cell_volume   1433.93811881
_cell_formula_units_Z   2
loop_
 _symmetry_equiv_pos_site_id
 _symmetry_equiv_pos_as_xyz
  1  'x, y, z'
loop_
 _atom_site_type_symbol
 _atom_site_label
 _atom_site_symmetry_multiplicity
 _atom_site_fract_x
 _atom_site_fract_y
 _atom_site_fract_z
 _atom_site_occupancy
  Ag  Ag0  1  0.22648000  0.20080000  0.96150000  1.0
  Ag  Ag1  1  0.38889000  0.29905000  0.53834000  1.0
  Ag  Ag2  1  0.77352000  0.79920000  0.03850000  1.0
  Ag  Ag3  1  0.61111000  0.70095000  0.46166000  1.0
  H  H4  1  0.34887000  0.29159000  0.70179000  1.0
  H  H5  1  0.34224000  0.20850000  0.79823000  1.0
  H  H6  1  0.65113000  0.70841000  0.29821000  1.0
  H  H7  1  0.65776000  0.79150000  0.20177000  1.0
  H  H8  1  0.03442000  0.40510000  0.73010000  1.0
  H  H9  1  0.16980000  0.09488000  0.76988000  1.0
  H  H10  1  0.96558000  0.59490000  0.26990000  1.0
  H  H11  1  0.83020000  0.90512000  0.23012000  1.0
  H  H12  1  0.14923000  0.53306000  0.04680000  1.0
  H  H13  1  0.72892000  0.96713000  0.45319000  1.0
  H  H14  1  0.85077000  0.46694000  0.95320000  1.0
  H  H15  1  0.27108000  0.03287000  0.54681000  1.0
  H  H16  1  0.36809000  0.53606000  0.99451000  1.0
  H  H17  1  0.89862000  0.96415000  0.50544000  1.0
  H  H18  1  0.63191000  0.46394000  0.00549000  1.0
  H  H19  1  0.10138000  0.03585000  0.49456000  1.0
  H  H20  1  0.32525000  0.39392000  0.02318000  1.0
  H  H21  1  0.74214000  0.10632000  0.47680000  1.0
  H  H22  1  0.67475000  0.60608000  0.97682000  1.0
  H  H23  1  0.25786000  0.89368000  0.52320000  1.0
  H  H24  1  0.53695000  0.28858000  0.90230000  1.0
  H  H25  1  0.72766000  0.21155000  0.59773000  1.0
  H  H26  1  0.46306000  0.71142000  0.09770000  1.0
  H  H27  1  0.27234000  0.78845000  0.40227000  1.0
  H  H28  1  0.14987000  0.68954000  0.87294000  1.0
  H  H29  1  0.71254000  0.81061000  0.62703000  1.0
  H  H30  1  0.85013000  0.31046000  0.12706000  1.0
  H  H31  1  0.28746000  0.18939000  0.37297000  1.0
  H  H32  1  0.88127000  0.63830000  0.74235000  1.0
  H  H33  1  0.26228000  0.86154000  0.75766000  1.0
  H  H34  1  0.11873000  0.36170000  0.25765000  1.0
  H  H35  1  0.73772000  0.13846000  0.24234000  1.0
  H  H36  1  0.09902000  0.57558000  0.67828000  1.0
  H  H37  1  0.35335000  0.92427000  0.82169000  1.0
  H  H38  1  0.90098000  0.42443000  0.32172000  1.0
  H  H39  1  0.64665000  0.07573000  0.17831000  1.0
  H  H40  1  0.04747000  0.71372000  0.72393000  1.0
  H  H41  1  0.48557000  0.78620000  0.77598000  1.0
  H  H42  1  0.95253000  0.28628000  0.27607000  1.0
  H  H43  1  0.51443000  0.21380000  0.22402000  1.0
  H  H44  1  0.79051000  0.04110000  0.99290000  1.0
  H  H45  1  0.82443000  0.45887000  0.50710000  1.0
  H  H46  1  0.20949000  0.95890000  0.00710000  1.0
  H  H47  1  0.17558000  0.54113000  0.49289000  1.0
  H  H48  1  0.66445000  0.16947000  0.04861000  1.0
  H  H49  1  0.88240000  0.33052000  0.45139000  1.0
  H  H50  1  0.33555000  0.83053000  0.95139000  1.0
  H  H51  1  0.11760000  0.66948000  0.54861000  1.0
  H  H52  1  0.90783000  0.11071000  0.03929000  1.0
  H  H53  1  0.05768000  0.38929000  0.46071000  1.0
  H  H54  1  0.09217000  0.88929000  0.96071000  1.0
  H  H55  1  0.94232000  0.61070000  0.53929000  1.0
  H  H56  1  0.68641000  0.53104000  0.77469000  1.0
  H  H57  1  0.99244000  0.96888000  0.72527000  1.0
  H  H58  1  0.31358000  0.46896000  0.22531000  1.0
  H  H59  1  0.00757000  0.03112000  0.27473000  1.0
  H  H60  1  0.54430000  0.44591000  0.76810000  1.0
  H  H61  1  0.75849000  0.05398000  0.73191000  1.0
  H  H62  1  0.45570000  0.55409000  0.23190000  1.0
  H  H63  1  0.24151000  0.94602000  0.26809000  1.0
  H  H64  1  0.76052000  0.41989000  0.70197000  1.0
  H  H65  1  0.88263000  0.08004000  0.79803000  1.0
  H  H66  1  0.23948000  0.58011000  0.29803000  1.0
  H  H67  1  0.11737000  0.91996000  0.20197000  1.0
  C  C68  1  0.26407000  0.25003000  0.75000000  1.0
  C  C69  1  0.73593000  0.74997000  0.25000000  1.0
  C  C70  1  0.09064000  0.35201000  0.78216000  1.0
  C  C71  1  0.22496000  0.14795000  0.71782000  1.0
  C  C72  1  0.90936000  0.64799000  0.21784000  1.0
  C  C73  1  0.77503000  0.85205000  0.28218000  1.0
  C  C74  1  0.10343000  0.55753000  0.80613000  1.0
  C  C75  1  0.46721000  0.94247000  0.69381000  1.0
  C  C76  1  0.89658000  0.44247000  0.19387000  1.0
  C  C77  1  0.53279000  0.05753000  0.30619000  1.0
  C  C78  1  0.21072000  0.49525000  0.92185000  1.0
  C  C79  1  0.62792000  0.00490000  0.57815000  1.0
  C  C80  1  0.78928000  0.50475000  0.07815000  1.0
  C  C81  1  0.37208000  0.99510000  0.42185000  1.0
  C  C82  1  0.40192000  0.03247000  0.10490000  1.0
  C  C83  1  0.53962000  0.46760000  0.39509000  1.0
  C  C84  1  0.59808000  0.96753000  0.89510000  1.0
  C  C85  1  0.46038000  0.53241000  0.60490000  1.0
  C  C86  1  0.26771000  0.48850000  0.00064000  1.0
  C  C87  1  0.75676000  0.01173000  0.49934000  1.0
  C  C88  1  0.73229000  0.51150000  0.99936000  1.0
  C  C89  1  0.24324000  0.98827000  0.50066000  1.0
  C  C90  1  0.67973000  0.28356000  0.88979000  1.0
  C  C91  1  0.85301000  0.21647000  0.61022000  1.0
  C  C92  1  0.32027000  0.71644000  0.11021000  1.0
  C  C93  1  0.14699000  0.78353000  0.38978000  1.0
  C  C94  1  0.81608000  0.21052000  0.93272000  1.0
  C  C95  1  0.95928000  0.28946000  0.56729000  1.0
  C  C96  1  0.18392000  0.78948000  0.06728000  1.0
  C  C97  1  0.04072000  0.71054000  0.43271000  1.0
  C  C98  1  0.15478000  0.59748000  0.86759000  1.0
  C  C99  1  0.61994000  0.90260000  0.63234000  1.0
  C  C100  1  0.84522000  0.40252000  0.13241000  1.0
  C  C101  1  0.38006000  0.09740000  0.36766000  1.0
  C  C102  1  0.02885000  0.62412000  0.73367000  1.0
  C  C103  1  0.38702000  0.87579000  0.76627000  1.0
  C  C104  1  0.97116000  0.37588000  0.26633000  1.0
  C  C105  1  0.61298000  0.12421000  0.23373000  1.0
  C  C106  1  0.76463000  0.34724000  0.82689000  1.0
  C  C107  1  0.93876000  0.15276000  0.67313000  1.0
  C  C108  1  0.23537000  0.65276000  0.17311000  1.0
  C  C109  1  0.06124000  0.84724000  0.32687000  1.0
  C  C110  1  0.79466000  0.12851000  0.00735000  1.0
  C  C111  1  0.93044000  0.37148000  0.49266000  1.0
  C  C112  1  0.20534000  0.87149000  0.99265000  1.0
  C  C113  1  0.06956000  0.62852000  0.50734000  1.0
  C  C114  1  0.68663000  0.44051000  0.76454000  1.0
  C  C115  1  0.89190000  0.05937000  0.73545000  1.0
  C  C116  1  0.31337000  0.55949000  0.23546000  1.0
  C  C117  1  0.10810000  0.94063000  0.26455000  1.0
  S  S118  1  0.23354000  0.16134000  0.10824000  1.0
  S  S119  1  0.50341000  0.33876000  0.39167000  1.0
  S  S120  1  0.76646000  0.83865000  0.89176000  1.0
  S  S121  1  0.49659000  0.66124000  0.60833000  1.0
  N  N122  1  0.97862000  0.22574000  0.89747000  1.0
  N  N123  1  0.10185000  0.27419000  0.60253000  1.0
  N  N124  1  0.02139000  0.77426000  0.10253000  1.0
  N  N125  1  0.89815000  0.72581000  0.39747000  1.0
  N  N126  1  0.13319000  0.43574000  0.82444000  1.0
  N  N127  1  0.39346000  0.06426000  0.67554000  1.0
  N  N128  1  0.86681000  0.56426000  0.17556000  1.0
  N  N129  1  0.60654000  0.93574000  0.32446000  1.0
  N  N130  1  0.94532000  0.30935000  0.83296000  1.0
  N  N131  1  0.08774000  0.19056000  0.66701000  1.0
  N  N132  1  0.05468000  0.69065000  0.16704000  1.0
  N  N133  1  0.91226000  0.80944000  0.33299000  1.0
  N  N134  1  0.19943000  0.39668000  0.89456000  1.0
  N  N135  1  0.49062000  0.10339000  0.60544000  1.0
  N  N136  1  0.80057000  0.60332000  0.10544000  1.0
  N  N137  1  0.50938000  0.89661000  0.39456000  1.0
  N  N138  1  0.52332000  0.93994000  0.10553000  1.0
  N  N139  1  0.56900000  0.56019000  0.39441000  1.0
  N  N140  1  0.47668000  0.06006000  0.89447000  1.0
  N  N141  1  0.43100000  0.43981000  0.60559000  1.0
