# generated using pymatgen
data_ZnH12C20N3O4
_symmetry_space_group_name_H-M   'P 1'
_cell_length_a   7.58841000
_cell_length_b   9.94787000
_cell_length_c   11.26520000
_cell_angle_alpha   81.84510000
_cell_angle_beta   79.59270000
_cell_angle_gamma   75.12960000
_symmetry_Int_Tables_number   1
_chemical_formula_structural   ZnH12C20N3O4
_chemical_formula_sum   'Zn2 H24 C40 N6 O8'
_cell_volume   804.30190343
_cell_formula_units_Z   2
loop_
 _symmetry_equiv_pos_site_id
 _symmetry_equiv_pos_as_xyz
  1  'x, y, z'
loop_
 _atom_site_type_symbol
 _atom_site_label
 _atom_site_symmetry_multiplicity
 _atom_site_fract_x
 _atom_site_fract_y
 _atom_site_fract_z
 _atom_site_occupancy
  Zn  Zn0  1  0.25139000  0.58409000  0.95008000  1.0
  Zn  Zn1  1  0.74861000  0.41591000  0.04992000  1.0
  H  H2  1  0.22467000  0.44860000  0.20516000  1.0
  H  H3  1  0.77533000  0.55140000  0.79484000  1.0
  H  H4  1  0.12582000  0.52525000  0.41255000  1.0
  H  H5  1  0.87419000  0.47475000  0.58745000  1.0
  H  H6  1  0.94417000  0.94553000  0.24384000  1.0
  H  H7  1  0.05583000  0.05447000  0.75616000  1.0
  H  H8  1  0.06401000  0.85187000  0.04317000  1.0
  H  H9  1  0.93599000  0.14813000  0.95684000  1.0
  H  H10  1  0.12853000  0.63550000  0.57074000  1.0
  H  H11  1  0.87147000  0.36450000  0.42927000  1.0
  H  H12  1  0.77361000  0.97701000  0.75650000  1.0
  H  H13  1  0.22639000  0.02299000  0.24350000  1.0
  H  H14  1  0.33562000  0.38113000  0.70881000  1.0
  H  H15  1  0.66437000  0.61887000  0.29119000  1.0
  H  H16  1  0.56166000  0.15632000  0.74243000  1.0
  H  H17  1  0.43834000  0.84368000  0.25757000  1.0
  H  H18  1  0.64019000  0.12395000  0.35765000  1.0
  H  H19  1  0.35982000  0.87605000  0.64235000  1.0
  H  H20  1  0.41716000  0.35444000  0.33840000  1.0
  H  H21  1  0.58285000  0.64555000  0.66159000  1.0
  H  H22  1  0.69159000  0.08223000  0.11950000  1.0
  H  H23  1  0.30841000  0.91777000  0.88050000  1.0
  H  H24  1  0.74502000  0.82751000  0.09613000  1.0
  H  H25  1  0.25498000  0.17249000  0.90386000  1.0
  C  C26  1  0.16286000  0.55781000  0.21831000  1.0
  C  C27  1  0.83715000  0.44219000  0.78169000  1.0
  C  C28  1  0.10486000  0.60149000  0.33368000  1.0
  C  C29  1  0.89514000  0.39851000  0.66632000  1.0
  C  C30  1  0.02235000  0.74297000  0.34582000  1.0
  C  C31  1  0.97766000  0.25703000  0.65418000  1.0
  C  C32  1  0.00604000  0.83458000  0.23959000  1.0
  C  C33  1  0.99396000  0.16542000  0.76042000  1.0
  C  C34  1  0.07246000  0.78412000  0.12780000  1.0
  C  C35  1  0.92754000  0.21588000  0.87221000  1.0
  C  C36  1  0.95298000  0.79928000  0.46458000  1.0
  C  C37  1  0.04702000  0.20072000  0.53542000  1.0
  C  C38  1  0.02184000  0.73281000  0.57104000  1.0
  C  C39  1  0.97817000  0.26719000  0.42896000  1.0
  C  C40  1  0.95885000  0.80058000  0.67651000  1.0
  C  C41  1  0.04115000  0.19942000  0.32349000  1.0
  C  C42  1  0.82238000  0.92526000  0.67385000  1.0
  C  C43  1  0.17762000  0.07474000  0.32615000  1.0
  C  C44  1  0.75861000  0.98344000  0.56403000  1.0
  C  C45  1  0.24139000  0.01656000  0.43597000  1.0
  C  C46  1  0.40662000  0.32216000  0.63209000  1.0
  C  C47  1  0.59338000  0.67784000  0.36791000  1.0
  C  C48  1  0.53382000  0.19499000  0.65078000  1.0
  C  C49  1  0.46618000  0.80501000  0.34922000  1.0
  C  C50  1  0.62109000  0.11904000  0.55197000  1.0
  C  C51  1  0.37891000  0.88096000  0.44803000  1.0
  C  C52  1  0.57617000  0.17853000  0.43746000  1.0
  C  C53  1  0.42383000  0.82147000  0.56254000  1.0
  C  C54  1  0.44998000  0.30699000  0.42770000  1.0
  C  C55  1  0.55002000  0.69301000  0.57230000  1.0
  C  C56  1  0.04744000  0.75097000  0.78921000  1.0
  C  C57  1  0.95256000  0.24903000  0.21080000  1.0
  C  C58  1  0.43721000  0.29518000  0.02251000  1.0
  C  C59  1  0.56279000  0.70482000  0.97749000  1.0
  C  C60  1  0.46927000  0.14228000  0.01265000  1.0
  C  C61  1  0.53073000  0.85772000  0.98735000  1.0
  C  C62  1  0.60784000  0.04554000  0.06784000  1.0
  C  C63  1  0.39215000  0.95446000  0.93216000  1.0
  C  C64  1  0.63803000  0.90428000  0.05460000  1.0
  C  C65  1  0.36196000  0.09572000  0.94540000  1.0
  N  N66  1  0.14837000  0.64701000  0.11644000  1.0
  N  N67  1  0.85163000  0.35299000  0.88356000  1.0
  N  N68  1  0.82729000  0.92180000  0.46149000  1.0
  N  N69  1  0.17271000  0.07820000  0.53851000  1.0
  N  N70  1  0.36320000  0.37893000  0.52256000  1.0
  N  N71  1  0.63680000  0.62106000  0.47743000  1.0
  O  O72  1  0.12979000  0.61975000  0.80432000  1.0
  O  O73  1  0.87020000  0.38025000  0.19569000  1.0
  O  O74  1  0.04150000  0.83883000  0.86007000  1.0
  O  O75  1  0.95851000  0.16117000  0.13993000  1.0
  O  O76  1  0.32061000  0.37671000  0.95996000  1.0
  O  O77  1  0.67939000  0.62329000  0.04003000  1.0
  O  O78  1  0.52412000  0.33588000  0.09230000  1.0
  O  O79  1  0.47587000  0.66412000  0.90770000  1.0
