# generated using pymatgen
data_ZnH15C13N3O7
_symmetry_space_group_name_H-M   'P 1'
_cell_length_a   8.63902000
_cell_length_b   9.73493000
_cell_length_c   9.89813000
_cell_angle_alpha   82.35350000
_cell_angle_beta   69.15380000
_cell_angle_gamma   79.46110000
_symmetry_Int_Tables_number   1
_chemical_formula_structural   ZnH15C13N3O7
_chemical_formula_sum   'Zn2 H30 C26 N6 O14'
_cell_volume   762.72414866
_cell_formula_units_Z   2
loop_
 _symmetry_equiv_pos_site_id
 _symmetry_equiv_pos_as_xyz
  1  'x, y, z'
loop_
 _atom_site_type_symbol
 _atom_site_label
 _atom_site_symmetry_multiplicity
 _atom_site_fract_x
 _atom_site_fract_y
 _atom_site_fract_z
 _atom_site_occupancy
  Zn  Zn0  1  0.52513000  0.61848000  0.62620000  1.0
  Zn  Zn1  1  0.47486000  0.38152000  0.37381000  1.0
  H  H2  1  0.29029000  0.09507000  0.73261000  1.0
  H  H3  1  0.70971000  0.90493000  0.26739000  1.0
  H  H4  1  0.25506000  0.00810000  0.18107000  1.0
  H  H5  1  0.74494000  0.99191000  0.81893000  1.0
  H  H6  1  0.40458000  0.39619000  0.95059000  1.0
  H  H7  1  0.59543000  0.60381000  0.04941000  1.0
  H  H8  1  0.01901000  0.71003000  0.96995000  1.0
  H  H9  1  0.98099000  0.28997000  0.03005000  1.0
  H  H10  1  0.23108000  0.64163000  0.93555000  1.0
  H  H11  1  0.76892000  0.35837000  0.06445000  1.0
  H  H12  1  0.95385000  0.61708000  0.23388000  1.0
  H  H13  1  0.04615000  0.38292000  0.76612000  1.0
  H  H14  1  0.16631000  0.53894000  0.19335000  1.0
  H  H15  1  0.83369000  0.46106000  0.80666000  1.0
  H  H16  1  0.03663000  0.48229000  0.11270000  1.0
  H  H17  1  0.96337000  0.51771000  0.88730000  1.0
  H  H18  1  0.86452000  0.45155000  0.39979000  1.0
  H  H19  1  0.13548000  0.54845000  0.60021000  1.0
  H  H20  1  0.38698000  0.87357000  0.45292000  1.0
  H  H21  1  0.61302000  0.12643000  0.54708000  1.0
  H  H22  1  0.07944000  0.01670000  0.66840000  1.0
  H  H23  1  0.92056000  0.98330000  0.33160000  1.0
  H  H24  1  0.18557000  0.06182000  0.48277000  1.0
  H  H25  1  0.81443000  0.93818000  0.51723000  1.0
  H  H26  1  0.25378000  0.86813000  0.85075000  1.0
  H  H27  1  0.74622000  0.13187000  0.14925000  1.0
  H  H28  1  0.94666000  0.26120000  0.63511000  1.0
  H  H29  1  0.05334000  0.73880000  0.36489000  1.0
  H  H30  1  0.07057000  0.27948000  0.44826000  1.0
  H  H31  1  0.92943000  0.72052000  0.55174000  1.0
  C  C32  1  0.37196000  0.35453000  0.69627000  1.0
  C  C33  1  0.62804000  0.64547000  0.30373000  1.0
  C  C34  1  0.34734000  0.25546000  0.82906000  1.0
  C  C35  1  0.65266000  0.74454000  0.17094000  1.0
  C  C36  1  0.30231000  0.12427000  0.83040000  1.0
  C  C37  1  0.69770000  0.87573000  0.16960000  1.0
  C  C38  1  0.26687000  0.03430000  0.95712000  1.0
  C  C39  1  0.73313000  0.96570000  0.04288000  1.0
  C  C40  1  0.28091000  0.07620000  0.08195000  1.0
  C  C41  1  0.71909000  0.92380000  0.91805000  1.0
  C  C42  1  0.33284000  0.20506000  0.07811000  1.0
  C  C43  1  0.66716000  0.79494000  0.92189000  1.0
  C  C44  1  0.36564000  0.29560000  0.95241000  1.0
  C  C45  1  0.63436000  0.70440000  0.04759000  1.0
  C  C46  1  0.14017000  0.81824000  0.06499000  1.0
  C  C47  1  0.85983000  0.18176000  0.93501000  1.0
  C  C48  1  0.11625000  0.68248000  0.02109000  1.0
  C  C49  1  0.88375000  0.31752000  0.97891000  1.0
  C  C50  1  0.06575000  0.57370000  0.14769000  1.0
  C  C51  1  0.93425000  0.42631000  0.85231000  1.0
  C  C52  1  0.35161000  0.24536000  0.21178000  1.0
  C  C53  1  0.64839000  0.75464000  0.78822000  1.0
  C  C54  1  0.84260000  0.40555000  0.51163000  1.0
  C  C55  1  0.15740000  0.59446000  0.48837000  1.0
  C  C56  1  0.29339000  0.88471000  0.56224000  1.0
  C  C57  1  0.70661000  0.11529000  0.43776000  1.0
  N  N58  1  0.22211000  0.90378000  0.95210000  1.0
  N  N59  1  0.77789000  0.09622000  0.04790000  1.0
  N  N60  1  0.96185000  0.30761000  0.53208000  1.0
  N  N61  1  0.03815000  0.69239000  0.46792000  1.0
  N  N62  1  0.17227000  0.99236000  0.57239000  1.0
  N  N63  1  0.82773000  0.00764000  0.42761000  1.0
  O  O64  1  0.35819000  0.48422000  0.71108000  1.0
  O  O65  1  0.64181000  0.51577000  0.28892000  1.0
  O  O66  1  0.39956000  0.30042000  0.57741000  1.0
  O  O67  1  0.60044000  0.69958000  0.42259000  1.0
  O  O68  1  0.08539000  0.85035000  0.19375000  1.0
  O  O69  1  0.91460000  0.14965000  0.80625000  1.0
  O  O70  1  0.45248000  0.33364000  0.19250000  1.0
  O  O71  1  0.54752000  0.66636000  0.80750000  1.0
  O  O72  1  0.26949000  0.19277000  0.33503000  1.0
  O  O73  1  0.73051000  0.80723000  0.66498000  1.0
  O  O74  1  0.71021000  0.44391000  0.61324000  1.0
  O  O75  1  0.28979000  0.55610000  0.38676000  1.0
  O  O76  1  0.30743000  0.79879000  0.66586000  1.0
  O  O77  1  0.69257000  0.20121000  0.33414000  1.0
