# generated using pymatgen
data_CaH3C7NO4
_symmetry_space_group_name_H-M   'P 1'
_cell_length_a   11.46440000
_cell_length_b   11.46440000
_cell_length_c   11.46440000
_cell_angle_alpha   108.76000000
_cell_angle_beta   108.76000000
_cell_angle_gamma   108.76100000
_symmetry_Int_Tables_number   1
_chemical_formula_structural   CaH3C7NO4
_chemical_formula_sum   'Ca6 H18 C42 N6 O24'
_cell_volume   1189.48055032
_cell_formula_units_Z   6
loop_
 _symmetry_equiv_pos_site_id
 _symmetry_equiv_pos_as_xyz
  1  'x, y, z'
loop_
 _atom_site_type_symbol
 _atom_site_label
 _atom_site_symmetry_multiplicity
 _atom_site_fract_x
 _atom_site_fract_y
 _atom_site_fract_z
 _atom_site_occupancy
  Ca  Ca0  1  0.04920000  0.97733000  0.68501000  1.0
  Ca  Ca1  1  0.97733000  0.68501000  0.04920000  1.0
  Ca  Ca2  1  0.68501000  0.04920000  0.97733000  1.0
  Ca  Ca3  1  0.95080000  0.02266000  0.31499000  1.0
  Ca  Ca4  1  0.02267000  0.31499000  0.95080000  1.0
  Ca  Ca5  1  0.31499000  0.95080000  0.02267000  1.0
  H  H6  1  0.82760000  0.45411000  0.23043000  1.0
  H  H7  1  0.45411000  0.23043000  0.82759000  1.0
  H  H8  1  0.23043000  0.82759000  0.45411000  1.0
  H  H9  1  0.17241000  0.54589000  0.76957000  1.0
  H  H10  1  0.54589000  0.76957000  0.17241000  1.0
  H  H11  1  0.76957000  0.17241000  0.54589000  1.0
  H  H12  1  0.74596000  0.31277000  0.34172000  1.0
  H  H13  1  0.31277000  0.34172000  0.74596000  1.0
  H  H14  1  0.34172000  0.74596000  0.31277000  1.0
  H  H15  1  0.25404000  0.68723000  0.65828000  1.0
  H  H16  1  0.68723000  0.65828000  0.25404000  1.0
  H  H17  1  0.65828000  0.25404000  0.68723000  1.0
  H  H18  1  0.81329000  0.43946000  0.59860000  1.0
  H  H19  1  0.43946000  0.59860000  0.81329000  1.0
  H  H20  1  0.59861000  0.81329000  0.43946000  1.0
  H  H21  1  0.18671000  0.56054000  0.40140000  1.0
  H  H22  1  0.56054000  0.40140000  0.18671000  1.0
  H  H23  1  0.40140000  0.18671000  0.56054000  1.0
  C  C24  1  0.96066000  0.74512000  0.35502000  1.0
  C  C25  1  0.74512000  0.35503000  0.96066000  1.0
  C  C26  1  0.35502000  0.96066000  0.74511000  1.0
  C  C27  1  0.03934000  0.25488000  0.64498000  1.0
  C  C28  1  0.25488000  0.64497000  0.03934000  1.0
  C  C29  1  0.64498000  0.03934000  0.25489000  1.0
  C  C30  1  0.91856000  0.65046000  0.41648000  1.0
  C  C31  1  0.65046000  0.41647000  0.91856000  1.0
  C  C32  1  0.41648000  0.91856000  0.65045000  1.0
  C  C33  1  0.08144000  0.34954000  0.58352000  1.0
  C  C34  1  0.34954000  0.58353000  0.08144000  1.0
  C  C35  1  0.58352000  0.08144000  0.34955000  1.0
  C  C36  1  0.84877000  0.50460000  0.33846000  1.0
  C  C37  1  0.50460000  0.33845000  0.84877000  1.0
  C  C38  1  0.33845000  0.84877000  0.50460000  1.0
  C  C39  1  0.15122000  0.49539000  0.66154000  1.0
  C  C40  1  0.49540000  0.66155000  0.15123000  1.0
  C  C41  1  0.66154000  0.15123000  0.49540000  1.0
  C  C42  1  0.80550000  0.42640000  0.40198000  1.0
  C  C43  1  0.42640000  0.40197000  0.80549000  1.0
  C  C44  1  0.40198000  0.80550000  0.42640000  1.0
  C  C45  1  0.19450000  0.57359000  0.59802000  1.0
  C  C46  1  0.57360000  0.59803000  0.19450000  1.0
  C  C47  1  0.59802000  0.19450000  0.57360000  1.0
  C  C48  1  0.84127000  0.49526000  0.54282000  1.0
  C  C49  1  0.49525000  0.54282000  0.84127000  1.0
  C  C50  1  0.54282000  0.84127000  0.49525000  1.0
  C  C51  1  0.15873000  0.50475000  0.45718000  1.0
  C  C52  1  0.50475000  0.45718000  0.15873000  1.0
  C  C53  1  0.45718000  0.15873000  0.50475000  1.0
  C  C54  1  0.91953000  0.64117000  0.61531000  1.0
  C  C55  1  0.64117000  0.61531000  0.91954000  1.0
  C  C56  1  0.61531000  0.91954000  0.64116000  1.0
  C  C57  1  0.08047000  0.35883000  0.38469000  1.0
  C  C58  1  0.35884000  0.38469000  0.08046000  1.0
  C  C59  1  0.38469000  0.08046000  0.35883000  1.0
  C  C60  1  0.98044000  0.72340000  0.77205000  1.0
  C  C61  1  0.72340000  0.77205000  0.98045000  1.0
  C  C62  1  0.77205000  0.98044000  0.72340000  1.0
  C  C63  1  0.01956000  0.27660000  0.22795000  1.0
  C  C64  1  0.27660000  0.22795000  0.01955000  1.0
  C  C65  1  0.22795000  0.01956000  0.27660000  1.0
  N  N66  1  0.95255000  0.71671000  0.55175000  1.0
  N  N67  1  0.71671000  0.55175000  0.95255000  1.0
  N  N68  1  0.55175000  0.95255000  0.71671000  1.0
  N  N69  1  0.04745000  0.28329000  0.44825000  1.0
  N  N70  1  0.28329000  0.44825000  0.04745000  1.0
  N  N71  1  0.44825000  0.04745000  0.28329000  1.0
  O  O72  1  0.99232000  0.70174000  0.25975000  1.0
  O  O73  1  0.70175000  0.25975000  0.99232000  1.0
  O  O74  1  0.25974000  0.99232000  0.70174000  1.0
  O  O75  1  0.00768000  0.29826000  0.74025000  1.0
  O  O76  1  0.29825000  0.74025000  0.00768000  1.0
  O  O77  1  0.74025000  0.00768000  0.29826000  1.0
  O  O78  1  0.96191000  0.86229000  0.40680000  1.0
  O  O79  1  0.86229000  0.40680000  0.96190000  1.0
  O  O80  1  0.40680000  0.96191000  0.86228000  1.0
  O  O81  1  0.03809000  0.13771000  0.59320000  1.0
  O  O82  1  0.13771000  0.59319000  0.03809000  1.0
  O  O83  1  0.59320000  0.03809000  0.13772000  1.0
  O  O84  1  0.92905000  0.66278000  0.83114000  1.0
  O  O85  1  0.66279000  0.83114000  0.92906000  1.0
  O  O86  1  0.83114000  0.92905000  0.66278000  1.0
  O  O87  1  0.07095000  0.33722000  0.16886000  1.0
  O  O88  1  0.33722000  0.16886000  0.07094000  1.0
  O  O89  1  0.16886000  0.07095000  0.33722000  1.0
  O  O90  1  0.08281000  0.84661000  0.83123000  1.0
  O  O91  1  0.84661000  0.83123000  0.08281000  1.0
  O  O92  1  0.83123000  0.08281000  0.84661000  1.0
  O  O93  1  0.91719000  0.15339000  0.16877000  1.0
  O  O94  1  0.15339000  0.16877000  0.91719000  1.0
  O  O95  1  0.16877000  0.91719000  0.15339000  1.0
