# generated using pymatgen
data_CsH7C7(NO4)2
_symmetry_space_group_name_H-M   'P 1'
_cell_length_a   4.61128000
_cell_length_b   15.04200000
_cell_length_c   17.37270000
_cell_angle_alpha   73.28200000
_cell_angle_beta   89.99980000
_cell_angle_gamma   89.99980000
_symmetry_Int_Tables_number   1
_chemical_formula_structural   CsH7C7(NO4)2
_chemical_formula_sum   'Cs4 H28 C28 N8 O32'
_cell_volume   1154.08680041
_cell_formula_units_Z   4
loop_
 _symmetry_equiv_pos_site_id
 _symmetry_equiv_pos_as_xyz
  1  'x, y, z'
loop_
 _atom_site_type_symbol
 _atom_site_label
 _atom_site_symmetry_multiplicity
 _atom_site_fract_x
 _atom_site_fract_y
 _atom_site_fract_z
 _atom_site_occupancy
  Cs  Cs0  1  0.12392000  0.63158000  0.54171000  1.0
  Cs  Cs1  1  0.62392000  0.86842000  0.95829000  1.0
  Cs  Cs2  1  0.87608000  0.36842000  0.45829000  1.0
  Cs  Cs3  1  0.37608000  0.13158000  0.04170000  1.0
  H  H4  1  0.45738000  0.62589000  0.74568000  1.0
  H  H5  1  0.95737000  0.87412000  0.75432000  1.0
  H  H6  1  0.54262000  0.37411000  0.25432000  1.0
  H  H7  1  0.04262000  0.12589000  0.24568000  1.0
  H  H8  1  0.80838000  0.55098000  0.93298000  1.0
  H  H9  1  0.30839000  0.94902000  0.56702000  1.0
  H  H10  1  0.19162000  0.44902000  0.06702000  1.0
  H  H11  1  0.69161000  0.05098000  0.43297000  1.0
  H  H12  1  0.19453000  0.33983000  0.84210000  1.0
  H  H13  1  0.69453000  0.16017000  0.65790000  1.0
  H  H14  1  0.80547000  0.66017000  0.15790000  1.0
  H  H15  1  0.30547000  0.83983000  0.34210000  1.0
  H  H16  1  0.75160000  0.62631000  0.39882000  1.0
  H  H17  1  0.25160000  0.87369000  0.10118000  1.0
  H  H18  1  0.24840000  0.37369000  0.60118000  1.0
  H  H19  1  0.74840000  0.12631000  0.89882000  1.0
  H  H20  1  0.50935000  0.54951000  0.41165000  1.0
  H  H21  1  0.00935000  0.95049000  0.08835000  1.0
  H  H22  1  0.49066000  0.45049000  0.58835000  1.0
  H  H23  1  0.99066000  0.04951000  0.91165000  1.0
  H  H24  1  0.14266000  0.67067000  0.31477000  1.0
  H  H25  1  0.64266000  0.82933000  0.18523000  1.0
  H  H26  1  0.85733000  0.32933000  0.68523000  1.0
  H  H27  1  0.35734000  0.17067000  0.81477000  1.0
  H  H28  1  0.95583000  0.76005000  0.31262000  1.0
  H  H29  1  0.45583000  0.73995000  0.18738000  1.0
  H  H30  1  0.04417000  0.23995000  0.68738000  1.0
  H  H31  1  0.54417000  0.26005000  0.81262000  1.0
  C  C32  1  0.55002000  0.45353000  0.72803000  1.0
  C  C33  1  0.05002000  0.04647000  0.77197000  1.0
  C  C34  1  0.44998000  0.54647000  0.27197000  1.0
  C  C35  1  0.94997000  0.95353000  0.22803000  1.0
  C  C36  1  0.34651000  0.48028000  0.78665000  1.0
  C  C37  1  0.84651000  0.01972000  0.71335000  1.0
  C  C38  1  0.65350000  0.51972000  0.21335000  1.0
  C  C39  1  0.15349000  0.98028000  0.28665000  1.0
  C  C40  1  0.32647000  0.57301000  0.78714000  1.0
  C  C41  1  0.82647000  0.92699000  0.71286000  1.0
  C  C42  1  0.67353000  0.42699000  0.21286000  1.0
  C  C43  1  0.17353000  0.07301000  0.28714000  1.0
  C  C44  1  0.13727000  0.59639000  0.84082000  1.0
  C  C45  1  0.63727000  0.90361000  0.65918000  1.0
  C  C46  1  0.86273000  0.40361000  0.15918000  1.0
  C  C47  1  0.36273000  0.09639000  0.34082000  1.0
  C  C48  1  0.95954000  0.53134000  0.89277000  1.0
  C  C49  1  0.45954000  0.96867000  0.60723000  1.0
  C  C50  1  0.04046000  0.46866000  0.10723000  1.0
  C  C51  1  0.54046000  0.03133000  0.39277000  1.0
  C  C52  1  0.98768000  0.43980000  0.89151000  1.0
  C  C53  1  0.48768000  0.06020000  0.60849000  1.0
  C  C54  1  0.01233000  0.56020000  0.10849000  1.0
  C  C55  1  0.51232000  0.93980000  0.39151000  1.0
  C  C56  1  0.17865000  0.41267000  0.84023000  1.0
  C  C57  1  0.67866000  0.08733000  0.65977000  1.0
  C  C58  1  0.82135000  0.58733000  0.15977000  1.0
  C  C59  1  0.32134000  0.91267000  0.34023000  1.0
  N  N60  1  0.12215000  0.69280000  0.84391000  1.0
  N  N61  1  0.62215000  0.80720000  0.65610000  1.0
  N  N62  1  0.87785000  0.30720000  0.15609000  1.0
  N  N63  1  0.37784000  0.19280000  0.34390000  1.0
  N  N64  1  0.81074000  0.36905000  0.94743000  1.0
  N  N65  1  0.31075000  0.13095000  0.55257000  1.0
  N  N66  1  0.18926000  0.63095000  0.05257000  1.0
  N  N67  1  0.68925000  0.86905000  0.44743000  1.0
  O  O68  1  0.64042000  0.37010000  0.74841000  1.0
  O  O69  1  0.14043000  0.12991000  0.75159000  1.0
  O  O70  1  0.35958000  0.62990000  0.25159000  1.0
  O  O71  1  0.85957000  0.87010000  0.24841000  1.0
  O  O72  1  0.61101000  0.51584000  0.66383000  1.0
  O  O73  1  0.11101000  0.98416000  0.83617000  1.0
  O  O74  1  0.38899000  0.48416000  0.33617000  1.0
  O  O75  1  0.88899000  0.01584000  0.16383000  1.0
  O  O76  1  0.64031000  0.57962000  0.44111000  1.0
  O  O77  1  0.14031000  0.92038000  0.05889000  1.0
  O  O78  1  0.35969000  0.42038000  0.55889000  1.0
  O  O79  1  0.85969000  0.07962000  0.94111000  1.0
  O  O80  1  0.31080000  0.74778000  0.80793000  1.0
  O  O81  1  0.81080000  0.75222000  0.69207000  1.0
  O  O82  1  0.68920000  0.25222000  0.19207000  1.0
  O  O83  1  0.18920000  0.24778000  0.30793000  1.0
  O  O84  1  0.01943000  0.69938000  0.34837000  1.0
  O  O85  1  0.51943000  0.80062000  0.15163000  1.0
  O  O86  1  0.98057000  0.30062000  0.65163000  1.0
  O  O87  1  0.48057000  0.19938000  0.84837000  1.0
  O  O88  1  0.92034000  0.71359000  0.88282000  1.0
  O  O89  1  0.42034000  0.78641000  0.61718000  1.0
  O  O90  1  0.07966000  0.28640000  0.11718000  1.0
  O  O91  1  0.57965000  0.21359000  0.38282000  1.0
  O  O92  1  0.86363000  0.28651000  0.95368000  1.0
  O  O93  1  0.36363000  0.21349000  0.54632000  1.0
  O  O94  1  0.13637000  0.71349000  0.04632000  1.0
  O  O95  1  0.63637000  0.78651000  0.45368000  1.0
  O  O96  1  0.61801000  0.39549000  0.98598000  1.0
  O  O97  1  0.11801000  0.10451000  0.51402000  1.0
  O  O98  1  0.38199000  0.60451000  0.01402000  1.0
  O  O99  1  0.88198000  0.89549000  0.48598000  1.0
