# generated using pymatgen
data_Zn2H20C33(NO6)2
_symmetry_space_group_name_H-M   'P 1'
_cell_length_a   9.74138000
_cell_length_b   11.04120000
_cell_length_c   16.05370000
_cell_angle_alpha   93.17820000
_cell_angle_beta   90.44900000
_cell_angle_gamma   91.28360000
_symmetry_Int_Tables_number   1
_chemical_formula_structural   Zn2H20C33(NO6)2
_chemical_formula_sum   'Zn2 H20 C33 N2 O12'
_cell_volume   1723.52052372
_cell_formula_units_Z   1
loop_
 _symmetry_equiv_pos_site_id
 _symmetry_equiv_pos_as_xyz
  1  'x, y, z'
loop_
 _atom_site_type_symbol
 _atom_site_label
 _atom_site_symmetry_multiplicity
 _atom_site_fract_x
 _atom_site_fract_y
 _atom_site_fract_z
 _atom_site_occupancy
  Zn  Zn0  1  0.36034000  0.49078000  0.50105000  1.0
  Zn  Zn1  1  0.64674000  0.49723000  0.50179000  1.0
  H  H2  1  0.61110000  0.70862000  0.97756000  1.0
  H  H3  1  0.18318000  0.10831000  0.45401000  1.0
  H  H4  1  0.18145000  0.87641000  0.55254000  1.0
  H  H5  1  0.17767000  0.88115000  0.44106000  1.0
  H  H6  1  0.86841000  0.40820000  0.38344000  1.0
  H  H7  1  0.12773000  0.40109000  0.38432000  1.0
  H  H8  1  0.13590000  0.55088000  0.69759000  1.0
  H  H9  1  0.14978000  0.69215000  0.64960000  1.0
  H  H10  1  0.87771000  0.56239000  0.69462000  1.0
  H  H11  1  0.73159000  0.51092000  0.05435000  1.0
  H  H12  1  0.61294000  0.34857000  0.92816000  1.0
  H  H13  1  0.37572000  0.32289000  0.02841000  1.0
  H  H14  1  0.25601000  0.52161000  0.95137000  1.0
  H  H15  1  0.72123000  0.88364000  0.49542000  1.0
  H  H16  1  0.72464000  0.10958000  0.50624000  1.0
  H  H17  1  0.92457000  0.79567000  0.60016000  1.0
  H  H18  1  0.76271000  0.73930000  0.63355000  1.0
  H  H19  1  0.89064000  0.79002000  0.70868000  1.0
  H  H20  1  0.38439000  0.83366000  0.17036000  1.0
  H  H21  1  0.02455000  0.21423000  0.62944000  1.0
  C  C22  1  0.50090000  0.72833000  0.49052000  1.0
  C  C23  1  0.49403000  0.53201000  0.91813000  1.0
  C  C24  1  0.42842000  0.40826000  0.01573000  1.0
  C  C25  1  0.49534000  0.49705000  0.08628000  1.0
  C  C26  1  0.56059000  0.42217000  0.96228000  1.0
  C  C27  1  0.62642000  0.51257000  0.03034000  1.0
  C  C28  1  0.49767000  0.54306000  0.83076000  1.0
  C  C29  1  0.49395000  0.48124000  0.17303000  1.0
  C  C30  1  0.38122000  0.92981000  0.49887000  1.0
  C  C31  1  0.50130000  0.86352000  0.49490000  1.0
  C  C32  1  0.62517000  0.93243000  0.49826000  1.0
  C  C33  1  0.50651000  0.53090000  0.66481000  1.0
  C  C34  1  0.62710000  0.05903000  0.50472000  1.0
  C  C35  1  0.50495000  0.12519000  0.50921000  1.0
  C  C36  1  0.38356000  0.05602000  0.50643000  1.0
  C  C37  1  0.22787000  0.06480000  0.50735000  1.0
  C  C38  1  0.22592000  0.92001000  0.49883000  1.0
  C  C39  1  0.93536000  0.54532000  0.56324000  1.0
  C  C40  1  0.92904000  0.44628000  0.43633000  1.0
  C  C41  1  0.07203000  0.44174000  0.43703000  1.0
  C  C42  1  0.07816000  0.53951000  0.56433000  1.0
  C  C43  1  0.09275000  0.60519000  0.64895000  1.0
  C  C44  1  0.50662000  0.26034000  0.51312000  1.0
  C  C45  1  0.92930000  0.61504000  0.64733000  1.0
  C  C46  1  0.49814000  0.46551000  0.33788000  1.0
  C  C47  1  0.42670000  0.60790000  0.04157000  1.0
  C  C48  1  0.56026000  0.62180000  0.98860000  1.0
  C  C49  1  0.50310000  0.54274000  0.75490000  1.0
  C  C50  1  0.49514000  0.46918000  0.24802000  1.0
  C  C51  1  0.36185000  0.51753000  0.97397000  1.0
  C  C52  1  0.87316000  0.74270000  0.64742000  1.0
  C  C53  1  0.35277000  0.70496000  0.08889000  1.0
  C  C54  1  0.16636000  0.11472000  0.58776000  1.0
  N  N55  1  0.85751000  0.49927000  0.50041000  1.0
  N  N56  1  0.14985000  0.48886000  0.50213000  1.0
  O  O57  1  0.38451000  0.67363000  0.48305000  1.0
  O  O58  1  0.61701000  0.67808000  0.49600000  1.0
  O  O59  1  0.39090000  0.53233000  0.62718000  1.0
  O  O60  1  0.62377000  0.51835000  0.63129000  1.0
  O  O61  1  0.39028000  0.31084000  0.51868000  1.0
  O  O62  1  0.62293000  0.31456000  0.50903000  1.0
  O  O63  1  0.38252000  0.45529000  0.37387000  1.0
  O  O64  1  0.61594000  0.47497000  0.37294000  1.0
  O  O65  1  0.22880000  0.71944000  0.08693000  1.0
  O  O66  1  0.44086000  0.77604000  0.13799000  1.0
  O  O67  1  0.20035000  0.08851000  0.65763000  1.0
  O  O68  1  0.06052000  0.19100000  0.57407000  1.0
