# generated using pymatgen
data_Al2H17C31O14
_symmetry_space_group_name_H-M   'P 1'
_cell_length_a   6.67670000
_cell_length_b   19.62860000
_cell_length_c   24.66080000
_cell_angle_alpha   90.36450000
_cell_angle_beta   91.49070000
_cell_angle_gamma   92.81500000
_symmetry_Int_Tables_number   1
_chemical_formula_structural   Al2H17C31O14
_chemical_formula_sum   'Al4 H34 C62 O28'
_cell_volume   3226.81640396
_cell_formula_units_Z   2
loop_
 _symmetry_equiv_pos_site_id
 _symmetry_equiv_pos_as_xyz
  1  'x, y, z'
loop_
 _atom_site_type_symbol
 _atom_site_label
 _atom_site_symmetry_multiplicity
 _atom_site_fract_x
 _atom_site_fract_y
 _atom_site_fract_z
 _atom_site_occupancy
  Al  Al0  1  0.75814000  0.24984000  0.25022000  1.0
  Al  Al1  1  0.24334000  0.74947000  0.74922000  1.0
  Al  Al2  1  0.25752000  0.25065000  0.24833000  1.0
  Al  Al3  1  0.74290000  0.74766000  0.75073000  1.0
  H  H4  1  0.20284000  0.40328000  0.52737000  1.0
  H  H5  1  0.79867000  0.59557000  0.47221000  1.0
  H  H6  1  0.83034000  0.43761000  0.57248000  1.0
  H  H7  1  0.17111000  0.56134000  0.42703000  1.0
  H  H8  1  0.28550000  0.49268000  0.06374000  1.0
  H  H9  1  0.70727000  0.50437000  0.93419000  1.0
  H  H10  1  0.23503000  0.98734000  0.56761000  1.0
  H  H11  1  0.76746000  0.01113000  0.43177000  1.0
  H  H12  1  0.17991000  0.04885000  0.02471000  1.0
  H  H13  1  0.82029000  0.94633000  0.97633000  1.0
  H  H14  1  0.40782000  0.60678000  0.53410000  1.0
  H  H15  1  0.59545000  0.39202000  0.46384000  1.0
  H  H16  1  0.34542000  0.62430000  0.95416000  1.0
  H  H17  1  0.51928000  0.42552000  0.97644000  1.0
  H  H18  1  0.04723000  0.06615000  0.52916000  1.0
  H  H19  1  0.95567000  0.93241000  0.47043000  1.0
  H  H20  1  0.99077000  0.97056000  0.86951000  1.0
  H  H21  1  0.24341000  0.00339000  0.86553000  1.0
  H  H22  1  0.91075000  0.07099000  0.92750000  1.0
  H  H23  1  0.15918000  0.10508000  0.92181000  1.0
  H  H24  1  0.10706000  0.11351000  0.81979000  1.0
  H  H25  1  0.92948000  0.16029000  0.85492000  1.0
  H  H26  1  0.85723000  0.07948000  0.82592000  1.0
  H  H27  1  0.82722000  0.93121000  0.10718000  1.0
  H  H28  1  0.72794000  0.00364000  0.13986000  1.0
  H  H29  1  0.17213000  0.98704000  0.11664000  1.0
  H  H30  1  0.07383000  0.05791000  0.14948000  1.0
  H  H31  1  0.95545000  0.98096000  0.22577000  1.0
  H  H32  1  0.21758000  0.97715000  0.21706000  1.0
  H  H33  1  0.05255000  0.90977000  0.19220000  1.0
  H  H34  1  0.52231000  0.33802000  0.26281000  1.0
  H  H35  1  0.47647000  0.66499000  0.72653000  1.0
  H  H36  1  0.00238000  0.16760000  0.27382000  1.0
  H  H37  1  0.99707000  0.83143000  0.72611000  1.0
  C  C38  1  0.50266000  0.17083000  0.32492000  1.0
  C  C39  1  0.49686000  0.82836000  0.67476000  1.0
  C  C40  1  0.48908000  0.16887000  0.17622000  1.0
  C  C41  1  0.51535000  0.82964000  0.82288000  1.0
  C  C42  1  0.00747000  0.32742000  0.17424000  1.0
  C  C43  1  0.99646000  0.67165000  0.82506000  1.0
  C  C44  1  0.02960000  0.33280000  0.32356000  1.0
  C  C45  1  0.96997000  0.66601000  0.67584000  1.0
  C  C46  1  0.90877000  0.46408000  0.53986000  1.0
  C  C47  1  0.09293000  0.53477000  0.45963000  1.0
  C  C48  1  0.11247000  0.44583000  0.51533000  1.0
  C  C49  1  0.88923000  0.55304000  0.48420000  1.0
  C  C50  1  0.03725000  0.37645000  0.37084000  1.0
  C  C51  1  0.96495000  0.62227000  0.62873000  1.0
  C  C52  1  0.81381000  0.47699000  0.48206000  1.0
  C  C53  1  0.18796000  0.52189000  0.51738000  1.0
  C  C54  1  0.02286000  0.45665000  0.45632000  1.0
  C  C55  1  0.97890000  0.54219000  0.54318000  1.0
  C  C56  1  0.03682000  0.41342000  0.41067000  1.0
  C  C57  1  0.96535000  0.58534000  0.58888000  1.0
  C  C58  1  0.15775000  0.49474000  0.03547000  1.0
  C  C59  1  0.83460000  0.50151000  0.96254000  1.0
  C  C60  1  0.98707000  0.45136000  0.04285000  1.0
  C  C61  1  0.00470000  0.54519000  0.95532000  1.0
  C  C62  1  0.82271000  0.45542000  0.00516000  1.0
  C  C63  1  0.16856000  0.54121000  0.99288000  1.0
  C  C64  1  0.98596000  0.40663000  0.08754000  1.0
  C  C65  1  0.00699000  0.59065000  0.91103000  1.0
  C  C66  1  0.99775000  0.62782000  0.87177000  1.0
  C  C67  1  0.00360000  0.37100000  0.12745000  1.0
  C  C68  1  0.35294000  0.99290000  0.53788000  1.0
  C  C69  1  0.64963000  0.00564000  0.46153000  1.0
  C  C70  1  0.52011000  0.95243000  0.54350000  1.0
  C  C71  1  0.48261000  0.04620000  0.45595000  1.0
  C  C72  1  0.67100000  0.95962000  0.50396000  1.0
  C  C73  1  0.33173000  0.03901000  0.49551000  1.0
  C  C74  1  0.52744000  0.90754000  0.58792000  1.0
  C  C75  1  0.47521000  0.09127000  0.41166000  1.0
  C  C76  1  0.49245000  0.12737000  0.37190000  1.0
  C  C77  1  0.50906000  0.87170000  0.62781000  1.0
  C  C78  1  0.32373000  0.98475000  0.96845000  1.0
  C  C79  1  0.67563000  0.00994000  0.03268000  1.0
  C  C80  1  0.50611000  0.95596000  0.95382000  1.0
  C  C81  1  0.49539000  0.04103000  0.04606000  1.0
  C  C82  1  0.68009000  0.96882000  0.98671000  1.0
  C  C83  1  0.32056000  0.02722000  0.01369000  1.0
  C  C84  1  0.51212000  0.91281000  0.90798000  1.0
  C  C85  1  0.49119000  0.08577000  0.09097000  1.0
  C  C86  1  0.48703000  0.12436000  0.12975000  1.0
  C  C87  1  0.51788000  0.87514000  0.86865000  1.0
  C  C88  1  0.38090000  0.55061000  0.53966000  1.0
  C  C89  1  0.62061000  0.44847000  0.45981000  1.0
  C  C90  1  0.35215000  0.58596000  0.98718000  1.0
  C  C91  1  0.63210000  0.41385000  0.00907000  1.0
  C  C92  1  0.14602000  0.07727000  0.49392000  1.0
  C  C93  1  0.85689000  0.92145000  0.50569000  1.0
  C  C94  1  0.10855000  0.00263000  0.89049000  1.0
  C  C95  1  0.03921000  0.07429000  0.90039000  1.0
  C  C96  1  0.98015000  0.10879000  0.84733000  1.0
  C  C97  1  0.85146000  0.98651000  0.11512000  1.0
  C  C98  1  0.05271000  0.00244000  0.14336000  1.0
  C  C99  1  0.07000000  0.96547000  0.19754000  1.0
  O  O100  1  0.32106000  0.18885000  0.19171000  1.0
  O  O101  1  0.68145000  0.80591000  0.80949000  1.0
  O  O102  1  0.67709000  0.18962000  0.30953000  1.0
  O  O103  1  0.32182000  0.80785000  0.68862000  1.0
  O  O104  1  0.85465000  0.31701000  0.30390000  1.0
  O  O105  1  0.14287000  0.68010000  0.69759000  1.0
  O  O106  1  0.66058000  0.18324000  0.19843000  1.0
  O  O107  1  0.34530000  0.81733000  0.79912000  1.0
  O  O108  1  0.83759000  0.30807000  0.19230000  1.0
  O  O109  1  0.16716000  0.69416000  0.80959000  1.0
  O  O110  1  0.33481000  0.18522000  0.30342000  1.0
  O  O111  1  0.66353000  0.81559000  0.69787000  1.0
  O  O112  1  0.51408000  0.29095000  0.25056000  1.0
  O  O113  1  0.48597000  0.70682000  0.74784000  1.0
  O  O114  1  0.17857000  0.31291000  0.19362000  1.0
  O  O115  1  0.82638000  0.68288000  0.80337000  1.0
  O  O116  1  0.19633000  0.31458000  0.30575000  1.0
  O  O117  1  0.80249000  0.68615000  0.69175000  1.0
  O  O118  1  0.00277000  0.20872000  0.25220000  1.0
  O  O119  1  0.99775000  0.78994000  0.74728000  1.0
  O  O120  1  0.50392000  0.51725000  0.56425000  1.0
  O  O121  1  0.49535000  0.48248000  0.43675000  1.0
  O  O122  1  0.50360000  0.58162000  0.01595000  1.0
  O  O123  1  0.59397000  0.37112000  0.04350000  1.0
  O  O124  1  0.09665000  0.11674000  0.45847000  1.0
  O  O125  1  0.90631000  0.88223000  0.54133000  1.0
  O  O126  1  0.14793000  0.96692000  0.94067000  1.0
  O  O127  1  0.84870000  0.02151000  0.06334000  1.0
