# generated using pymatgen
data_Zr3H17(CO)26
_symmetry_space_group_name_H-M   'P 1'
_cell_length_a   14.83450000
_cell_length_b   14.85147676
_cell_length_c   14.85235867
_cell_angle_alpha   60.07803263
_cell_angle_beta   60.09078014
_cell_angle_gamma   60.09409049
_symmetry_Int_Tables_number   1
_chemical_formula_structural   Zr3H17(CO)26
_chemical_formula_sum   'Zr6 H34 C52 O52'
_cell_volume   2318.37949814
_cell_formula_units_Z   2
loop_
 _symmetry_equiv_pos_site_id
 _symmetry_equiv_pos_as_xyz
  1  'x, y, z'
loop_
 _atom_site_type_symbol
 _atom_site_label
 _atom_site_symmetry_multiplicity
 _atom_site_fract_x
 _atom_site_fract_y
 _atom_site_fract_z
 _atom_site_occupancy
  Zr  Zr0  1  0.37962000  0.11886000  0.38060000  1.0
  Zr  Zr1  1  0.61624000  0.88108000  0.61835000  1.0
  Zr  Zr2  1  0.61626000  0.11725000  0.38215000  1.0
  Zr  Zr3  1  0.37954000  0.87943000  0.62002000  1.0
  Zr  Zr4  1  0.37899000  0.11747000  0.61868000  1.0
  Zr  Zr5  1  0.61610000  0.88063000  0.38190000  1.0
  H  H6  1  0.40442000  0.27962000  0.40588000  1.0
  H  H7  1  0.40433000  0.90492000  0.78077000  1.0
  H  H8  1  0.77851000  0.90586000  0.40711000  1.0
  H  H9  1  0.40356000  0.90543000  0.40658000  1.0
  H  H10  1  0.33730000  0.37263000  0.04069000  1.0
  H  H11  1  0.25336000  0.45748000  0.12594000  1.0
  H  H12  1  0.25357000  0.62546000  0.95800000  1.0
  H  H13  1  0.33745000  0.54029000  0.87311000  1.0
  H  H14  1  0.84118000  0.64949000  0.65589000  1.0
  H  H15  1  0.15353000  0.34720000  0.34740000  1.0
  H  H16  1  0.14725000  0.34414000  0.65753000  1.0
  H  H17  1  0.84657000  0.65193000  0.34659000  1.0
  H  H18  1  0.65086000  0.84736000  0.84666000  1.0
  H  H19  1  0.35435000  0.15884000  0.14603000  1.0
  H  H20  1  0.65359000  0.84752000  0.15101000  1.0
  H  H21  1  0.35014000  0.15696000  0.84289000  1.0
  H  H22  1  0.84602000  0.84581000  0.15284000  1.0
  H  H23  1  0.14672000  0.15671000  0.84492000  1.0
  H  H24  1  0.15311000  0.84640000  0.84817000  1.0
  H  H25  1  0.84093000  0.15490000  0.15051000  1.0
  H  H26  1  0.34972000  0.34198000  0.65768000  1.0
  H  H27  1  0.65317000  0.65010000  0.34842000  1.0
  H  H28  1  0.35405000  0.64494000  0.65984000  1.0
  H  H29  1  0.65044000  0.34576000  0.34814000  1.0
  H  H30  1  0.84217000  0.15437000  0.35068000  1.0
  H  H31  1  0.14869000  0.84854000  0.65584000  1.0
  H  H32  1  0.14869000  0.15434000  0.35012000  1.0
  H  H33  1  0.84222000  0.84903000  0.65586000  1.0
  H  H34  1  0.76235000  0.53027000  0.88713000  1.0
  H  H35  1  0.67561000  0.66578000  0.83912000  1.0
  H  H36  1  0.67774000  0.60991000  0.97474000  1.0
  H  H37  1  0.67759000  0.47401000  0.11073000  1.0
  H  H38  1  0.67635000  0.33811000  0.16587000  1.0
  H  H39  1  0.76241000  0.38722000  0.03026000  1.0
  C  C40  1  0.18920000  0.30328000  0.50381000  1.0
  C  C41  1  0.50056000  0.00247000  0.80371000  1.0
  C  C42  1  0.80305000  0.69131000  0.50119000  1.0
  C  C43  1  0.50253000  0.00233000  0.19035000  1.0
  C  C44  1  0.50270000  0.29905000  0.19478000  1.0
  C  C45  1  0.18946000  0.00170000  0.50312000  1.0
  C  C46  1  0.50265000  0.69386000  0.79987000  1.0
  C  C47  1  0.80096000  0.00229000  0.50373000  1.0
  C  C48  1  0.50047000  0.30256000  0.50352000  1.0
  C  C49  1  0.80285000  0.00014000  0.19240000  1.0
  C  C50  1  0.50239000  0.68914000  0.50344000  1.0
  C  C51  1  0.18896000  0.00273000  0.80437000  1.0
  C  C52  1  0.90192000  0.59367000  0.50103000  1.0
  C  C53  1  0.09257000  0.40299000  0.50211000  1.0
  C  C54  1  0.94866000  0.54488000  0.58553000  1.0
  C  C55  1  0.04706000  0.45300000  0.41645000  1.0
  C  C56  1  0.04318000  0.45049000  0.58604000  1.0
  C  C57  1  0.95228000  0.54707000  0.41623000  1.0
  C  C58  1  0.50127000  0.00265000  0.90164000  1.0
  C  C59  1  0.50291000  0.00300000  0.09157000  1.0
  C  C60  1  0.58316000  0.91805000  0.95104000  1.0
  C  C61  1  0.42118000  0.08781000  0.04201000  1.0
  C  C62  1  0.58402000  0.91813000  0.04511000  1.0
  C  C63  1  0.41988000  0.08725000  0.94841000  1.0
  C  C64  1  0.90146000  0.00020000  0.09450000  1.0
  C  C65  1  0.09209000  0.00123000  0.90385000  1.0
  C  C66  1  0.95169000  0.91548000  0.04782000  1.0
  C  C67  1  0.04261000  0.08526000  0.95125000  1.0
  C  C68  1  0.04651000  0.91562000  0.95379000  1.0
  C  C69  1  0.94815000  0.08473000  0.04570000  1.0
  C  C70  1  0.50091000  0.40071000  0.50348000  1.0
  C  C71  1  0.50254000  0.59057000  0.50388000  1.0
  C  C72  1  0.41945000  0.44751000  0.58802000  1.0
  C  C73  1  0.58353000  0.54426000  0.41888000  1.0
  C  C74  1  0.42077000  0.54106000  0.58865000  1.0
  C  C75  1  0.58270000  0.45021000  0.41876000  1.0
  C  C76  1  0.50829000  0.40021000  0.09608000  1.0
  C  C77  1  0.50830000  0.59527000  0.90100000  1.0
  C  C78  1  0.42820000  0.45131000  0.04584000  1.0
  C  C79  1  0.59017000  0.54685000  0.95154000  1.0
  C  C80  1  0.42824000  0.54503000  0.95211000  1.0
  C  C81  1  0.59017000  0.45084000  0.04754000  1.0
  C  C82  1  0.32556000  0.44568000  0.05240000  1.0
  C  C83  1  0.32565000  0.55182000  0.94628000  1.0
  C  C84  1  0.89975000  0.00179000  0.50329000  1.0
  C  C85  1  0.09117000  0.00155000  0.50307000  1.0
  C  C86  1  0.94837000  0.08457000  0.41974000  1.0
  C  C87  1  0.04312000  0.91810000  0.58600000  1.0
  C  C88  1  0.04313000  0.08449000  0.41966000  1.0
  C  C89  1  0.94838000  0.91818000  0.58606000  1.0
  C  C90  1  0.68057000  0.59145000  0.91012000  1.0
  C  C91  1  0.68075000  0.40948000  0.09187000  1.0
  O  O92  1  0.23141000  0.25990000  0.42839000  1.0
  O  O93  1  0.57569000  0.92569000  0.76174000  1.0
  O  O94  1  0.76107000  0.73485000  0.57629000  1.0
  O  O95  1  0.42650000  0.07824000  0.23321000  1.0
  O  O96  1  0.57751000  0.24985000  0.23963000  1.0
  O  O97  1  0.23261000  0.92521000  0.57892000  1.0
  O  O98  1  0.42254000  0.73244000  0.76466000  1.0
  O  O99  1  0.75819000  0.07822000  0.42757000  1.0
  O  O100  1  0.42413000  0.26001000  0.57953000  1.0
  O  O101  1  0.75967000  0.92433000  0.23462000  1.0
  O  O102  1  0.57745000  0.73295000  0.42611000  1.0
  O  O103  1  0.23147000  0.07914000  0.76156000  1.0
  O  O104  1  0.76099000  0.07518000  0.23601000  1.0
  O  O105  1  0.42647000  0.73191000  0.57943000  1.0
  O  O106  1  0.23131000  0.92719000  0.76110000  1.0
  O  O107  1  0.57576000  0.26046000  0.42686000  1.0
  O  O108  1  0.42267000  0.26371000  0.23340000  1.0
  O  O109  1  0.75820000  0.92611000  0.57960000  1.0
  O  O110  1  0.57751000  0.73863000  0.75054000  1.0
  O  O111  1  0.23256000  0.07754000  0.42668000  1.0
  O  O112  1  0.57746000  0.92489000  0.23426000  1.0
  O  O113  1  0.23161000  0.26035000  0.58032000  1.0
  O  O114  1  0.42412000  0.07839000  0.76127000  1.0
  O  O115  1  0.75978000  0.73335000  0.42549000  1.0
  O  O116  1  0.43068000  0.93189000  0.43308000  1.0
  O  O117  1  0.69854000  0.93228000  0.43344000  1.0
  O  O118  1  0.42996000  0.93322000  0.70089000  1.0
  O  O119  1  0.43001000  0.19974000  0.43430000  1.0
  O  O120  1  0.54661000  0.04907000  0.55016000  1.0
  O  O121  1  0.34979000  0.04825000  0.54939000  1.0
  O  O122  1  0.54674000  0.85173000  0.54877000  1.0
  O  O123  1  0.54681000  0.04765000  0.35280000  1.0
  O  O124  1  0.90645000  0.58385000  0.66847000  1.0
  O  O125  1  0.09048000  0.41489000  0.33257000  1.0
  O  O126  1  0.08165000  0.40955000  0.66909000  1.0
  O  O127  1  0.91414000  0.58858000  0.33285000  1.0
  O  O128  1  0.66228000  0.83444000  0.91292000  1.0
  O  O129  1  0.34238000  0.17157000  0.08012000  1.0
  O  O130  1  0.66394000  0.83472000  0.08671000  1.0
  O  O131  1  0.33921000  0.16972000  0.90750000  1.0
  O  O132  1  0.91342000  0.83219000  0.08932000  1.0
  O  O133  1  0.08101000  0.16839000  0.91023000  1.0
  O  O134  1  0.08991000  0.83171000  0.91574000  1.0
  O  O135  1  0.90607000  0.16759000  0.08473000  1.0
  O  O136  1  0.33869000  0.40665000  0.67041000  1.0
  O  O137  1  0.66338000  0.58596000  0.33544000  1.0
  O  O138  1  0.34198000  0.57913000  0.67245000  1.0
  O  O139  1  0.66174000  0.41214000  0.33511000  1.0
  O  O140  1  0.90841000  0.16572000  0.33802000  1.0
  O  O141  1  0.08361000  0.83623000  0.66713000  1.0
  O  O142  1  0.08361000  0.16563000  0.33781000  1.0
  O  O143  1  0.90845000  0.83641000  0.66715000  1.0
