# generated using pymatgen
data_ZnH16C27(NO3)2
_symmetry_space_group_name_H-M   'P 1'
_cell_length_a   12.71690000
_cell_length_b   14.64200000
_cell_length_c   14.64200000
_cell_angle_alpha   77.21080000
_cell_angle_beta   86.54990000
_cell_angle_gamma   86.55000000
_symmetry_Int_Tables_number   1
_chemical_formula_structural   ZnH16C27(NO3)2
_chemical_formula_sum   'Zn4 H64 C108 N8 O24'
_cell_volume   2650.82001923
_cell_formula_units_Z   4
loop_
 _symmetry_equiv_pos_site_id
 _symmetry_equiv_pos_as_xyz
  1  'x, y, z'
loop_
 _atom_site_type_symbol
 _atom_site_label
 _atom_site_symmetry_multiplicity
 _atom_site_fract_x
 _atom_site_fract_y
 _atom_site_fract_z
 _atom_site_occupancy
  Zn  Zn0  1  0.83878000  0.93915000  0.54249000  1.0
  Zn  Zn1  1  0.66122000  0.45751000  0.06085000  1.0
  Zn  Zn2  1  0.16122000  0.06085000  0.45751000  1.0
  Zn  Zn3  1  0.33878000  0.54249000  0.93915000  1.0
  H  H4  1  0.88821000  0.91379000  0.82698000  1.0
  H  H5  1  0.61179000  0.17302000  0.08621000  1.0
  H  H6  1  0.11179000  0.08621000  0.17302000  1.0
  H  H7  1  0.38820000  0.82698000  0.91379000  1.0
  H  H8  1  0.85807000  0.86131000  0.23064000  1.0
  H  H9  1  0.64193000  0.76936000  0.13869000  1.0
  H  H10  1  0.14193000  0.13869000  0.76935000  1.0
  H  H11  1  0.35807000  0.23064000  0.86131000  1.0
  H  H12  1  0.85538000  0.20647000  0.08940000  1.0
  H  H13  1  0.64461000  0.91060000  0.79353000  1.0
  H  H14  1  0.14462000  0.79353000  0.91060000  1.0
  H  H15  1  0.35538000  0.08940000  0.20647000  1.0
  H  H16  1  0.84578000  0.14649000  0.26372000  1.0
  H  H17  1  0.65421000  0.73628000  0.85351000  1.0
  H  H18  1  0.15421000  0.85351000  0.73628000  1.0
  H  H19  1  0.34578000  0.26372000  0.14649000  1.0
  H  H20  1  0.87453000  0.23049000  0.90667000  1.0
  H  H21  1  0.62547000  0.09333000  0.76951000  1.0
  H  H22  1  0.12547000  0.76951000  0.09333000  1.0
  H  H23  1  0.37454000  0.90667000  0.23049000  1.0
  H  H24  1  0.88582000  0.21402000  0.73920000  1.0
  H  H25  1  0.61418000  0.26080000  0.78598000  1.0
  H  H26  1  0.11418000  0.78598000  0.26080000  1.0
  H  H27  1  0.38582000  0.73920000  0.21402000  1.0
  H  H28  1  0.52771000  0.20488000  0.55267000  1.0
  H  H29  1  0.97229000  0.44733000  0.79512000  1.0
  H  H30  1  0.47229000  0.79512000  0.44734000  1.0
  H  H31  1  0.02771000  0.55267000  0.20488000  1.0
  H  H32  1  0.86053000  0.72111000  0.58983000  1.0
  H  H33  1  0.63947000  0.41017000  0.27889000  1.0
  H  H34  1  0.13947000  0.27889000  0.41017000  1.0
  H  H35  1  0.36053000  0.58983000  0.72111000  1.0
  H  H36  1  0.70905000  0.14513000  0.50702000  1.0
  H  H37  1  0.79095000  0.49299000  0.85487000  1.0
  H  H38  1  0.29095000  0.85487000  0.49299000  1.0
  H  H39  1  0.20905000  0.50701000  0.14513000  1.0
  H  H40  1  0.74486000  0.58839000  0.66677000  1.0
  H  H41  1  0.75515000  0.33323000  0.41161000  1.0
  H  H42  1  0.25515000  0.41161000  0.33323000  1.0
  H  H43  1  0.24486000  0.66677000  0.58839000  1.0
  H  H44  1  0.56094000  0.62680000  0.72363000  1.0
  H  H45  1  0.93906000  0.27636000  0.37319000  1.0
  H  H46  1  0.43906000  0.37319000  0.27636000  1.0
  H  H47  1  0.06094000  0.72364000  0.62680000  1.0
  H  H48  1  0.39698000  0.08947000  0.63686000  1.0
  H  H49  1  0.10302000  0.36315000  0.91052000  1.0
  H  H50  1  0.60301000  0.91053000  0.36315000  1.0
  H  H51  1  0.89698000  0.63686000  0.08947000  1.0
  H  H52  1  0.35954000  0.92011000  0.70839000  1.0
  H  H53  1  0.14046000  0.29161000  0.07989000  1.0
  H  H54  1  0.64046000  0.07989000  0.29162000  1.0
  H  H55  1  0.85954000  0.70838000  0.92011000  1.0
  H  H56  1  0.41849000  0.75196000  0.73873000  1.0
  H  H57  1  0.08151000  0.26127000  0.24804000  1.0
  H  H58  1  0.58151000  0.24803000  0.26127000  1.0
  H  H59  1  0.91849000  0.73873000  0.75196000  1.0
  H  H60  1  0.02873000  0.86605000  0.48497000  1.0
  H  H61  1  0.47127000  0.51503000  0.13395000  1.0
  H  H62  1  0.97127000  0.13395000  0.51503000  1.0
  H  H63  1  0.52873000  0.48497000  0.86605000  1.0
  H  H64  1  0.03327000  0.89973000  0.57878000  1.0
  H  H65  1  0.46673000  0.42122000  0.10027000  1.0
  H  H66  1  0.96673000  0.10027000  0.42122000  1.0
  H  H67  1  0.53327000  0.57878000  0.89973000  1.0
  C  C68  1  0.87428000  0.08019000  0.96022000  1.0
  C  C69  1  0.62572000  0.03978000  0.91981000  1.0
  C  C70  1  0.12572000  0.91981000  0.03978000  1.0
  C  C71  1  0.37428000  0.96022000  0.08019000  1.0
  C  C72  1  0.87937000  0.91693000  0.02557000  1.0
  C  C73  1  0.62063000  0.97443000  0.08307000  1.0
  C  C74  1  0.12063000  0.08307000  0.97443000  1.0
  C  C75  1  0.37937000  0.02557000  0.91693000  1.0
  C  C76  1  0.86615000  0.06659000  0.06291000  1.0
  C  C77  1  0.63385000  0.93709000  0.93341000  1.0
  C  C78  1  0.13385000  0.93341000  0.93709000  1.0
  C  C79  1  0.36615000  0.06291000  0.06659000  1.0
  C  C80  1  0.88033000  0.99121000  0.93713000  1.0
  C  C81  1  0.61968000  0.06286000  0.00879000  1.0
  C  C82  1  0.11968000  0.00880000  0.06286000  1.0
  C  C83  1  0.38032000  0.93713000  0.99120000  1.0
  C  C84  1  0.86784000  0.96924000  0.10301000  1.0
  C  C85  1  0.63216000  0.89699000  0.03076000  1.0
  C  C86  1  0.13216000  0.03076000  0.89699000  1.0
  C  C87  1  0.36784000  0.10301000  0.96924000  1.0
  C  C88  1  0.88573000  0.06416000  0.77376000  1.0
  C  C89  1  0.61427000  0.22624000  0.93584000  1.0
  C  C90  1  0.11427000  0.93584000  0.22624000  1.0
  C  C91  1  0.38573000  0.77376000  0.06416000  1.0
  C  C92  1  0.84070000  0.96759000  0.36039000  1.0
  C  C93  1  0.65929000  0.63961000  0.03241000  1.0
  C  C94  1  0.15929000  0.03241000  0.63961000  1.0
  C  C95  1  0.34070000  0.36039000  0.96759000  1.0
  C  C96  1  0.88501000  0.98221000  0.84490000  1.0
  C  C97  1  0.61499000  0.15510000  0.01779000  1.0
  C  C98  1  0.11499000  0.01779000  0.15510000  1.0
  C  C99  1  0.38501000  0.84490000  0.98221000  1.0
  C  C100  1  0.85903000  0.93600000  0.19910000  1.0
  C  C101  1  0.64097000  0.80090000  0.06400000  1.0
  C  C102  1  0.14097000  0.06400000  0.80090000  1.0
  C  C103  1  0.35903000  0.19910000  0.93600000  1.0
  C  C104  1  0.85103000  0.00154000  0.25670000  1.0
  C  C105  1  0.64897000  0.74330000  0.99846000  1.0
  C  C106  1  0.14897000  0.99846000  0.74330000  1.0
  C  C107  1  0.35103000  0.25670000  0.00154000  1.0
  C  C108  1  0.85756000  0.13146000  0.11964000  1.0
  C  C109  1  0.64244000  0.88037000  0.86854000  1.0
  C  C110  1  0.14244000  0.86854000  0.88036000  1.0
  C  C111  1  0.35756000  0.11963000  0.13146000  1.0
  C  C112  1  0.88833000  0.05728000  0.67297000  1.0
  C  C113  1  0.61167000  0.32703000  0.94272000  1.0
  C  C114  1  0.11167000  0.94272000  0.32703000  1.0
  C  C115  1  0.38833000  0.67297000  0.05728000  1.0
  C  C116  1  0.85138000  0.09789000  0.21683000  1.0
  C  C117  1  0.64862000  0.78317000  0.90211000  1.0
  C  C118  1  0.14862000  0.90211000  0.78317000  1.0
  C  C119  1  0.35138000  0.21683000  0.09789000  1.0
  C  C120  1  0.87703000  0.16146000  0.88996000  1.0
  C  C121  1  0.62297000  0.11003000  0.83854000  1.0
  C  C122  1  0.12297000  0.83854000  0.11003000  1.0
  C  C123  1  0.37703000  0.88996000  0.16146000  1.0
  C  C124  1  0.88347000  0.15242000  0.79675000  1.0
  C  C125  1  0.61654000  0.20325000  0.84759000  1.0
  C  C126  1  0.11654000  0.84759000  0.20325000  1.0
  C  C127  1  0.38347000  0.79674000  0.15242000  1.0
  C  C128  1  0.64499000  0.84583000  0.62585000  1.0
  C  C129  1  0.85501000  0.37415000  0.15417000  1.0
  C  C130  1  0.35501000  0.15417000  0.37415000  1.0
  C  C131  1  0.14499000  0.62584000  0.84583000  1.0
  C  C132  1  0.54827000  0.12993000  0.56905000  1.0
  C  C133  1  0.95173000  0.43095000  0.87007000  1.0
  C  C134  1  0.45172000  0.87007000  0.43096000  1.0
  C  C135  1  0.04827000  0.56905000  0.12993000  1.0
  C  C136  1  0.60992000  0.94355000  0.60659000  1.0
  C  C137  1  0.89008000  0.39341000  0.05645000  1.0
  C  C138  1  0.39008000  0.05645000  0.39341000  1.0
  C  C139  1  0.10992000  0.60659000  0.94355000  1.0
  C  C140  1  0.77919000  0.73408000  0.61373000  1.0
  C  C141  1  0.72081000  0.38627000  0.26593000  1.0
  C  C142  1  0.22081000  0.26593000  0.38627000  1.0
  C  C143  1  0.27919000  0.61373000  0.73408000  1.0
  C  C144  1  0.64964000  0.09729000  0.54294000  1.0
  C  C145  1  0.85037000  0.45706000  0.90271000  1.0
  C  C146  1  0.35036000  0.90271000  0.45707000  1.0
  C  C147  1  0.14964000  0.54294000  0.09729000  1.0
  C  C148  1  0.57407000  0.77668000  0.67099000  1.0
  C  C149  1  0.92593000  0.32901000  0.22332000  1.0
  C  C150  1  0.42592000  0.22331000  0.32901000  1.0
  C  C151  1  0.07408000  0.67098000  0.77668000  1.0
  C  C152  1  0.71404000  0.66082000  0.65645000  1.0
  C  C153  1  0.78596000  0.34355000  0.33919000  1.0
  C  C154  1  0.28596000  0.33919000  0.34355000  1.0
  C  C155  1  0.21404000  0.65645000  0.66081000  1.0
  C  C156  1  0.61182000  0.68191000  0.68624000  1.0
  C  C157  1  0.88818000  0.31376000  0.31809000  1.0
  C  C158  1  0.38818000  0.31809000  0.31376000  1.0
  C  C159  1  0.11182000  0.68624000  0.68191000  1.0
  C  C160  1  0.47602000  0.06641000  0.61536000  1.0
  C  C161  1  0.02398000  0.38464000  0.93359000  1.0
  C  C162  1  0.52398000  0.93359000  0.38464000  1.0
  C  C163  1  0.97602000  0.61536000  0.06641000  1.0
  C  C164  1  0.50594000  0.96964000  0.63546000  1.0
  C  C165  1  0.99406000  0.36454000  0.03036000  1.0
  C  C166  1  0.49405000  0.03036000  0.36454000  1.0
  C  C167  1  0.00594000  0.63546000  0.96964000  1.0
  C  C168  1  0.43758000  0.89834000  0.68376000  1.0
  C  C169  1  0.06242000  0.31624000  0.10165000  1.0
  C  C170  1  0.56242000  0.10165000  0.31624000  1.0
  C  C171  1  0.93758000  0.68376000  0.89835000  1.0
  C  C172  1  0.47025000  0.80570000  0.70051000  1.0
  C  C173  1  0.02975000  0.29949000  0.19430000  1.0
  C  C174  1  0.52975000  0.19430000  0.29949000  1.0
  C  C175  1  0.97025000  0.70051000  0.80570000  1.0
  N  N176  1  0.74590000  0.82370000  0.60022000  1.0
  N  N177  1  0.75410000  0.39979000  0.17630000  1.0
  N  N178  1  0.25410000  0.17630000  0.39978000  1.0
  N  N179  1  0.24590000  0.60021000  0.82370000  1.0
  N  N180  1  0.67941000  0.00674000  0.56130000  1.0
  N  N181  1  0.82059000  0.43870000  0.99326000  1.0
  N  N182  1  0.32059000  0.99326000  0.43870000  1.0
  N  N183  1  0.17941000  0.56130000  0.00674000  1.0
  O  O184  1  0.86357000  0.02477000  0.41246000  1.0
  O  O185  1  0.63643000  0.58754000  0.97523000  1.0
  O  O186  1  0.13643000  0.97523000  0.58754000  1.0
  O  O187  1  0.36357000  0.41246000  0.02477000  1.0
  O  O188  1  0.98873000  0.86370000  0.54730000  1.0
  O  O189  1  0.51127000  0.45270000  0.13630000  1.0
  O  O190  1  0.01127000  0.13631000  0.45270000  1.0
  O  O191  1  0.48873000  0.54730000  0.86369000  1.0
  O  O192  1  0.88797000  0.83151000  0.03272000  1.0
  O  O193  1  0.61203000  0.96728000  0.16849000  1.0
  O  O194  1  0.11203000  0.16849000  0.96728000  1.0
  O  O195  1  0.38797000  0.03272000  0.83151000  1.0
  O  O196  1  0.88003000  0.97400000  0.66001000  1.0
  O  O197  1  0.61997000  0.34000000  0.02600000  1.0
  O  O198  1  0.11997000  0.02600000  0.33999000  1.0
  O  O199  1  0.38003000  0.66000000  0.97400000  1.0
  O  O200  1  0.80976000  0.88697000  0.39538000  1.0
  O  O201  1  0.69023000  0.60462000  0.11303000  1.0
  O  O202  1  0.19024000  0.11302000  0.60462000  1.0
  O  O203  1  0.30976000  0.39538000  0.88697000  1.0
  O  O204  1  0.89712000  0.13093000  0.60959000  1.0
  O  O205  1  0.60288000  0.39041000  0.86907000  1.0
  O  O206  1  0.10288000  0.86907000  0.39041000  1.0
  O  O207  1  0.39712000  0.60959000  0.13092000  1.0
