# generated using pymatgen
data_CdH8C10N5O8
_symmetry_space_group_name_H-M   'P 1'
_cell_length_a   4.81452000
_cell_length_b   10.48610000
_cell_length_c   13.50240000
_cell_angle_alpha   103.05600000
_cell_angle_beta   97.39990000
_cell_angle_gamma   92.43500000
_symmetry_Int_Tables_number   1
_chemical_formula_structural   CdH8C10N5O8
_chemical_formula_sum   'Cd2 H16 C20 N10 O16'
_cell_volume   656.71349230
_cell_formula_units_Z   2
loop_
 _symmetry_equiv_pos_site_id
 _symmetry_equiv_pos_as_xyz
  1  'x, y, z'
loop_
 _atom_site_type_symbol
 _atom_site_label
 _atom_site_symmetry_multiplicity
 _atom_site_fract_x
 _atom_site_fract_y
 _atom_site_fract_z
 _atom_site_occupancy
  Cd  Cd0  1  0.21418000  0.14399000  0.57815000  1.0
  Cd  Cd1  1  0.78582000  0.85601000  0.42185000  1.0
  H  H2  1  0.50096000  0.21918000  0.82670000  1.0
  H  H3  1  0.49904000  0.78082000  0.17330000  1.0
  H  H4  1  0.58257000  0.36084000  0.00439000  1.0
  H  H5  1  0.41743000  0.63916000  0.99561000  1.0
  H  H6  1  0.27559000  0.43516000  0.04820000  1.0
  H  H7  1  0.72441000  0.56484000  0.95180000  1.0
  H  H8  1  0.74438000  0.32140000  0.13775000  1.0
  H  H9  1  0.25562000  0.67860000  0.86225000  1.0
  H  H10  1  0.32883000  0.02836000  0.16354000  1.0
  H  H11  1  0.67117000  0.97164000  0.83646000  1.0
  H  H12  1  0.81068000  0.39889000  0.70691000  1.0
  H  H13  1  0.18932000  0.60111000  0.29309000  1.0
  H  H14  1  0.67177000  0.28332000  0.50757000  1.0
  H  H15  1  0.32823000  0.71668000  0.49243000  1.0
  H  H16  1  0.45865000  0.38804000  0.55298000  1.0
  H  H17  1  0.54135000  0.61196000  0.44702000  1.0
  C  C18  1  0.33590000  0.28418000  0.81685000  1.0
  C  C19  1  0.66410000  0.71582000  0.18315000  1.0
  C  C20  1  0.42728000  0.43170000  0.99368000  1.0
  C  C21  1  0.57272000  0.56830000  0.00632000  1.0
  C  C22  1  0.15356000  0.10821000  0.30052000  1.0
  C  C23  1  0.84644000  0.89179000  0.69948000  1.0
  C  C24  1  0.97283000  0.20242000  0.35144000  1.0
  C  C25  1  0.02717000  0.79757000  0.64856000  1.0
  C  C26  1  0.83432000  0.28049000  0.28612000  1.0
  C  C27  1  0.16568000  0.71951000  0.71388000  1.0
  C  C28  1  0.85529000  0.26090000  0.18249000  1.0
  C  C29  1  0.14471000  0.73910000  0.81751000  1.0
  C  C30  1  0.03463000  0.17146000  0.13920000  1.0
  C  C31  1  0.96536000  0.82854000  0.86080000  1.0
  C  C32  1  0.18694000  0.09748000  0.19851000  1.0
  C  C33  1  0.81306000  0.90252000  0.80149000  1.0
  C  C34  1  0.30835000  0.01575000  0.35321000  1.0
  C  C35  1  0.69165000  0.98425000  0.64679000  1.0
  C  C36  1  0.98476000  0.37747000  0.75879000  1.0
  C  C37  1  0.01524000  0.62253000  0.24121000  1.0
  N  N38  1  0.05641000  0.44587000  0.85495000  1.0
  N  N39  1  0.94359000  0.55413000  0.14505000  1.0
  N  N40  1  0.15184000  0.27660000  0.73212000  1.0
  N  N41  1  0.84816000  0.72340000  0.26788000  1.0
  N  N42  1  0.28025000  0.38522000  0.89018000  1.0
  N  N43  1  0.71975000  0.61478000  0.10982000  1.0
  N  N44  1  0.66934000  0.38770000  0.32543000  1.0
  N  N45  1  0.33066000  0.61230000  0.67457000  1.0
  N  N46  1  0.07093000  0.15942000  0.03315000  1.0
  N  N47  1  0.92907000  0.84058000  0.96685000  1.0
  O  O48  1  0.52422000  0.96987000  0.31831000  1.0
  O  O49  1  0.47578000  0.03013000  0.68169000  1.0
  O  O50  1  0.21781000  0.98263000  0.43059000  1.0
  O  O51  1  0.78219000  0.01737000  0.56941000  1.0
  O  O52  1  0.93381000  0.21576000  0.44497000  1.0
  O  O53  1  0.06619000  0.78424000  0.55503000  1.0
  O  O54  1  0.72321000  0.44667000  0.41821000  1.0
  O  O55  1  0.27679000  0.55333000  0.58179000  1.0
  O  O56  1  0.48588000  0.42126000  0.26428000  1.0
  O  O57  1  0.51412000  0.57874000  0.73571000  1.0
  O  O58  1  0.90455000  0.21296000  0.97877000  1.0
  O  O59  1  0.09545000  0.78704000  0.02124000  1.0
  O  O60  1  0.26823000  0.09725000  0.00041000  1.0
  O  O61  1  0.73177000  0.90275000  0.99959000  1.0
  O  O62  1  0.53491000  0.30367000  0.55762000  1.0
  O  O63  1  0.46509000  0.69633000  0.44238000  1.0
