# generated using pymatgen
data_CdH13C14N3O4
_symmetry_space_group_name_H-M   'P 1'
_cell_length_a   10.48710000
_cell_length_b   10.48710000
_cell_length_c   14.45660000
_cell_angle_alpha   89.99990000
_cell_angle_beta   89.99990000
_cell_angle_gamma   73.35500000
_symmetry_Int_Tables_number   1
_chemical_formula_structural   CdH13C14N3O4
_chemical_formula_sum   'Cd4 H52 C56 N12 O16'
_cell_volume   1523.30501320
_cell_formula_units_Z   4
loop_
 _symmetry_equiv_pos_site_id
 _symmetry_equiv_pos_as_xyz
  1  'x, y, z'
loop_
 _atom_site_type_symbol
 _atom_site_label
 _atom_site_symmetry_multiplicity
 _atom_site_fract_x
 _atom_site_fract_y
 _atom_site_fract_z
 _atom_site_occupancy
  Cd  Cd0  1  0.42997000  0.42997000  0.39302000  1.0
  Cd  Cd1  1  0.07003000  0.07003000  0.89302000  1.0
  Cd  Cd2  1  0.92997000  0.92997000  0.10698000  1.0
  Cd  Cd3  1  0.57003000  0.57003000  0.60698000  1.0
  H  H4  1  0.81072000  0.81073000  0.51869000  1.0
  H  H5  1  0.68928000  0.68927000  0.01869000  1.0
  H  H6  1  0.31072000  0.31072000  0.98131000  1.0
  H  H7  1  0.18927000  0.18928000  0.48131000  1.0
  H  H8  1  0.74158000  0.27103000  0.32824000  1.0
  H  H9  1  0.75842000  0.22897000  0.82824000  1.0
  H  H10  1  0.77103000  0.24158000  0.17176000  1.0
  H  H11  1  0.72897000  0.25842000  0.67176000  1.0
  H  H12  1  0.25842000  0.72897000  0.67176000  1.0
  H  H13  1  0.24158000  0.77103000  0.17176000  1.0
  H  H14  1  0.22897000  0.75842000  0.82824000  1.0
  H  H15  1  0.27103000  0.74158000  0.32824000  1.0
  H  H16  1  0.90415000  0.05341000  0.34821000  1.0
  H  H17  1  0.59585000  0.44659000  0.84821000  1.0
  H  H18  1  0.55341000  0.40415000  0.15179000  1.0
  H  H19  1  0.94659000  0.09585000  0.65178000  1.0
  H  H20  1  0.09585000  0.94659000  0.65179000  1.0
  H  H21  1  0.40415000  0.55341000  0.15179000  1.0
  H  H22  1  0.44659000  0.59585000  0.84821000  1.0
  H  H23  1  0.05341000  0.90415000  0.34822000  1.0
  H  H24  1  0.96351000  0.63264000  0.54792000  1.0
  H  H25  1  0.53649000  0.86737000  0.04792000  1.0
  H  H26  1  0.13263000  0.46352000  0.95208000  1.0
  H  H27  1  0.36737000  0.03649000  0.45208000  1.0
  H  H28  1  0.03649000  0.36737000  0.45208000  1.0
  H  H29  1  0.46351000  0.13263000  0.95208000  1.0
  H  H30  1  0.86737000  0.53648000  0.04792000  1.0
  H  H31  1  0.63263000  0.96351000  0.54792000  1.0
  H  H32  1  0.18818000  0.47886000  0.51561000  1.0
  H  H33  1  0.31182000  0.02114000  0.01561000  1.0
  H  H34  1  0.97886000  0.68818000  0.98439000  1.0
  H  H35  1  0.52114000  0.81182000  0.48439000  1.0
  H  H36  1  0.81182000  0.52114000  0.48439000  1.0
  H  H37  1  0.68818000  0.97886000  0.98439000  1.0
  H  H38  1  0.02114000  0.31182000  0.01561000  1.0
  H  H39  1  0.47886000  0.18818000  0.51561000  1.0
  H  H40  1  0.08720000  0.22598000  0.31736000  1.0
  H  H41  1  0.41280000  0.27402000  0.81736000  1.0
  H  H42  1  0.72598000  0.58720000  0.18264000  1.0
  H  H43  1  0.77402000  0.91280000  0.68264000  1.0
  H  H44  1  0.91280000  0.77402000  0.68264000  1.0
  H  H45  1  0.58720000  0.72598000  0.18264000  1.0
  H  H46  1  0.27402000  0.41280000  0.81736000  1.0
  H  H47  1  0.22598000  0.08720000  0.31736000  1.0
  H  H48  1  0.27737000  0.13824000  0.15198000  1.0
  H  H49  1  0.22262000  0.36176000  0.65198000  1.0
  H  H50  1  0.63824000  0.77737000  0.34802000  1.0
  H  H51  1  0.86176000  0.72263000  0.84802000  1.0
  H  H52  1  0.72263000  0.86176000  0.84802000  1.0
  H  H53  1  0.77738000  0.63824000  0.34802000  1.0
  H  H54  1  0.36176000  0.22263000  0.65198000  1.0
  H  H55  1  0.13824000  0.27737000  0.15198000  1.0
  C  C56  1  0.72059000  0.19951000  0.37639000  1.0
  C  C57  1  0.77941000  0.30049000  0.87639000  1.0
  C  C58  1  0.69951000  0.22059000  0.12361000  1.0
  C  C59  1  0.80049000  0.27941000  0.62361000  1.0
  C  C60  1  0.27941000  0.80049000  0.62361000  1.0
  C  C61  1  0.22059000  0.69951000  0.12361000  1.0
  C  C62  1  0.30049000  0.77941000  0.87639000  1.0
  C  C63  1  0.19951000  0.72059000  0.37639000  1.0
  C  C64  1  0.81356000  0.07616000  0.38905000  1.0
  C  C65  1  0.68644000  0.42384000  0.88905000  1.0
  C  C66  1  0.57616000  0.31356000  0.11095000  1.0
  C  C67  1  0.92384000  0.18644000  0.61095000  1.0
  C  C68  1  0.18643000  0.92384000  0.61095000  1.0
  C  C69  1  0.31356000  0.57616000  0.11095000  1.0
  C  C70  1  0.42384000  0.68644000  0.88905000  1.0
  C  C71  1  0.07616000  0.81356000  0.38905000  1.0
  C  C72  1  0.78358000  0.98595000  0.45174000  1.0
  C  C73  1  0.71642000  0.51405000  0.95174000  1.0
  C  C74  1  0.48595000  0.28359000  0.04826000  1.0
  C  C75  1  0.01405000  0.21641000  0.54825000  1.0
  C  C76  1  0.21641000  0.01405000  0.54826000  1.0
  C  C77  1  0.28358000  0.48595000  0.04826000  1.0
  C  C78  1  0.51405000  0.71641000  0.95174000  1.0
  C  C79  1  0.98595000  0.78359000  0.45174000  1.0
  C  C80  1  0.02939000  0.66024000  0.49850000  1.0
  C  C81  1  0.47061000  0.83976000  0.99850000  1.0
  C  C82  1  0.16023000  0.52939000  0.00150000  1.0
  C  C83  1  0.33977000  0.97061000  0.50150000  1.0
  C  C84  1  0.97061000  0.33976000  0.50150000  1.0
  C  C85  1  0.52939000  0.16024000  0.00150000  1.0
  C  C86  1  0.83977000  0.47061000  0.99850000  1.0
  C  C87  1  0.66023000  0.02939000  0.49850000  1.0
  C  C88  1  0.15344000  0.57457000  0.48081000  1.0
  C  C89  1  0.34656000  0.92543000  0.98081000  1.0
  C  C90  1  0.07457000  0.65344000  0.01919000  1.0
  C  C91  1  0.42543000  0.84656000  0.51919000  1.0
  C  C92  1  0.84656000  0.42543000  0.51919000  1.0
  C  C93  1  0.65344000  0.07457000  0.01919000  1.0
  C  C94  1  0.92543000  0.34656000  0.98081000  1.0
  C  C95  1  0.57457000  0.15344000  0.48081000  1.0
  C  C96  1  0.27176000  0.27176000  0.32535000  1.0
  C  C97  1  0.22824000  0.22824000  0.82535000  1.0
  C  C98  1  0.77176000  0.77176000  0.17465000  1.0
  C  C99  1  0.72824000  0.72824000  0.67465000  1.0
  C  C100  1  0.18756000  0.18756000  0.28764000  1.0
  C  C101  1  0.31244000  0.31244000  0.78764000  1.0
  C  C102  1  0.68756000  0.68756000  0.21236000  1.0
  C  C103  1  0.81244000  0.81244000  0.71236000  1.0
  C  C104  1  0.17818000  0.17818000  0.18319000  1.0
  C  C105  1  0.32182000  0.32182000  0.68319000  1.0
  C  C106  1  0.67818000  0.67818000  0.31681000  1.0
  C  C107  1  0.82182000  0.82182000  0.81681000  1.0
  C  C108  1  0.09145000  0.09145000  0.15357000  1.0
  C  C109  1  0.40855000  0.40855000  0.65357000  1.0
  C  C110  1  0.59145000  0.59145000  0.34643000  1.0
  C  C111  1  0.90855000  0.90855000  0.84643000  1.0
  N  N112  1  0.60236000  0.23911000  0.41982000  1.0
  N  N113  1  0.89764000  0.26089000  0.91982000  1.0
  N  N114  1  0.73911000  0.10236000  0.08018000  1.0
  N  N115  1  0.76089000  0.39764000  0.58018000  1.0
  N  N116  1  0.39764000  0.76089000  0.58018000  1.0
  N  N117  1  0.10236000  0.73911000  0.08018000  1.0
  N  N118  1  0.26089000  0.89764000  0.91982000  1.0
  N  N119  1  0.23911000  0.60236000  0.41982000  1.0
  N  N120  1  0.85967000  0.85967000  0.47423000  1.0
  N  N121  1  0.64033000  0.64033000  0.97423000  1.0
  N  N122  1  0.35967000  0.35967000  0.02578000  1.0
  N  N123  1  0.14033000  0.14033000  0.52577000  1.0
  O  O124  1  0.33125000  0.33125000  0.27175000  1.0
  O  O125  1  0.16876000  0.16875000  0.77176000  1.0
  O  O126  1  0.83125000  0.83125000  0.22824000  1.0
  O  O127  1  0.66875000  0.66875000  0.72825000  1.0
  O  O128  1  0.27817000  0.27817000  0.41409000  1.0
  O  O129  1  0.22183000  0.22183000  0.91409000  1.0
  O  O130  1  0.77817000  0.77817000  0.08591000  1.0
  O  O131  1  0.72183000  0.72183000  0.58591000  1.0
  O  O132  1  0.03723000  0.03723000  0.21553000  1.0
  O  O133  1  0.46277000  0.46278000  0.71553000  1.0
  O  O134  1  0.53723000  0.53723000  0.28447000  1.0
  O  O135  1  0.96278000  0.96277000  0.78447000  1.0
  O  O136  1  0.07467000  0.07467000  0.06768000  1.0
  O  O137  1  0.42533000  0.42532000  0.56768000  1.0
  O  O138  1  0.57467000  0.57468000  0.43232000  1.0
  O  O139  1  0.92533000  0.92533000  0.93232000  1.0
