# generated using pymatgen
data_AgH10(C2N)3
_symmetry_space_group_name_H-M   'P 1'
_cell_length_a   11.30900000
_cell_length_b   18.47270000
_cell_length_c   20.87760000
_cell_angle_alpha   89.99980000
_cell_angle_beta   99.17860000
_cell_angle_gamma   90.00000000
_symmetry_Int_Tables_number   1
_chemical_formula_structural   AgH10(C2N)3
_chemical_formula_sum   'Ag20 H200 C120 N60'
_cell_volume   4305.64780270
_cell_formula_units_Z   20
loop_
 _symmetry_equiv_pos_site_id
 _symmetry_equiv_pos_as_xyz
  1  'x, y, z'
loop_
 _atom_site_type_symbol
 _atom_site_label
 _atom_site_symmetry_multiplicity
 _atom_site_fract_x
 _atom_site_fract_y
 _atom_site_fract_z
 _atom_site_occupancy
  Ag  Ag0  1  0.44400000  0.11352000  0.16901000  1.0
  Ag  Ag1  1  0.55600000  0.61352000  0.33100000  1.0
  Ag  Ag2  1  0.55599000  0.88648000  0.83099000  1.0
  Ag  Ag3  1  0.44400000  0.38649000  0.66900000  1.0
  Ag  Ag4  1  0.50725000  0.27102000  0.23939000  1.0
  Ag  Ag5  1  0.49276000  0.77102000  0.26061000  1.0
  Ag  Ag6  1  0.49275000  0.72898000  0.76061000  1.0
  Ag  Ag7  1  0.50725000  0.22897000  0.73939000  1.0
  Ag  Ag8  1  0.59925000  0.11922000  0.31581000  1.0
  Ag  Ag9  1  0.40075000  0.61922000  0.18420000  1.0
  Ag  Ag10  1  0.40075000  0.88078000  0.68420000  1.0
  Ag  Ag11  1  0.59925000  0.38079000  0.81581000  1.0
  Ag  Ag12  1  0.11784000  0.22974000  0.42934000  1.0
  Ag  Ag13  1  0.88216000  0.72974000  0.07065000  1.0
  Ag  Ag14  1  0.88216000  0.77026000  0.57065000  1.0
  Ag  Ag15  1  0.11784000  0.27026000  0.92935000  1.0
  Ag  Ag16  1  0.92307000  0.26279000  0.56016000  1.0
  Ag  Ag17  1  0.07693000  0.76279000  0.93984000  1.0
  Ag  Ag18  1  0.07693000  0.73721000  0.43984000  1.0
  Ag  Ag19  1  0.92307000  0.23721000  0.06016000  1.0
  H  H20  1  0.85838000  0.09039000  0.10506000  1.0
  H  H21  1  0.14162000  0.59039000  0.39494000  1.0
  H  H22  1  0.14162000  0.90961000  0.89494000  1.0
  H  H23  1  0.85838000  0.40962000  0.60507000  1.0
  H  H24  1  0.73601000  0.09588000  0.04212000  1.0
  H  H25  1  0.26399000  0.59588000  0.45788000  1.0
  H  H26  1  0.26399000  0.90412000  0.95788000  1.0
  H  H27  1  0.73601000  0.40412000  0.54213000  1.0
  H  H28  1  0.74480000  0.97602000  0.09922000  1.0
  H  H29  1  0.25521000  0.47602000  0.40078000  1.0
  H  H30  1  0.25521000  0.02398000  0.90078000  1.0
  H  H31  1  0.74480000  0.52398000  0.59921000  1.0
  H  H32  1  0.60937000  0.02170000  0.10656000  1.0
  H  H33  1  0.39063000  0.52171000  0.39344000  1.0
  H  H34  1  0.39063000  0.97829000  0.89344000  1.0
  H  H35  1  0.60936000  0.47830000  0.60656000  1.0
  H  H36  1  0.72691000  0.01979000  0.17307000  1.0
  H  H37  1  0.27310000  0.51979000  0.32693000  1.0
  H  H38  1  0.27310000  0.98021000  0.82693000  1.0
  H  H39  1  0.72690000  0.48022000  0.67307000  1.0
  H  H40  1  0.68169000  0.37646000  0.18603000  1.0
  H  H41  1  0.31831000  0.87646000  0.31396000  1.0
  H  H42  1  0.31831000  0.62354000  0.81396000  1.0
  H  H43  1  0.68169000  0.12355000  0.68604000  1.0
  H  H44  1  0.72785000  0.37760000  0.10909000  1.0
  H  H45  1  0.27215000  0.87760000  0.39090000  1.0
  H  H46  1  0.27215000  0.62240000  0.89091000  1.0
  H  H47  1  0.72785000  0.12240000  0.60910000  1.0
  H  H48  1  0.89141000  0.42670000  0.19147000  1.0
  H  H49  1  0.10859000  0.92670000  0.30852000  1.0
  H  H50  1  0.10859000  0.57330000  0.80852000  1.0
  H  H51  1  0.89141000  0.07330000  0.69148000  1.0
  H  H52  1  0.93854000  0.34375000  0.16039000  1.0
  H  H53  1  0.06145000  0.84375000  0.33961000  1.0
  H  H54  1  0.06145000  0.65625000  0.83961000  1.0
  H  H55  1  0.93855000  0.15625000  0.66039000  1.0
  H  H56  1  0.89332000  0.34603000  0.23799000  1.0
  H  H57  1  0.10667000  0.84603000  0.26200000  1.0
  H  H58  1  0.10667000  0.65396000  0.76201000  1.0
  H  H59  1  0.89333000  0.15397000  0.73800000  1.0
  H  H60  1  0.56756000  0.37401000  0.37745000  1.0
  H  H61  1  0.43244000  0.87401000  0.12255000  1.0
  H  H62  1  0.43244000  0.62599000  0.62254000  1.0
  H  H63  1  0.56756000  0.12598000  0.87746000  1.0
  H  H64  1  0.63764000  0.45989000  0.38844000  1.0
  H  H65  1  0.36235000  0.95988000  0.11156000  1.0
  H  H66  1  0.36235000  0.54012000  0.61155000  1.0
  H  H67  1  0.63765000  0.04011000  0.88845000  1.0
  H  H68  1  0.78977000  0.35928000  0.39066000  1.0
  H  H69  1  0.21023000  0.85928000  0.10935000  1.0
  H  H70  1  0.21023000  0.64073000  0.60934000  1.0
  H  H71  1  0.78977000  0.14072000  0.89066000  1.0
  H  H72  1  0.79570000  0.41762000  0.32322000  1.0
  H  H73  1  0.20430000  0.91761000  0.17678000  1.0
  H  H74  1  0.20430000  0.58239000  0.67677000  1.0
  H  H75  1  0.79569000  0.08238000  0.82322000  1.0
  H  H76  1  0.72299000  0.33205000  0.31170000  1.0
  H  H77  1  0.27701000  0.83205000  0.18830000  1.0
  H  H78  1  0.27701000  0.66795000  0.68829000  1.0
  H  H79  1  0.72298000  0.16794000  0.81171000  1.0
  H  H80  1  0.43807000  0.40195000  0.10427000  1.0
  H  H81  1  0.56194000  0.90195000  0.39572000  1.0
  H  H82  1  0.56193000  0.59805000  0.89572000  1.0
  H  H83  1  0.43807000  0.09805000  0.60428000  1.0
  H  H84  1  0.34218000  0.47660000  0.10960000  1.0
  H  H85  1  0.65783000  0.97659000  0.39040000  1.0
  H  H86  1  0.65783000  0.52341000  0.89039000  1.0
  H  H87  1  0.34218000  0.02341000  0.60961000  1.0
  H  H88  1  0.22547000  0.36046000  0.08705000  1.0
  H  H89  1  0.77454000  0.86046000  0.41294000  1.0
  H  H90  1  0.77453000  0.63955000  0.91295000  1.0
  H  H91  1  0.22547000  0.13954000  0.58705000  1.0
  H  H92  1  0.20507000  0.39696000  0.16349000  1.0
  H  H93  1  0.79494000  0.89696000  0.33651000  1.0
  H  H94  1  0.79493000  0.60305000  0.83650000  1.0
  H  H95  1  0.20507000  0.10304000  0.66349000  1.0
  H  H96  1  0.30281000  0.32227000  0.15963000  1.0
  H  H97  1  0.69720000  0.82227000  0.34037000  1.0
  H  H98  1  0.69718000  0.67774000  0.84037000  1.0
  H  H99  1  0.30281000  0.17773000  0.65963000  1.0
  H  H100  1  0.55881000  0.23370000  0.43152000  1.0
  H  H101  1  0.44119000  0.73369000  0.06848000  1.0
  H  H102  1  0.44120000  0.76630000  0.56848000  1.0
  H  H103  1  0.55881000  0.26630000  0.93152000  1.0
  H  H104  1  0.65591000  0.24235000  0.50705000  1.0
  H  H105  1  0.34410000  0.74235000  0.99296000  1.0
  H  H106  1  0.34409000  0.75766000  0.49296000  1.0
  H  H107  1  0.65590000  0.25766000  0.00704000  1.0
  H  H108  1  0.52838000  0.13438000  0.51246000  1.0
  H  H109  1  0.47161000  0.63438000  0.98754000  1.0
  H  H110  1  0.47162000  0.86562000  0.48755000  1.0
  H  H111  1  0.52837000  0.36562000  0.01245000  1.0
  H  H112  1  0.67659000  0.10361000  0.50927000  1.0
  H  H113  1  0.32341000  0.60361000  0.99074000  1.0
  H  H114  1  0.32342000  0.89638000  0.49074000  1.0
  H  H115  1  0.67657000  0.39639000  0.00926000  1.0
  H  H116  1  0.56612000  0.09988000  0.43863000  1.0
  H  H117  1  0.43388000  0.59988000  0.06137000  1.0
  H  H118  1  0.43389000  0.90012000  0.56137000  1.0
  H  H119  1  0.56611000  0.40011000  0.93863000  1.0
  H  H120  1  0.98683000  0.19566000  0.29717000  1.0
  H  H121  1  0.01316000  0.69565000  0.20283000  1.0
  H  H122  1  0.01316000  0.80434000  0.70283000  1.0
  H  H123  1  0.98683000  0.30434000  0.79717000  1.0
  H  H124  1  0.83798000  0.20022000  0.25483000  1.0
  H  H125  1  0.16201000  0.70022000  0.24517000  1.0
  H  H126  1  0.16201000  0.79977000  0.74517000  1.0
  H  H127  1  0.83799000  0.29978000  0.75483000  1.0
  H  H128  1  0.91947000  0.07932000  0.23585000  1.0
  H  H129  1  0.08052000  0.57932000  0.26415000  1.0
  H  H130  1  0.08052000  0.92067000  0.76415000  1.0
  H  H131  1  0.91948000  0.42068000  0.73585000  1.0
  H  H132  1  0.80616000  0.06902000  0.28509000  1.0
  H  H133  1  0.19383000  0.56902000  0.21491000  1.0
  H  H134  1  0.19383000  0.93098000  0.71491000  1.0
  H  H135  1  0.80617000  0.43098000  0.78509000  1.0
  H  H136  1  0.95974000  0.06418000  0.32087000  1.0
  H  H137  1  0.04025000  0.56418000  0.17913000  1.0
  H  H138  1  0.04026000  0.93582000  0.67914000  1.0
  H  H139  1  0.95974000  0.43582000  0.82086000  1.0
  H  H140  1  0.33030000  0.36809000  0.30473000  1.0
  H  H141  1  0.66970000  0.86808000  0.19527000  1.0
  H  H142  1  0.66970000  0.63192000  0.69527000  1.0
  H  H143  1  0.33031000  0.13191000  0.80473000  1.0
  H  H144  1  0.27878000  0.35962000  0.38003000  1.0
  H  H145  1  0.72122000  0.85962000  0.11996000  1.0
  H  H146  1  0.72122000  0.64038000  0.61996000  1.0
  H  H147  1  0.27878000  0.14038000  0.88004000  1.0
  H  H148  1  0.11690000  0.40936000  0.29551000  1.0
  H  H149  1  0.88310000  0.90936000  0.20449000  1.0
  H  H150  1  0.88310000  0.59064000  0.70449000  1.0
  H  H151  1  0.11690000  0.09064000  0.79551000  1.0
  H  H152  1  0.07425000  0.32391000  0.32361000  1.0
  H  H153  1  0.92575000  0.82391000  0.17638000  1.0
  H  H154  1  0.92575000  0.67609000  0.67639000  1.0
  H  H155  1  0.07426000  0.17609000  0.82362000  1.0
  H  H156  1  0.12410000  0.33057000  0.24730000  1.0
  H  H157  1  0.87590000  0.83057000  0.25269000  1.0
  H  H158  1  0.87590000  0.66943000  0.75270000  1.0
  H  H159  1  0.12411000  0.16943000  0.74731000  1.0
  H  H160  1  0.35396000  0.03627000  0.36486000  1.0
  H  H161  1  0.64605000  0.53627000  0.13514000  1.0
  H  H162  1  0.64606000  0.96373000  0.63514000  1.0
  H  H163  1  0.35395000  0.46373000  0.86486000  1.0
  H  H164  1  0.19937000  0.05419000  0.34573000  1.0
  H  H165  1  0.80063000  0.55419000  0.15427000  1.0
  H  H166  1  0.80064000  0.94581000  0.65427000  1.0
  H  H167  1  0.19937000  0.44580000  0.84573000  1.0
  H  H168  1  0.24503000  0.01136000  0.45955000  1.0
  H  H169  1  0.75498000  0.51136000  0.04044000  1.0
  H  H170  1  0.75498000  0.98864000  0.54044000  1.0
  H  H171  1  0.24502000  0.48864000  0.95956000  1.0
  H  H172  1  0.19699000  0.10289000  0.45883000  1.0
  H  H173  1  0.80301000  0.60288000  0.04117000  1.0
  H  H174  1  0.80301000  0.89711000  0.54117000  1.0
  H  H175  1  0.19699000  0.39711000  0.95883000  1.0
  H  H176  1  0.35150000  0.08184000  0.47963000  1.0
  H  H177  1  0.64850000  0.58183000  0.02037000  1.0
  H  H178  1  0.64850000  0.91816000  0.52037000  1.0
  H  H179  1  0.35150000  0.41816000  0.97963000  1.0
  H  H180  1  0.37900000  0.25886000  0.47719000  1.0
  H  H181  1  0.62100000  0.75886000  0.02280000  1.0
  H  H182  1  0.62100000  0.74113000  0.52280000  1.0
  H  H183  1  0.37900000  0.24114000  0.97720000  1.0
  H  H184  1  0.47417000  0.26417000  0.55347000  1.0
  H  H185  1  0.52582000  0.76417000  0.94653000  1.0
  H  H186  1  0.52582000  0.73582000  0.44653000  1.0
  H  H187  1  0.47417000  0.23583000  0.05347000  1.0
  H  H188  1  0.52856000  0.36157000  0.48048000  1.0
  H  H189  1  0.47145000  0.86158000  0.01951000  1.0
  H  H190  1  0.47145000  0.63842000  0.51951000  1.0
  H  H191  1  0.52856000  0.13843000  0.98049000  1.0
  H  H192  1  0.47165000  0.40017000  0.54733000  1.0
  H  H193  1  0.52835000  0.90017000  0.95266000  1.0
  H  H194  1  0.52835000  0.59982000  0.45266000  1.0
  H  H195  1  0.47166000  0.09983000  0.04734000  1.0
  H  H196  1  0.37987000  0.39621000  0.47007000  1.0
  H  H197  1  0.62012000  0.89621000  0.02992000  1.0
  H  H198  1  0.62013000  0.60379000  0.52992000  1.0
  H  H199  1  0.37988000  0.10379000  0.97008000  1.0
  H  H200  1  0.19284000  0.32087000  0.72717000  1.0
  H  H201  1  0.80717000  0.82088000  0.77282000  1.0
  H  H202  1  0.80716000  0.67912000  0.27282000  1.0
  H  H203  1  0.19284000  0.17913000  0.22718000  1.0
  H  H204  1  0.04579000  0.32447000  0.68258000  1.0
  H  H205  1  0.95421000  0.82447000  0.81742000  1.0
  H  H206  1  0.95421000  0.67553000  0.31741000  1.0
  H  H207  1  0.04579000  0.17553000  0.18259000  1.0
  H  H208  1  0.11130000  0.44545000  0.73503000  1.0
  H  H209  1  0.88870000  0.94546000  0.76498000  1.0
  H  H210  1  0.88871000  0.55454000  0.26497000  1.0
  H  H211  1  0.11130000  0.05455000  0.23503000  1.0
  H  H212  1  0.08360000  0.45322000  0.64898000  1.0
  H  H213  1  0.91640000  0.95322000  0.85103000  1.0
  H  H214  1  0.91640000  0.54678000  0.35103000  1.0
  H  H215  1  0.08360000  0.04679000  0.14898000  1.0
  H  H216  1  0.23316000  0.44750000  0.69108000  1.0
  H  H217  1  0.76684000  0.94750000  0.80893000  1.0
  H  H218  1  0.76685000  0.55250000  0.30893000  1.0
  H  H219  1  0.23316000  0.05250000  0.19108000  1.0
  C  C220  1  0.72218000  0.16090000  0.12434000  1.0
  C  C221  1  0.27783000  0.66090000  0.37566000  1.0
  C  C222  1  0.27783000  0.83910000  0.87566000  1.0
  C  C223  1  0.72218000  0.33910000  0.62434000  1.0
  C  C224  1  0.75962000  0.09234000  0.09543000  1.0
  C  C225  1  0.24038000  0.59234000  0.40457000  1.0
  C  C226  1  0.24038000  0.90766000  0.90457000  1.0
  C  C227  1  0.75961000  0.40766000  0.59543000  1.0
  C  C228  1  0.70718000  0.02366000  0.12000000  1.0
  C  C229  1  0.29283000  0.52366000  0.38000000  1.0
  C  C230  1  0.29282000  0.97634000  0.88000000  1.0
  C  C231  1  0.70718000  0.47635000  0.62000000  1.0
  C  C232  1  0.71804000  0.27351000  0.15048000  1.0
  C  C233  1  0.28196000  0.77351000  0.34951000  1.0
  C  C234  1  0.28195000  0.72649000  0.84951000  1.0
  C  C235  1  0.71805000  0.22649000  0.65049000  1.0
  C  C236  1  0.74533000  0.35243000  0.15747000  1.0
  C  C237  1  0.25466000  0.85243000  0.34252000  1.0
  C  C238  1  0.25467000  0.64757000  0.84252000  1.0
  C  C239  1  0.74533000  0.14757000  0.65748000  1.0
  C  C240  1  0.87458000  0.36813000  0.18865000  1.0
  C  C241  1  0.12541000  0.86813000  0.31134000  1.0
  C  C242  1  0.12541000  0.63187000  0.81135000  1.0
  C  C243  1  0.87458000  0.13187000  0.68865000  1.0
  C  C244  1  0.54773000  0.44052000  0.29380000  1.0
  C  C245  1  0.45227000  0.94053000  0.20620000  1.0
  C  C246  1  0.45227000  0.55948000  0.70620000  1.0
  C  C247  1  0.54773000  0.05947000  0.79380000  1.0
  C  C248  1  0.62104000  0.41368000  0.35490000  1.0
  C  C249  1  0.37895000  0.91368000  0.14510000  1.0
  C  C250  1  0.37896000  0.58632000  0.64509000  1.0
  C  C251  1  0.62104000  0.08631000  0.85491000  1.0
  C  C252  1  0.73951000  0.37876000  0.34453000  1.0
  C  C253  1  0.26049000  0.87876000  0.15547000  1.0
  C  C254  1  0.26048000  0.62124000  0.65546000  1.0
  C  C255  1  0.73950000  0.12124000  0.84453000  1.0
  C  C256  1  0.44224000  0.44528000  0.19883000  1.0
  C  C257  1  0.55777000  0.94528000  0.30117000  1.0
  C  C258  1  0.55776000  0.55472000  0.80117000  1.0
  C  C259  1  0.44224000  0.05472000  0.69883000  1.0
  C  C260  1  0.37515000  0.42583000  0.13367000  1.0
  C  C261  1  0.62485000  0.92583000  0.36633000  1.0
  C  C262  1  0.62485000  0.57417000  0.86633000  1.0
  C  C263  1  0.37515000  0.07417000  0.63367000  1.0
  C  C264  1  0.27096000  0.37347000  0.13611000  1.0
  C  C265  1  0.72905000  0.87347000  0.36388000  1.0
  C  C266  1  0.72904000  0.62654000  0.86388000  1.0
  C  C267  1  0.27096000  0.12653000  0.63611000  1.0
  C  C268  1  0.74066000  0.20843000  0.42948000  1.0
  C  C269  1  0.25934000  0.70843000  0.07052000  1.0
  C  C270  1  0.25935000  0.79157000  0.57052000  1.0
  C  C271  1  0.74066000  0.29157000  0.92948000  1.0
  C  C272  1  0.63453000  0.20855000  0.46347000  1.0
  C  C273  1  0.36546000  0.70855000  0.03653000  1.0
  C  C274  1  0.36547000  0.79145000  0.53653000  1.0
  C  C275  1  0.63453000  0.29145000  0.96346000  1.0
  C  C276  1  0.59920000  0.13215000  0.48213000  1.0
  C  C277  1  0.40079000  0.63215000  0.01787000  1.0
  C  C278  1  0.40080000  0.86785000  0.51788000  1.0
  C  C279  1  0.59919000  0.36785000  0.98213000  1.0
  C  C280  1  0.85316000  0.19290000  0.35691000  1.0
  C  C281  1  0.14683000  0.69290000  0.14309000  1.0
  C  C282  1  0.14684000  0.80710000  0.64309000  1.0
  C  C283  1  0.85317000  0.30710000  0.85691000  1.0
  C  C284  1  0.89605000  0.17358000  0.29528000  1.0
  C  C285  1  0.10394000  0.67357000  0.20472000  1.0
  C  C286  1  0.10395000  0.82642000  0.70472000  1.0
  C  C287  1  0.89605000  0.32643000  0.79528000  1.0
  C  C288  1  0.89564000  0.09162000  0.28357000  1.0
  C  C289  1  0.10436000  0.59162000  0.21643000  1.0
  C  C290  1  0.10436000  0.90838000  0.71644000  1.0
  C  C291  1  0.89564000  0.40838000  0.78357000  1.0
  C  C292  1  0.30292000  0.26077000  0.33300000  1.0
  C  C293  1  0.69708000  0.76077000  0.16700000  1.0
  C  C294  1  0.69708000  0.73923000  0.66700000  1.0
  C  C295  1  0.30293000  0.23923000  0.83301000  1.0
  C  C296  1  0.26742000  0.33851000  0.33013000  1.0
  C  C297  1  0.73258000  0.83850000  0.16986000  1.0
  C  C298  1  0.73258000  0.66150000  0.66986000  1.0
  C  C299  1  0.26742000  0.16149000  0.83014000  1.0
  C  C300  1  0.13821000  0.35130000  0.29719000  1.0
  C  C301  1  0.86179000  0.85130000  0.20280000  1.0
  C  C302  1  0.86179000  0.64870000  0.70281000  1.0
  C  C303  1  0.13822000  0.14870000  0.79720000  1.0
  C  C304  1  0.31110000  0.14674000  0.35433000  1.0
  C  C305  1  0.68890000  0.64674000  0.14566000  1.0
  C  C306  1  0.68890000  0.85327000  0.64567000  1.0
  C  C307  1  0.31111000  0.35326000  0.85434000  1.0
  C  C308  1  0.28289000  0.07254000  0.37612000  1.0
  C  C309  1  0.71712000  0.57254000  0.12388000  1.0
  C  C310  1  0.71712000  0.92746000  0.62388000  1.0
  C  C311  1  0.28288000  0.42746000  0.87612000  1.0
  C  C312  1  0.26859000  0.06687000  0.44757000  1.0
  C  C313  1  0.73142000  0.56686000  0.05242000  1.0
  C  C314  1  0.73142000  0.93313000  0.55242000  1.0
  C  C315  1  0.26858000  0.43313000  0.94757000  1.0
  C  C316  1  0.29554000  0.29687000  0.55399000  1.0
  C  C317  1  0.70446000  0.79686000  0.94601000  1.0
  C  C318  1  0.70446000  0.70313000  0.44601000  1.0
  C  C319  1  0.29554000  0.20314000  0.05399000  1.0
  C  C320  1  0.40260000  0.29237000  0.52088000  1.0
  C  C321  1  0.59739000  0.79237000  0.97912000  1.0
  C  C322  1  0.59739000  0.70763000  0.47912000  1.0
  C  C323  1  0.40261000  0.20763000  0.02088000  1.0
  C  C324  1  0.44820000  0.36684000  0.50347000  1.0
  C  C325  1  0.55180000  0.86684000  0.99653000  1.0
  C  C326  1  0.55181000  0.63316000  0.49652000  1.0
  C  C327  1  0.44820000  0.13316000  0.00347000  1.0
  C  C328  1  0.18219000  0.31900000  0.62496000  1.0
  C  C329  1  0.81782000  0.81900000  0.87504000  1.0
  C  C330  1  0.81781000  0.68100000  0.37504000  1.0
  C  C331  1  0.18219000  0.18100000  0.12497000  1.0
  C  C332  1  0.13762000  0.34495000  0.68434000  1.0
  C  C333  1  0.86238000  0.84496000  0.81566000  1.0
  C  C334  1  0.86238000  0.65504000  0.31566000  1.0
  C  C335  1  0.13762000  0.15505000  0.18434000  1.0
  C  C336  1  0.14133000  0.42768000  0.69015000  1.0
  C  C337  1  0.85867000  0.92769000  0.80985000  1.0
  C  C338  1  0.85867000  0.57231000  0.30985000  1.0
  C  C339  1  0.14133000  0.07232000  0.19016000  1.0
  N  N340  1  0.63277000  0.16781000  0.15861000  1.0
  N  N341  1  0.36723000  0.66781000  0.34139000  1.0
  N  N342  1  0.36722000  0.83219000  0.84139000  1.0
  N  N343  1  0.63277000  0.33219000  0.65861000  1.0
  N  N344  1  0.63038000  0.24013000  0.17544000  1.0
  N  N345  1  0.36961000  0.74013000  0.32456000  1.0
  N  N346  1  0.36960000  0.75987000  0.82456000  1.0
  N  N347  1  0.63039000  0.25987000  0.67544000  1.0
  N  N348  1  0.77790000  0.22546000  0.11821000  1.0
  N  N349  1  0.22209000  0.72546000  0.38179000  1.0
  N  N350  1  0.22209000  0.77454000  0.88179000  1.0
  N  N351  1  0.77790000  0.27455000  0.61821000  1.0
  N  N352  1  0.51919000  0.51015000  0.28227000  1.0
  N  N353  1  0.48081000  0.01015000  0.21773000  1.0
  N  N354  1  0.48081000  0.48986000  0.71773000  1.0
  N  N355  1  0.51919000  0.98985000  0.78227000  1.0
  N  N356  1  0.45131000  0.51306000  0.22178000  1.0
  N  N357  1  0.54870000  0.01306000  0.27823000  1.0
  N  N358  1  0.54869000  0.48694000  0.77822000  1.0
  N  N359  1  0.45131000  0.98694000  0.72178000  1.0
  N  N360  1  0.50133000  0.39827000  0.24265000  1.0
  N  N361  1  0.49867000  0.89827000  0.25735000  1.0
  N  N362  1  0.49867000  0.60174000  0.75734000  1.0
  N  N363  1  0.50133000  0.10173000  0.74265000  1.0
  N  N364  1  0.85063000  0.22927000  0.45627000  1.0
  N  N365  1  0.14937000  0.72927000  0.04373000  1.0
  N  N366  1  0.14938000  0.77073000  0.54373000  1.0
  N  N367  1  0.85063000  0.27073000  0.95627000  1.0
  N  N368  1  0.92272000  0.21941000  0.40953000  1.0
  N  N369  1  0.07728000  0.71941000  0.09048000  1.0
  N  N370  1  0.07728000  0.78059000  0.59048000  1.0
  N  N371  1  0.92272000  0.28059000  0.90953000  1.0
  N  N372  1  0.73842000  0.18507000  0.36758000  1.0
  N  N373  1  0.26157000  0.68507000  0.13242000  1.0
  N  N374  1  0.26158000  0.81493000  0.63242000  1.0
  N  N375  1  0.73842000  0.31494000  0.86758000  1.0
  N  N376  1  0.39051000  0.23284000  0.30436000  1.0
  N  N377  1  0.60949000  0.73283000  0.19564000  1.0
  N  N378  1  0.60949000  0.76717000  0.69564000  1.0
  N  N379  1  0.39052000  0.26716000  0.80436000  1.0
  N  N380  1  0.39628000  0.15975000  0.31819000  1.0
  N  N381  1  0.60372000  0.65975000  0.18181000  1.0
  N  N382  1  0.60373000  0.84026000  0.68181000  1.0
  N  N383  1  0.39629000  0.34025000  0.81819000  1.0
  N  N384  1  0.25102000  0.20850000  0.36502000  1.0
  N  N385  1  0.74898000  0.70849000  0.13497000  1.0
  N  N386  1  0.74898000  0.79151000  0.63497000  1.0
  N  N387  1  0.25103000  0.29150000  0.86503000  1.0
  N  N388  1  0.18632000  0.27308000  0.52890000  1.0
  N  N389  1  0.81367000  0.77309000  0.97110000  1.0
  N  N390  1  0.81367000  0.72692000  0.47110000  1.0
  N  N391  1  0.18632000  0.22692000  0.02890000  1.0
  N  N392  1  0.11361000  0.28708000  0.57463000  1.0
  N  N393  1  0.88639000  0.78707000  0.92537000  1.0
  N  N394  1  0.88639000  0.71292000  0.42537000  1.0
  N  N395  1  0.11361000  0.21292000  0.07463000  1.0
  N  N396  1  0.29672000  0.32618000  0.61378000  1.0
  N  N397  1  0.70328000  0.82618000  0.88621000  1.0
  N  N398  1  0.70329000  0.67381000  0.38622000  1.0
  N  N399  1  0.29672000  0.17382000  0.11379000  1.0
