# generated using pymatgen
data_Zn6H32(C2O)25
_symmetry_space_group_name_H-M   'P 1'
_cell_length_a   18.83630000
_cell_length_b   18.84950000
_cell_length_c   18.93398107
_cell_angle_alpha   109.28753965
_cell_angle_beta   109.74173587
_cell_angle_gamma   109.11600000
_symmetry_Int_Tables_number   1
_chemical_formula_structural   Zn6H32(C2O)25
_chemical_formula_sum   'Zn6 H32 C50 O25'
_cell_volume   5192.00715641
_cell_formula_units_Z   1
loop_
 _symmetry_equiv_pos_site_id
 _symmetry_equiv_pos_as_xyz
  1  'x, y, z'
loop_
 _atom_site_type_symbol
 _atom_site_label
 _atom_site_symmetry_multiplicity
 _atom_site_fract_x
 _atom_site_fract_y
 _atom_site_fract_z
 _atom_site_occupancy
  Zn  Zn0  1  0.99987000  0.05792000  0.55820000  1.0
  Zn  Zn1  1  0.00082000  0.94246000  0.44172000  1.0
  Zn  Zn2  1  0.44403000  0.94213000  0.00228000  1.0
  Zn  Zn3  1  0.56153000  0.05753000  0.00230000  1.0
  Zn  Zn4  1  0.55828000  0.49927000  0.55783000  1.0
  Zn  Zn5  1  0.44142000  0.50014000  0.44154000  1.0
  H  H6  1  0.86571000  0.14251000  0.38230000  1.0
  H  H7  1  0.61783000  0.85921000  0.14073000  1.0
  H  H8  1  0.84337000  0.94339000  0.21670000  1.0
  H  H9  1  0.73203000  0.93429000  0.10581000  1.0
  H  H10  1  0.87643000  0.73649000  0.49781000  1.0
  H  H11  1  0.76483000  0.62476000  0.50412000  1.0
  H  H12  1  0.61975000  0.75961000  0.49472000  1.0
  H  H13  1  0.73740000  0.87747000  0.50064000  1.0
  H  H14  1  0.26197000  0.99645000  0.62289000  1.0
  H  H15  1  0.38085000  0.00347000  0.74186000  1.0
  H  H16  1  0.23741000  0.99732000  0.87678000  1.0
  H  H17  1  0.78601000  0.08284000  0.39871000  1.0
  H  H18  1  0.12456000  0.00246000  0.76377000  1.0
  H  H19  1  0.12093000  0.12504000  0.36142000  1.0
  H  H20  1  0.23312000  0.24220000  0.36088000  1.0
  H  H21  1  0.37992000  0.37420000  0.63844000  1.0
  H  H22  1  0.26262000  0.26260000  0.63924000  1.0
  H  H23  1  0.50475000  0.26389000  0.12592000  1.0
  H  H24  1  0.49732000  0.37523000  0.23661000  1.0
  H  H25  1  0.50558000  0.23982000  0.38016000  1.0
  H  H26  1  0.50044000  0.12220000  0.26325000  1.0
  H  H27  1  0.64042000  0.87698000  0.87515000  1.0
  H  H28  1  0.68259000  0.08597000  0.29048000  1.0
  H  H29  1  0.63958000  0.75917000  0.76258000  1.0
  H  H30  1  0.36070000  0.62546000  0.62222000  1.0
  H  H31  1  0.36155000  0.73709000  0.74084000  1.0
  H  H32  1  0.76041000  0.13643000  0.26584000  1.0
  H  H33  1  0.78699000  0.04831000  0.15553000  1.0
  H  H34  1  0.73496000  0.86442000  0.24318000  1.0
  H  H35  1  0.71326000  0.91725000  0.32258000  1.0
  H  H36  1  0.60484000  0.92289000  0.22204000  1.0
  H  H37  1  0.91562000  0.12441000  0.29031000  1.0
  C  C38  1  0.88133000  0.88193000  0.49891000  1.0
  C  C39  1  0.69013000  0.99681000  0.18953000  1.0
  C  C40  1  0.76084000  0.99416000  0.16654000  1.0
  C  C41  1  0.65288000  0.91952000  0.20255000  1.0
  C  C42  1  0.82083000  0.74176000  0.49881000  1.0
  C  C43  1  0.75856000  0.67941000  0.50150000  1.0
  C  C44  1  0.68576000  0.68566000  0.49933000  1.0
  C  C45  1  0.67703000  0.75607000  0.49707000  1.0
  C  C46  1  0.74180000  0.82093000  0.49947000  1.0
  C  C47  1  0.81331000  0.81342000  0.49901000  1.0
  C  C48  1  0.25816000  0.99839000  0.67962000  1.0
  C  C49  1  0.88407000  0.00346000  0.38260000  1.0
  C  C50  1  0.32365000  0.00151000  0.74518000  1.0
  C  C51  1  0.31566000  0.00045000  0.81588000  1.0
  C  C52  1  0.24302000  0.99891000  0.82185000  1.0
  C  C53  1  0.18007000  0.00090000  0.75883000  1.0
  C  C54  1  0.18675000  0.99932000  0.68684000  1.0
  C  C55  1  0.17744000  0.18037000  0.42162000  1.0
  C  C56  1  0.23975000  0.24510000  0.42136000  1.0
  C  C57  1  0.31315000  0.31445000  0.49960000  1.0
  C  C58  1  0.32236000  0.32014000  0.57826000  1.0
  C  C59  1  0.25777000  0.25792000  0.57870000  1.0
  C  C60  1  0.11880000  0.11820000  0.50083000  1.0
  C  C61  1  0.18595000  0.18706000  0.50039000  1.0
  C  C62  1  0.50355000  0.11831000  0.12070000  1.0
  C  C63  1  0.62057000  0.99696000  0.11902000  1.0
  C  C64  1  0.50188000  0.88196000  0.88326000  1.0
  C  C65  1  0.38435000  0.00085000  0.88484000  1.0
  C  C66  1  0.49980000  0.61761000  0.61735000  1.0
  C  C67  1  0.61756000  0.61738000  0.49943000  1.0
  C  C68  1  0.50094000  0.38217000  0.38273000  1.0
  C  C69  1  0.38152000  0.38233000  0.49937000  1.0
  C  C70  1  0.50317000  0.25838000  0.18094000  1.0
  C  C71  1  0.11773000  0.99869000  0.61796000  1.0
  C  C72  1  0.49987000  0.32052000  0.24273000  1.0
  C  C73  1  0.50144000  0.31402000  0.31486000  1.0
  C  C74  1  0.50361000  0.24352000  0.32337000  1.0
  C  C75  1  0.50173000  0.17882000  0.25902000  1.0
  C  C76  1  0.50290000  0.18666000  0.18824000  1.0
  C  C77  1  0.57960000  0.82074000  0.82041000  1.0
  C  C78  1  0.57915000  0.75592000  0.75760000  1.0
  C  C79  1  0.50011000  0.68588000  0.68587000  1.0
  C  C80  1  0.42154000  0.67990000  0.67870000  1.0
  C  C81  1  0.42200000  0.74219000  0.74405000  1.0
  C  C82  1  0.80315000  0.08300000  0.34878000  1.0
  C  C83  1  0.50104000  0.81347000  0.81451000  1.0
  C  C84  1  0.73292000  0.08146000  0.27526000  1.0
  C  C85  1  0.83583000  0.00055000  0.24026000  1.0
  C  C86  1  0.72709000  0.92045000  0.27140000  1.0
  C  C87  1  0.81400000  0.00372000  0.31280000  1.0
  O  O88  1  0.89274000  0.95847000  0.53409000  1.0
  O  O89  1  0.53949000  0.14118000  0.07953000  1.0
  O  O90  1  0.54277000  0.93482000  0.07905000  1.0
  O  O91  1  0.64520000  0.06046000  0.10532000  1.0
  O  O92  1  0.43743000  0.85970000  0.89596000  1.0
  O  O93  1  0.56716000  0.95813000  0.92454000  1.0
  O  O94  1  0.36119000  0.96626000  0.92687000  1.0
  O  O95  1  0.46131000  0.03561000  0.89702000  1.0
  O  O96  1  0.56523000  0.60576000  0.64005000  1.0
  O  O97  1  0.43440000  0.57594000  0.54104000  1.0
  O  O98  1  0.64081000  0.57491000  0.53380000  1.0
  O  O99  1  0.92318000  0.85913000  0.46370000  1.0
  O  O100  1  0.54066000  0.60626000  0.46513000  1.0
  O  O101  1  0.53524000  0.39314000  0.45920000  1.0
  O  O102  1  0.46642000  0.42469000  0.35967000  1.0
  O  O103  1  0.45832000  0.42418000  0.56443000  1.0
  O  O104  1  0.35864000  0.39399000  0.43415000  1.0
  O  O105  1  0.92320000  0.06548000  0.46002000  1.0
  O  O106  1  0.89742000  0.93955000  0.35861000  1.0
  O  O107  1  0.10630000  0.14070000  0.56525000  1.0
  O  O108  1  0.07912000  0.04167000  0.43697000  1.0
  O  O109  1  0.07517000  0.03328000  0.64052000  1.0
  O  O110  1  0.10610000  0.96370000  0.54160000  1.0
  O  O111  1  0.46800000  0.04167000  0.10886000  1.0
  O  O112  1  0.91887000  0.07140000  0.27190000  1.0
