# generated using pymatgen
data_CuH6C8NO2
_symmetry_space_group_name_H-M   'P 1'
_cell_length_a   5.48967000
_cell_length_b   6.92775000
_cell_length_c   10.08150000
_cell_angle_alpha   94.66440000
_cell_angle_beta   103.35700000
_cell_angle_gamma   110.06200000
_symmetry_Int_Tables_number   1
_chemical_formula_structural   CuH6C8NO2
_chemical_formula_sum   'Cu2 H12 C16 N2 O4'
_cell_volume   344.95302689
_cell_formula_units_Z   2
loop_
 _symmetry_equiv_pos_site_id
 _symmetry_equiv_pos_as_xyz
  1  'x, y, z'
loop_
 _atom_site_type_symbol
 _atom_site_label
 _atom_site_symmetry_multiplicity
 _atom_site_fract_x
 _atom_site_fract_y
 _atom_site_fract_z
 _atom_site_occupancy
  Cu  Cu0  1  0.45097000  0.60888000  0.67020000  1.0
  Cu  Cu1  1  0.54902000  0.39112000  0.32979000  1.0
  H  H2  1  0.81784000  0.51252000  0.15883000  1.0
  H  H3  1  0.18217000  0.48750000  0.84116000  1.0
  H  H4  1  0.87233000  0.77084000  0.43646000  1.0
  H  H5  1  0.12768000  0.22916000  0.56354000  1.0
  H  H6  1  0.75830000  0.06951000  0.41291000  1.0
  H  H7  1  0.24168000  0.93048000  0.58709000  1.0
  H  H8  1  0.39301000  0.55453000  0.06874000  1.0
  H  H9  1  0.60700000  0.44547000  0.93126000  1.0
  H  H10  1  0.18266000  0.10055000  0.08002000  1.0
  H  H11  1  0.81734000  0.89946000  0.91997000  1.0
  H  H12  1  0.12162000  0.75231000  0.95307000  1.0
  H  H13  1  0.87840000  0.24768000  0.04693000  1.0
  C  C14  1  0.11838000  0.52756000  0.34959000  1.0
  C  C15  1  0.88158000  0.47242000  0.65040000  1.0
  C  C16  1  0.87386000  0.56089000  0.27089000  1.0
  C  C17  1  0.12614000  0.43911000  0.72910000  1.0
  C  C18  1  0.77324000  0.69783000  0.32806000  1.0
  C  C19  1  0.22678000  0.30216000  0.67194000  1.0
  C  C20  1  0.60392000  0.79700000  0.24994000  1.0
  C  C21  1  0.39609000  0.20300000  0.75006000  1.0
  C  C22  1  0.62239000  0.99282000  0.31065000  1.0
  C  C23  1  0.37762000  0.00718000  0.68935000  1.0
  C  C24  1  0.41969000  0.70899000  0.11863000  1.0
  C  C25  1  0.58031000  0.29100000  0.88137000  1.0
  C  C26  1  0.29762000  0.00969000  0.12437000  1.0
  C  C27  1  0.70237000  0.99031000  0.87563000  1.0
  C  C28  1  0.26458000  0.81605000  0.05565000  1.0
  C  C29  1  0.73542000  0.18396000  0.94435000  1.0
  N  N30  1  0.47586000  0.09775000  0.24947000  1.0
  N  N31  1  0.52413000  0.90225000  0.75053000  1.0
  O  O32  1  0.25885000  0.64544000  0.46382000  1.0
  O  O33  1  0.74113000  0.35454000  0.53619000  1.0
  O  O34  1  0.17220000  0.38124000  0.28972000  1.0
  O  O35  1  0.82779000  0.61877000  0.71027000  1.0
