# generated using pymatgen
data_CdH20C18(NO2)2
_symmetry_space_group_name_H-M   'P 1'
_cell_length_a   5.12058000
_cell_length_b   9.74748000
_cell_length_c   16.53490000
_cell_angle_alpha   97.31250000
_cell_angle_beta   89.99930000
_cell_angle_gamma   89.99950000
_symmetry_Int_Tables_number   1
_chemical_formula_structural   CdH20C18(NO2)2
_chemical_formula_sum   'Cd2 H40 C36 N4 O8'
_cell_volume   818.58991527
_cell_formula_units_Z   2
loop_
 _symmetry_equiv_pos_site_id
 _symmetry_equiv_pos_as_xyz
  1  'x, y, z'
loop_
 _atom_site_type_symbol
 _atom_site_label
 _atom_site_symmetry_multiplicity
 _atom_site_fract_x
 _atom_site_fract_y
 _atom_site_fract_z
 _atom_site_occupancy
  Cd  Cd0  1  0.11517000  0.24850000  0.00864000  1.0
  Cd  Cd1  1  0.61519000  0.75153000  0.99136000  1.0
  H  H2  1  0.51296000  0.41647000  0.07441000  1.0
  H  H3  1  0.01297000  0.58354000  0.92560000  1.0
  H  H4  1  0.43726000  0.32556000  0.14802000  1.0
  H  H5  1  0.93729000  0.67443000  0.85197000  1.0
  H  H6  1  0.77992000  0.19444000  0.87087000  1.0
  H  H7  1  0.27992000  0.80557000  0.12913000  1.0
  H  H8  1  0.75020000  0.07256000  0.93043000  1.0
  H  H9  1  0.25020000  0.92745000  0.06957000  1.0
  H  H10  1  0.32248000  0.58881000  0.16150000  1.0
  H  H11  1  0.82247000  0.41119000  0.83851000  1.0
  H  H12  1  0.91842000  0.53968000  0.24015000  1.0
  H  H13  1  0.41843000  0.46033000  0.75986000  1.0
  H  H14  1  0.94665000  0.36249000  0.20294000  1.0
  H  H15  1  0.44667000  0.63752000  0.79706000  1.0
  H  H16  1  0.49429000  0.60745000  0.27770000  1.0
  H  H17  1  0.99431000  0.39255000  0.72230000  1.0
  H  H18  1  0.75478000  0.58147000  0.40111000  1.0
  H  H19  1  0.25479000  0.41852000  0.59889000  1.0
  H  H20  1  0.63623000  0.40627000  0.48976000  1.0
  H  H21  1  0.13621000  0.59370000  0.51023000  1.0
  H  H22  1  0.25773000  0.24681000  0.45176000  1.0
  H  H23  1  0.75770000  0.75316000  0.54823000  1.0
  H  H24  1  0.00478000  0.26852000  0.32617000  1.0
  H  H25  1  0.50477000  0.73147000  0.67382000  1.0
  H  H26  1  0.19467000  0.11570000  0.82376000  1.0
  H  H27  1  0.69465000  0.88431000  0.17624000  1.0
  H  H28  1  0.08885000  0.86146000  0.76352000  1.0
  H  H29  1  0.58878000  0.13855000  0.23648000  1.0
  H  H30  1  0.77708000  0.89131000  0.80896000  1.0
  H  H31  1  0.27702000  0.10868000  0.19104000  1.0
  H  H32  1  0.18444000  0.93585000  0.63619000  1.0
  H  H33  1  0.68440000  0.06414000  0.36380000  1.0
  H  H34  1  0.06287000  0.06235000  0.52111000  1.0
  H  H35  1  0.56284000  0.93763000  0.47888000  1.0
  H  H36  1  0.67214000  0.21537000  0.53130000  1.0
  H  H37  1  0.17212000  0.78462000  0.46869000  1.0
  H  H38  1  0.40217000  0.23919000  0.65825000  1.0
  H  H39  1  0.90215000  0.76079000  0.34175000  1.0
  H  H40  1  0.52497000  0.11361000  0.77254000  1.0
  H  H41  1  0.02494000  0.88638000  0.22746000  1.0
  C  C42  1  0.97999000  0.54129000  0.08917000  1.0
  C  C43  1  0.47998000  0.45873000  0.91084000  1.0
  C  C44  1  0.19917000  0.49719000  0.14477000  1.0
  C  C45  1  0.69917000  0.50282000  0.85524000  1.0
  C  C46  1  0.06048000  0.45737000  0.22081000  1.0
  C  C47  1  0.56050000  0.54264000  0.77919000  1.0
  C  C48  1  0.23246000  0.43858000  0.29267000  1.0
  C  C49  1  0.73246000  0.56141000  0.70734000  1.0
  C  C50  1  0.44448000  0.52633000  0.31481000  1.0
  C  C51  1  0.94450000  0.47367000  0.68519000  1.0
  C  C52  1  0.58935000  0.51323000  0.38480000  1.0
  C  C53  1  0.08936000  0.48676000  0.61520000  1.0
  C  C54  1  0.52298000  0.41332000  0.43462000  1.0
  C  C55  1  0.02298000  0.58666000  0.56537000  1.0
  C  C56  1  0.31212000  0.32529000  0.41338000  1.0
  C  C57  1  0.81210000  0.67469000  0.58662000  1.0
  C  C58  1  0.16972000  0.33737000  0.34265000  1.0
  C  C59  1  0.66972000  0.66262000  0.65735000  1.0
  C  C60  1  0.26591000  0.97420000  0.90712000  1.0
  C  C61  1  0.76590000  0.02583000  0.09289000  1.0
  C  C62  1  0.07107000  0.04284000  0.85240000  1.0
  C  C63  1  0.57105000  0.95718000  0.14760000  1.0
  C  C64  1  0.94573000  0.94227000  0.78408000  1.0
  C  C65  1  0.44568000  0.05773000  0.21592000  1.0
  C  C66  1  0.86427000  0.01542000  0.71306000  1.0
  C  C67  1  0.36424000  0.98457000  0.28693000  1.0
  C  C68  1  0.01296000  0.00287000  0.64125000  1.0
  C  C69  1  0.51292000  0.99712000  0.35875000  1.0
  C  C70  1  0.94494000  0.07468000  0.57648000  1.0
  C  C71  1  0.44493000  0.92530000  0.42351000  1.0
  C  C72  1  0.72573000  0.16048000  0.58221000  1.0
  C  C73  1  0.22571000  0.83950000  0.41778000  1.0
  C  C74  1  0.57588000  0.17414000  0.65319000  1.0
  C  C75  1  0.07587000  0.82584000  0.34681000  1.0
  C  C76  1  0.64494000  0.10227000  0.71774000  1.0
  C  C77  1  0.14491000  0.89771000  0.28225000  1.0
  N  N78  1  0.35779000  0.38117000  0.10567000  1.0
  N  N79  1  0.85781000  0.61884000  0.89433000  1.0
  N  N80  1  0.88440000  0.13051000  0.90333000  1.0
  N  N81  1  0.38439000  0.86950000  0.09667000  1.0
  O  O82  1  0.87038000  0.44882000  0.03874000  1.0
  O  O83  1  0.37038000  0.55122000  0.96127000  1.0
  O  O84  1  0.90876000  0.66642000  0.10165000  1.0
  O  O85  1  0.40873000  0.33361000  0.89836000  1.0
  O  O86  1  0.36193000  0.05218000  0.96770000  1.0
  O  O87  1  0.86194000  0.94784000  0.03230000  1.0
  O  O88  1  0.33422000  0.84975000  0.88676000  1.0
  O  O89  1  0.83421000  0.15026000  0.11325000  1.0
