# generated using pymatgen
data_ZnH6(C2O3)2
_symmetry_space_group_name_H-M   'P 1'
_cell_length_a   7.76392000
_cell_length_b   9.89202430
_cell_length_c   14.69600000
_cell_angle_alpha   89.99980072
_cell_angle_beta   89.99960000
_cell_angle_gamma   110.99400380
_symmetry_Int_Tables_number   1
_chemical_formula_structural   ZnH6(C2O3)2
_chemical_formula_sum   'Zn6 H36 C24 O36'
_cell_volume   1053.74263241
_cell_formula_units_Z   6
loop_
 _symmetry_equiv_pos_site_id
 _symmetry_equiv_pos_as_xyz
  1  'x, y, z'
loop_
 _atom_site_type_symbol
 _atom_site_label
 _atom_site_symmetry_multiplicity
 _atom_site_fract_x
 _atom_site_fract_y
 _atom_site_fract_z
 _atom_site_occupancy
  Zn  Zn0  1  0.27657000  0.78256000  0.10254000  1.0
  Zn  Zn1  1  0.77658000  0.78256000  0.39747000  1.0
  Zn  Zn2  1  0.72343000  0.21744000  0.89746000  1.0
  Zn  Zn3  1  0.22342000  0.21744000  0.60253000  1.0
  Zn  Zn4  1  0.00000000  0.50000000  0.00000000  1.0
  Zn  Zn5  1  0.50000000  0.50000000  0.50000000  1.0
  H  H6  1  0.64771000  0.84243000  0.09634000  1.0
  H  H7  1  0.14772000  0.84243000  0.40366000  1.0
  H  H8  1  0.35229000  0.15758000  0.90366000  1.0
  H  H9  1  0.85229000  0.15758000  0.59634000  1.0
  H  H10  1  0.56247000  0.88494000  0.00645000  1.0
  H  H11  1  0.06249000  0.88495000  0.49355000  1.0
  H  H12  1  0.43751000  0.11506000  0.99355000  1.0
  H  H13  1  0.93752000  0.11506000  0.50646000  1.0
  H  H14  1  0.14408000  0.89935000  0.97110000  1.0
  H  H15  1  0.64408000  0.89935000  0.52890000  1.0
  H  H16  1  0.85592000  0.10064000  0.02889000  1.0
  H  H17  1  0.35593000  0.10066000  0.47110000  1.0
  H  H18  1  0.03841000  0.89513000  0.06392000  1.0
  H  H19  1  0.53841000  0.89512000  0.43608000  1.0
  H  H20  1  0.96159000  0.10487000  0.93607000  1.0
  H  H21  1  0.46159000  0.10488000  0.56392000  1.0
  H  H22  1  0.34237000  0.89940000  0.26706000  1.0
  H  H23  1  0.84236000  0.89938000  0.23294000  1.0
  H  H24  1  0.65763000  0.10061000  0.73294000  1.0
  H  H25  1  0.15763000  0.10061000  0.76706000  1.0
  H  H26  1  0.39084000  0.02199000  0.18854000  1.0
  H  H27  1  0.89086000  0.02198000  0.31146000  1.0
  H  H28  1  0.60914000  0.97801000  0.81146000  1.0
  H  H29  1  0.10914000  0.97801000  0.68854000  1.0
  H  H30  1  0.43259000  0.41131000  0.82186000  1.0
  H  H31  1  0.93258000  0.41130000  0.67815000  1.0
  H  H32  1  0.56741000  0.58869000  0.17814000  1.0
  H  H33  1  0.06741000  0.58869000  0.32186000  1.0
  H  H34  1  0.41469000  0.46569000  0.93475000  1.0
  H  H35  1  0.91471000  0.46569000  0.56525000  1.0
  H  H36  1  0.58530000  0.53430000  0.06525000  1.0
  H  H37  1  0.08530000  0.53431000  0.43476000  1.0
  H  H38  1  0.31988000  0.72958000  0.72876000  1.0
  H  H39  1  0.81988000  0.72957000  0.77124000  1.0
  H  H40  1  0.68012000  0.27042000  0.27124000  1.0
  H  H41  1  0.18013000  0.27043000  0.22876000  1.0
  C  C42  1  0.36114000  0.70556000  0.90360000  1.0
  C  C43  1  0.86115000  0.70556000  0.59640000  1.0
  C  C44  1  0.63886000  0.29444000  0.09640000  1.0
  C  C45  1  0.13886000  0.29444000  0.40360000  1.0
  C  C46  1  0.33624000  0.58966000  0.83391000  1.0
  C  C47  1  0.83626000  0.58966000  0.66608000  1.0
  C  C48  1  0.66375000  0.41034000  0.16608000  1.0
  C  C49  1  0.16375000  0.41034000  0.33393000  1.0
  C  C50  1  0.34746000  0.44886000  0.86742000  1.0
  C  C51  1  0.84746000  0.44885000  0.63258000  1.0
  C  C52  1  0.65254000  0.55114000  0.13258000  1.0
  C  C53  1  0.15254000  0.55114000  0.36743000  1.0
  C  C54  1  0.16460000  0.32521000  0.87987000  1.0
  C  C55  1  0.66459000  0.32521000  0.62013000  1.0
  C  C56  1  0.83540000  0.67479000  0.12013000  1.0
  C  C57  1  0.33540000  0.67479000  0.37988000  1.0
  C  C58  1  0.31420000  0.62097000  0.74658000  1.0
  C  C59  1  0.81421000  0.62097000  0.75343000  1.0
  C  C60  1  0.68580000  0.37903000  0.25342000  1.0
  C  C61  1  0.18580000  0.37903000  0.24658000  1.0
  C  C62  1  0.30064000  0.52222000  0.66902000  1.0
  C  C63  1  0.80064000  0.52221000  0.83098000  1.0
  C  C64  1  0.69935000  0.47778000  0.33098000  1.0
  C  C65  1  0.19936000  0.47779000  0.16902000  1.0
  O  O66  1  0.55349000  0.88124000  0.07396000  1.0
  O  O67  1  0.05350000  0.88124000  0.42604000  1.0
  O  O68  1  0.44651000  0.11877000  0.92604000  1.0
  O  O69  1  0.94650000  0.11876000  0.57396000  1.0
  O  O70  1  0.16334000  0.92793000  0.03482000  1.0
  O  O71  1  0.66335000  0.92793000  0.46517000  1.0
  O  O72  1  0.83665000  0.07206000  0.96517000  1.0
  O  O73  1  0.33665000  0.07207000  0.53483000  1.0
  O  O74  1  0.29988000  0.92888000  0.20974000  1.0
  O  O75  1  0.79989000  0.92887000  0.29026000  1.0
  O  O76  1  0.70011000  0.07112000  0.79026000  1.0
  O  O77  1  0.20011000  0.07112000  0.70974000  1.0
  O  O78  1  0.48204000  0.82892000  0.89315000  1.0
  O  O79  1  0.98205000  0.82892000  0.60684000  1.0
  O  O80  1  0.51794000  0.17108000  0.10685000  1.0
  O  O81  1  0.01795000  0.17108000  0.39316000  1.0
  O  O82  1  0.25611000  0.66785000  0.97492000  1.0
  O  O83  1  0.75612000  0.66785000  0.52507000  1.0
  O  O84  1  0.74390000  0.33214000  0.02508000  1.0
  O  O85  1  0.24388000  0.33214000  0.47492000  1.0
  O  O86  1  0.16003000  0.19515000  0.87567000  1.0
  O  O87  1  0.66002000  0.19515000  0.62432000  1.0
  O  O88  1  0.83997000  0.80485000  0.12432000  1.0
  O  O89  1  0.33998000  0.80485000  0.37568000  1.0
  O  O90  1  0.02199000  0.35562000  0.89776000  1.0
  O  O91  1  0.52199000  0.35563000  0.60225000  1.0
  O  O92  1  0.97801000  0.64438000  0.10225000  1.0
  O  O93  1  0.47801000  0.64438000  0.39775000  1.0
  O  O94  1  0.22221000  0.38610000  0.68267000  1.0
  O  O95  1  0.72221000  0.38609000  0.81733000  1.0
  O  O96  1  0.77778000  0.61390000  0.31732000  1.0
  O  O97  1  0.27778000  0.61391000  0.18268000  1.0
  O  O98  1  0.37113000  0.58449000  0.59471000  1.0
  O  O99  1  0.87113000  0.58448000  0.90529000  1.0
  O  O100  1  0.62888000  0.41552000  0.40529000  1.0
  O  O101  1  0.12889000  0.41553000  0.09472000  1.0
