# generated using pymatgen
data_CuH12C9N3ClO
_symmetry_space_group_name_H-M   'P 1'
_cell_length_a   7.02014000
_cell_length_b   7.61613000
_cell_length_c   22.40700000
_cell_angle_alpha   90.00000000
_cell_angle_beta   90.00000000
_cell_angle_gamma   89.92580000
_symmetry_Int_Tables_number   1
_chemical_formula_structural   CuH12C9N3ClO
_chemical_formula_sum   'Cu4 H48 C36 N12 Cl4 O4'
_cell_volume   1198.01835391
_cell_formula_units_Z   4
loop_
 _symmetry_equiv_pos_site_id
 _symmetry_equiv_pos_as_xyz
  1  'x, y, z'
loop_
 _atom_site_type_symbol
 _atom_site_label
 _atom_site_symmetry_multiplicity
 _atom_site_fract_x
 _atom_site_fract_y
 _atom_site_fract_z
 _atom_site_occupancy
  Cu  Cu0  1  0.05406000  0.60666000  0.28313000  1.0
  Cu  Cu1  1  0.94593000  0.89334000  0.78314000  1.0
  Cu  Cu2  1  0.94594000  0.39335000  0.71687000  1.0
  Cu  Cu3  1  0.05407000  0.10666000  0.21687000  1.0
  H  H4  1  0.17590000  0.75337000  0.37579000  1.0
  H  H5  1  0.82409000  0.74661000  0.87580000  1.0
  H  H6  1  0.82411000  0.24663000  0.62421000  1.0
  H  H7  1  0.17592000  0.25339000  0.12420000  1.0
  H  H8  1  0.33790000  0.60463000  0.35867000  1.0
  H  H9  1  0.66209000  0.89536000  0.85868000  1.0
  H  H10  1  0.66211000  0.39537000  0.64133000  1.0
  H  H11  1  0.33791000  0.10464000  0.14132000  1.0
  H  H12  1  0.20831000  0.49840000  0.44511000  1.0
  H  H13  1  0.79168000  0.00157000  0.94512000  1.0
  H  H14  1  0.79170000  0.50159000  0.55488000  1.0
  H  H15  1  0.20833000  0.99843000  0.05488000  1.0
  H  H16  1  0.11134000  0.37403000  0.38552000  1.0
  H  H17  1  0.88863000  0.12596000  0.88553000  1.0
  H  H18  1  0.88866000  0.62597000  0.61448000  1.0
  H  H19  1  0.11138000  0.87404000  0.11447000  1.0
  H  H20  1  0.86302000  0.46307000  0.45992000  1.0
  H  H21  1  0.13696000  0.03693000  0.95993000  1.0
  H  H22  1  0.13699000  0.53693000  0.54008000  1.0
  H  H23  1  0.86305000  0.96308000  0.04007000  1.0
  H  H24  1  0.91360000  0.68558000  0.44771000  1.0
  H  H25  1  0.08640000  0.81441000  0.94772000  1.0
  H  H26  1  0.08641000  0.31442000  0.55229000  1.0
  H  H27  1  0.91361000  0.18559000  0.05228000  1.0
  H  H28  1  0.55381000  0.66096000  0.28323000  1.0
  H  H29  1  0.44618000  0.83904000  0.78324000  1.0
  H  H30  1  0.44619000  0.33904000  0.71677000  1.0
  H  H31  1  0.55382000  0.16096000  0.21676000  1.0
  H  H32  1  0.55828000  0.43253000  0.28754000  1.0
  H  H33  1  0.44171000  0.06746000  0.78754000  1.0
  H  H34  1  0.44172000  0.56747000  0.71246000  1.0
  H  H35  1  0.55829000  0.93253000  0.21246000  1.0
  H  H36  1  0.44884000  0.48373000  0.17691000  1.0
  H  H37  1  0.55114000  0.01631000  0.67691000  1.0
  H  H38  1  0.55116000  0.51627000  0.82309000  1.0
  H  H39  1  0.44885000  0.98370000  0.32308000  1.0
  H  H40  1  0.58192000  0.47754000  0.07234000  1.0
  H  H41  1  0.41804000  0.02252000  0.57235000  1.0
  H  H42  1  0.41808000  0.52246000  0.92767000  1.0
  H  H43  1  0.58193000  0.97749000  0.42765000  1.0
  H  H44  1  0.93241000  0.53827000  0.05810000  1.0
  H  H45  1  0.06756000  0.96179000  0.55811000  1.0
  H  H46  1  0.06759000  0.46173000  0.94190000  1.0
  H  H47  1  0.93242000  0.03822000  0.44189000  1.0
  H  H48  1  0.13252000  0.59546000  0.14940000  1.0
  H  H49  1  0.86747000  0.90456000  0.64941000  1.0
  H  H50  1  0.86748000  0.40454000  0.85060000  1.0
  H  H51  1  0.13252000  0.09544000  0.35059000  1.0
  C  C52  1  0.11219000  0.50455000  0.40627000  1.0
  C  C53  1  0.88780000  0.99544000  0.90628000  1.0
  C  C54  1  0.88782000  0.49544000  0.59373000  1.0
  C  C55  1  0.11221000  0.00456000  0.09372000  1.0
  C  C56  1  0.91201000  0.55590000  0.42562000  1.0
  C  C57  1  0.08797000  0.94409000  0.92563000  1.0
  C  C58  1  0.08799000  0.44411000  0.57438000  1.0
  C  C59  1  0.91204000  0.05590000  0.07437000  1.0
  C  C60  1  0.75559000  0.55998000  0.37833000  1.0
  C  C61  1  0.24440000  0.94001000  0.87833000  1.0
  C  C62  1  0.24442000  0.44002000  0.62167000  1.0
  C  C63  1  0.75560000  0.05998000  0.12166000  1.0
  C  C64  1  0.65066000  0.54683000  0.27902000  1.0
  C  C65  1  0.34933000  0.95316000  0.77903000  1.0
  C  C66  1  0.34934000  0.45317000  0.72098000  1.0
  C  C67  1  0.65067000  0.04683000  0.22097000  1.0
  C  C68  1  0.72000000  0.54090000  0.21621000  1.0
  C  C69  1  0.27999000  0.95910000  0.71622000  1.0
  C  C70  1  0.28000000  0.45910000  0.78379000  1.0
  C  C71  1  0.72000000  0.04090000  0.28378000  1.0
  C  C72  1  0.59876000  0.50874000  0.16778000  1.0
  C  C73  1  0.40122000  0.99128000  0.66779000  1.0
  C  C74  1  0.40124000  0.49125000  0.83222000  1.0
  C  C75  1  0.59877000  0.00872000  0.33221000  1.0
  C  C76  1  0.67342000  0.50598000  0.11044000  1.0
  C  C77  1  0.32654000  0.99406000  0.61044000  1.0
  C  C78  1  0.32658000  0.49401000  0.88957000  1.0
  C  C79  1  0.67343000  0.00595000  0.38955000  1.0
  C  C80  1  0.86816000  0.53736000  0.10238000  1.0
  C  C81  1  0.13181000  0.96269000  0.60240000  1.0
  C  C82  1  0.13184000  0.46265000  0.89761000  1.0
  C  C83  1  0.86817000  0.03731000  0.39760000  1.0
  C  C84  1  0.98032000  0.56836000  0.15224000  1.0
  C  C85  1  0.01966000  0.93166000  0.65225000  1.0
  C  C86  1  0.01968000  0.43164000  0.84776000  1.0
  C  C87  1  0.98033000  0.06834000  0.34775000  1.0
  N  N88  1  0.19202000  0.62654000  0.36153000  1.0
  N  N89  1  0.80797000  0.87345000  0.86154000  1.0
  N  N90  1  0.80799000  0.37347000  0.63847000  1.0
  N  N91  1  0.19203000  0.12655000  0.13846000  1.0
  N  N92  1  0.80741000  0.55443000  0.32107000  1.0
  N  N93  1  0.19258000  0.94556000  0.82108000  1.0
  N  N94  1  0.19259000  0.44557000  0.67893000  1.0
  N  N95  1  0.80743000  0.05443000  0.17892000  1.0
  N  N96  1  0.90717000  0.56956000  0.20774000  1.0
  N  N97  1  0.09282000  0.93044000  0.70775000  1.0
  N  N98  1  0.09283000  0.43045000  0.79226000  1.0
  N  N99  1  0.90718000  0.06956000  0.29225000  1.0
  Cl  Cl100  1  0.25037000  0.30899000  0.26149000  1.0
  Cl  Cl101  1  0.74963000  0.19101000  0.76149000  1.0
  Cl  Cl102  1  0.74963000  0.69101000  0.73852000  1.0
  Cl  Cl103  1  0.25037000  0.80899000  0.23851000  1.0
  O  O104  1  0.58419000  0.56658000  0.39601000  1.0
  O  O105  1  0.41581000  0.93343000  0.89602000  1.0
  O  O106  1  0.41582000  0.43343000  0.60399000  1.0
  O  O107  1  0.58420000  0.06657000  0.10398000  1.0
