# generated using pymatgen
data_ErH12C15(SO3)3
_symmetry_space_group_name_H-M   'P 1'
_cell_length_a   7.85359000
_cell_length_b   9.18317000
_cell_length_c   13.02900000
_cell_angle_alpha   84.73980000
_cell_angle_beta   75.11970000
_cell_angle_gamma   75.61240000
_symmetry_Int_Tables_number   1
_chemical_formula_structural   ErH12C15(SO3)3
_chemical_formula_sum   'Er2 H24 C30 S6 O18'
_cell_volume   879.27822046
_cell_formula_units_Z   2
loop_
 _symmetry_equiv_pos_site_id
 _symmetry_equiv_pos_as_xyz
  1  'x, y, z'
loop_
 _atom_site_type_symbol
 _atom_site_label
 _atom_site_symmetry_multiplicity
 _atom_site_fract_x
 _atom_site_fract_y
 _atom_site_fract_z
 _atom_site_occupancy
  Er  Er0  1  0.73115000  0.69844000  0.49714000  1.0
  Er  Er1  1  0.26886000  0.30156000  0.50286000  1.0
  H  H2  1  0.80683000  0.37766000  0.57078000  1.0
  H  H3  1  0.19317000  0.62234000  0.42922000  1.0
  H  H4  1  0.59241000  0.41985000  0.59607000  1.0
  H  H5  1  0.40759000  0.58015000  0.40393000  1.0
  H  H6  1  0.05800000  0.83132000  0.49764000  1.0
  H  H7  1  0.94200000  0.16868000  0.50236000  1.0
  H  H8  1  0.97591000  0.89074000  0.39965000  1.0
  H  H9  1  0.02409000  0.10926000  0.60035000  1.0
  H  H10  1  0.73676000  0.91333000  0.63012000  1.0
  H  H11  1  0.26323000  0.08668000  0.36989000  1.0
  H  H12  1  0.72346000  0.01273000  0.52356000  1.0
  H  H13  1  0.27654000  0.98727000  0.47644000  1.0
  H  H14  1  0.34753000  0.69491000  0.22573000  1.0
  H  H15  1  0.65249000  0.30509000  0.77426000  1.0
  H  H16  1  0.29746000  0.82606000  0.04365000  1.0
  H  H17  1  0.70256000  0.17394000  0.95634000  1.0
  H  H18  1  0.65264000  0.71311000  0.84268000  1.0
  H  H19  1  0.34734000  0.28688000  0.15733000  1.0
  H  H20  1  0.60718000  0.59741000  0.03838000  1.0
  H  H21  1  0.39280000  0.40256000  0.96161000  1.0
  H  H22  1  0.05390000  0.04512000  0.22205000  1.0
  H  H23  1  0.94609000  0.95488000  0.77796000  1.0
  H  H24  1  0.10578000  0.15278000  0.02474000  1.0
  H  H25  1  0.89422000  0.84721000  0.97526000  1.0
  C  C26  1  0.60675000  0.78404000  0.31652000  1.0
  C  C27  1  0.39325000  0.21596000  0.68348000  1.0
  C  C28  1  0.93586000  0.55093000  0.68028000  1.0
  C  C29  1  0.06415000  0.44907000  0.31972000  1.0
  C  C30  1  0.72703000  0.19138000  0.37326000  1.0
  C  C31  1  0.27297000  0.80862000  0.62674000  1.0
  C  C32  1  0.53615000  0.83465000  0.22215000  1.0
  C  C33  1  0.46384000  0.16536000  0.77785000  1.0
  C  C34  1  0.49229000  0.95692000  0.04944000  1.0
  C  C35  1  0.50772000  0.04309000  0.95056000  1.0
  C  C36  1  0.87896000  0.52227000  0.79519000  1.0
  C  C37  1  0.12104000  0.47772000  0.20481000  1.0
  C  C38  1  0.41319000  0.78242000  0.18447000  1.0
  C  C39  1  0.58681000  0.21758000  0.81552000  1.0
  C  C40  1  0.80374000  0.21909000  0.25995000  1.0
  C  C41  1  0.19627000  0.78089000  0.74006000  1.0
  C  C42  1  0.38687000  0.85264000  0.08701000  1.0
  C  C43  1  0.61314000  0.14737000  0.91299000  1.0
  C  C44  1  0.85154000  0.32047000  0.07399000  1.0
  C  C45  1  0.14846000  0.67952000  0.92602000  1.0
  C  C46  1  0.83719000  0.41186000  0.97911000  1.0
  C  C47  1  0.16282000  0.58814000  0.02088000  1.0
  C  C48  1  0.73547000  0.60864000  0.86682000  1.0
  C  C49  1  0.26452000  0.39135000  0.13319000  1.0
  C  C50  1  0.71104000  0.54626000  0.97060000  1.0
  C  C51  1  0.28895000  0.45373000  0.02940000  1.0
  C  C52  1  0.96211000  0.14059000  0.19415000  1.0
  C  C53  1  0.03789000  0.85940000  0.80585000  1.0
  C  C54  1  0.98880000  0.19688000  0.08862000  1.0
  C  C55  1  0.01119000  0.80311000  0.91139000  1.0
  S  S56  1  0.61676000  0.97247000  0.13861000  1.0
  S  S57  1  0.38324000  0.02755000  0.86140000  1.0
  S  S58  1  0.98416000  0.36315000  0.85688000  1.0
  S  S59  1  0.01584000  0.63685000  0.14312000  1.0
  S  S60  1  0.68770000  0.36245000  0.19147000  1.0
  S  S61  1  0.31230000  0.63755000  0.80853000  1.0
  O  O62  1  0.70791000  0.85494000  0.34399000  1.0
  O  O63  1  0.29209000  0.14506000  0.65602000  1.0
  O  O64  1  0.56952000  0.66645000  0.36990000  1.0
  O  O65  1  0.43048000  0.33355000  0.63009000  1.0
  O  O66  1  0.70207000  0.46221000  0.56910000  1.0
  O  O67  1  0.29793000  0.53779000  0.43089000  1.0
  O  O68  1  0.05925000  0.45265000  0.62409000  1.0
  O  O69  1  0.94075000  0.54737000  0.37591000  1.0
  O  O70  1  0.56280000  0.25513000  0.41248000  1.0
  O  O71  1  0.43720000  0.74486000  0.58752000  1.0
  O  O72  1  0.85202000  0.67290000  0.64199000  1.0
  O  O73  1  0.14797000  0.32710000  0.35801000  1.0
  O  O74  1  0.01296000  0.79804000  0.44067000  1.0
  O  O75  1  0.98704000  0.20196000  0.55933000  1.0
  O  O76  1  0.67099000  0.93618000  0.57430000  1.0
  O  O77  1  0.32900000  0.06383000  0.42570000  1.0
  O  O78  1  0.83198000  0.10401000  0.42599000  1.0
  O  O79  1  0.16802000  0.89600000  0.57401000  1.0
