# generated using pymatgen
data_Zn3H32C50(N7O9)2
_symmetry_space_group_name_H-M   'P 1'
_cell_length_a   7.85826000
_cell_length_b   8.78987000
_cell_length_c   18.14200000
_cell_angle_alpha   84.54730000
_cell_angle_beta   84.34090000
_cell_angle_gamma   81.64150000
_symmetry_Int_Tables_number   1
_chemical_formula_structural   Zn3H32C50(N7O9)2
_chemical_formula_sum   'Zn3 H32 C50 N14 O18'
_cell_volume   1229.62008905
_cell_formula_units_Z   1
loop_
 _symmetry_equiv_pos_site_id
 _symmetry_equiv_pos_as_xyz
  1  'x, y, z'
loop_
 _atom_site_type_symbol
 _atom_site_label
 _atom_site_symmetry_multiplicity
 _atom_site_fract_x
 _atom_site_fract_y
 _atom_site_fract_z
 _atom_site_occupancy
  Zn  Zn0  1  0.52280000  0.25143000  0.41851000  1.0
  Zn  Zn1  1  0.47720000  0.74856000  0.58149000  1.0
  Zn  Zn2  1  0.00000000  0.00000000  0.50000000  1.0
  H  H3  1  0.99341000  0.29844000  0.51175000  1.0
  H  H4  1  0.00659000  0.70156000  0.48825000  1.0
  H  H5  1  0.16235000  0.27155000  0.45556000  1.0
  H  H6  1  0.83765000  0.72845000  0.54444000  1.0
  H  H7  1  0.39186000  0.66710000  0.75143000  1.0
  H  H8  1  0.60814000  0.33290000  0.24857000  1.0
  H  H9  1  0.97330000  0.16228000  0.91849000  1.0
  H  H10  1  0.02671000  0.83771000  0.08152000  1.0
  H  H11  1  0.10741000  0.19742000  0.33414000  1.0
  H  H12  1  0.89259000  0.80259000  0.66586000  1.0
  H  H13  1  0.44301000  0.94741000  0.19102000  1.0
  H  H14  1  0.55700000  0.05259000  0.80898000  1.0
  H  H15  1  0.27455000  0.50421000  0.25466000  1.0
  H  H16  1  0.72544000  0.49579000  0.74534000  1.0
  H  H17  1  0.27339000  0.47992000  0.99584000  1.0
  H  H18  1  0.72662000  0.52008000  0.00416000  1.0
  H  H19  1  0.03383000  0.27056000  0.78937000  1.0
  H  H20  1  0.96617000  0.72944000  0.21063000  1.0
  H  H21  1  0.18183000  0.50984000  0.57289000  1.0
  H  H22  1  0.81817000  0.49017000  0.42711000  1.0
  H  H23  1  0.33191000  0.58668000  0.86828000  1.0
  H  H24  1  0.66809000  0.41332000  0.13172000  1.0
  H  H25  1  0.78481000  0.05915000  0.15521000  1.0
  H  H26  1  0.21519000  0.94085000  0.84479000  1.0
  H  H27  1  0.80955000  0.83466000  0.38530000  1.0
  H  H28  1  0.19045000  0.16534000  0.61470000  1.0
  H  H29  1  0.30855000  0.31336000  0.08508000  1.0
  H  H30  1  0.69145000  0.68663000  0.91492000  1.0
  H  H31  1  0.24907000  0.20997000  0.21361000  1.0
  H  H32  1  0.75093000  0.79004000  0.78639000  1.0
  H  H33  1  0.84453000  0.16413000  0.02508000  1.0
  H  H34  1  0.15547000  0.83587000  0.97492000  1.0
  C  C35  1  0.37205000  0.79165000  0.44646000  1.0
  C  C36  1  0.62795000  0.20835000  0.55354000  1.0
  C  C37  1  0.36070000  0.77434000  0.36493000  1.0
  C  C38  1  0.63930000  0.22566000  0.63507000  1.0
  C  C39  1  0.30962000  0.63715000  0.34468000  1.0
  C  C40  1  0.69038000  0.36285000  0.65532000  1.0
  C  C41  1  0.41013000  0.88565000  0.30863000  1.0
  C  C42  1  0.58987000  0.11435000  0.69137000  1.0
  C  C43  1  0.24822000  0.51791000  0.40269000  1.0
  C  C44  1  0.75178000  0.48209000  0.59731000  1.0
  C  C45  1  0.08193000  0.24731000  0.04464000  1.0
  C  C46  1  0.91808000  0.75269000  0.95536000  1.0
  C  C47  1  0.31885000  0.60419000  0.71997000  1.0
  C  C48  1  0.68115000  0.39581000  0.28003000  1.0
  C  C49  1  0.18289000  0.43668000  0.82093000  1.0
  C  C50  1  0.81711000  0.56332000  0.17907000  1.0
  C  C51  1  0.11838000  0.31182000  0.96759000  1.0
  C  C52  1  0.88163000  0.68818000  0.03241000  1.0
  C  C53  1  0.05017000  0.25682000  0.90811000  1.0
  C  C54  1  0.94983000  0.74318000  0.09189000  1.0
  C  C55  1  0.35829000  0.72377000  0.21557000  1.0
  C  C56  1  0.64171000  0.27623000  0.78443000  1.0
  C  C57  1  0.02932000  0.10670000  0.33020000  1.0
  C  C58  1  0.97068000  0.89330000  0.66980000  1.0
  C  C59  1  0.40653000  0.86029000  0.23397000  1.0
  C  C60  1  0.59347000  0.13971000  0.76603000  1.0
  C  C61  1  0.01041000  0.13154000  0.19216000  1.0
  C  C62  1  0.98959000  0.86846000  0.80784000  1.0
  C  C63  1  0.31141000  0.61081000  0.26993000  1.0
  C  C64  1  0.68859000  0.38919000  0.73007000  1.0
  C  C65  1  0.22115000  0.43122000  0.95126000  1.0
  C  C66  1  0.77886000  0.56878000  0.04874000  1.0
  C  C67  1  0.08166000  0.31757000  0.83536000  1.0
  C  C68  1  0.91834000  0.68243000  0.16464000  1.0
  C  C69  1  0.20926000  0.52416000  0.62925000  1.0
  C  C70  1  0.79074000  0.47584000  0.37075000  1.0
  C  C71  1  0.25346000  0.49343000  0.87879000  1.0
  C  C72  1  0.74654000  0.50657000  0.12121000  1.0
  C  C73  1  0.89878000  0.11560000  0.13881000  1.0
  C  C74  1  0.10122000  0.88440000  0.86119000  1.0
  C  C75  1  0.87662000  0.92244000  0.35394000  1.0
  C  C76  1  0.12338000  0.07756000  0.64606000  1.0
  C  C77  1  0.19175000  0.26037000  0.09969000  1.0
  C  C78  1  0.80825000  0.73963000  0.90031000  1.0
  C  C79  1  0.15725000  0.20400000  0.17298000  1.0
  C  C80  1  0.84275000  0.79600000  0.82702000  1.0
  C  C81  1  0.93519000  0.17324000  0.06574000  1.0
  C  C82  1  0.06481000  0.82676000  0.93426000  1.0
  C  C83  1  0.46514000  0.03639000  0.32410000  1.0
  C  C84  1  0.53485000  0.96361000  0.67590000  1.0
  N  N85  1  0.96859000  0.01481000  0.38640000  1.0
  N  N86  1  0.03141000  0.98519000  0.61360000  1.0
  N  N87  1  0.21577000  0.49813000  0.74635000  1.0
  N  N88  1  0.78423000  0.50187000  0.25365000  1.0
  N  N89  1  0.97555000  0.06968000  0.26639000  1.0
  N  N90  1  0.02444000  0.93032000  0.73361000  1.0
  N  N91  1  0.14418000  0.44668000  0.68894000  1.0
  N  N92  1  0.85582000  0.55332000  0.31106000  1.0
  N  N93  1  0.35748000  0.69844000  0.13680000  1.0
  N  N94  1  0.64252000  0.30156000  0.86320000  1.0
  N  N95  1  0.87753000  0.95207000  0.28108000  1.0
  N  N96  1  0.12247000  0.04793000  0.71892000  1.0
  N  N97  1  0.31695000  0.62329000  0.64598000  1.0
  N  N98  1  0.68305000  0.37670000  0.35402000  1.0
  O  O99  1  0.50361000  0.70960000  0.47381000  1.0
  O  O100  1  0.49638000  0.29040000  0.52619000  1.0
  O  O101  1  0.28854000  0.37412000  0.38915000  1.0
  O  O102  1  0.71146000  0.62588000  0.61085000  1.0
  O  O103  1  0.33976000  0.56706000  0.12146000  1.0
  O  O104  1  0.66023000  0.43294000  0.87854000  1.0
  O  O105  1  0.26013000  0.87359000  0.48527000  1.0
  O  O106  1  0.73986000  0.12641000  0.51473000  1.0
  O  O107  1  0.08588000  0.21813000  0.49318000  1.0
  O  O108  1  0.91412000  0.78187000  0.50682000  1.0
  O  O109  1  0.15929000  0.56160000  0.45966000  1.0
  O  O110  1  0.84071000  0.43840000  0.54034000  1.0
  O  O111  1  0.37324000  0.80906000  0.08994000  1.0
  O  O112  1  0.62676000  0.19094000  0.91006000  1.0
  O  O113  1  0.49282000  0.04745000  0.39229000  1.0
  O  O114  1  0.50717000  0.95255000  0.60771000  1.0
  O  O115  1  0.47790000  0.13891000  0.27188000  1.0
  O  O116  1  0.52210000  0.86110000  0.72812000  1.0
