# generated using pymatgen
data_CuH6C4N3
_symmetry_space_group_name_H-M   'P 1'
_cell_length_a   7.85796000
_cell_length_b   11.05460000
_cell_length_c   11.05460000
_cell_angle_alpha   62.84450000
_cell_angle_beta   69.17900000
_cell_angle_gamma   69.17910000
_symmetry_Int_Tables_number   1
_chemical_formula_structural   CuH6C4N3
_chemical_formula_sum   'Cu6 H36 C24 N18'
_cell_volume   776.77533990
_cell_formula_units_Z   6
loop_
 _symmetry_equiv_pos_site_id
 _symmetry_equiv_pos_as_xyz
  1  'x, y, z'
loop_
 _atom_site_type_symbol
 _atom_site_label
 _atom_site_symmetry_multiplicity
 _atom_site_fract_x
 _atom_site_fract_y
 _atom_site_fract_z
 _atom_site_occupancy
  Cu  Cu0  1  0.01835000  0.21200000  0.37475000  1.0
  Cu  Cu1  1  0.39499000  0.37464000  0.21188000  1.0
  Cu  Cu2  1  0.51835000  0.87475000  0.71200000  1.0
  Cu  Cu3  1  0.89499000  0.71188000  0.87464000  1.0
  Cu  Cu4  1  0.54624000  0.95371000  0.95378000  1.0
  Cu  Cu5  1  0.04624000  0.45378000  0.45371000  1.0
  H  H6  1  0.05165000  0.96326000  0.31537000  1.0
  H  H7  1  0.66966000  0.31519000  0.96330000  1.0
  H  H8  1  0.55165000  0.81538000  0.46326000  1.0
  H  H9  1  0.16967000  0.46329000  0.81519000  1.0
  H  H10  1  0.05064000  0.02187000  0.13700000  1.0
  H  H11  1  0.79031000  0.13682000  0.02189000  1.0
  H  H12  1  0.55064000  0.63700000  0.52187000  1.0
  H  H13  1  0.29031000  0.52189000  0.63682000  1.0
  H  H14  1  0.21928000  0.87176000  0.20766000  1.0
  H  H15  1  0.70121000  0.20755000  0.87174000  1.0
  H  H16  1  0.71928000  0.70767000  0.37176000  1.0
  H  H17  1  0.20121000  0.37173000  0.70755000  1.0
  H  H18  1  0.26760000  0.63891000  0.82611000  1.0
  H  H19  1  0.26763000  0.82637000  0.63895000  1.0
  H  H20  1  0.76760000  0.32611000  0.13891000  1.0
  H  H21  1  0.76763000  0.13895000  0.32637000  1.0
  H  H22  1  0.33886000  0.46914000  0.95002000  1.0
  H  H23  1  0.24210000  0.95030000  0.46920000  1.0
  H  H24  1  0.83886000  0.45002000  0.96914000  1.0
  H  H25  1  0.74210000  0.96920000  0.45030000  1.0
  H  H26  1  0.50664000  0.54725000  0.79879000  1.0
  H  H27  1  0.14786000  0.79887000  0.54727000  1.0
  H  H28  1  0.00664000  0.29880000  0.04725000  1.0
  H  H29  1  0.64786000  0.04727000  0.29887000  1.0
  H  H30  1  0.49830000  0.72506000  0.26382000  1.0
  H  H31  1  0.51275000  0.26362000  0.72521000  1.0
  H  H32  1  0.99830000  0.76382000  0.22506000  1.0
  H  H33  1  0.01275000  0.22521000  0.76362000  1.0
  H  H34  1  0.59193000  0.54307000  0.29828000  1.0
  H  H35  1  0.56664000  0.29812000  0.54320000  1.0
  H  H36  1  0.09193000  0.79828000  0.04307000  1.0
  H  H37  1  0.06664000  0.04320000  0.79812000  1.0
  H  H38  1  0.34683000  0.60634000  0.34641000  1.0
  H  H39  1  0.70028000  0.34633000  0.60645000  1.0
  H  H40  1  0.84683000  0.84642000  0.10634000  1.0
  H  H41  1  0.20027000  0.10645000  0.84633000  1.0
  C  C42  1  0.27053000  0.06403000  0.17202000  1.0
  C  C43  1  0.49323000  0.17194000  0.06403000  1.0
  C  C44  1  0.77053000  0.67202000  0.56403000  1.0
  C  C45  1  0.99323000  0.56403000  0.67194000  1.0
  C  C46  1  0.14161000  0.97470000  0.21092000  1.0
  C  C47  1  0.67261000  0.21078000  0.97469000  1.0
  C  C48  1  0.64161000  0.71092000  0.47470000  1.0
  C  C49  1  0.17261000  0.47469000  0.71078000  1.0
  C  C50  1  0.41573000  0.62865000  0.96003000  1.0
  C  C51  1  0.99562000  0.96002000  0.62870000  1.0
  C  C52  1  0.91574000  0.46003000  0.12865000  1.0
  C  C53  1  0.49562000  0.12870000  0.46002000  1.0
  C  C54  1  0.45791000  0.65704000  0.12691000  1.0
  C  C55  1  0.75810000  0.12682000  0.65713000  1.0
  C  C56  1  0.95791000  0.62692000  0.15704000  1.0
  C  C57  1  0.25810000  0.15713000  0.62682000  1.0
  C  C58  1  0.38112000  0.56745000  0.87887000  1.0
  C  C59  1  0.17280000  0.87904000  0.56748000  1.0
  C  C60  1  0.88112000  0.37887000  0.06745000  1.0
  C  C61  1  0.67280000  0.06748000  0.37904000  1.0
  C  C62  1  0.47486000  0.63191000  0.26638000  1.0
  C  C63  1  0.62676000  0.26625000  0.63204000  1.0
  C  C64  1  0.97486000  0.76639000  0.13191000  1.0
  C  C65  1  0.12676000  0.13204000  0.76625000  1.0
  N  N66  1  0.23645000  0.15707000  0.22861000  1.0
  N  N67  1  0.37777000  0.22854000  0.15709000  1.0
  N  N68  1  0.73645000  0.72862000  0.65707000  1.0
  N  N69  1  0.87777000  0.65709000  0.72854000  1.0
  N  N70  1  0.43099000  0.06883000  0.06889000  1.0
  N  N71  1  0.93099000  0.56889000  0.56883000  1.0
  N  N72  1  0.44366000  0.75697000  0.90780000  1.0
  N  N73  1  0.89165000  0.90773000  0.75702000  1.0
  N  N74  1  0.94366000  0.40780000  0.25697000  1.0
  N  N75  1  0.39165000  0.25702000  0.40773000  1.0
  N  N76  1  0.47197000  0.77608000  0.01386000  1.0
  N  N77  1  0.73808000  0.01374000  0.77615000  1.0
  N  N78  1  0.97197000  0.51386000  0.27607000  1.0
  N  N79  1  0.23808000  0.27615000  0.51374000  1.0
  N  N80  1  0.42327000  0.56217000  0.09713000  1.0
  N  N81  1  0.91743000  0.09711000  0.56227000  1.0
  N  N82  1  0.92328000  0.59713000  0.06217000  1.0
  N  N83  1  0.41743000  0.06227000  0.59711000  1.0
