# generated using pymatgen
data_ZnH19C28I3NO7
_symmetry_space_group_name_H-M   'P 1'
_cell_length_a   14.14420000
_cell_length_b   15.21470000
_cell_length_c   15.35790000
_cell_angle_alpha   81.57790000
_cell_angle_beta   77.22000000
_cell_angle_gamma   88.61150000
_symmetry_Int_Tables_number   1
_chemical_formula_structural   ZnH19C28I3NO7
_chemical_formula_sum   'Zn2 H38 C56 I6 N2 O14'
_cell_volume   3188.26709851
_cell_formula_units_Z   2
loop_
 _symmetry_equiv_pos_site_id
 _symmetry_equiv_pos_as_xyz
  1  'x, y, z'
loop_
 _atom_site_type_symbol
 _atom_site_label
 _atom_site_symmetry_multiplicity
 _atom_site_fract_x
 _atom_site_fract_y
 _atom_site_fract_z
 _atom_site_occupancy
  Zn  Zn0  1  0.51865000  0.47497000  0.39843000  1.0
  Zn  Zn1  1  0.48451000  0.52738000  0.59530000  1.0
  H  H2  1  0.46318000  0.06337000  0.27357000  1.0
  H  H3  1  0.55445000  0.94252000  0.72088000  1.0
  H  H4  1  0.44129000  0.62591000  0.11298000  1.0
  H  H5  1  0.55583000  0.37781000  0.88158000  1.0
  H  H6  1  0.53163000  0.23216000  0.46982000  1.0
  H  H7  1  0.49167000  0.77431000  0.52425000  1.0
  H  H8  1  0.49421000  0.25062000  0.74981000  1.0
  H  H9  1  0.50982000  0.75392000  0.24730000  1.0
  H  H10  1  0.41523000  0.76735000  0.10036000  1.0
  H  H11  1  0.30742000  0.70069000  0.13124000  1.0
  H  H12  1  0.21720000  0.82648000  0.06061000  1.0
  H  H13  1  0.27026000  0.86127000  0.14515000  1.0
  H  H14  1  0.32536000  0.89248000  0.02925000  1.0
  H  H15  1  0.69035000  0.29887000  0.86526000  1.0
  H  H16  1  0.58174000  0.23317000  0.89648000  1.0
  H  H17  1  0.66926000  0.10932000  0.97251000  1.0
  H  H18  1  0.72627000  0.13658000  0.85650000  1.0
  H  H19  1  0.77806000  0.17426000  0.94051000  1.0
  H  H20  1  0.76760000  0.41743000  0.29839000  1.0
  H  H21  1  0.78159000  0.31990000  0.24292000  1.0
  H  H22  1  0.75687000  0.22350000  0.39373000  1.0
  H  H23  1  0.85433000  0.29979000  0.38137000  1.0
  H  H24  1  0.73835000  0.32003000  0.44863000  1.0
  H  H25  1  0.30713000  0.72805000  0.57949000  1.0
  H  H26  1  0.32426000  0.78349000  0.66906000  1.0
  H  H27  1  0.18168000  0.69833000  0.77295000  1.0
  H  H28  1  0.14720000  0.75612000  0.67551000  1.0
  H  H29  1  0.16883000  0.63974000  0.68298000  1.0
  H  H30  1  0.41764000  0.82802000  0.74303000  1.0
  H  H31  1  0.41185000  0.83075000  0.85979000  1.0
  H  H32  1  0.23979000  0.88474000  0.87869000  1.0
  H  H33  1  0.32074000  0.95865000  0.79664000  1.0
  H  H34  1  0.24603000  0.88417000  0.76169000  1.0
  H  H35  1  0.59577000  0.16710000  0.16401000  1.0
  H  H36  1  0.61146000  0.19320000  0.26985000  1.0
  H  H37  1  0.78507000  0.14495000  0.23336000  1.0
  H  H38  1  0.70576000  0.05735000  0.22867000  1.0
  H  H39  1  0.77049000  0.12049000  0.12695000  1.0
  C  C40  1  0.48630000  0.65815000  0.41701000  1.0
  C  C41  1  0.52141000  0.34761000  0.58094000  1.0
  C  C42  1  0.51116000  0.90145000  0.43664000  1.0
  C  C43  1  0.50889000  0.10443000  0.55695000  1.0
  C  C44  1  0.50542000  0.94307000  0.34804000  1.0
  C  C45  1  0.51205000  0.06251000  0.64607000  1.0
  C  C46  1  0.52043000  0.95638000  0.50398000  1.0
  C  C47  1  0.50107000  0.04962000  0.48914000  1.0
  C  C48  1  0.47215000  0.08388000  0.40625000  1.0
  C  C49  1  0.54831000  0.92221000  0.58740000  1.0
  C  C50  1  0.48236000  0.03467000  0.33657000  1.0
  C  C51  1  0.53636000  0.97119000  0.65736000  1.0
  C  C52  1  0.38558000  0.66632000  0.82252000  1.0
  C  C53  1  0.62184000  0.34220000  0.16748000  1.0
  C  C54  1  0.40472000  0.63145000  0.74084000  1.0
  C  C55  1  0.60108000  0.37378000  0.25067000  1.0
  C  C56  1  0.52169000  0.53601000  0.78687000  1.0
  C  C57  1  0.48226000  0.46810000  0.20759000  1.0
  C  C58  1  0.48812000  0.54750000  0.87879000  1.0
  C  C59  1  0.51561000  0.45870000  0.11500000  1.0
  C  C60  1  0.42659000  0.62315000  0.89386000  1.0
  C  C61  1  0.57830000  0.38425000  0.09785000  1.0
  C  C62  1  0.32010000  0.46857000  0.52547000  1.0
  C  C63  1  0.68548000  0.52676000  0.46223000  1.0
  C  C64  1  0.51260000  0.48957000  0.95368000  1.0
  C  C65  1  0.48996000  0.51612000  0.04018000  1.0
  C  C66  1  0.44748000  0.60059000  0.04963000  1.0
  C  C67  1  0.55290000  0.40418000  0.94396000  1.0
  C  C68  1  0.41242000  0.65102000  0.98184000  1.0
  C  C69  1  0.58840000  0.35397000  0.01151000  1.0
  C  C70  1  0.21847000  0.46979000  0.52254000  1.0
  C  C71  1  0.78750000  0.51968000  0.46326000  1.0
  C  C72  1  0.13526000  0.47693000  0.51102000  1.0
  C  C73  1  0.87121000  0.50867000  0.47252000  1.0
  C  C74  1  0.04478000  0.48627000  0.49776000  1.0
  C  C75  1  0.96201000  0.49682000  0.48447000  1.0
  C  C76  1  0.49767000  0.75678000  0.38940000  1.0
  C  C77  1  0.51491000  0.24868000  0.60658000  1.0
  C  C78  1  0.50940000  0.88808000  0.27962000  1.0
  C  C79  1  0.50337000  0.11682000  0.71560000  1.0
  C  C80  1  0.50711000  0.79651000  0.29896000  1.0
  C  C81  1  0.50212000  0.20838000  0.69722000  1.0
  C  C82  1  0.50049000  0.80861000  0.45588000  1.0
  C  C83  1  0.51859000  0.19742000  0.53838000  1.0
  C  C84  1  0.34601000  0.75526000  0.08193000  1.0
  C  C85  1  0.28605000  0.83880000  0.07870000  1.0
  C  C86  1  0.65069000  0.24540000  0.91533000  1.0
  C  C87  1  0.70970000  0.16144000  0.92177000  1.0
  C  C88  1  0.74877000  0.34676000  0.30511000  1.0
  C  C89  1  0.77580000  0.29414000  0.38723000  1.0
  C  C90  1  0.29735000  0.72216000  0.65306000  1.0
  C  C91  1  0.19252000  0.70219000  0.69961000  1.0
  C  C92  1  0.36829000  0.82334000  0.81013000  1.0
  C  C93  1  0.28882000  0.89158000  0.81179000  1.0
  C  C94  1  0.64891000  0.18775000  0.20000000  1.0
  C  C95  1  0.73280000  0.12413000  0.19694000  1.0
  I  I96  1  0.51833000  0.94624000  0.14398000  1.0
  I  I97  1  0.49188000  0.05780000  0.85137000  1.0
  I  I98  1  0.39249000  0.20294000  0.38642000  1.0
  I  I99  1  0.62670000  0.80268000  0.60965000  1.0
  I  I100  1  0.34137000  0.51646000  0.25584000  1.0
  I  I101  1  0.66221000  0.48655000  0.73940000  1.0
  N  N102  1  0.47742000  0.57186000  0.72248000  1.0
  N  N103  1  0.52768000  0.43163000  0.27149000  1.0
  O  O104  1  0.49744000  0.60843000  0.35571000  1.0
  O  O105  1  0.50068000  0.39575000  0.64381000  1.0
  O  O106  1  0.46630000  0.63276000  0.50149000  1.0
  O  O107  1  0.54676000  0.37552000  0.49722000  1.0
  O  O108  1  0.37640000  0.44468000  0.45611000  1.0
  O  O109  1  0.63144000  0.54548000  0.53472000  1.0
  O  O110  1  0.34206000  0.49242000  0.59414000  1.0
  O  O111  1  0.66103000  0.51229000  0.39068000  1.0
  O  O112  1  0.36555000  0.72910000  0.99309000  1.0
  O  O113  1  0.63058000  0.27363000  0.00320000  1.0
  O  O114  1  0.64272000  0.34160000  0.31949000  1.0
  O  O115  1  0.36187000  0.64962000  0.67112000  1.0
  O  O116  1  0.32270000  0.73595000  0.83204000  1.0
  O  O117  1  0.68675000  0.27472000  0.15513000  1.0
