# generated using pymatgen
data_CdH19C28(NO2)3
_symmetry_space_group_name_H-M   'P 1'
_cell_length_a   10.24500000
_cell_length_b   10.50740000
_cell_length_c   13.95710000
_cell_angle_alpha   89.29190000
_cell_angle_beta   70.45720000
_cell_angle_gamma   63.92270000
_symmetry_Int_Tables_number   1
_chemical_formula_structural   CdH19C28(NO2)3
_chemical_formula_sum   'Cd2 H38 C56 N6 O12'
_cell_volume   1255.56499186
_cell_formula_units_Z   2
loop_
 _symmetry_equiv_pos_site_id
 _symmetry_equiv_pos_as_xyz
  1  'x, y, z'
loop_
 _atom_site_type_symbol
 _atom_site_label
 _atom_site_symmetry_multiplicity
 _atom_site_fract_x
 _atom_site_fract_y
 _atom_site_fract_z
 _atom_site_occupancy
  Cd  Cd0  1  0.85132000  0.59900000  0.81772000  1.0
  Cd  Cd1  1  0.14868000  0.40100000  0.18228000  1.0
  H  H2  1  0.38854000  0.78161000  0.56890000  1.0
  H  H3  1  0.61146000  0.21839000  0.43110000  1.0
  H  H4  1  0.89345000  0.31021000  0.06997000  1.0
  H  H5  1  0.10655000  0.68979000  0.93003000  1.0
  H  H6  1  0.63446000  0.65235000  0.42327000  1.0
  H  H7  1  0.36555000  0.34765000  0.57673000  1.0
  H  H8  1  0.63093000  0.40305000  0.18245000  1.0
  H  H9  1  0.36907000  0.59695000  0.81755000  1.0
  H  H10  1  0.20682000  0.64477000  0.44083000  1.0
  H  H11  1  0.79318000  0.35523000  0.55917000  1.0
  H  H12  1  0.09919000  0.87393000  0.52789000  1.0
  H  H13  1  0.90081000  0.12606000  0.47211000  1.0
  H  H14  1  0.13098000  0.74744000  0.61358000  1.0
  H  H15  1  0.86902000  0.25256000  0.38642000  1.0
  H  H16  1  0.10161000  0.81243000  0.78377000  1.0
  H  H17  1  0.89839000  0.18757000  0.21623000  1.0
  H  H18  1  0.00539000  0.00184000  0.92805000  1.0
  H  H19  1  0.99461000  0.99816000  0.07195000  1.0
  H  H20  1  0.99228000  0.30876000  0.71815000  1.0
  H  H21  1  0.00772000  0.69125000  0.28186000  1.0
  H  H22  1  0.08775000  0.11832000  0.57382000  1.0
  H  H23  1  0.91225000  0.88168000  0.42618000  1.0
  H  H24  1  0.80561000  0.79841000  0.63441000  1.0
  H  H25  1  0.19439000  0.20159000  0.36559000  1.0
  H  H26  1  0.72446000  0.05715000  0.60881000  1.0
  H  H27  1  0.27554000  0.94286000  0.39119000  1.0
  H  H28  1  0.64227000  0.23944000  0.75916000  1.0
  H  H29  1  0.35773000  0.76056000  0.24084000  1.0
  H  H30  1  0.58775000  0.29675000  0.94679000  1.0
  H  H31  1  0.41225000  0.70325000  0.05322000  1.0
  H  H32  1  0.57934000  0.21561000  0.11343000  1.0
  H  H33  1  0.42066000  0.78439000  0.88657000  1.0
  H  H34  1  0.62101000  0.01617000  0.21918000  1.0
  H  H35  1  0.37900000  0.98383000  0.78082000  1.0
  H  H36  1  0.69647000  0.75570000  0.22821000  1.0
  H  H37  1  0.30353000  0.24429000  0.77179000  1.0
  H  H38  1  0.78208000  0.59009000  0.06668000  1.0
  H  H39  1  0.21793000  0.40991000  0.93332000  1.0
  C  C40  1  0.40724000  0.66927000  0.44226000  1.0
  C  C41  1  0.59276000  0.33073000  0.55774000  1.0
  C  C42  1  0.56954000  0.61633000  0.39220000  1.0
  C  C43  1  0.43046000  0.38367000  0.60779000  1.0
  C  C44  1  0.65047000  0.51921000  0.30034000  1.0
  C  C45  1  0.34953000  0.48079000  0.69965000  1.0
  C  C46  1  0.57051000  0.47330000  0.25643000  1.0
  C  C47  1  0.42949000  0.52670000  0.74357000  1.0
  C  C48  1  0.41100000  0.51924000  0.30873000  1.0
  C  C49  1  0.58900000  0.48076000  0.69127000  1.0
  C  C50  1  0.33022000  0.61426000  0.40202000  1.0
  C  C51  1  0.66978000  0.38574000  0.59798000  1.0
  C  C52  1  0.15978000  0.83297000  0.58229000  1.0
  C  C53  1  0.84022000  0.16703000  0.41771000  1.0
  C  C54  1  0.10157000  0.95169000  0.66876000  1.0
  C  C55  1  0.89843000  0.04831000  0.33124000  1.0
  C  C56  1  0.07877000  0.92087000  0.76906000  1.0
  C  C57  1  0.92123000  0.07913000  0.23094000  1.0
  C  C58  1  0.02351000  0.02811000  0.85077000  1.0
  C  C59  1  0.97649000  0.97189000  0.14923000  1.0
  C  C60  1  0.99039000  0.16891000  0.83393000  1.0
  C  C61  1  0.00961000  0.83110000  0.16607000  1.0
  C  C62  1  0.01522000  0.20049000  0.73327000  1.0
  C  C63  1  0.98478000  0.79951000  0.26673000  1.0
  C  C64  1  0.07019000  0.09239000  0.65170000  1.0
  C  C65  1  0.92981000  0.90762000  0.34830000  1.0
  C  C66  1  0.93433000  0.28147000  0.92212000  1.0
  C  C67  1  0.06567000  0.71852000  0.07789000  1.0
  C  C68  1  0.82242000  0.46988000  0.24780000  1.0
  C  C69  1  0.17758000  0.53012000  0.75220000  1.0
  C  C70  1  0.32175000  0.47273000  0.26365000  1.0
  C  C71  1  0.67825000  0.52727000  0.73635000  1.0
  C  C72  1  0.76739000  0.88240000  0.69766000  1.0
  C  C73  1  0.23260000  0.11760000  0.30234000  1.0
  C  C74  1  0.72341000  0.02618000  0.68382000  1.0
  C  C75  1  0.27659000  0.97382000  0.31618000  1.0
  C  C76  1  0.67683000  0.12700000  0.76708000  1.0
  C  C77  1  0.32317000  0.87300000  0.23292000  1.0
  C  C78  1  0.67233000  0.08461000  0.86398000  1.0
  C  C79  1  0.32767000  0.91539000  0.13602000  1.0
  C  C80  1  0.62339000  0.18368000  0.95338000  1.0
  C  C81  1  0.37661000  0.81632000  0.04662000  1.0
  C  C82  1  0.61991000  0.13811000  0.04577000  1.0
  C  C83  1  0.38008000  0.86189000  0.95423000  1.0
  C  C84  1  0.66294000  0.99101000  0.05621000  1.0
  C  C85  1  0.33706000  0.00899000  0.94379000  1.0
  C  C86  1  0.65754000  0.94080000  0.15109000  1.0
  C  C87  1  0.34246000  0.05920000  0.84891000  1.0
  C  C88  1  0.69855000  0.79772000  0.15633000  1.0
  C  C89  1  0.30146000  0.20228000  0.84367000  1.0
  C  C90  1  0.74588000  0.70431000  0.06634000  1.0
  C  C91  1  0.25413000  0.29569000  0.93366000  1.0
  C  C92  1  0.71178000  0.88911000  0.96931000  1.0
  C  C93  1  0.28822000  0.11089000  0.03069000  1.0
  C  C94  1  0.71763000  0.93695000  0.87100000  1.0
  C  C95  1  0.28237000  0.06305000  0.12900000  1.0
  N  N96  1  0.32669000  0.77850000  0.52612000  1.0
  N  N97  1  0.67332000  0.22150000  0.47388000  1.0
  N  N98  1  0.76494000  0.83962000  0.78818000  1.0
  N  N99  1  0.23506000  0.16038000  0.21183000  1.0
  N  N100  1  0.75183000  0.74893000  0.97607000  1.0
  N  N101  1  0.24817000  0.25106000  0.02393000  1.0
  O  O102  1  0.90802000  0.40751000  0.91475000  1.0
  O  O103  1  0.09198000  0.59250000  0.08526000  1.0
  O  O104  1  0.91750000  0.23439000  0.01200000  1.0
  O  O105  1  0.08250000  0.76561000  0.98800000  1.0
  O  O106  1  0.89020000  0.50995000  0.29339000  1.0
  O  O107  1  0.10980000  0.49005000  0.70661000  1.0
  O  O108  1  0.89692000  0.39019000  0.15965000  1.0
  O  O109  1  0.10308000  0.60981000  0.84035000  1.0
  O  O110  1  0.37189000  0.43988000  0.16594000  1.0
  O  O111  1  0.62811000  0.56012000  0.83406000  1.0
  O  O112  1  0.19805000  0.47065000  0.32418000  1.0
  O  O113  1  0.80195000  0.52935000  0.67582000  1.0
