# generated using pymatgen
data_CuH6C8(NCl)2
_symmetry_space_group_name_H-M   'P 1'
_cell_length_a   6.91334000
_cell_length_b   7.59466932
_cell_length_c   9.32387000
_cell_angle_alpha   104.61894565
_cell_angle_beta   90.04000000
_cell_angle_gamma   117.01481681
_symmetry_Int_Tables_number   1
_chemical_formula_structural   CuH6C8(NCl)2
_chemical_formula_sum   'Cu2 H12 C16 N4 Cl4'
_cell_volume   418.21692243
_cell_formula_units_Z   2
loop_
 _symmetry_equiv_pos_site_id
 _symmetry_equiv_pos_as_xyz
  1  'x, y, z'
loop_
 _atom_site_type_symbol
 _atom_site_label
 _atom_site_symmetry_multiplicity
 _atom_site_fract_x
 _atom_site_fract_y
 _atom_site_fract_z
 _atom_site_occupancy
  Cu  Cu0  1  0.03792000  0.07680000  0.33142000  1.0
  Cu  Cu1  1  0.96209000  0.92321000  0.66858000  1.0
  H  H2  1  0.83638000  0.31313000  0.50804000  1.0
  H  H3  1  0.52437000  0.68698000  0.49198000  1.0
  H  H4  1  0.16363000  0.68685000  0.49196000  1.0
  H  H5  1  0.47565000  0.31301000  0.50802000  1.0
  H  H6  1  0.46834000  0.57693000  0.86626000  1.0
  H  H7  1  0.89252000  0.42320000  0.13363000  1.0
  H  H8  1  0.53167000  0.42312000  0.13372000  1.0
  H  H9  1  0.10746000  0.57679000  0.86637000  1.0
  H  H10  1  0.76304000  0.80611000  0.07695000  1.0
  H  H11  1  0.95785000  0.19394000  0.92265000  1.0
  H  H12  1  0.23699000  0.19395000  0.92302000  1.0
  H  H13  1  0.04215000  0.80605000  0.07735000  1.0
  C  C14  1  0.70325000  0.20348000  0.41885000  1.0
  C  C15  1  0.50075000  0.79661000  0.58114000  1.0
  C  C16  1  0.29675000  0.79651000  0.58116000  1.0
  C  C17  1  0.49925000  0.20337000  0.41888000  1.0
  C  C18  1  0.43901000  0.67484000  0.96138000  1.0
  C  C19  1  0.76510000  0.32523000  0.03856000  1.0
  C  C20  1  0.56098000  0.32515000  0.03860000  1.0
  C  C21  1  0.23488000  0.67476000  0.96145000  1.0
  C  C22  1  0.60394000  0.80230000  0.07868000  1.0
  C  C23  1  0.80253000  0.19775000  0.92124000  1.0
  C  C24  1  0.39604000  0.19770000  0.92131000  1.0
  C  C25  1  0.19746000  0.80225000  0.07877000  1.0
  C  C26  1  0.57162000  0.93541000  0.20046000  1.0
  C  C27  1  0.63701000  0.06467000  0.79952000  1.0
  C  C28  1  0.42837000  0.06459000  0.79954000  1.0
  C  C29  1  0.36298000  0.93532000  0.20048000  1.0
  N  N30  1  0.73734000  0.06938000  0.31454000  1.0
  N  N31  1  0.66883000  0.93070000  0.68544000  1.0
  N  N32  1  0.26267000  0.93062000  0.68546000  1.0
  N  N33  1  0.33117000  0.06928000  0.31457000  1.0
  Cl  Cl34  1  0.87690000  0.75384000  0.36773000  1.0
  Cl  Cl35  1  0.12311000  0.24617000  0.63228000  1.0
  Cl  Cl36  1  0.18904000  0.37839000  0.27139000  1.0
  Cl  Cl37  1  0.81098000  0.62162000  0.72860000  1.0
