# generated using pymatgen
data_CdH15C18BrN12
_symmetry_space_group_name_H-M   'P 1'
_cell_length_a   10.97020000
_cell_length_b   10.97020000
_cell_length_c   11.04880000
_cell_angle_alpha   64.41850000
_cell_angle_beta   64.41860000
_cell_angle_gamma   69.80240000
_symmetry_Int_Tables_number   1
_chemical_formula_structural   CdH15C18BrN12
_chemical_formula_sum   'Cd2 H30 C36 Br2 N24'
_cell_volume   1060.94815004
_cell_formula_units_Z   2
loop_
 _symmetry_equiv_pos_site_id
 _symmetry_equiv_pos_as_xyz
  1  'x, y, z'
loop_
 _atom_site_type_symbol
 _atom_site_label
 _atom_site_symmetry_multiplicity
 _atom_site_fract_x
 _atom_site_fract_y
 _atom_site_fract_z
 _atom_site_occupancy
  Cd  Cd0  1  0.62949000  0.36543000  0.74190000  1.0
  Cd  Cd1  1  0.36543000  0.62949000  0.24190000  1.0
  H  H2  1  0.23806000  0.78083000  0.49228000  1.0
  H  H3  1  0.78083000  0.23806000  0.99228000  1.0
  H  H4  1  0.08599000  0.97701000  0.67585000  1.0
  H  H5  1  0.97701000  0.08599000  0.17585000  1.0
  H  H6  1  0.90450000  0.44518000  0.44198000  1.0
  H  H7  1  0.44518000  0.90450000  0.94198000  1.0
  H  H8  1  0.04472000  0.51292000  0.18576000  1.0
  H  H9  1  0.51292000  0.04472000  0.68576000  1.0
  H  H10  1  0.93562000  0.61101000  0.99873000  1.0
  H  H11  1  0.61101000  0.93562000  0.49873000  1.0
  H  H12  1  0.68312000  0.65136000  0.06172000  1.0
  H  H13  1  0.65136000  0.68312000  0.56172000  1.0
  H  H14  1  0.28507000  0.48120000  0.57249000  1.0
  H  H15  1  0.48120000  0.28507000  0.07249000  1.0
  H  H16  1  0.36831000  0.40146000  0.70346000  1.0
  H  H17  1  0.40146000  0.36831000  0.20346000  1.0
  H  H18  1  0.86978000  0.46095000  0.78203000  1.0
  H  H19  1  0.46095000  0.86978000  0.28204000  1.0
  H  H20  1  0.06206000  0.42414000  0.86344000  1.0
  H  H21  1  0.42414000  0.06206000  0.36344000  1.0
  H  H22  1  0.25086000  0.21850000  0.85879000  1.0
  H  H23  1  0.21850000  0.25086000  0.35879000  1.0
  H  H24  1  0.25586000  0.04368000  0.76868000  1.0
  H  H25  1  0.04368000  0.25585000  0.26868000  1.0
  H  H26  1  0.71628000  0.10826000  0.67730000  1.0
  H  H27  1  0.10825000  0.71627000  0.17730000  1.0
  H  H28  1  0.84284000  0.13679000  0.50484000  1.0
  H  H29  1  0.13679000  0.84284000  0.00484000  1.0
  H  H30  1  0.91097000  0.90752000  0.44893000  1.0
  H  H31  1  0.90752000  0.91097000  0.94893000  1.0
  C  C32  1  0.23636000  0.73988000  0.60125000  1.0
  C  C33  1  0.73988000  0.23636000  0.10125000  1.0
  C  C34  1  0.71317000  0.50461000  0.39673000  1.0
  C  C35  1  0.50461000  0.71317000  0.89673000  1.0
  C  C36  1  0.85567000  0.48653000  0.36112000  1.0
  C  C37  1  0.48653000  0.85567000  0.86112000  1.0
  C  C38  1  0.93338000  0.52577000  0.21687000  1.0
  C  C39  1  0.52577000  0.93338000  0.71687000  1.0
  C  C40  1  0.87173000  0.58226000  0.11059000  1.0
  C  C41  1  0.58225000  0.87173000  0.61059000  1.0
  C  C42  1  0.72974000  0.60439000  0.14496000  1.0
  C  C43  1  0.60438000  0.72974000  0.64496000  1.0
  C  C44  1  0.65061000  0.56535000  0.28964000  1.0
  C  C45  1  0.56535000  0.65061000  0.78965000  1.0
  C  C46  1  0.49137000  0.51337000  0.49803000  1.0
  C  C47  1  0.51337000  0.49137000  0.99803000  1.0
  C  C48  1  0.35497000  0.49355000  0.61214000  1.0
  C  C49  1  0.49355000  0.35497000  0.11214000  1.0
  C  C50  1  0.94994000  0.26690000  0.73878000  1.0
  C  C51  1  0.26690000  0.94994000  0.23878000  1.0
  C  C52  1  0.95056000  0.36887000  0.78246000  1.0
  C  C53  1  0.36887000  0.95056000  0.28246000  1.0
  C  C54  1  0.05978000  0.34781000  0.82639000  1.0
  C  C55  1  0.34781000  0.05977000  0.32639000  1.0
  C  C56  1  0.16712000  0.23114000  0.82344000  1.0
  C  C57  1  0.23114000  0.16712000  0.32344000  1.0
  C  C58  1  0.17066000  0.13172000  0.77455000  1.0
  C  C59  1  0.13172000  0.17066000  0.27455000  1.0
  C  C60  1  0.05992000  0.15178000  0.73274000  1.0
  C  C61  1  0.15179000  0.05992000  0.23274000  1.0
  C  C62  1  0.90257000  0.13632000  0.66745000  1.0
  C  C63  1  0.13633000  0.90257000  0.16745000  1.0
  C  C64  1  0.82753000  0.08483000  0.61918000  1.0
  C  C65  1  0.08483000  0.82753000  0.11919000  1.0
  C  C66  1  0.90527000  0.86395000  0.55956000  1.0
  C  C67  1  0.86395000  0.90527000  0.05956000  1.0
  Br  Br68  1  0.49180000  0.17017000  0.89859000  1.0
  Br  Br69  1  0.17016000  0.49180000  0.39859000  1.0
  N  N70  1  0.60939000  0.47262000  0.52753000  1.0
  N  N71  1  0.47262000  0.60939000  0.02754000  1.0
  N  N72  1  0.50966000  0.57137000  0.35730000  1.0
  N  N73  1  0.57137000  0.50966000  0.85730000  1.0
  N  N74  1  0.28665000  0.60887000  0.66775000  1.0
  N  N75  1  0.60887000  0.28665000  0.16775000  1.0
  N  N76  1  0.18590000  0.80894000  0.69116000  1.0
  N  N77  1  0.80894000  0.18590000  0.19116000  1.0
  N  N78  1  0.20531000  0.71656000  0.81554000  1.0
  N  N79  1  0.71656000  0.20531000  0.31554000  1.0
  N  N80  1  0.85239000  0.25278000  0.69885000  1.0
  N  N81  1  0.25278000  0.85239000  0.19885000  1.0
  N  N82  1  0.02716000  0.07332000  0.68478000  1.0
  N  N83  1  0.07332000  0.02716000  0.18478000  1.0
  N  N84  1  0.86930000  0.93718000  0.64578000  1.0
  N  N85  1  0.93718000  0.86930000  0.14578000  1.0
  N  N86  1  0.86564000  0.84732000  0.77796000  1.0
  N  N87  1  0.84732000  0.86564000  0.27796000  1.0
  N  N88  1  0.90074000  0.72459000  0.76897000  1.0
  N  N89  1  0.72459000  0.90074000  0.26897000  1.0
  N  N90  1  0.92609000  0.73096000  0.63458000  1.0
  N  N91  1  0.73096000  0.92609000  0.13458000  1.0
  N  N92  1  0.26627000  0.59579000  0.80282000  1.0
  N  N93  1  0.59579000  0.26627000  0.30282000  1.0
