# generated using pymatgen
data_CuH9C11N4
_symmetry_space_group_name_H-M   'P 1'
_cell_length_a   10.52810000
_cell_length_b   10.87300000
_cell_length_c   13.10010000
_cell_angle_alpha   89.99890000
_cell_angle_beta   74.85500000
_cell_angle_gamma   89.99930000
_symmetry_Int_Tables_number   1
_chemical_formula_structural   CuH9C11N4
_chemical_formula_sum   'Cu4 H36 C44 N16'
_cell_volume   1447.51072155
_cell_formula_units_Z   4
loop_
 _symmetry_equiv_pos_site_id
 _symmetry_equiv_pos_as_xyz
  1  'x, y, z'
loop_
 _atom_site_type_symbol
 _atom_site_label
 _atom_site_symmetry_multiplicity
 _atom_site_fract_x
 _atom_site_fract_y
 _atom_site_fract_z
 _atom_site_occupancy
  Cu  Cu0  1  0.42435000  0.40989000  0.53497000  1.0
  Cu  Cu1  1  0.57565000  0.90989000  0.96503000  1.0
  Cu  Cu2  1  0.57566000  0.59011000  0.46503000  1.0
  Cu  Cu3  1  0.42434000  0.09011000  0.03497000  1.0
  H  H4  1  0.93082000  0.31090000  0.72582000  1.0
  H  H5  1  0.06916000  0.81088000  0.77419000  1.0
  H  H6  1  0.06919000  0.68911000  0.27417000  1.0
  H  H7  1  0.93082000  0.18910000  0.22582000  1.0
  H  H8  1  0.16429000  0.32028000  0.61918000  1.0
  H  H9  1  0.83569000  0.82027000  0.88085000  1.0
  H  H10  1  0.83572000  0.67972000  0.38083000  1.0
  H  H11  1  0.16429000  0.17971000  0.11917000  1.0
  H  H12  1  0.10538000  0.70793000  0.57411000  1.0
  H  H13  1  0.89461000  0.20793000  0.92589000  1.0
  H  H14  1  0.89464000  0.29207000  0.42588000  1.0
  H  H15  1  0.10537000  0.79207000  0.07411000  1.0
  H  H16  1  0.87644000  0.68252000  0.68141000  1.0
  H  H17  1  0.12355000  0.18250000  0.81858000  1.0
  H  H18  1  0.12357000  0.31748000  0.31856000  1.0
  H  H19  1  0.87643000  0.81748000  0.18141000  1.0
  H  H20  1  0.23494000  0.64270000  0.41422000  1.0
  H  H21  1  0.76505000  0.14270000  0.08579000  1.0
  H  H22  1  0.76507000  0.35730000  0.58578000  1.0
  H  H23  1  0.23493000  0.85730000  0.91421000  1.0
  H  H24  1  0.38980000  0.70555000  0.06191000  1.0
  H  H25  1  0.61024000  0.20558000  0.43807000  1.0
  H  H26  1  0.61021000  0.29444000  0.93808000  1.0
  H  H27  1  0.38977000  0.79443000  0.56193000  1.0
  H  H28  1  0.31644000  0.60046000  0.23610000  1.0
  H  H29  1  0.68358000  0.10047000  0.26388000  1.0
  H  H30  1  0.68358000  0.39954000  0.76390000  1.0
  H  H31  1  0.31642000  0.89953000  0.73611000  1.0
  H  H32  1  0.63313000  0.78901000  0.32728000  1.0
  H  H33  1  0.36686000  0.28901000  0.17273000  1.0
  H  H34  1  0.36687000  0.21101000  0.67272000  1.0
  H  H35  1  0.63314000  0.71099000  0.82728000  1.0
  H  H36  1  0.69168000  0.88618000  0.14889000  1.0
  H  H37  1  0.30832000  0.38618000  0.35111000  1.0
  H  H38  1  0.30832000  0.11384000  0.85111000  1.0
  H  H39  1  0.69167000  0.61382000  0.64890000  1.0
  C  C40  1  0.97256000  0.39807000  0.69061000  1.0
  C  C41  1  0.02742000  0.89806000  0.80941000  1.0
  C  C42  1  0.02745000  0.60193000  0.30938000  1.0
  C  C43  1  0.97256000  0.10193000  0.19060000  1.0
  C  C44  1  0.10277000  0.40263000  0.63114000  1.0
  C  C45  1  0.89721000  0.90262000  0.86888000  1.0
  C  C46  1  0.89724000  0.59737000  0.36886000  1.0
  C  C47  1  0.10277000  0.09736000  0.13114000  1.0
  C  C48  1  0.15481000  0.51446000  0.58365000  1.0
  C  C49  1  0.84518000  0.01445000  0.91636000  1.0
  C  C50  1  0.84520000  0.48555000  0.41635000  1.0
  C  C51  1  0.15481000  0.98554000  0.08365000  1.0
  C  C52  1  0.07016000  0.61721000  0.60395000  1.0
  C  C53  1  0.92983000  0.11720000  0.89606000  1.0
  C  C54  1  0.92985000  0.38279000  0.39604000  1.0
  C  C55  1  0.07016000  0.88278000  0.10395000  1.0
  C  C56  1  0.94184000  0.60270000  0.66545000  1.0
  C  C57  1  0.05815000  0.10268000  0.83455000  1.0
  C  C58  1  0.05816000  0.39731000  0.33454000  1.0
  C  C59  1  0.94184000  0.89730000  0.16545000  1.0
  C  C60  1  0.31422000  0.60107000  0.44293000  1.0
  C  C61  1  0.68577000  0.10108000  0.05708000  1.0
  C  C62  1  0.68579000  0.39893000  0.55707000  1.0
  C  C63  1  0.31422000  0.89892000  0.94293000  1.0
  C  C64  1  0.44078000  0.72198000  0.12337000  1.0
  C  C65  1  0.55925000  0.22200000  0.37661000  1.0
  C  C66  1  0.55924000  0.27802000  0.87662000  1.0
  C  C67  1  0.44075000  0.77801000  0.62339000  1.0
  C  C68  1  0.39898000  0.66497000  0.22109000  1.0
  C  C69  1  0.60103000  0.16499000  0.27891000  1.0
  C  C70  1  0.60103000  0.33503000  0.77891000  1.0
  C  C71  1  0.39897000  0.83502000  0.72110000  1.0
  C  C72  1  0.46867000  0.68707000  0.29796000  1.0
  C  C73  1  0.53133000  0.18708000  0.20204000  1.0
  C  C74  1  0.53134000  0.31293000  0.70205000  1.0
  C  C75  1  0.46866000  0.81292000  0.79795000  1.0
  C  C76  1  0.57705000  0.76776000  0.27013000  1.0
  C  C77  1  0.42295000  0.26776000  0.22987000  1.0
  C  C78  1  0.42297000  0.23226000  0.72986000  1.0
  C  C79  1  0.57703000  0.73225000  0.77013000  1.0
  C  C80  1  0.61020000  0.82123000  0.17092000  1.0
  C  C81  1  0.38981000  0.32124000  0.32909000  1.0
  C  C82  1  0.38980000  0.17878000  0.82908000  1.0
  C  C83  1  0.61019000  0.67877000  0.67092000  1.0
  N  N84  1  0.89052000  0.49552000  0.70841000  1.0
  N  N85  1  0.10946000  0.99551000  0.79160000  1.0
  N  N86  1  0.10949000  0.50449000  0.29157000  1.0
  N  N87  1  0.89051000  0.00448000  0.20841000  1.0
  N  N88  1  0.28426000  0.52092000  0.52275000  1.0
  N  N89  1  0.71573000  0.02092000  0.97726000  1.0
  N  N90  1  0.71576000  0.47908000  0.47725000  1.0
  N  N91  1  0.28425000  0.97908000  0.02275000  1.0
  N  N92  1  0.43885000  0.62969000  0.39591000  1.0
  N  N93  1  0.56114000  0.12969000  0.10409000  1.0
  N  N94  1  0.56115000  0.37032000  0.60409000  1.0
  N  N95  1  0.43885000  0.87030000  0.89591000  1.0
  N  N96  1  0.54477000  0.79890000  0.09684000  1.0
  N  N97  1  0.45525000  0.29892000  0.40315000  1.0
  N  N98  1  0.45523000  0.20110000  0.90315000  1.0
  N  N99  1  0.54475000  0.70109000  0.59685000  1.0
