# generated using pymatgen
data_Cu2H5C4IN3
_symmetry_space_group_name_H-M   'P 1'
_cell_length_a   8.51119000
_cell_length_b   12.70830000
_cell_length_c   12.70840000
_cell_angle_alpha   90.00010000
_cell_angle_beta   90.00020000
_cell_angle_gamma   89.99990000
_symmetry_Int_Tables_number   1
_chemical_formula_structural   Cu2H5C4IN3
_chemical_formula_sum   'Cu16 H40 C32 I8 N24'
_cell_volume   1374.57556677
_cell_formula_units_Z   8
loop_
 _symmetry_equiv_pos_site_id
 _symmetry_equiv_pos_as_xyz
  1  'x, y, z'
loop_
 _atom_site_type_symbol
 _atom_site_label
 _atom_site_symmetry_multiplicity
 _atom_site_fract_x
 _atom_site_fract_y
 _atom_site_fract_z
 _atom_site_occupancy
  Cu  Cu0  1  0.63782000  0.66755000  0.19231000  1.0
  Cu  Cu1  1  0.63782000  0.83245000  0.30770000  1.0
  Cu  Cu2  1  0.13782000  0.19230000  0.83245000  1.0
  Cu  Cu3  1  0.13782000  0.30769000  0.66755000  1.0
  Cu  Cu4  1  0.36218000  0.33245000  0.80770000  1.0
  Cu  Cu5  1  0.36217000  0.16755000  0.69231000  1.0
  Cu  Cu6  1  0.86217000  0.80770000  0.16755000  1.0
  Cu  Cu7  1  0.86218000  0.69231000  0.33245000  1.0
  Cu  Cu8  1  0.65699000  0.44609000  0.34867000  1.0
  Cu  Cu9  1  0.65699000  0.05391000  0.15132000  1.0
  Cu  Cu10  1  0.15699000  0.34867000  0.05390000  1.0
  Cu  Cu11  1  0.15700000  0.15133000  0.44609000  1.0
  Cu  Cu12  1  0.34301000  0.55391000  0.65132000  1.0
  Cu  Cu13  1  0.34301000  0.94610000  0.84868000  1.0
  Cu  Cu14  1  0.84300000  0.65133000  0.94610000  1.0
  Cu  Cu15  1  0.84301000  0.84867000  0.55391000  1.0
  H  H16  1  0.38274000  0.66949000  0.02271000  1.0
  H  H17  1  0.38275000  0.83051000  0.47729000  1.0
  H  H18  1  0.88274000  0.02271000  0.83051000  1.0
  H  H19  1  0.88274000  0.47729000  0.66949000  1.0
  H  H20  1  0.61726000  0.33051000  0.97729000  1.0
  H  H21  1  0.61726000  0.16949000  0.52272000  1.0
  H  H22  1  0.11726000  0.97729000  0.16949000  1.0
  H  H23  1  0.11726000  0.52272000  0.33051000  1.0
  H  H24  1  0.19214000  0.61117000  0.03011000  1.0
  H  H25  1  0.19215000  0.88883000  0.46988000  1.0
  H  H26  1  0.69214000  0.03012000  0.88883000  1.0
  H  H27  1  0.69214000  0.46988000  0.61117000  1.0
  H  H28  1  0.80785000  0.38883000  0.96989000  1.0
  H  H29  1  0.80786000  0.11117000  0.53012000  1.0
  H  H30  1  0.30786000  0.96988000  0.11117000  1.0
  H  H31  1  0.30786000  0.53012000  0.38883000  1.0
  H  H32  1  0.33456000  0.55650000  0.94467000  1.0
  H  H33  1  0.33457000  0.94350000  0.55534000  1.0
  H  H34  1  0.83456000  0.94467000  0.94350000  1.0
  H  H35  1  0.83456000  0.55533000  0.55650000  1.0
  H  H36  1  0.66544000  0.44350000  0.05534000  1.0
  H  H37  1  0.66544000  0.05650000  0.44467000  1.0
  H  H38  1  0.16544000  0.05533000  0.05650000  1.0
  H  H39  1  0.16544000  0.44467000  0.44350000  1.0
  H  H40  1  0.45102000  0.29936000  0.34188000  1.0
  H  H41  1  0.45102000  0.20064000  0.15812000  1.0
  H  H42  1  0.95101000  0.34188000  0.20064000  1.0
  H  H43  1  0.95102000  0.15812000  0.29935000  1.0
  H  H44  1  0.54898000  0.70064000  0.65812000  1.0
  H  H45  1  0.54898000  0.79935000  0.84188000  1.0
  H  H46  1  0.04898000  0.65812000  0.79935000  1.0
  H  H47  1  0.04898000  0.84188000  0.70064000  1.0
  H  H48  1  0.24724000  0.31018000  0.32415000  1.0
  H  H49  1  0.24725000  0.18981000  0.17584000  1.0
  H  H50  1  0.74724000  0.32416000  0.18982000  1.0
  H  H51  1  0.74725000  0.17584000  0.31018000  1.0
  H  H52  1  0.75275000  0.68982000  0.67584000  1.0
  H  H53  1  0.75275000  0.81018000  0.82416000  1.0
  H  H54  1  0.25275000  0.67585000  0.81019000  1.0
  H  H55  1  0.25276000  0.82416000  0.68982000  1.0
  C  C56  1  0.37225000  0.52581000  0.10714000  1.0
  C  C57  1  0.37226000  0.97419000  0.39286000  1.0
  C  C58  1  0.87225000  0.10714000  0.97418000  1.0
  C  C59  1  0.87225000  0.39286000  0.52581000  1.0
  C  C60  1  0.62775000  0.47419000  0.89286000  1.0
  C  C61  1  0.62775000  0.02581000  0.60714000  1.0
  C  C62  1  0.12775000  0.89286000  0.02581000  1.0
  C  C63  1  0.12775000  0.60714000  0.47418000  1.0
  C  C64  1  0.38878000  0.39601000  0.21613000  1.0
  C  C65  1  0.38878000  0.10399000  0.28387000  1.0
  C  C66  1  0.88878000  0.21613000  0.10399000  1.0
  C  C67  1  0.88879000  0.28387000  0.39601000  1.0
  C  C68  1  0.61122000  0.60399000  0.78387000  1.0
  C  C69  1  0.61122000  0.89600000  0.71614000  1.0
  C  C70  1  0.11121000  0.78387000  0.89601000  1.0
  C  C71  1  0.11122000  0.71613000  0.60399000  1.0
  C  C72  1  0.31819000  0.59498000  0.02116000  1.0
  C  C73  1  0.31820000  0.90502000  0.47884000  1.0
  C  C74  1  0.81819000  0.02117000  0.90502000  1.0
  C  C75  1  0.81820000  0.47884000  0.59498000  1.0
  C  C76  1  0.68180000  0.40502000  0.97884000  1.0
  C  C77  1  0.68181000  0.09498000  0.52117000  1.0
  C  C78  1  0.18180000  0.97883000  0.09498000  1.0
  C  C79  1  0.18181000  0.52117000  0.40502000  1.0
  C  C80  1  0.35890000  0.30133000  0.28108000  1.0
  C  C81  1  0.35890000  0.19867000  0.21892000  1.0
  C  C82  1  0.85890000  0.28108000  0.19867000  1.0
  C  C83  1  0.85890000  0.21892000  0.30133000  1.0
  C  C84  1  0.64110000  0.69867000  0.71892000  1.0
  C  C85  1  0.64110000  0.80133000  0.78108000  1.0
  C  C86  1  0.14110000  0.71892000  0.80133000  1.0
  C  C87  1  0.14110000  0.78108000  0.69867000  1.0
  I  I88  1  0.58305000  0.66611000  0.42264000  1.0
  I  I89  1  0.58306000  0.83389000  0.07735000  1.0
  I  I90  1  0.08306000  0.42264000  0.83389000  1.0
  I  I91  1  0.08305000  0.07736000  0.66611000  1.0
  I  I92  1  0.41695000  0.33389000  0.57736000  1.0
  I  I93  1  0.41694000  0.16611000  0.92264000  1.0
  I  I94  1  0.91695000  0.57736000  0.16611000  1.0
  I  I95  1  0.91695000  0.92264000  0.33389000  1.0
  N  N96  1  0.48816000  0.54892000  0.17431000  1.0
  N  N97  1  0.48817000  0.95108000  0.32569000  1.0
  N  N98  1  0.98816000  0.17431000  0.95108000  1.0
  N  N99  1  0.98817000  0.32569000  0.54892000  1.0
  N  N100  1  0.51184000  0.45108000  0.82569000  1.0
  N  N101  1  0.51183000  0.04892000  0.67431000  1.0
  N  N102  1  0.01183000  0.82569000  0.04892000  1.0
  N  N103  1  0.01183000  0.67431000  0.45108000  1.0
  N  N104  1  0.50004000  0.46526000  0.24289000  1.0
  N  N105  1  0.50004000  0.03474000  0.25711000  1.0
  N  N106  1  0.00003000  0.24289000  0.03474000  1.0
  N  N107  1  0.00004000  0.25711000  0.46526000  1.0
  N  N108  1  0.49996000  0.53474000  0.75711000  1.0
  N  N109  1  0.49996000  0.96526000  0.74289000  1.0
  N  N110  1  0.99996000  0.75711000  0.96526000  1.0
  N  N111  1  0.99997000  0.74289000  0.53474000  1.0
  N  N112  1  0.30785000  0.42950000  0.12987000  1.0
  N  N113  1  0.30785000  0.07050000  0.37013000  1.0
  N  N114  1  0.80785000  0.12987000  0.07050000  1.0
  N  N115  1  0.80785000  0.37013000  0.42950000  1.0
  N  N116  1  0.69215000  0.57050000  0.87013000  1.0
  N  N117  1  0.69215000  0.92950000  0.62987000  1.0
  N  N118  1  0.19215000  0.87013000  0.92950000  1.0
  N  N119  1  0.19215000  0.62987000  0.57050000  1.0
