# generated using pymatgen
data_CdH5C5I2NO
_symmetry_space_group_name_H-M   'P 1'
_cell_length_a   6.91316000
_cell_length_b   10.98830000
_cell_length_c   13.40170000
_cell_angle_alpha   72.52600000
_cell_angle_beta   89.98630000
_cell_angle_gamma   89.98880000
_symmetry_Int_Tables_number   1
_chemical_formula_structural   CdH5C5I2NO
_chemical_formula_sum   'Cd4 H20 C20 I8 N4 O4'
_cell_volume   971.06562934
_cell_formula_units_Z   4
loop_
 _symmetry_equiv_pos_site_id
 _symmetry_equiv_pos_as_xyz
  1  'x, y, z'
loop_
 _atom_site_type_symbol
 _atom_site_label
 _atom_site_symmetry_multiplicity
 _atom_site_fract_x
 _atom_site_fract_y
 _atom_site_fract_z
 _atom_site_occupancy
  Cd  Cd0  1  0.75495000  0.07788000  0.94658000  1.0
  Cd  Cd1  1  0.25495000  0.92218000  0.55340000  1.0
  Cd  Cd2  1  0.24502000  0.92211000  0.05344000  1.0
  Cd  Cd3  1  0.74502000  0.07782000  0.44662000  1.0
  H  H4  1  0.50209000  0.19584000  0.16951000  1.0
  H  H5  1  0.00216000  0.80420000  0.33050000  1.0
  H  H6  1  0.49795000  0.80414000  0.83050000  1.0
  H  H7  1  0.99785000  0.19581000  0.66950000  1.0
  H  H8  1  0.38901000  0.41454000  0.16990000  1.0
  H  H9  1  0.88898000  0.58547000  0.33015000  1.0
  H  H10  1  0.61099000  0.58546000  0.83008000  1.0
  H  H11  1  0.11103000  0.41455000  0.66984000  1.0
  H  H12  1  0.19467000  0.54631000  0.01805000  1.0
  H  H13  1  0.69460000  0.45355000  0.48191000  1.0
  H  H14  1  0.80532000  0.45370000  0.98193000  1.0
  H  H15  1  0.30541000  0.54646000  0.51807000  1.0
  H  H16  1  0.11572000  0.45345000  0.87171000  1.0
  H  H17  1  0.61578000  0.54648000  0.62819000  1.0
  H  H18  1  0.88424000  0.54655000  0.12827000  1.0
  H  H19  1  0.38421000  0.45350000  0.37181000  1.0
  H  H20  1  0.24275000  0.23379000  0.88332000  1.0
  H  H21  1  0.74275000  0.76614000  0.61667000  1.0
  H  H22  1  0.75724000  0.76619000  0.11669000  1.0
  H  H23  1  0.25724000  0.23384000  0.38336000  1.0
  C  C24  1  0.41650000  0.25871000  0.10694000  1.0
  C  C25  1  0.91650000  0.74132000  0.39306000  1.0
  C  C26  1  0.58352000  0.74127000  0.89307000  1.0
  C  C27  1  0.08351000  0.25871000  0.60695000  1.0
  C  C28  1  0.35120000  0.37834000  0.10518000  1.0
  C  C29  1  0.85124000  0.62168000  0.39484000  1.0
  C  C30  1  0.64880000  0.62167000  0.89479000  1.0
  C  C31  1  0.14878000  0.37835000  0.60515000  1.0
  C  C32  1  0.24317000  0.45117000  0.02034000  1.0
  C  C33  1  0.74318000  0.54872000  0.47962000  1.0
  C  C34  1  0.75681000  0.54885000  0.97965000  1.0
  C  C35  1  0.25680000  0.45128000  0.52037000  1.0
  C  C36  1  0.20050000  0.40047000  0.93924000  1.0
  C  C37  1  0.70056000  0.59952000  0.56070000  1.0
  C  C38  1  0.79944000  0.59953000  0.06076000  1.0
  C  C39  1  0.29943000  0.40048000  0.43931000  1.0
  C  C40  1  0.26825000  0.28050000  0.94306000  1.0
  C  C41  1  0.76817000  0.71949000  0.55690000  1.0
  C  C42  1  0.73181000  0.71950000  0.05695000  1.0
  C  C43  1  0.23182000  0.28051000  0.44310000  1.0
  I  I44  1  0.05844000  0.95261000  0.85758000  1.0
  I  I45  1  0.55851000  0.04740000  0.64242000  1.0
  I  I46  1  0.94152000  0.04736000  0.14243000  1.0
  I  I47  1  0.44149000  0.95261000  0.35759000  1.0
  I  I48  1  0.72325000  0.31723000  0.80501000  1.0
  I  I49  1  0.22325000  0.68273000  0.69500000  1.0
  I  I50  1  0.27677000  0.68278000  0.19496000  1.0
  I  I51  1  0.77677000  0.31726000  0.30500000  1.0
  N  N52  1  0.37485000  0.21265000  0.02618000  1.0
  N  N53  1  0.87483000  0.78737000  0.47381000  1.0
  N  N54  1  0.62517000  0.78732000  0.97383000  1.0
  N  N55  1  0.12515000  0.21263000  0.52619000  1.0
  O  O56  1  0.44363000  0.09800000  0.02887000  1.0
  O  O57  1  0.94367000  0.90201000  0.47115000  1.0
  O  O58  1  0.55640000  0.90200000  0.97113000  1.0
  O  O59  1  0.05636000  0.09802000  0.52887000  1.0
