# generated using pymatgen
data_CuH10(C2O)4
_symmetry_space_group_name_H-M   'P 1'
_cell_length_a   5.14624000
_cell_length_b   9.90560000
_cell_length_c   10.77970000
_cell_angle_alpha   76.71780000
_cell_angle_beta   80.01410000
_cell_angle_gamma   85.78040000
_symmetry_Int_Tables_number   1
_chemical_formula_structural   CuH10(C2O)4
_chemical_formula_sum   'Cu2 H20 C16 O8'
_cell_volume   526.38451444
_cell_formula_units_Z   2
loop_
 _symmetry_equiv_pos_site_id
 _symmetry_equiv_pos_as_xyz
  1  'x, y, z'
loop_
 _atom_site_type_symbol
 _atom_site_label
 _atom_site_symmetry_multiplicity
 _atom_site_fract_x
 _atom_site_fract_y
 _atom_site_fract_z
 _atom_site_occupancy
  Cu  Cu0  1  0.20454000  0.06961000  0.48266000  1.0
  Cu  Cu1  1  0.79546000  0.93039000  0.51734000  1.0
  H  H2  1  0.68285000  0.96462000  0.92580000  1.0
  H  H3  1  0.31714000  0.03538000  0.07420000  1.0
  H  H4  1  0.13967000  0.16395000  0.86232000  1.0
  H  H5  1  0.86033000  0.83605000  0.13768000  1.0
  H  H6  1  0.80112000  0.21386000  0.87316000  1.0
  H  H7  1  0.19888000  0.78613000  0.12684000  1.0
  H  H8  1  0.27922000  0.90139000  0.89167000  1.0
  H  H9  1  0.72077000  0.09861000  0.10833000  1.0
  H  H10  1  0.02994000  0.77842000  0.92454000  1.0
  H  H11  1  0.97006000  0.22157000  0.07546000  1.0
  H  H12  1  0.38819000  0.35292000  0.42281000  1.0
  H  H13  1  0.61181000  0.64708000  0.57720000  1.0
  H  H14  1  0.88533000  0.50891000  0.41773000  1.0
  H  H15  1  0.11467000  0.49109000  0.58228000  1.0
  H  H16  1  0.75311000  0.49442000  0.28089000  1.0
  H  H17  1  0.24690000  0.50558000  0.71912000  1.0
  H  H18  1  0.65957000  0.37762000  0.64723000  1.0
  H  H19  1  0.34044000  0.62238000  0.35277000  1.0
  H  H20  1  0.37986000  0.27804000  0.65718000  1.0
  H  H21  1  0.62014000  0.72196000  0.34282000  1.0
  C  C22  1  0.88718000  0.99374000  0.88387000  1.0
  C  C23  1  0.11282000  0.00626000  0.11613000  1.0
  C  C24  1  0.94114000  0.13266000  0.91275000  1.0
  C  C25  1  0.05886000  0.86734000  0.08725000  1.0
  C  C26  1  0.07696000  0.87819000  0.94233000  1.0
  C  C27  1  0.92304000  0.12180000  0.05767000  1.0
  C  C28  1  0.91826000  0.00016000  0.73972000  1.0
  C  C29  1  0.08173000  0.99984000  0.26028000  1.0
  C  C30  1  0.56685000  0.36649000  0.46123000  1.0
  C  C31  1  0.43316000  0.63351000  0.53877000  1.0
  C  C32  1  0.69994000  0.49950000  0.38316000  1.0
  C  C33  1  0.30006000  0.50050000  0.61684000  1.0
  C  C34  1  0.48112000  0.37328000  0.60457000  1.0
  C  C35  1  0.51889000  0.62672000  0.39543000  1.0
  C  C36  1  0.74056000  0.23633000  0.45987000  1.0
  C  C37  1  0.25945000  0.76367000  0.54013000  1.0
  O  O38  1  0.11429000  0.06591000  0.66922000  1.0
  O  O39  1  0.88570000  0.93409000  0.33078000  1.0
  O  O40  1  0.75184000  0.93555000  0.70226000  1.0
  O  O41  1  0.24815000  0.06445000  0.29773000  1.0
  O  O42  1  0.62238000  0.12226000  0.47747000  1.0
  O  O43  1  0.37763000  0.87774000  0.52252000  1.0
  O  O44  1  0.98842000  0.24551000  0.44954000  1.0
  O  O45  1  0.01158000  0.75450000  0.55046000  1.0
