# generated using pymatgen
data_CuH10C5(NO)3
_symmetry_space_group_name_H-M   'P 1'
_cell_length_a   7.85099000
_cell_length_b   8.84337000
_cell_length_c   12.21050000
_cell_angle_alpha   89.99810000
_cell_angle_beta   102.25900000
_cell_angle_gamma   89.99910000
_symmetry_Int_Tables_number   1
_chemical_formula_structural   CuH10C5(NO)3
_chemical_formula_sum   'Cu4 H40 C20 N12 O12'
_cell_volume   828.43441666
_cell_formula_units_Z   4
loop_
 _symmetry_equiv_pos_site_id
 _symmetry_equiv_pos_as_xyz
  1  'x, y, z'
loop_
 _atom_site_type_symbol
 _atom_site_label
 _atom_site_symmetry_multiplicity
 _atom_site_fract_x
 _atom_site_fract_y
 _atom_site_fract_z
 _atom_site_occupancy
  Cu  Cu0  1  0.78708000  0.55283000  0.42659000  1.0
  Cu  Cu1  1  0.78710000  0.94716000  0.92659000  1.0
  Cu  Cu2  1  0.21291000  0.44716000  0.57342000  1.0
  Cu  Cu3  1  0.21292000  0.05283000  0.07341000  1.0
  H  H4  1  0.65648000  0.87409000  0.54151000  1.0
  H  H5  1  0.65647000  0.62590000  0.04150000  1.0
  H  H6  1  0.34353000  0.12592000  0.45850000  1.0
  H  H7  1  0.34353000  0.37409000  0.95849000  1.0
  H  H8  1  0.47156000  0.87620000  0.42748000  1.0
  H  H9  1  0.47157000  0.62382000  0.92747000  1.0
  H  H10  1  0.52844000  0.12382000  0.57253000  1.0
  H  H11  1  0.52844000  0.37619000  0.07253000  1.0
  H  H12  1  0.83898000  0.05478000  0.48163000  1.0
  H  H13  1  0.83897000  0.44521000  0.98163000  1.0
  H  H14  1  0.16102000  0.94522000  0.51837000  1.0
  H  H15  1  0.16103000  0.55479000  0.01836000  1.0
  H  H16  1  0.66613000  0.10951000  0.37170000  1.0
  H  H17  1  0.66612000  0.39050000  0.87170000  1.0
  H  H18  1  0.33387000  0.89049000  0.62830000  1.0
  H  H19  1  0.33388000  0.60950000  0.12831000  1.0
  H  H20  1  0.87040000  0.06327000  0.34033000  1.0
  H  H21  1  0.87039000  0.43673000  0.84033000  1.0
  H  H22  1  0.12961000  0.93672000  0.65967000  1.0
  H  H23  1  0.12960000  0.56327000  0.15967000  1.0
  H  H24  1  0.58908000  0.71951000  0.24392000  1.0
  H  H25  1  0.58911000  0.78053000  0.74391000  1.0
  H  H26  1  0.41090000  0.28050000  0.75609000  1.0
  H  H27  1  0.41091000  0.21948000  0.25608000  1.0
  H  H28  1  0.71447000  0.86474000  0.19813000  1.0
  H  H29  1  0.71447000  0.63527000  0.69812000  1.0
  H  H30  1  0.28553000  0.13525000  0.80188000  1.0
  H  H31  1  0.28552000  0.36471000  0.30187000  1.0
  H  H32  1  0.51115000  0.90859000  0.23445000  1.0
  H  H33  1  0.51116000  0.59146000  0.73444000  1.0
  H  H34  1  0.48884000  0.09142000  0.76556000  1.0
  H  H35  1  0.48884000  0.40856000  0.26556000  1.0
  H  H36  1  0.95550000  0.78839000  0.47821000  1.0
  H  H37  1  0.95551000  0.71159000  0.97822000  1.0
  H  H38  1  0.04449000  0.21160000  0.52178000  1.0
  H  H39  1  0.04450000  0.28840000  0.02178000  1.0
  H  H40  1  0.94760000  0.77475000  0.34193000  1.0
  H  H41  1  0.94761000  0.72525000  0.84193000  1.0
  H  H42  1  0.05238000  0.22524000  0.65807000  1.0
  H  H43  1  0.05239000  0.27475000  0.15806000  1.0
  C  C44  1  0.52244000  0.41661000  0.50300000  1.0
  C  C45  1  0.52245000  0.08339000  0.00300000  1.0
  C  C46  1  0.47754000  0.58338000  0.49700000  1.0
  C  C47  1  0.47757000  0.91662000  0.99701000  1.0
  C  C48  1  0.60199000  0.82741000  0.45741000  1.0
  C  C49  1  0.60200000  0.67260000  0.95740000  1.0
  C  C50  1  0.39800000  0.17259000  0.54260000  1.0
  C  C51  1  0.39801000  0.32741000  0.04259000  1.0
  C  C52  1  0.72169000  0.86844000  0.37676000  1.0
  C  C53  1  0.72169000  0.63156000  0.87676000  1.0
  C  C54  1  0.27831000  0.13155000  0.62324000  1.0
  C  C55  1  0.27831000  0.36844000  0.12324000  1.0
  C  C56  1  0.77858000  0.03342000  0.39331000  1.0
  C  C57  1  0.77858000  0.46659000  0.89330000  1.0
  C  C58  1  0.22142000  0.96658000  0.60669000  1.0
  C  C59  1  0.22142000  0.53342000  0.10669000  1.0
  C  C60  1  0.62870000  0.83858000  0.25584000  1.0
  C  C61  1  0.62871000  0.66145000  0.75584000  1.0
  C  C62  1  0.37129000  0.16143000  0.74416000  1.0
  C  C63  1  0.37129000  0.33855000  0.24416000  1.0
  N  N64  1  0.92537000  0.39214000  0.27213000  1.0
  N  N65  1  0.92538000  0.10789000  0.77214000  1.0
  N  N66  1  0.07461000  0.60788000  0.72786000  1.0
  N  N67  1  0.07464000  0.89212000  0.22786000  1.0
  N  N68  1  0.59610000  0.66443000  0.46416000  1.0
  N  N69  1  0.59611000  0.83558000  0.96416000  1.0
  N  N70  1  0.40389000  0.33557000  0.53585000  1.0
  N  N71  1  0.40391000  0.16443000  0.03585000  1.0
  N  N72  1  0.87526000  0.76310000  0.40263000  1.0
  N  N73  1  0.87527000  0.73688000  0.90263000  1.0
  N  N74  1  0.12472000  0.23688000  0.59737000  1.0
  N  N75  1  0.12473000  0.26310000  0.09736000  1.0
  O  O76  1  0.96137000  0.41989000  0.37927000  1.0
  O  O77  1  0.96139000  0.08011000  0.87927000  1.0
  O  O78  1  0.03861000  0.58010000  0.62073000  1.0
  O  O79  1  0.03864000  0.91989000  0.12073000  1.0
  O  O80  1  0.79328000  0.45565000  0.21756000  1.0
  O  O81  1  0.79326000  0.04440000  0.71756000  1.0
  O  O82  1  0.20673000  0.54438000  0.78244000  1.0
  O  O83  1  0.20673000  0.95563000  0.28244000  1.0
  O  O84  1  0.66375000  0.37205000  0.47629000  1.0
  O  O85  1  0.66376000  0.12795000  0.97629000  1.0
  O  O86  1  0.33624000  0.62795000  0.52371000  1.0
  O  O87  1  0.33625000  0.87205000  0.02371000  1.0
