# generated using pymatgen
data_ZnH14C20N4(ClO2)2
_symmetry_space_group_name_H-M   'P 1'
_cell_length_a   9.59897000
_cell_length_b   10.24160000
_cell_length_c   13.13370000
_cell_angle_alpha   107.39800000
_cell_angle_beta   110.72000000
_cell_angle_gamma   94.49480000
_symmetry_Int_Tables_number   1
_chemical_formula_structural   ZnH14C20N4(ClO2)2
_chemical_formula_sum   'Zn2 H28 C40 N8 Cl4 O8'
_cell_volume   1127.60080277
_cell_formula_units_Z   2
loop_
 _symmetry_equiv_pos_site_id
 _symmetry_equiv_pos_as_xyz
  1  'x, y, z'
loop_
 _atom_site_type_symbol
 _atom_site_label
 _atom_site_symmetry_multiplicity
 _atom_site_fract_x
 _atom_site_fract_y
 _atom_site_fract_z
 _atom_site_occupancy
  Zn  Zn0  1  0.23623000  0.73076000  0.12176000  1.0
  Zn  Zn1  1  0.76377000  0.26925000  0.87823000  1.0
  H  H2  1  0.06167000  0.46624000  0.15032000  1.0
  H  H3  1  0.93834000  0.53376000  0.84969000  1.0
  H  H4  1  0.97418000  0.87382000  0.20396000  1.0
  H  H5  1  0.02582000  0.12618000  0.79604000  1.0
  H  H6  1  0.79210000  0.72724000  0.27376000  1.0
  H  H7  1  0.20790000  0.27275000  0.72624000  1.0
  H  H8  1  0.86266000  0.35637000  0.19969000  1.0
  H  H9  1  0.13735000  0.64363000  0.80031000  1.0
  H  H10  1  0.72547000  0.45068000  0.22800000  1.0
  H  H11  1  0.27453000  0.54932000  0.77200000  1.0
  H  H12  1  0.72232000  0.40189000  0.39500000  1.0
  H  H13  1  0.27768000  0.59811000  0.60500000  1.0
  H  H14  1  0.85027000  0.43351000  0.60352000  1.0
  H  H15  1  0.14974000  0.56649000  0.39648000  1.0
  H  H16  1  0.52335000  0.97805000  0.32894000  1.0
  H  H17  1  0.47665000  0.02195000  0.67106000  1.0
  H  H18  1  0.37326000  0.57037000  0.30956000  1.0
  H  H19  1  0.62674000  0.42963000  0.69044000  1.0
  H  H20  1  0.61154000  0.71274000  0.52725000  1.0
  H  H21  1  0.38847000  0.28726000  0.47275000  1.0
  H  H22  1  0.74768000  0.96745000  0.63048000  1.0
  H  H23  1  0.25232000  0.03255000  0.36953000  1.0
  H  H24  1  0.69132000  0.08710000  0.55814000  1.0
  H  H25  1  0.30869000  0.91290000  0.44186000  1.0
  H  H26  1  0.18744000  0.85565000  0.56067000  1.0
  H  H27  1  0.81256000  0.14436000  0.43933000  1.0
  H  H28  1  0.95694000  0.84476000  0.60481000  1.0
  H  H29  1  0.04306000  0.15525000  0.39520000  1.0
  C  C30  1  0.37748000  0.50527000  0.04044000  1.0
  C  C31  1  0.62252000  0.49474000  0.95957000  1.0
  C  C32  1  0.43630000  0.38304000  0.02303000  1.0
  C  C33  1  0.56369000  0.61696000  0.97697000  1.0
  C  C34  1  0.55065000  0.36896000  0.97892000  1.0
  C  C35  1  0.44934000  0.63103000  0.02108000  1.0
  C  C36  1  0.12132000  0.98030000  0.09573000  1.0
  C  C37  1  0.87867000  0.01971000  0.90426000  1.0
  C  C38  1  0.07307000  0.10757000  0.11429000  1.0
  C  C39  1  0.92693000  0.89243000  0.88570000  1.0
  C  C40  1  0.95912000  0.13465000  0.02502000  1.0
  C  C41  1  0.04088000  0.86534000  0.97497000  1.0
  C  C42  1  0.01826000  0.55968000  0.17661000  1.0
  C  C43  1  0.98175000  0.44033000  0.82339000  1.0
  C  C44  1  0.96764000  0.76810000  0.20441000  1.0
  C  C45  1  0.03236000  0.23190000  0.79559000  1.0
  C  C46  1  0.87564000  0.69691000  0.23834000  1.0
  C  C47  1  0.12435000  0.30309000  0.76166000  1.0
  C  C48  1  0.84833000  0.45611000  0.25258000  1.0
  C  C49  1  0.15168000  0.54389000  0.74743000  1.0
  C  C50  1  0.92718000  0.48118000  0.38096000  1.0
  C  C51  1  0.07283000  0.51881000  0.61904000  1.0
  C  C52  1  0.84459000  0.44488000  0.44098000  1.0
  C  C53  1  0.15542000  0.55512000  0.55903000  1.0
  C  C54  1  0.91650000  0.46315000  0.55844000  1.0
  C  C55  1  0.08350000  0.53684000  0.44156000  1.0
  C  C56  1  0.51410000  0.88538000  0.35187000  1.0
  C  C57  1  0.48590000  0.11462000  0.64813000  1.0
  C  C58  1  0.43932000  0.67653000  0.34676000  1.0
  C  C59  1  0.56068000  0.32347000  0.65324000  1.0
  C  C60  1  0.55658000  0.74454000  0.45365000  1.0
  C  C61  1  0.44341000  0.25546000  0.54635000  1.0
  C  C62  1  0.72831000  0.98712000  0.54936000  1.0
  C  C63  1  0.27169000  0.01288000  0.45064000  1.0
  C  C64  1  0.86949000  0.99334000  0.52430000  1.0
  C  C65  1  0.13051000  0.00667000  0.47570000  1.0
  C  C66  1  0.10549000  0.91971000  0.53452000  1.0
  C  C67  1  0.89451000  0.08030000  0.46548000  1.0
  C  C68  1  0.97565000  0.91254000  0.55860000  1.0
  C  C69  1  0.02434000  0.08746000  0.44140000  1.0
  N  N70  1  0.05657000  0.68178000  0.16677000  1.0
  N  N71  1  0.94343000  0.31822000  0.83323000  1.0
  N  N72  1  0.90840000  0.56491000  0.21962000  1.0
  N  N73  1  0.09160000  0.43509000  0.78038000  1.0
  N  N74  1  0.41385000  0.76619000  0.28485000  1.0
  N  N75  1  0.58615000  0.23381000  0.71515000  1.0
  N  N76  1  0.60211000  0.87700000  0.45555000  1.0
  N  N77  1  0.39789000  0.12300000  0.54445000  1.0
  Cl  Cl78  1  0.35924000  0.24273000  0.04723000  1.0
  Cl  Cl79  1  0.64076000  0.75726000  0.95277000  1.0
  Cl  Cl80  1  0.15954000  0.23987000  0.24949000  1.0
  Cl  Cl81  1  0.84045000  0.76013000  0.75050000  1.0
  O  O82  1  0.26689000  0.52083000  0.07127000  1.0
  O  O83  1  0.73310000  0.47917000  0.92873000  1.0
  O  O84  1  0.59997000  0.25804000  0.95335000  1.0
  O  O85  1  0.40003000  0.74196000  0.04666000  1.0
  O  O86  1  0.91734000  0.24999000  0.03698000  1.0
  O  O87  1  0.08265000  0.75001000  0.96301000  1.0
  O  O88  1  0.22598000  0.95063000  0.17120000  1.0
  O  O89  1  0.77401000  0.04937000  0.82879000  1.0
