# generated using pymatgen
data_SmAgH4C2SO10
_symmetry_space_group_name_H-M   'P 1'
_cell_length_a   6.63769000
_cell_length_b   8.92045000
_cell_length_c   13.93380000
_cell_angle_alpha   90.00040000
_cell_angle_beta   90.00020000
_cell_angle_gamma   82.37290000
_symmetry_Int_Tables_number   1
_chemical_formula_structural   SmAgH4C2SO10
_chemical_formula_sum   'Sm4 Ag4 H16 C8 S4 O40'
_cell_volume   817.73756034
_cell_formula_units_Z   4
loop_
 _symmetry_equiv_pos_site_id
 _symmetry_equiv_pos_as_xyz
  1  'x, y, z'
loop_
 _atom_site_type_symbol
 _atom_site_label
 _atom_site_symmetry_multiplicity
 _atom_site_fract_x
 _atom_site_fract_y
 _atom_site_fract_z
 _atom_site_occupancy
  Sm  Sm0  1  0.77525000  0.78225000  0.91339000  1.0
  Sm  Sm1  1  0.22474000  0.71775000  0.41339000  1.0
  Sm  Sm2  1  0.22475000  0.21775000  0.08661000  1.0
  Sm  Sm3  1  0.77526000  0.28225000  0.58661000  1.0
  Ag  Ag4  1  0.28249000  0.76972000  0.74344000  1.0
  Ag  Ag5  1  0.71750000  0.73027000  0.24344000  1.0
  Ag  Ag6  1  0.71751000  0.23028000  0.25656000  1.0
  Ag  Ag7  1  0.28250000  0.26972000  0.75656000  1.0
  H  H8  1  0.68056000  0.96070000  0.09843000  1.0
  H  H9  1  0.31943000  0.53929000  0.59842000  1.0
  H  H10  1  0.31944000  0.03929000  0.90158000  1.0
  H  H11  1  0.68056000  0.46071000  0.40158000  1.0
  H  H12  1  0.91563000  0.90439000  0.09642000  1.0
  H  H13  1  0.08437000  0.59561000  0.59642000  1.0
  H  H14  1  0.08437000  0.09561000  0.90358000  1.0
  H  H15  1  0.91563000  0.40439000  0.40358000  1.0
  H  H16  1  0.78110000  0.47240000  0.02580000  1.0
  H  H17  1  0.21890000  0.02760000  0.52580000  1.0
  H  H18  1  0.21890000  0.52760000  0.97420000  1.0
  H  H19  1  0.78110000  0.97240000  0.47420000  1.0
  H  H20  1  0.59443000  0.59620000  0.05784000  1.0
  H  H21  1  0.40557000  0.90380000  0.55784000  1.0
  H  H22  1  0.40557000  0.40380000  0.94216000  1.0
  H  H23  1  0.59443000  0.09620000  0.44216000  1.0
  C  C24  1  0.87496000  0.97839000  0.72115000  1.0
  C  C25  1  0.12503000  0.52161000  0.22114000  1.0
  C  C26  1  0.12505000  0.02161000  0.27886000  1.0
  C  C27  1  0.87497000  0.47839000  0.77886000  1.0
  C  C28  1  0.64642000  0.02444000  0.73804000  1.0
  C  C29  1  0.35357000  0.47556000  0.23804000  1.0
  C  C30  1  0.35359000  0.97556000  0.26196000  1.0
  C  C31  1  0.64643000  0.52444000  0.76197000  1.0
  S  S32  1  0.72693000  0.19465000  0.96851000  1.0
  S  S33  1  0.27307000  0.30535000  0.46851000  1.0
  S  S34  1  0.27307000  0.80535000  0.03149000  1.0
  S  S35  1  0.72693000  0.69466000  0.53149000  1.0
  O  O36  1  0.55746000  0.95107000  0.79837000  1.0
  O  O37  1  0.44253000  0.54893000  0.29837000  1.0
  O  O38  1  0.44255000  0.04893000  0.20162000  1.0
  O  O39  1  0.55746000  0.45106000  0.70163000  1.0
  O  O40  1  0.96378000  0.05616000  0.66389000  1.0
  O  O41  1  0.03621000  0.44385000  0.16387000  1.0
  O  O42  1  0.03623000  0.94385000  0.33611000  1.0
  O  O43  1  0.96379000  0.55615000  0.83612000  1.0
  O  O44  1  0.78004000  0.86895000  0.09063000  1.0
  O  O45  1  0.21996000  0.63105000  0.59064000  1.0
  O  O46  1  0.21996000  0.13105000  0.90937000  1.0
  O  O47  1  0.78004000  0.36894000  0.40936000  1.0
  O  O48  1  0.84128000  0.05476000  0.92507000  1.0
  O  O49  1  0.15872000  0.44524000  0.42507000  1.0
  O  O50  1  0.15872000  0.94524000  0.07493000  1.0
  O  O51  1  0.84128000  0.55476000  0.57493000  1.0
  O  O52  1  0.56991000  0.14821000  0.03477000  1.0
  O  O53  1  0.43009000  0.35179000  0.53477000  1.0
  O  O54  1  0.43009000  0.85179000  0.96523000  1.0
  O  O55  1  0.56991000  0.64821000  0.46523000  1.0
  O  O56  1  0.63179000  0.29730000  0.89437000  1.0
  O  O57  1  0.36822000  0.20270000  0.39437000  1.0
  O  O58  1  0.36821000  0.70271000  0.10563000  1.0
  O  O59  1  0.63178000  0.79730000  0.60563000  1.0
  O  O60  1  0.87583000  0.27052000  0.02607000  1.0
  O  O61  1  0.12417000  0.22948000  0.52607000  1.0
  O  O62  1  0.12417000  0.72948000  0.97393000  1.0
  O  O63  1  0.87583000  0.77052000  0.47393000  1.0
  O  O64  1  0.71607000  0.57731000  0.01648000  1.0
  O  O65  1  0.28393000  0.92269000  0.51648000  1.0
  O  O66  1  0.28393000  0.42269000  0.98352000  1.0
  O  O67  1  0.71607000  0.07731000  0.48352000  1.0
  O  O68  1  0.95731000  0.86494000  0.76996000  1.0
  O  O69  1  0.04268000  0.63506000  0.26995000  1.0
  O  O70  1  0.04269000  0.13506000  0.23004000  1.0
  O  O71  1  0.95732000  0.36494000  0.73004000  1.0
  O  O72  1  0.56575000  0.13849000  0.69018000  1.0
  O  O73  1  0.43426000  0.36152000  0.19017000  1.0
  O  O74  1  0.43426000  0.86152000  0.30982000  1.0
  O  O75  1  0.56575000  0.63848000  0.80983000  1.0
