# generated using pymatgen
data_CuH20C26(N3O7)2
_symmetry_space_group_name_H-M   'P 1'
_cell_length_a   7.66449000
_cell_length_b   8.21811000
_cell_length_c   12.31148682
_cell_angle_alpha   78.12862342
_cell_angle_beta   72.12146353
_cell_angle_gamma   65.93980000
_symmetry_Int_Tables_number   1
_chemical_formula_structural   CuH20C26(N3O7)2
_chemical_formula_sum   'Cu1 H20 C26 N6 O14'
_cell_volume   671.00078057
_cell_formula_units_Z   1
loop_
 _symmetry_equiv_pos_site_id
 _symmetry_equiv_pos_as_xyz
  1  'x, y, z'
loop_
 _atom_site_type_symbol
 _atom_site_label
 _atom_site_symmetry_multiplicity
 _atom_site_fract_x
 _atom_site_fract_y
 _atom_site_fract_z
 _atom_site_occupancy
  Cu  Cu0  1  0.00000000  0.00000000  0.00000000  1.0
  H  H1  1  0.63535000  0.54819000  0.76707000  1.0
  H  H2  1  0.36465000  0.45181000  0.23293000  1.0
  H  H3  1  0.22502000  0.17222000  0.09506000  1.0
  H  H4  1  0.77500000  0.82777000  0.90493000  1.0
  H  H5  1  0.56776000  0.07185000  0.07272000  1.0
  H  H6  1  0.43224000  0.92815000  0.92728000  1.0
  H  H7  1  0.29478000  0.54669000  0.86780000  1.0
  H  H8  1  0.70522000  0.45332000  0.13220000  1.0
  H  H9  1  0.28651000  0.12888000  0.52982000  1.0
  H  H10  1  0.71348000  0.87113000  0.47018000  1.0
  H  H11  1  0.92509000  0.30313000  0.82238000  1.0
  H  H12  1  0.07492000  0.69687000  0.17762000  1.0
  H  H13  1  0.10835000  0.40960000  0.07382000  1.0
  H  H14  1  0.89165000  0.59039000  0.92619000  1.0
  H  H15  1  0.13306000  0.69471000  0.74091000  1.0
  H  H16  1  0.86694000  0.30528000  0.25909000  1.0
  H  H17  1  0.26569000  0.71435000  0.37267000  1.0
  H  H18  1  0.73430000  0.28565000  0.62734000  1.0
  H  H19  1  0.21040000  0.21398000  0.88163000  1.0
  H  H20  1  0.78959000  0.78602000  0.11837000  1.0
  C  C21  1  0.40665000  0.30287000  0.97369000  1.0
  C  C22  1  0.59336000  0.69713000  0.02630000  1.0
  C  C23  1  0.77651000  0.30753000  0.86475000  1.0
  C  C24  1  0.22350000  0.69246000  0.13525000  1.0
  C  C25  1  0.21844000  0.91448000  0.64729000  1.0
  C  C26  1  0.78155000  0.08552000  0.35271000  1.0
  C  C27  1  0.26572000  0.00278000  0.53888000  1.0
  C  C28  1  0.73426000  0.99722000  0.46113000  1.0
  C  C29  1  0.18028000  0.75897000  0.65696000  1.0
  C  C30  1  0.81972000  0.24103000  0.34304000  1.0
  C  C31  1  0.19930000  0.98777000  0.75546000  1.0
  C  C32  1  0.80068000  0.01224000  0.24455000  1.0
  C  C33  1  0.57717000  0.17667000  0.00320000  1.0
  C  C34  1  0.42283000  0.82332000  0.99680000  1.0
  C  C35  1  0.42617000  0.44082000  0.88853000  1.0
  C  C36  1  0.57384000  0.55918000  0.11147000  1.0
  C  C37  1  0.27896000  0.92939000  0.44257000  1.0
  C  C38  1  0.72104000  0.07062000  0.55743000  1.0
  C  C39  1  0.61312000  0.44288000  0.83321000  1.0
  C  C40  1  0.38688000  0.55712000  0.16679000  1.0
  C  C41  1  0.20108000  0.68816000  0.55846000  1.0
  C  C42  1  0.79893000  0.31184000  0.44154000  1.0
  C  C43  1  0.25217000  0.76964000  0.44917000  1.0
  C  C44  1  0.74783000  0.23036000  0.55083000  1.0
  C  C45  1  0.20919000  0.28826000  0.03047000  1.0
  C  C46  1  0.79081000  0.71173000  0.96953000  1.0
  N  N47  1  0.75806000  0.17904000  0.94998000  1.0
  N  N48  1  0.24193000  0.82096000  0.05003000  1.0
  N  N49  1  0.31769000  0.02576000  0.32827000  1.0
  N  N50  1  0.68230000  0.97424000  0.67173000  1.0
  N  N51  1  0.16113000  0.52370000  0.57119000  1.0
  N  N52  1  0.83887000  0.47630000  0.42881000  1.0
  O  O53  1  0.11417000  0.91296000  0.84665000  1.0
  O  O54  1  0.88583000  0.08705000  0.15335000  1.0
  O  O55  1  0.32878000  0.95603000  0.24499000  1.0
  O  O56  1  0.67122000  0.04397000  0.75501000  1.0
  O  O57  1  0.26220000  0.10912000  0.74900000  1.0
  O  O58  1  0.73779000  0.89089000  0.25100000  1.0
  O  O59  1  0.33389000  0.17127000  0.32259000  1.0
  O  O60  1  0.66611000  0.82873000  0.67741000  1.0
  O  O61  1  0.05592000  0.48745000  0.66358000  1.0
  O  O62  1  0.94408000  0.51255000  0.33642000  1.0
  O  O63  1  0.23535000  0.43272000  0.48794000  1.0
  O  O64  1  0.76466000  0.56728000  0.51206000  1.0
  O  O65  1  0.11532000  0.27751000  0.94870000  1.0
  O  O66  1  0.88468000  0.72248000  0.05130000  1.0
