# generated using pymatgen
data_MnH10C6N2O5
_symmetry_space_group_name_H-M   'P 1'
_cell_length_a   7.16970000
_cell_length_b   7.61770000
_cell_length_c   9.50100050
_cell_angle_alpha   113.60842189
_cell_angle_beta   112.14712898
_cell_angle_gamma   90.01670000
_symmetry_Int_Tables_number   1
_chemical_formula_structural   MnH10C6N2O5
_chemical_formula_sum   'Mn2 H20 C12 N4 O10'
_cell_volume   433.34824921
_cell_formula_units_Z   2
loop_
 _symmetry_equiv_pos_site_id
 _symmetry_equiv_pos_as_xyz
  1  'x, y, z'
loop_
 _atom_site_type_symbol
 _atom_site_label
 _atom_site_symmetry_multiplicity
 _atom_site_fract_x
 _atom_site_fract_y
 _atom_site_fract_z
 _atom_site_occupancy
  Mn  Mn0  1  0.72775000  0.19484000  0.38979000  1.0
  Mn  Mn1  1  0.33786000  0.80509000  0.61015000  1.0
  H  H2  1  0.10134000  0.17062000  0.55512000  1.0
  H  H3  1  0.54616000  0.82938000  0.44481000  1.0
  H  H4  1  0.54619000  0.61562000  0.44482000  1.0
  H  H5  1  0.10136000  0.38439000  0.55512000  1.0
  H  H6  1  0.66394000  0.43939000  0.87869000  1.0
  H  H7  1  0.78530000  0.56057000  0.12121000  1.0
  H  H8  1  0.86469000  0.40360000  0.80720000  1.0
  H  H9  1  0.05751000  0.59648000  0.19273000  1.0
  H  H10  1  0.23275000  0.19994000  0.84854000  1.0
  H  H11  1  0.38397000  0.80008000  0.15155000  1.0
  H  H12  1  0.38410000  0.35135000  0.15142000  1.0
  H  H13  1  0.23261000  0.64864000  0.84866000  1.0
  H  H14  1  0.00017000  0.02679000  0.73642000  1.0
  H  H15  1  0.26355000  0.97324000  0.26369000  1.0
  H  H16  1  0.26365000  0.29032000  0.26361000  1.0
  H  H17  1  0.00010000  0.70973000  0.73649000  1.0
  H  H18  1  0.95178000  0.05617000  0.11240000  1.0
  H  H19  1  0.83946000  0.94386000  0.88768000  1.0
  H  H20  1  0.54608000  0.11756000  0.00002000  1.0
  H  H21  1  0.54598000  0.88241000  0.00009000  1.0
  C  C22  1  0.61521000  0.16636000  0.66828000  1.0
  C  C23  1  0.94694000  0.83362000  0.33163000  1.0
  C  C24  1  0.94715000  0.49781000  0.33162000  1.0
  C  C25  1  0.61543000  0.50215000  0.66827000  1.0
  C  C26  1  0.69755000  0.38380000  0.76745000  1.0
  C  C27  1  0.93008000  0.61621000  0.23245000  1.0
  C  C28  1  0.14432000  0.08356000  0.85012000  1.0
  C  C29  1  0.29402000  0.91648000  0.14998000  1.0
  C  C30  1  0.29411000  0.23342000  0.14991000  1.0
  C  C31  1  0.14425000  0.76661000  0.85020000  1.0
  C  C32  1  0.98491000  0.00002000  0.00003000  1.0
  C  C33  1  0.45798000  0.00001000  0.00007000  1.0
  N  N34  1  0.26446000  0.92243000  0.84487000  1.0
  N  N35  1  0.41956000  0.07759000  0.15524000  1.0
  N  N36  1  0.10046000  0.16024000  0.00001000  1.0
  N  N37  1  0.10037000  0.83980000  0.00008000  1.0
  O  O38  1  0.04840000  0.29495000  0.59005000  1.0
  O  O39  1  0.45830000  0.70501000  0.40988000  1.0
  O  O40  1  0.63684000  0.07386000  0.53061000  1.0
  O  O41  1  0.10626000  0.92614000  0.46930000  1.0
  O  O42  1  0.10633000  0.54312000  0.46937000  1.0
  O  O43  1  0.63704000  0.45695000  0.53056000  1.0
  O  O44  1  0.53191000  0.08632000  0.72899000  1.0
  O  O45  1  0.80303000  0.91365000  0.27101000  1.0
  O  O46  1  0.80341000  0.35688000  0.27086000  1.0
  O  O47  1  0.53225000  0.64289000  0.72895000  1.0
