# generated using pymatgen
data_Zn4H34C63N16
_symmetry_space_group_name_H-M   'P 1'
_cell_length_a   19.16520000
_cell_length_b   20.22260000
_cell_length_c   20.32420000
_cell_angle_alpha   106.70000000
_cell_angle_beta   109.38500000
_cell_angle_gamma   110.50900000
_symmetry_Int_Tables_number   1
_chemical_formula_structural   Zn4H34C63N16
_chemical_formula_sum   'Zn4 H34 C63 N16'
_cell_volume   6190.76126316
_cell_formula_units_Z   1
loop_
 _symmetry_equiv_pos_site_id
 _symmetry_equiv_pos_as_xyz
  1  'x, y, z'
loop_
 _atom_site_type_symbol
 _atom_site_label
 _atom_site_symmetry_multiplicity
 _atom_site_fract_x
 _atom_site_fract_y
 _atom_site_fract_z
 _atom_site_occupancy
  Zn  Zn0  1  0.09827000  0.50336000  0.09914000  1.0
  Zn  Zn1  1  0.89035000  0.49987000  0.88651000  1.0
  Zn  Zn2  1  0.88013000  0.38931000  0.98911000  1.0
  Zn  Zn3  1  0.10823000  0.61218000  0.99181000  1.0
  H  H4  1  0.12893000  0.36669000  0.14637000  1.0
  H  H5  1  0.14834000  0.45588000  0.47701000  1.0
  H  H6  1  0.87489000  0.46439000  0.70270000  1.0
  H  H7  1  0.14819000  0.45975000  0.60022000  1.0
  H  H8  1  0.50773000  0.85788000  0.48233000  1.0
  H  H9  1  0.63432000  0.97257000  0.60398000  1.0
  H  H10  1  0.66307000  0.11066000  0.47830000  1.0
  H  H11  1  0.53644000  0.99597000  0.35661000  1.0
  H  H12  1  0.12830000  0.14032000  0.15935000  1.0
  H  H13  1  0.13035000  0.02073000  0.16724000  1.0
  H  H14  1  0.85651000  0.89617000  0.05795000  1.0
  H  H15  1  0.71229000  0.51580000  0.88030000  1.0
  H  H16  1  0.85463000  0.01584000  0.05006000  1.0
  H  H17  1  0.74814000  0.20506000  0.83261000  1.0
  H  H18  1  0.29608000  0.62941000  0.99792000  1.0
  H  H19  1  0.86471000  0.35259000  0.74046000  1.0
  H  H20  1  0.20123000  0.42876000  0.04435000  1.0
  H  H21  1  0.12188000  0.50159000  0.85097000  1.0
  H  H22  1  0.87904000  0.22372000  0.94143000  1.0
  H  H23  1  0.26556000  0.64335000  0.26948000  1.0
  H  H24  1  0.22727000  0.97388000  0.06625000  1.0
  H  H25  1  0.24206000  0.91417000  0.99465000  1.0
  H  H26  1  0.85781000  0.33260000  0.12571000  1.0
  H  H27  1  0.17761000  0.95707000  0.96771000  1.0
  H  H28  1  0.08511000  0.81213000  0.92424000  1.0
  H  H29  1  0.07114000  0.87223000  0.99545000  1.0
  H  H30  1  0.17331000  0.86015000  0.10000000  1.0
  H  H31  1  0.18533000  0.79754000  0.02807000  1.0
  H  H32  1  0.88135000  0.63761000  0.01021000  1.0
  H  H33  1  0.10344000  0.54723000  0.26132000  1.0
  H  H34  1  0.22662000  0.77978000  0.14522000  1.0
  H  H35  1  0.81025000  0.47702000  0.08279000  1.0
  H  H36  1  0.87527000  0.31255000  0.47310000  1.0
  H  H37  1  0.87553000  0.30846000  0.34988000  1.0
  C  C38  1  0.06937000  0.34334000  0.09435000  1.0
  C  C39  1  0.04123000  0.49703000  0.21651000  1.0
  C  C40  1  0.22282000  0.73440000  0.16442000  1.0
  C  C41  1  0.93430000  0.47998000  0.75058000  1.0
  C  C42  1  0.79587000  0.48347000  0.02941000  1.0
  C  C43  1  0.28122000  0.74128000  0.23391000  1.0
  C  C44  1  0.73552000  0.50308000  0.99133000  1.0
  C  C45  1  0.98763000  0.43268000  0.22239000  1.0
  C  C46  1  0.99859000  0.74529000  0.04019000  1.0
  C  C47  1  0.35260000  0.51935000  0.02899000  1.0
  C  C48  1  0.41852000  0.52041000  0.03293000  1.0
  C  C49  1  0.00146000  0.46798000  0.74694000  1.0
  C  C50  1  0.48903000  0.52142000  0.03371000  1.0
  C  C51  1  0.55286000  0.52233000  0.03095000  1.0
  C  C52  1  0.61848000  0.52006000  0.02240000  1.0
  C  C53  1  0.78222000  0.25303000  0.82219000  1.0
  C  C54  1  0.67567000  0.51463000  0.01059000  1.0
  C  C55  1  0.93505000  0.34162000  0.40494000  1.0
  C  C56  1  0.01140000  0.38611000  0.40591000  1.0
  C  C57  1  0.08868000  0.42465000  0.47647000  1.0
  C  C58  1  0.08860000  0.42675000  0.54527000  1.0
  C  C59  1  0.01125000  0.39062000  0.54612000  1.0
  C  C60  1  0.79298000  0.24873000  0.75608000  1.0
  C  C61  1  0.93496000  0.34393000  0.47376000  1.0
  C  C62  1  0.00837000  0.39793000  0.33997000  1.0
  C  C63  1  0.00910000  0.40870000  0.61788000  1.0
  C  C64  1  0.00718000  0.43491000  0.67909000  1.0
  C  C65  1  0.26102000  0.58239000  0.00886000  1.0
  C  C66  1  0.00061000  0.41526000  0.28607000  1.0
  C  C67  1  0.61266000  0.97745000  0.54966000  1.0
  C  C68  1  0.65514000  0.05094000  0.55057000  1.0
  C  C69  1  0.62883000  0.05516000  0.47891000  1.0
  C  C70  1  0.55794000  0.99112000  0.41095000  1.0
  C  C71  1  0.28056000  0.52520000  0.02363000  1.0
  C  C72  1  0.51073000  0.92008000  0.41179000  1.0
  C  C73  1  0.54189000  0.91344000  0.48176000  1.0
  C  C74  1  0.71529000  0.12001000  0.62272000  1.0
  C  C75  1  0.43194000  0.85838000  0.34642000  1.0
  C  C76  1  0.36089000  0.80583000  0.29380000  1.0
  C  C77  1  0.84178000  0.32898000  0.77524000  1.0
  C  C78  1  0.75574000  0.18043000  0.68510000  1.0
  C  C79  1  0.07002000  0.01981000  0.14151000  1.0
  C  C80  1  0.99323000  0.94865000  0.10936000  1.0
  C  C81  1  0.91590000  0.94977000  0.08012000  1.0
  C  C82  1  0.24306000  0.66495000  0.22834000  1.0
  C  C83  1  0.91487000  0.01659000  0.07557000  1.0
  C  C84  1  0.99107000  0.08504000  0.10046000  1.0
  C  C85  1  0.06895000  0.08662000  0.13711000  1.0
  C  C86  1  0.99380000  0.87642000  0.09772000  1.0
  C  C87  1  0.99016000  0.14845000  0.08461000  1.0
  C  C88  1  0.99239000  0.20111000  0.06589000  1.0
  C  C89  1  0.21242000  0.47952000  0.03257000  1.0
  C  C90  1  0.99300000  0.81311000  0.07423000  1.0
  C  C91  1  0.06051000  0.49853000  0.82642000  1.0
  C  C92  1  0.94127000  0.27049000  0.98971000  1.0
  C  C93  1  0.74524000  0.50262000  0.92521000  1.0
  C  C94  1  0.99967000  0.26554000  0.04980000  1.0
  C  C95  1  0.14037000  0.81591000  0.03790000  1.0
  C  C96  1  0.11739000  0.85582000  0.98630000  1.0
  C  C97  1  0.19533000  0.92917000  0.00467000  1.0
  C  C98  1  0.91537000  0.38738000  0.14741000  1.0
  C  C99  1  0.06437000  0.74591000  0.02258000  1.0
  C  C100  1  0.94097000  0.66419000  0.00963000  1.0
  N  N101  1  0.05212000  0.38929000  0.06285000  1.0
  N  N102  1  0.81997000  0.32939000  0.87462000  1.0
  N  N103  1  0.18845000  0.57112000  0.01000000  1.0
  N  N104  1  0.85750000  0.37698000  0.84614000  1.0
  N  N105  1  0.15781000  0.50794000  0.02463000  1.0
  N  N106  1  0.03073000  0.52632000  0.87286000  1.0
  N  N107  1  0.97306000  0.34536000  0.99846000  1.0
  N  N108  1  0.16954000  0.61784000  0.16069000  1.0
  N  N109  1  0.80495000  0.48298000  0.92422000  1.0
  N  N110  1  0.92659000  0.42246000  0.10205000  1.0
  N  N111  1  0.04501000  0.67036000  0.98344000  1.0
  N  N112  1  0.96885000  0.61940000  0.97540000  1.0
  N  N113  1  0.00452000  0.49005000  0.14368000  1.0
  N  N114  1  0.15637000  0.65992000  0.12047000  1.0
  N  N115  1  0.83660000  0.47128000  0.98853000  1.0
  N  N116  1  0.95260000  0.51489000  0.82580000  1.0
