# generated using pymatgen
data_Al2H17C35O12F
_symmetry_space_group_name_H-M   'P 1'
_cell_length_a   6.64257000
_cell_length_b   19.55360000
_cell_length_c   20.73560000
_cell_angle_alpha   95.30990000
_cell_angle_beta   89.92190000
_cell_angle_gamma   89.94760000
_symmetry_Int_Tables_number   1
_chemical_formula_structural   Al2H17C35O12F
_chemical_formula_sum   'Al4 H34 C70 O24 F2'
_cell_volume   2681.70587894
_cell_formula_units_Z   2
loop_
 _symmetry_equiv_pos_site_id
 _symmetry_equiv_pos_as_xyz
  1  'x, y, z'
loop_
 _atom_site_type_symbol
 _atom_site_label
 _atom_site_symmetry_multiplicity
 _atom_site_fract_x
 _atom_site_fract_y
 _atom_site_fract_z
 _atom_site_occupancy
  Al  Al0  1  0.12772000  0.49711000  0.50139000  1.0
  Al  Al1  1  0.62772000  0.50298000  0.49860000  1.0
  Al  Al2  1  0.64751000  0.99842000  0.99986000  1.0
  Al  Al3  1  0.14750000  0.00137000  0.00008000  1.0
  H  H4  1  0.95740000  0.77309000  0.97823000  1.0
  H  H5  1  0.45051000  0.22672000  0.02144000  1.0
  H  H6  1  0.92533000  0.58349000  0.81700000  1.0
  H  H7  1  0.42380000  0.41638000  0.18274000  1.0
  H  H8  1  0.96385000  0.65676000  0.91759000  1.0
  H  H9  1  0.45933000  0.34301000  0.08206000  1.0
  H  H10  1  0.86724000  0.86496000  0.80021000  1.0
  H  H11  1  0.37154000  0.13485000  0.20004000  1.0
  H  H12  1  0.87532000  0.72196000  0.52932000  1.0
  H  H13  1  0.37713000  0.27822000  0.47068000  1.0
  H  H14  1  0.90872000  0.85364000  0.70619000  1.0
  H  H15  1  0.40993000  0.14635000  0.29392000  1.0
  H  H16  1  0.89220000  0.83932000  0.58740000  1.0
  H  H17  1  0.39342000  0.16079000  0.41268000  1.0
  H  H18  1  0.15594000  0.31808000  0.59495000  1.0
  H  H19  1  0.65560000  0.68194000  0.40503000  1.0
  H  H20  1  0.57046000  0.38900000  0.66009000  1.0
  H  H21  1  0.07100000  0.61111000  0.33989000  1.0
  H  H22  1  0.41930000  0.34776000  0.75844000  1.0
  H  H23  1  0.92020000  0.65252000  0.24168000  1.0
  H  H24  1  0.43393000  0.27284000  0.84813000  1.0
  H  H25  1  0.93483000  0.72760000  0.15207000  1.0
  H  H26  1  0.17241000  0.09894000  0.83043000  1.0
  H  H27  1  0.67412000  0.90069000  0.16945000  1.0
  H  H28  1  0.32379000  0.13957000  0.73001000  1.0
  H  H29  1  0.82387000  0.86044000  0.27007000  1.0
  H  H30  1  0.31512000  0.21788000  0.64299000  1.0
  H  H31  1  0.81460000  0.78217000  0.35713000  1.0
  H  H32  1  0.64667000  0.49461000  0.64856000  1.0
  H  H33  1  0.14687000  0.50553000  0.35146000  1.0
  H  H34  1  0.37511000  0.54216000  0.57731000  1.0
  H  H35  1  0.87598000  0.45787000  0.42271000  1.0
  H  H36  1  0.39545000  0.96091000  0.92168000  1.0
  H  H37  1  0.89395000  0.03892000  0.07825000  1.0
  C  C38  1  0.37438000  0.58585000  0.42109000  1.0
  C  C39  1  0.87439000  0.41421000  0.57887000  1.0
  C  C40  1  0.37959000  0.39652000  0.42579000  1.0
  C  C41  1  0.87830000  0.60359000  0.57418000  1.0
  C  C42  1  0.94562000  0.70270000  0.89200000  1.0
  C  C43  1  0.44234000  0.29708000  0.10774000  1.0
  C  C44  1  0.90988000  0.82511000  0.89156000  1.0
  C  C45  1  0.40843000  0.17466000  0.10841000  1.0
  C  C46  1  0.87945000  0.72843000  0.58214000  1.0
  C  C47  1  0.38121000  0.27171000  0.41787000  1.0
  C  C48  1  0.88884000  0.79435000  0.61479000  1.0
  C  C49  1  0.39025000  0.20575000  0.38527000  1.0
  C  C50  1  0.89690000  0.80211000  0.68164000  1.0
  C  C51  1  0.39832000  0.19793000  0.31841000  1.0
  C  C52  1  0.89402000  0.74484000  0.71842000  1.0
  C  C53  1  0.39539000  0.25515000  0.28156000  1.0
  C  C54  1  0.88437000  0.67703000  0.68538000  1.0
  C  C55  1  0.38559000  0.32299000  0.31455000  1.0
  C  C56  1  0.90389000  0.75385000  0.78881000  1.0
  C  C57  1  0.40477000  0.24604000  0.21116000  1.0
  C  C58  1  0.92594000  0.69495000  0.82382000  1.0
  C  C59  1  0.42494000  0.30493000  0.17602000  1.0
  C  C60  1  0.91757000  0.62848000  0.78962000  1.0
  C  C61  1  0.41687000  0.37143000  0.21019000  1.0
  C  C62  1  0.88695000  0.61927000  0.72414000  1.0
  C  C63  1  0.38736000  0.38071000  0.27574000  1.0
  C  C64  1  0.89187000  0.81873000  0.82469000  1.0
  C  C65  1  0.39361000  0.18110000  0.17538000  1.0
  C  C66  1  0.94044000  0.76687000  0.92575000  1.0
  C  C67  1  0.43605000  0.23290000  0.07401000  1.0
  C  C68  1  0.87944000  0.67057000  0.61634000  1.0
  C  C69  1  0.38117000  0.32953000  0.38362000  1.0
  C  C70  1  0.02855000  0.31421000  0.62763000  1.0
  C  C71  1  0.52845000  0.68587000  0.37239000  1.0
  C  C72  1  0.86506000  0.35877000  0.62354000  1.0
  C  C73  1  0.36515000  0.64130000  0.37644000  1.0
  C  C74  1  0.69937000  0.35526000  0.66480000  1.0
  C  C75  1  0.19975000  0.64486000  0.33521000  1.0
  C  C76  1  0.70157000  0.31144000  0.71457000  1.0
  C  C77  1  0.20206000  0.68874000  0.28549000  1.0
  C  C78  1  0.86871000  0.26601000  0.71920000  1.0
  C  C79  1  0.36897000  0.73418000  0.28089000  1.0
  C  C80  1  0.03072000  0.26588000  0.67360000  1.0
  C  C81  1  0.53064000  0.73426000  0.32649000  1.0
  C  C82  1  0.54539000  0.31259000  0.76240000  1.0
  C  C83  1  0.04617000  0.68766000  0.23770000  1.0
  C  C84  1  0.55347000  0.27143000  0.81204000  1.0
  C  C85  1  0.05422000  0.72891000  0.18812000  1.0
  C  C86  1  0.71738000  0.22450000  0.81676000  1.0
  C  C87  1  0.21789000  0.77586000  0.18344000  1.0
  C  C88  1  0.87577000  0.22187000  0.76986000  1.0
  C  C89  1  0.37616000  0.77835000  0.23027000  1.0
  C  C90  1  0.04202000  0.17597000  0.77429000  1.0
  C  C91  1  0.54252000  0.82410000  0.22581000  1.0
  C  C92  1  0.19791000  0.17489000  0.72630000  1.0
  C  C93  1  0.69803000  0.82516000  0.27378000  1.0
  C  C94  1  0.19276000  0.21800000  0.67817000  1.0
  C  C95  1  0.69261000  0.78208000  0.32193000  1.0
  C  C96  1  0.72924000  0.17958000  0.86557000  1.0
  C  C97  1  0.23007000  0.82088000  0.13472000  1.0
  C  C98  1  0.88925000  0.13364000  0.87050000  1.0
  C  C99  1  0.39054000  0.86648000  0.12966000  1.0
  C  C100  1  0.04622000  0.13373000  0.82526000  1.0
  C  C101  1  0.54740000  0.86622000  0.17475000  1.0
  C  C102  1  0.39875000  0.10550000  0.07099000  1.0
  C  C103  1  0.90177000  0.89422000  0.92906000  1.0
  C  C104  1  0.39603000  0.91785000  0.08062000  1.0
  C  C105  1  0.89359000  0.08205000  0.91935000  1.0
  C  C106  1  0.84623000  0.54686000  0.69809000  1.0
  C  C107  1  0.34676000  0.45314000  0.30194000  1.0
  O  O108  1  0.54753000  0.42610000  0.43872000  1.0
  O  O109  1  0.04645000  0.57388000  0.56141000  1.0
  O  O110  1  0.20707000  0.55709000  0.43465000  1.0
  O  O111  1  0.70715000  0.44310000  0.56541000  1.0
  O  O112  1  0.21068000  0.41675000  0.44857000  1.0
  O  O113  1  0.70974000  0.58345000  0.55127000  1.0
  O  O114  1  0.04657000  0.43091000  0.55938000  1.0
  O  O115  1  0.54648000  0.56905000  0.44051000  1.0
  O  O116  1  0.37859000  0.50784000  0.54025000  1.0
  O  O117  1  0.87896000  0.49222000  0.45976000  1.0
  O  O118  1  0.22787000  0.94182000  0.06423000  1.0
  O  O119  1  0.72447000  0.06079000  0.93790000  1.0
  O  O120  1  0.56633000  0.07630000  0.05736000  1.0
  O  O121  1  0.07024000  0.92114000  0.94529000  1.0
  O  O122  1  0.56946000  0.93545000  0.06180000  1.0
  O  O123  1  0.06640000  0.06153000  0.93597000  1.0
  O  O124  1  0.72962000  0.92031000  0.94229000  1.0
  O  O125  1  0.22604000  0.08167000  0.05520000  1.0
  O  O126  1  0.39747000  0.99286000  0.96033000  1.0
  O  O127  1  0.89719000  0.00697000  0.03960000  1.0
  O  O128  1  0.96397000  0.49915000  0.70076000  1.0
  O  O129  1  0.65663000  0.53983000  0.67416000  1.0
  O  O130  1  0.46496000  0.50067000  0.29949000  1.0
  O  O131  1  0.15684000  0.46036000  0.32577000  1.0
  F  F132  1  0.57837000  0.18323000  0.91018000  1.0
  F  F133  1  0.07950000  0.81765000  0.09013000  1.0
