# generated using pymatgen
data_CdH8C10S2(NO)2
_symmetry_space_group_name_H-M   'P 1'
_cell_length_a   3.80791000
_cell_length_b   7.98466000
_cell_length_c   18.60170000
_cell_angle_alpha   89.99720000
_cell_angle_beta   89.99900000
_cell_angle_gamma   87.37640000
_symmetry_Int_Tables_number   1
_chemical_formula_structural   CdH8C10S2(NO)2
_chemical_formula_sum   'Cd2 H16 C20 S4 N4 O4'
_cell_volume   564.98936423
_cell_formula_units_Z   2
loop_
 _symmetry_equiv_pos_site_id
 _symmetry_equiv_pos_as_xyz
  1  'x, y, z'
loop_
 _atom_site_type_symbol
 _atom_site_label
 _atom_site_symmetry_multiplicity
 _atom_site_fract_x
 _atom_site_fract_y
 _atom_site_fract_z
 _atom_site_occupancy
  Cd  Cd0  1  0.99998000  0.50004000  0.50000000  1.0
  Cd  Cd1  1  0.49995000  0.99998000  1.00000000  1.0
  H  H2  1  0.22182000  0.92785000  0.55199000  1.0
  H  H3  1  0.27821000  0.57217000  0.05199000  1.0
  H  H4  1  0.77816000  0.07220000  0.44801000  1.0
  H  H5  1  0.72182000  0.42780000  0.94802000  1.0
  H  H6  1  0.49949000  0.81119000  0.66525000  1.0
  H  H7  1  0.00053000  0.68878000  0.16525000  1.0
  H  H8  1  0.50050000  0.18885000  0.33475000  1.0
  H  H9  1  0.99951000  0.31117000  0.83476000  1.0
  H  H10  1  0.72920000  0.01745000  0.75692000  1.0
  H  H11  1  0.77076000  0.48256000  0.25692000  1.0
  H  H12  1  0.27084000  0.98261000  0.24307000  1.0
  H  H13  1  0.22931000  0.51740000  0.74309000  1.0
  H  H14  1  0.70270000  0.32017000  0.72553000  1.0
  H  H15  1  0.79721000  0.17981000  0.22554000  1.0
  H  H16  1  0.29732000  0.67986000  0.27445000  1.0
  H  H17  1  0.20283000  0.82015000  0.77447000  1.0
  C  C18  1  0.33822000  0.00581000  0.59280000  1.0
  C  C19  1  0.16178000  0.49418000  0.09280000  1.0
  C  C20  1  0.66178000  0.99423000  0.40719000  1.0
  C  C21  1  0.83820000  0.50577000  0.90720000  1.0
  C  C22  1  0.48651000  0.94607000  0.65600000  1.0
  C  C23  1  0.01346000  0.55391000  0.15600000  1.0
  C  C24  1  0.51349000  0.05397000  0.34399000  1.0
  C  C25  1  0.98655000  0.44604000  0.84401000  1.0
  C  C26  1  0.61658000  0.05904000  0.70572000  1.0
  C  C27  1  0.88337000  0.44093000  0.20570000  1.0
  C  C28  1  0.38344000  0.94100000  0.29427000  1.0
  C  C29  1  0.11670000  0.55902000  0.79430000  1.0
  C  C30  1  0.60045000  0.22822000  0.68883000  1.0
  C  C31  1  0.89944000  0.27174000  0.18882000  1.0
  C  C32  1  0.39955000  0.77181000  0.31116000  1.0
  C  C33  1  0.10057000  0.72819000  0.81119000  1.0
  C  C34  1  0.45773000  0.28895000  0.62377000  1.0
  C  C35  1  0.04218000  0.21107000  0.12377000  1.0
  C  C36  1  0.54222000  0.71109000  0.37623000  1.0
  C  C37  1  0.95779000  0.78889000  0.87623000  1.0
  S  S38  1  0.45712000  0.49968000  0.60275000  1.0
  S  S39  1  0.04280000  0.00031000  0.10274000  1.0
  S  S40  1  0.54281000  0.50036000  0.39726000  1.0
  S  S41  1  0.95715000  0.99965000  0.89726000  1.0
  N  N42  1  0.32180000  0.17287000  0.57688000  1.0
  N  N43  1  0.17815000  0.32712000  0.07688000  1.0
  N  N44  1  0.67817000  0.82718000  0.42311000  1.0
  N  N45  1  0.82182000  0.67283000  0.92311000  1.0
  O  O46  1  0.17634000  0.21800000  0.51477000  1.0
  O  O47  1  0.32366000  0.28201000  0.01477000  1.0
  O  O48  1  0.82365000  0.78206000  0.48522000  1.0
  O  O49  1  0.67636000  0.71795000  0.98523000  1.0
