# generated using pymatgen
data_CoH13C20N5O4
_symmetry_space_group_name_H-M   'P 1'
_cell_length_a   8.67430000
_cell_length_b   10.02070000
_cell_length_c   11.64220000
_cell_angle_alpha   89.59970000
_cell_angle_beta   84.92230000
_cell_angle_gamma   68.28090000
_symmetry_Int_Tables_number   1
_chemical_formula_structural   CoH13C20N5O4
_chemical_formula_sum   'Co2 H26 C40 N10 O8'
_cell_volume   936.07678749
_cell_formula_units_Z   2
loop_
 _symmetry_equiv_pos_site_id
 _symmetry_equiv_pos_as_xyz
  1  'x, y, z'
loop_
 _atom_site_type_symbol
 _atom_site_label
 _atom_site_symmetry_multiplicity
 _atom_site_fract_x
 _atom_site_fract_y
 _atom_site_fract_z
 _atom_site_occupancy
  Co  Co0  1  0.46158000  0.83594000  0.40059000  1.0
  Co  Co1  1  0.53843000  0.16406000  0.59941000  1.0
  H  H2  1  0.16338000  0.09370000  0.51801000  1.0
  H  H3  1  0.83662000  0.90630000  0.48199000  1.0
  H  H4  1  0.39591000  0.40528000  0.42063000  1.0
  H  H5  1  0.60409000  0.59472000  0.57937000  1.0
  H  H6  1  0.38376000  0.56743000  0.07714000  1.0
  H  H7  1  0.61624000  0.43257000  0.92286000  1.0
  H  H8  1  0.37576000  0.14403000  0.13489000  1.0
  H  H9  1  0.62424000  0.85596000  0.86510000  1.0
  H  H10  1  0.59324000  0.94399000  0.17556000  1.0
  H  H11  1  0.40676000  0.05601000  0.82444000  1.0
  H  H12  1  0.78782000  0.59813000  0.38529000  1.0
  H  H13  1  0.21218000  0.40186000  0.61471000  1.0
  H  H14  1  0.75140000  0.12899000  0.84122000  1.0
  H  H15  1  0.24860000  0.87101000  0.15878000  1.0
  H  H16  1  0.37518000  0.33779000  0.00074000  1.0
  H  H17  1  0.62482000  0.66221000  0.99926000  1.0
  H  H18  1  0.96988000  0.13596000  0.69590000  1.0
  H  H19  1  0.03012000  0.86404000  0.30410000  1.0
  H  H20  1  0.33049000  0.65183000  0.55114000  1.0
  H  H21  1  0.66951000  0.34818000  0.44886000  1.0
  H  H22  1  0.04469000  0.48810000  0.24742000  1.0
  H  H23  1  0.95531000  0.51189000  0.75258000  1.0
  H  H24  1  0.15178000  0.67584000  0.73537000  1.0
  H  H25  1  0.84822000  0.32416000  0.26463000  1.0
  H  H26  1  0.07073000  0.61865000  0.06520000  1.0
  H  H27  1  0.92927000  0.38135000  0.93479000  1.0
  C  C28  1  0.69649000  0.84414000  0.18862000  1.0
  C  C29  1  0.30351000  0.15586000  0.81138000  1.0
  C  C30  1  0.80590000  0.64983000  0.30539000  1.0
  C  C31  1  0.19410000  0.35016000  0.69462000  1.0
  C  C32  1  0.94770000  0.58974000  0.22874000  1.0
  C  C33  1  0.05230000  0.41025000  0.77126000  1.0
  C  C34  1  0.38938000  0.39085000  0.32887000  1.0
  C  C35  1  0.61062000  0.60915000  0.67113000  1.0
  C  C36  1  0.41025000  0.62887000  0.30167000  1.0
  C  C37  1  0.58975000  0.37113000  0.69833000  1.0
  C  C38  1  0.38775000  0.14657000  0.36902000  1.0
  C  C39  1  0.61225000  0.85343000  0.63098000  1.0
  C  C40  1  0.38154000  0.26332000  0.28696000  1.0
  C  C41  1  0.61846000  0.73668000  0.71304000  1.0
  C  C42  1  0.39183000  0.49930000  0.25355000  1.0
  C  C43  1  0.60817000  0.50070000  0.74645000  1.0
  C  C44  1  0.38345000  0.48164000  0.13522000  1.0
  C  C45  1  0.61655000  0.51836000  0.86477000  1.0
  C  C46  1  0.04659000  0.90804000  0.73208000  1.0
  C  C47  1  0.95341000  0.09196000  0.26792000  1.0
  C  C48  1  0.85252000  0.87218000  0.00469000  1.0
  C  C49  1  0.14748000  0.12782000  0.99531000  1.0
  C  C50  1  0.15524000  0.00349000  0.56735000  1.0
  C  C51  1  0.84476000  0.99651000  0.43265000  1.0
  C  C52  1  0.04859000  0.02653000  0.66794000  1.0
  C  C53  1  0.95141000  0.97347000  0.33206000  1.0
  C  C54  1  0.94736000  0.91931000  0.84182000  1.0
  C  C55  1  0.05264000  0.08069000  0.15818000  1.0
  C  C56  1  0.83649000  0.79301000  0.10793000  1.0
  C  C57  1  0.16351000  0.20699000  0.89207000  1.0
  C  C58  1  0.37745000  0.24465000  0.16809000  1.0
  C  C59  1  0.62256000  0.75535000  0.83190000  1.0
  C  C60  1  0.37791000  0.35366000  0.09294000  1.0
  C  C61  1  0.62210000  0.64635000  0.90706000  1.0
  C  C62  1  0.24940000  0.75739000  0.58620000  1.0
  C  C63  1  0.75060000  0.24261000  0.41380000  1.0
  C  C64  1  0.96279000  0.66156000  0.12817000  1.0
  C  C65  1  0.03721000  0.33844000  0.87183000  1.0
  C  C66  1  0.14922000  0.77076000  0.68825000  1.0
  C  C67  1  0.85078000  0.22924000  0.31175000  1.0
  N  N68  1  0.68099000  0.77389000  0.28482000  1.0
  N  N69  1  0.31901000  0.22610000  0.71518000  1.0
  N  N70  1  0.25659000  0.87162000  0.52642000  1.0
  N  N71  1  0.74341000  0.12838000  0.47358000  1.0
  N  N72  1  0.74898000  0.00731000  0.98623000  1.0
  N  N73  1  0.25101000  0.99269000  0.01378000  1.0
  N  N74  1  0.81278000  0.03504000  0.88320000  1.0
  N  N75  1  0.18722000  0.96496000  0.11681000  1.0
  N  N76  1  0.97568000  0.81417000  0.91800000  1.0
  N  N77  1  0.02432000  0.18583000  0.08200000  1.0
  O  O78  1  0.38090000  0.03082000  0.32955000  1.0
  O  O79  1  0.61909000  0.96918000  0.67045000  1.0
  O  O80  1  0.39748000  0.16876000  0.47563000  1.0
  O  O81  1  0.60252000  0.83124000  0.52437000  1.0
  O  O82  1  0.49325000  0.61458000  0.38937000  1.0
  O  O83  1  0.50674000  0.38542000  0.61064000  1.0
  O  O84  1  0.34606000  0.75241000  0.25824000  1.0
  O  O85  1  0.65395000  0.24759000  0.74176000  1.0
