# generated using pymatgen
data_CdH12C18N2(O3F2)2
_symmetry_space_group_name_H-M   'P 1'
_cell_length_a   7.12381000
_cell_length_b   7.91442000
_cell_length_c   8.27039000
_cell_angle_alpha   85.90950000
_cell_angle_beta   72.11120000
_cell_angle_gamma   86.91580000
_symmetry_Int_Tables_number   1
_chemical_formula_structural   CdH12C18N2(O3F2)2
_chemical_formula_sum   'Cd1 H12 C18 N2 O6 F4'
_cell_volume   442.36801402
_cell_formula_units_Z   1
loop_
 _symmetry_equiv_pos_site_id
 _symmetry_equiv_pos_as_xyz
  1  'x, y, z'
loop_
 _atom_site_type_symbol
 _atom_site_label
 _atom_site_symmetry_multiplicity
 _atom_site_fract_x
 _atom_site_fract_y
 _atom_site_fract_z
 _atom_site_occupancy
  Cd  Cd0  1  0.00001000  0.00000000  0.00000000  1.0
  H  H1  1  0.35695000  0.86435000  0.09819000  1.0
  H  H2  1  0.64305000  0.13565000  0.90181000  1.0
  H  H3  1  0.38703000  0.93587000  0.91076000  1.0
  H  H4  1  0.61298000  0.06413000  0.08924000  1.0
  H  H5  1  0.86461000  0.40365000  0.79244000  1.0
  H  H6  1  0.13538000  0.59635000  0.20756000  1.0
  H  H7  1  0.13643000  0.96369000  0.59266000  1.0
  H  H8  1  0.86357000  0.03630000  0.40734000  1.0
  H  H9  1  0.13987000  0.76375000  0.37717000  1.0
  H  H10  1  0.86012000  0.23624000  0.62283000  1.0
  H  H11  1  0.86557000  0.62184000  0.98779000  1.0
  H  H12  1  0.13444000  0.37815000  0.01221000  1.0
  C  C13  1  0.00030000  0.56253000  0.56248000  1.0
  C  C14  1  0.99970000  0.43747000  0.43752000  1.0
  C  C15  1  0.47763000  0.50486000  0.67148000  1.0
  C  C16  1  0.52236000  0.49515000  0.32852000  1.0
  C  C17  1  0.92460000  0.52587000  0.73887000  1.0
  C  C18  1  0.07540000  0.47413000  0.26113000  1.0
  C  C19  1  0.43470000  0.35625000  0.61140000  1.0
  C  C20  1  0.56529000  0.64375000  0.38860000  1.0
  C  C21  1  0.07472000  0.83867000  0.63117000  1.0
  C  C22  1  0.92529000  0.16132000  0.36883000  1.0
  C  C23  1  0.54219000  0.64613000  0.56182000  1.0
  C  C24  1  0.45781000  0.35387000  0.43817000  1.0
  C  C25  1  0.36312000  0.20239000  0.73086000  1.0
  C  C26  1  0.63689000  0.79762000  0.26914000  1.0
  C  C27  1  0.07687000  0.72421000  0.51066000  1.0
  C  C28  1  0.92313000  0.27578000  0.48934000  1.0
  C  C29  1  0.92540000  0.64811000  0.85102000  1.0
  C  C30  1  0.07461000  0.35189000  0.14898000  1.0
  N  N31  1  0.99861000  0.80283000  0.79956000  1.0
  N  N32  1  0.00139000  0.19716000  0.20044000  1.0
  O  O33  1  0.49083000  0.11065000  0.77616000  1.0
  O  O34  1  0.50917000  0.88936000  0.22384000  1.0
  O  O35  1  0.29920000  0.86301000  0.00372000  1.0
  O  O36  1  0.70081000  0.13699000  0.99628000  1.0
  O  O37  1  0.17891000  0.18076000  0.77306000  1.0
  O  O38  1  0.82109000  0.81924000  0.22693000  1.0
  F  F39  1  0.58253000  0.78866000  0.62463000  1.0
  F  F40  1  0.41746000  0.21134000  0.37537000  1.0
  F  F41  1  0.45711000  0.51185000  0.83938000  1.0
  F  F42  1  0.54289000  0.48816000  0.16062000  1.0
