# generated using pymatgen
data_Zn3P3H18C18N7O9
_symmetry_space_group_name_H-M   'P 1'
_cell_length_a   8.53327000
_cell_length_b   15.50950000
_cell_length_c   15.71590000
_cell_angle_alpha   60.98650000
_cell_angle_beta   77.37430000
_cell_angle_gamma   88.94240000
_symmetry_Int_Tables_number   1
_chemical_formula_structural   Zn3P3H18C18N7O9
_chemical_formula_sum   'Zn6 P6 H36 C36 N14 O18'
_cell_volume   1765.57478468
_cell_formula_units_Z   2
loop_
 _symmetry_equiv_pos_site_id
 _symmetry_equiv_pos_as_xyz
  1  'x, y, z'
loop_
 _atom_site_type_symbol
 _atom_site_label
 _atom_site_symmetry_multiplicity
 _atom_site_fract_x
 _atom_site_fract_y
 _atom_site_fract_z
 _atom_site_occupancy
  Zn  Zn0  1  0.80055000  0.45035000  0.46231000  1.0
  Zn  Zn1  1  0.19946000  0.54965000  0.53769000  1.0
  Zn  Zn2  1  0.40952000  0.31798000  0.35207000  1.0
  Zn  Zn3  1  0.59048000  0.68201000  0.64793000  1.0
  Zn  Zn4  1  0.82025000  0.08514000  0.52908000  1.0
  Zn  Zn5  1  0.17975000  0.91486000  0.47092000  1.0
  P  P6  1  0.61313000  0.26201000  0.50405000  1.0
  P  P7  1  0.38687000  0.73799000  0.49595000  1.0
  P  P8  1  0.19835000  0.12418000  0.46589000  1.0
  P  P9  1  0.80165000  0.87582000  0.53411000  1.0
  P  P10  1  0.19031000  0.43898000  0.41976000  1.0
  P  P11  1  0.80969000  0.56103000  0.58024000  1.0
  H  H12  1  0.38234000  0.22613000  0.64653000  1.0
  H  H13  1  0.61766000  0.77387000  0.35347000  1.0
  H  H14  1  0.40971000  0.35162000  0.54737000  1.0
  H  H15  1  0.59030000  0.64838000  0.45263000  1.0
  H  H16  1  0.09649000  0.30660000  0.59435000  1.0
  H  H17  1  0.90351000  0.69340000  0.40565000  1.0
  H  H18  1  0.04816000  0.27652000  0.50629000  1.0
  H  H19  1  0.95185000  0.72348000  0.49371000  1.0
  H  H20  1  0.14593000  0.11684000  0.62998000  1.0
  H  H21  1  0.85407000  0.88316000  0.37002000  1.0
  H  H22  1  0.35229000  0.11014000  0.57917000  1.0
  H  H23  1  0.64771000  0.88986000  0.42084000  1.0
  H  H24  1  0.49624000  0.55721000  0.35497000  1.0
  H  H25  1  0.50376000  0.44279000  0.64503000  1.0
  H  H26  1  0.56513000  0.67198000  0.14814000  1.0
  H  H27  1  0.43488000  0.32802000  0.85186000  1.0
  H  H28  1  0.99222000  0.55655000  0.24163000  1.0
  H  H29  1  0.00778000  0.44345000  0.75837000  1.0
  H  H30  1  0.48779000  0.47855000  0.89149000  1.0
  H  H31  1  0.51221000  0.52144000  0.10851000  1.0
  H  H32  1  0.21314000  0.48830000  0.01829000  1.0
  H  H33  1  0.78686000  0.51170000  0.98171000  1.0
  H  H34  1  0.35451000  0.76797000  0.75196000  1.0
  H  H35  1  0.64548000  0.23202000  0.24804000  1.0
  H  H36  1  0.74114000  0.11490000  0.72402000  1.0
  H  H37  1  0.25886000  0.88510000  0.27598000  1.0
  H  H38  1  0.79661000  0.96954000  0.90711000  1.0
  H  H39  1  0.20339000  0.03047000  0.09289000  1.0
  H  H40  1  0.92741000  0.87802000  0.68770000  1.0
  H  H41  1  0.07258000  0.12197000  0.31230000  1.0
  H  H42  1  0.11518000  0.80198000  0.77954000  1.0
  H  H43  1  0.88481000  0.19802000  0.22046000  1.0
  H  H44  1  0.73996000  0.79600000  0.01592000  1.0
  H  H45  1  0.26004000  0.20400000  0.98408000  1.0
  H  H46  1  0.06254000  0.56674000  0.08573000  1.0
  H  H47  1  0.93746000  0.43326000  0.91427000  1.0
  C  C48  1  0.40917000  0.27411000  0.56423000  1.0
  C  C49  1  0.59083000  0.72589000  0.43577000  1.0
  C  C50  1  0.14381000  0.30986000  0.52135000  1.0
  C  C51  1  0.85619000  0.69014000  0.47865000  1.0
  C  C52  1  0.24462000  0.14853000  0.56114000  1.0
  C  C53  1  0.75538000  0.85146000  0.43886000  1.0
  C  C54  1  0.61092000  0.57669000  0.29980000  1.0
  C  C55  1  0.38909000  0.42331000  0.70020000  1.0
  C  C56  1  0.64327000  0.63364000  0.19778000  1.0
  C  C57  1  0.35673000  0.36636000  0.80222000  1.0
  C  C58  1  0.86710000  0.57140000  0.24350000  1.0
  C  C59  1  0.13290000  0.42860000  0.75650000  1.0
  C  C60  1  0.41819000  0.54031000  0.88232000  1.0
  C  C61  1  0.58181000  0.45969000  0.11768000  1.0
  C  C62  1  0.28261000  0.54410000  0.94550000  1.0
  C  C63  1  0.71739000  0.45589000  0.05450000  1.0
  C  C64  1  0.35311000  0.69072000  0.80711000  1.0
  C  C65  1  0.64688000  0.30928000  0.19289000  1.0
  C  C66  1  0.78722000  0.04341000  0.74531000  1.0
  C  C67  1  0.21277000  0.95659000  0.25469000  1.0
  C  C68  1  0.81215000  0.97239000  0.83554000  1.0
  C  C69  1  0.18784000  0.02761000  0.16446000  1.0
  C  C70  1  0.88652000  0.92364000  0.72176000  1.0
  C  C71  1  0.11348000  0.07636000  0.27824000  1.0
  C  C72  1  0.10553000  0.68059000  0.92943000  1.0
  C  C73  1  0.89446000  0.31941000  0.07057000  1.0
  C  C74  1  0.05473000  0.76675000  0.85871000  1.0
  C  C75  1  0.94526000  0.23325000  0.14129000  1.0
  C  C76  1  0.92427000  0.80791000  0.89096000  1.0
  C  C77  1  0.07573000  0.19209000  0.10904000  1.0
  C  C78  1  0.84211000  0.76354000  0.99168000  1.0
  C  C79  1  0.15790000  0.23646000  0.00833000  1.0
  C  C80  1  0.89246000  0.67639000  0.06082000  1.0
  C  C81  1  0.10754000  0.32361000  0.93918000  1.0
  C  C82  1  0.02479000  0.63450000  0.03071000  1.0
  C  C83  1  0.97521000  0.36550000  0.96929000  1.0
  N  N84  1  0.75149000  0.53940000  0.32659000  1.0
  N  N85  1  0.24852000  0.46061000  0.67341000  1.0
  N  N86  1  0.46043000  0.63192000  0.79717000  1.0
  N  N87  1  0.53956000  0.36807000  0.20283000  1.0
  N  N88  1  0.83347000  0.01152000  0.67614000  1.0
  N  N89  1  0.16653000  0.98848000  0.32386000  1.0
  N  N90  1  0.80648000  0.62965000  0.16211000  1.0
  N  N91  1  0.19353000  0.37036000  0.83789000  1.0
  N  N92  1  0.24057000  0.64061000  0.89656000  1.0
  N  N93  1  0.75943000  0.35939000  0.10344000  1.0
  N  N94  1  0.87572000  0.89646000  0.81982000  1.0
  N  N95  1  0.12427000  0.10354000  0.18018000  1.0
  N  N96  1  0.28667000  0.25499000  0.52062000  1.0
  N  N97  1  0.71333000  0.74501000  0.47938000  1.0
  O  O98  1  0.63006000  0.15034000  0.54726000  1.0
  O  O99  1  0.36995000  0.84966000  0.45274000  1.0
  O  O100  1  0.73359000  0.30977000  0.53356000  1.0
  O  O101  1  0.26641000  0.69022000  0.46644000  1.0
  O  O102  1  0.62068000  0.31725000  0.39113000  1.0
  O  O103  1  0.37932000  0.68276000  0.60887000  1.0
  O  O104  1  0.20458000  0.01174000  0.51246000  1.0
  O  O105  1  0.79543000  0.98826000  0.48755000  1.0
  O  O106  1  0.03113000  0.15783000  0.44629000  1.0
  O  O107  1  0.96887000  0.84217000  0.55371000  1.0
  O  O108  1  0.33063000  0.18719000  0.36981000  1.0
  O  O109  1  0.66938000  0.81280000  0.63019000  1.0
  O  O110  1  0.03228000  0.48515000  0.40307000  1.0
  O  O111  1  0.96772000  0.51485000  0.59693000  1.0
  O  O112  1  0.29290000  0.49377000  0.45253000  1.0
  O  O113  1  0.70710000  0.50623000  0.54747000  1.0
  O  O114  1  0.28760000  0.43563000  0.32672000  1.0
  O  O115  1  0.71240000  0.56437000  0.67328000  1.0
