# generated using pymatgen
data_CuH3(CN2)2
_symmetry_space_group_name_H-M   'P 1'
_cell_length_a   3.59387000
_cell_length_b   10.26390000
_cell_length_c   10.39809930
_cell_angle_alpha   89.99986853
_cell_angle_beta   99.44606647
_cell_angle_gamma   89.99980000
_symmetry_Int_Tables_number   1
_chemical_formula_structural   CuH3(CN2)2
_chemical_formula_sum   'Cu4 H12 C8 N16'
_cell_volume   378.35514359
_cell_formula_units_Z   4
loop_
 _symmetry_equiv_pos_site_id
 _symmetry_equiv_pos_as_xyz
  1  'x, y, z'
loop_
 _atom_site_type_symbol
 _atom_site_label
 _atom_site_symmetry_multiplicity
 _atom_site_fract_x
 _atom_site_fract_y
 _atom_site_fract_z
 _atom_site_occupancy
  Cu  Cu0  1  0.74418000  0.61327000  0.60414000  1.0
  Cu  Cu1  1  0.75581000  0.11327000  0.89586000  1.0
  Cu  Cu2  1  0.25581000  0.38673000  0.39586000  1.0
  Cu  Cu3  1  0.24419000  0.88673000  0.10414000  1.0
  H  H4  1  0.99946000  0.84862000  0.47581000  1.0
  H  H5  1  0.50055000  0.34863000  0.02420000  1.0
  H  H6  1  0.00056000  0.15137000  0.52420000  1.0
  H  H7  1  0.49944000  0.65138000  0.97580000  1.0
  H  H8  1  0.89466000  0.91922000  0.32776000  1.0
  H  H9  1  0.60534000  0.41923000  0.17225000  1.0
  H  H10  1  0.10535000  0.08077000  0.67225000  1.0
  H  H11  1  0.39466000  0.58078000  0.82775000  1.0
  H  H12  1  0.10060000  0.57943000  0.13776000  1.0
  H  H13  1  0.39941000  0.07943000  0.36224000  1.0
  H  H14  1  0.89939000  0.42057000  0.86224000  1.0
  H  H15  1  0.60059000  0.92057000  0.63776000  1.0
  C  C16  1  0.60840000  0.75587000  0.34967000  1.0
  C  C17  1  0.89159000  0.25587000  0.15033000  1.0
  C  C18  1  0.39159000  0.24413000  0.65033000  1.0
  C  C19  1  0.10841000  0.74413000  0.84967000  1.0
  C  C20  1  0.27309000  0.62261000  0.22258000  1.0
  C  C21  1  0.22692000  0.12262000  0.27742000  1.0
  C  C22  1  0.72692000  0.37738000  0.77743000  1.0
  C  C23  1  0.77307000  0.87738000  0.72257000  1.0
  N  N24  1  0.58490000  0.64725000  0.41920000  1.0
  N  N25  1  0.91511000  0.14725000  0.08080000  1.0
  N  N26  1  0.41510000  0.35274000  0.58080000  1.0
  N  N27  1  0.08491000  0.85274000  0.91920000  1.0
  N  N28  1  0.36761000  0.56009000  0.33535000  1.0
  N  N29  1  0.13240000  0.06010000  0.16465000  1.0
  N  N30  1  0.63239000  0.43990000  0.66466000  1.0
  N  N31  1  0.86761000  0.93990000  0.83534000  1.0
  N  N32  1  0.41438000  0.74604000  0.22597000  1.0
  N  N33  1  0.08562000  0.24605000  0.27403000  1.0
  N  N34  1  0.58561000  0.25396000  0.77403000  1.0
  N  N35  1  0.91438000  0.75397000  0.72597000  1.0
  N  N36  1  0.79297000  0.86747000  0.39852000  1.0
  N  N37  1  0.70703000  0.36748000  0.10149000  1.0
  N  N38  1  0.20703000  0.13252000  0.60148000  1.0
  N  N39  1  0.29297000  0.63253000  0.89852000  1.0
