# generated using pymatgen
data_Zn2CoH14(C3O4)4
_symmetry_space_group_name_H-M   'P 1'
_cell_length_a   6.10029000
_cell_length_b   9.40211000
_cell_length_c   15.11180000
_cell_angle_alpha   89.99970000
_cell_angle_beta   89.99920000
_cell_angle_gamma   102.97800000
_symmetry_Int_Tables_number   1
_chemical_formula_structural   Zn2CoH14(C3O4)4
_chemical_formula_sum   'Zn4 Co2 H28 C24 O32'
_cell_volume   844.60647081
_cell_formula_units_Z   2
loop_
 _symmetry_equiv_pos_site_id
 _symmetry_equiv_pos_as_xyz
  1  'x, y, z'
loop_
 _atom_site_type_symbol
 _atom_site_label
 _atom_site_symmetry_multiplicity
 _atom_site_fract_x
 _atom_site_fract_y
 _atom_site_fract_z
 _atom_site_occupancy
  Zn  Zn0  1  0.59429000  0.84890000  0.09168000  1.0
  Zn  Zn1  1  0.40570000  0.65109000  0.59168000  1.0
  Zn  Zn2  1  0.40571000  0.15110000  0.90832000  1.0
  Zn  Zn3  1  0.59430000  0.34891000  0.40832000  1.0
  Co  Co4  1  0.00000000  0.50000000  0.00000000  1.0
  Co  Co5  1  0.00000000  0.00000000  0.50000000  1.0
  H  H6  1  0.16608000  0.83208000  0.06759000  1.0
  H  H7  1  0.83392000  0.66792000  0.56759000  1.0
  H  H8  1  0.83392000  0.16792000  0.93241000  1.0
  H  H9  1  0.16608000  0.33208000  0.43241000  1.0
  H  H10  1  0.28566000  0.00106000  0.07795000  1.0
  H  H11  1  0.71434000  0.49894000  0.57795000  1.0
  H  H12  1  0.71434000  0.99894000  0.92205000  1.0
  H  H13  1  0.28565000  0.50106000  0.42205000  1.0
  H  H14  1  0.31564000  0.43905000  0.23912000  1.0
  H  H15  1  0.68432000  0.06094000  0.73912000  1.0
  H  H16  1  0.68435000  0.56095000  0.76088000  1.0
  H  H17  1  0.31568000  0.93906000  0.26088000  1.0
  H  H18  1  0.48050000  0.36790000  0.16342000  1.0
  H  H19  1  0.51949000  0.13209000  0.66341000  1.0
  H  H20  1  0.51950000  0.63210000  0.83658000  1.0
  H  H21  1  0.48051000  0.86791000  0.33659000  1.0
  H  H22  1  0.20720000  0.15398000  0.22139000  1.0
  H  H23  1  0.79279000  0.34601000  0.72138000  1.0
  H  H24  1  0.79280000  0.84602000  0.77861000  1.0
  H  H25  1  0.20722000  0.65399000  0.27862000  1.0
  H  H26  1  0.99698000  0.23676000  0.26251000  1.0
  H  H27  1  0.00300000  0.26323000  0.76251000  1.0
  H  H28  1  0.00302000  0.76324000  0.73749000  1.0
  H  H29  1  0.99701000  0.73677000  0.23749000  1.0
  H  H30  1  0.89865000  0.42774000  0.17906000  1.0
  H  H31  1  0.10134000  0.07226000  0.67906000  1.0
  H  H32  1  0.10134000  0.57226000  0.82093000  1.0
  H  H33  1  0.89866000  0.92774000  0.32094000  1.0
  C  C34  1  0.39842000  0.56536000  0.12163000  1.0
  C  C35  1  0.60157000  0.93464000  0.62163000  1.0
  C  C36  1  0.60158000  0.43465000  0.87837000  1.0
  C  C37  1  0.39843000  0.06536000  0.37837000  1.0
  C  C38  1  0.33628000  0.41975000  0.16826000  1.0
  C  C39  1  0.66370000  0.08024000  0.66825000  1.0
  C  C40  1  0.66372000  0.58025000  0.83174000  1.0
  C  C41  1  0.33629000  0.91976000  0.33175000  1.0
  C  C42  1  0.12241000  0.31418000  0.13362000  1.0
  C  C43  1  0.87758000  0.18581000  0.63362000  1.0
  C  C44  1  0.87759000  0.68582000  0.86638000  1.0
  C  C45  1  0.12242000  0.81419000  0.36638000  1.0
  C  C46  1  0.17166000  0.25565000  0.04243000  1.0
  C  C47  1  0.82835000  0.24436000  0.54243000  1.0
  C  C48  1  0.82834000  0.74435000  0.95757000  1.0
  C  C49  1  0.17164000  0.75565000  0.45758000  1.0
  C  C50  1  0.05575000  0.19158000  0.20211000  1.0
  C  C51  1  0.94424000  0.30841000  0.70210000  1.0
  C  C52  1  0.94425000  0.80842000  0.79789000  1.0
  C  C53  1  0.05577000  0.69159000  0.29790000  1.0
  C  C54  1  0.87888000  0.05936000  0.17508000  1.0
  C  C55  1  0.12112000  0.44063000  0.67508000  1.0
  C  C56  1  0.12112000  0.94064000  0.82492000  1.0
  C  C57  1  0.87889000  0.55936000  0.32492000  1.0
  O  O58  1  0.53807000  0.66698000  0.16209000  1.0
  O  O59  1  0.46192000  0.83301000  0.66209000  1.0
  O  O60  1  0.46193000  0.33302000  0.83791000  1.0
  O  O61  1  0.53808000  0.16699000  0.33792000  1.0
  O  O62  1  0.31734000  0.58649000  0.04670000  1.0
  O  O63  1  0.68265000  0.91350000  0.54670000  1.0
  O  O64  1  0.68266000  0.41351000  0.95330000  1.0
  O  O65  1  0.31734000  0.08650000  0.45330000  1.0
  O  O66  1  0.08614000  0.29919000  0.97368000  1.0
  O  O67  1  0.91388000  0.20081000  0.47368000  1.0
  O  O68  1  0.91386000  0.70081000  0.02632000  1.0
  O  O69  1  0.08611000  0.79918000  0.52632000  1.0
  O  O70  1  0.30959000  0.17168000  0.03861000  1.0
  O  O71  1  0.69042000  0.32833000  0.53861000  1.0
  O  O72  1  0.69041000  0.82832000  0.96139000  1.0
  O  O73  1  0.30958000  0.67167000  0.46139000  1.0
  O  O74  1  0.79824000  0.05131000  0.09648000  1.0
  O  O75  1  0.20176000  0.44868000  0.59648000  1.0
  O  O76  1  0.20175000  0.94870000  0.90352000  1.0
  O  O77  1  0.79826000  0.55131000  0.40353000  1.0
  O  O78  1  0.81553000  0.95548000  0.22937000  1.0
  O  O79  1  0.18447000  0.54451000  0.72937000  1.0
  O  O80  1  0.18448000  0.04452000  0.77062000  1.0
  O  O81  1  0.81554000  0.45549000  0.27063000  1.0
  O  O82  1  0.94504000  0.38966000  0.11972000  1.0
  O  O83  1  0.05495000  0.11033000  0.61972000  1.0
  O  O84  1  0.05496000  0.61034000  0.88028000  1.0
  O  O85  1  0.94505000  0.88967000  0.38028000  1.0
  O  O86  1  0.28672000  0.90098000  0.09943000  1.0
  O  O87  1  0.71328000  0.59901000  0.59943000  1.0
  O  O88  1  0.71329000  0.09902000  0.90057000  1.0
  O  O89  1  0.28672000  0.40099000  0.40057000  1.0
