# generated using pymatgen
data_TbH19C20(NO2)6
_symmetry_space_group_name_H-M   'P 1'
_cell_length_a   8.63750000
_cell_length_b   12.79420000
_cell_length_c   13.31790000
_cell_angle_alpha   97.00970000
_cell_angle_beta   105.87000000
_cell_angle_gamma   105.54500000
_symmetry_Int_Tables_number   1
_chemical_formula_structural   TbH19C20(NO2)6
_chemical_formula_sum   'Tb2 H38 C40 N12 O24'
_cell_volume   1333.23940389
_cell_formula_units_Z   2
loop_
 _symmetry_equiv_pos_site_id
 _symmetry_equiv_pos_as_xyz
  1  'x, y, z'
loop_
 _atom_site_type_symbol
 _atom_site_label
 _atom_site_symmetry_multiplicity
 _atom_site_fract_x
 _atom_site_fract_y
 _atom_site_fract_z
 _atom_site_occupancy
  Tb  Tb0  1  0.83825000  0.07678000  0.54067000  1.0
  Tb  Tb1  1  0.16173000  0.92321000  0.45933000  1.0
  H  H2  1  0.60938000  0.90566000  0.92701000  1.0
  H  H3  1  0.39060000  0.09433000  0.07298000  1.0
  H  H4  1  0.43721000  0.85720000  0.73230000  1.0
  H  H5  1  0.56280000  0.14279000  0.26769000  1.0
  H  H6  1  0.98635000  0.76097000  0.80016000  1.0
  H  H7  1  0.01365000  0.23903000  0.19983000  1.0
  H  H8  1  0.14023000  0.80393000  0.99740000  1.0
  H  H9  1  0.85975000  0.19606000  0.00260000  1.0
  H  H10  1  0.86716000  0.96228000  0.70909000  1.0
  H  H11  1  0.13282000  0.03771000  0.29091000  1.0
  H  H12  1  0.69462000  0.87274000  0.63577000  1.0
  H  H13  1  0.30537000  0.12725000  0.36422000  1.0
  H  H14  1  0.97376000  0.33599000  0.66829000  1.0
  H  H15  1  0.02624000  0.66401000  0.33171000  1.0
  H  H16  1  0.99468000  0.30519000  0.55363000  1.0
  H  H17  1  0.00530000  0.69480000  0.44636000  1.0
  H  H18  1  0.05396000  0.15720000  0.41109000  1.0
  H  H19  1  0.94604000  0.84280000  0.58891000  1.0
  H  H20  1  0.89140000  0.19328000  0.35445000  1.0
  H  H21  1  0.10859000  0.80672000  0.64554000  1.0
  H  H22  1  0.52837000  0.12054000  0.48277000  1.0
  H  H23  1  0.47161000  0.87946000  0.51723000  1.0
  H  H24  1  0.65008000  0.23601000  0.48129000  1.0
  H  H25  1  0.34989000  0.76399000  0.51871000  1.0
  H  H26  1  0.17448000  0.52814000  0.15279000  1.0
  H  H27  1  0.82551000  0.47185000  0.84721000  1.0
  H  H28  1  0.21420000  0.55016000  0.34453000  1.0
  H  H29  1  0.78579000  0.44984000  0.65547000  1.0
  H  H30  1  0.71227000  0.69873000  0.23402000  1.0
  H  H31  1  0.28775000  0.30128000  0.76598000  1.0
  H  H32  1  0.72634000  0.72025000  0.42565000  1.0
  H  H33  1  0.27365000  0.27976000  0.57435000  1.0
  H  H34  1  0.17450000  0.50571000  0.97860000  1.0
  H  H35  1  0.82552000  0.49430000  0.02138000  1.0
  H  H36  1  0.36739000  0.58152000  0.71551000  1.0
  H  H37  1  0.63265000  0.41850000  0.28449000  1.0
  H  H38  1  0.76688000  0.75260000  0.99510000  1.0
  H  H39  1  0.23315000  0.24741000  0.00492000  1.0
  C  C40  1  0.84320000  0.91658000  0.31111000  1.0
  C  C41  1  0.15678000  0.08341000  0.68890000  1.0
  C  C42  1  0.67759000  0.91047000  0.23922000  1.0
  C  C43  1  0.32239000  0.08952000  0.76078000  1.0
  C  C44  1  0.52014000  0.90562000  0.25898000  1.0
  C  C45  1  0.47984000  0.09438000  0.74102000  1.0
  C  C46  1  0.47161000  0.91438000  0.35605000  1.0
  C  C47  1  0.52836000  0.08561000  0.64396000  1.0
  C  C48  1  0.47931000  0.87850000  0.09107000  1.0
  C  C49  1  0.52068000  0.12149000  0.90893000  1.0
  C  C50  1  0.38775000  0.85521000  0.97756000  1.0
  C  C51  1  0.61225000  0.14479000  0.02244000  1.0
  C  C52  1  0.47174000  0.87128000  0.90143000  1.0
  C  C53  1  0.52825000  0.12870000  0.09856000  1.0
  C  C54  1  0.37721000  0.84521000  0.79395000  1.0
  C  C55  1  0.62280000  0.15478000  0.20605000  1.0
  C  C56  1  0.12480000  0.79129000  0.83141000  1.0
  C  C57  1  0.87520000  0.20872000  0.16859000  1.0
  C  C58  1  0.20921000  0.81503000  0.94020000  1.0
  C  C59  1  0.79078000  0.18497000  0.05980000  1.0
  C  C60  1  0.20201000  0.51299000  0.78216000  1.0
  C  C61  1  0.79803000  0.48703000  0.21784000  1.0
  C  C62  1  0.32691000  0.56759000  0.88688000  1.0
  C  C63  1  0.67312000  0.43242000  0.11312000  1.0
  C  C64  1  0.49822000  0.63014000  0.92208000  1.0
  C  C65  1  0.50180000  0.36987000  0.07793000  1.0
  C  C66  1  0.60734000  0.67494000  0.86035000  1.0
  C  C67  1  0.39269000  0.32507000  0.13966000  1.0
  C  C68  1  0.43251000  0.60557000  0.06486000  1.0
  C  C69  1  0.56750000  0.39444000  0.93514000  1.0
  C  C70  1  0.44244000  0.61219000  0.17658000  1.0
  C  C71  1  0.55756000  0.38781000  0.82341000  1.0
  C  C72  1  0.30127000  0.56974000  0.20915000  1.0
  C  C73  1  0.69873000  0.43026000  0.79084000  1.0
  C  C74  1  0.32274000  0.58334000  0.31805000  1.0
  C  C75  1  0.67725000  0.41667000  0.68195000  1.0
  C  C76  1  0.59939000  0.66514000  0.25611000  1.0
  C  C77  1  0.40060000  0.33486000  0.74388000  1.0
  C  C78  1  0.60634000  0.67624000  0.36274000  1.0
  C  C79  1  0.39365000  0.32376000  0.63725000  1.0
  N  N80  1  0.64816000  0.89372000  0.13184000  1.0
  N  N81  1  0.35183000  0.10627000  0.86816000  1.0
  N  N82  1  0.39696000  0.88363000  0.16383000  1.0
  N  N83  1  0.60302000  0.11637000  0.83617000  1.0
  N  N84  1  0.20669000  0.80501000  0.75868000  1.0
  N  N85  1  0.79332000  0.19499000  0.24132000  1.0
  N  N86  1  0.28916000  0.55384000  0.97889000  1.0
  N  N87  1  0.71086000  0.44617000  0.02110000  1.0
  N  N88  1  0.56184000  0.65102000  0.03070000  1.0
  N  N89  1  0.43818000  0.34898000  0.96930000  1.0
  N  N90  1  0.47125000  0.63736000  0.39474000  1.0
  N  N91  1  0.52874000  0.36264000  0.60525000  1.0
  O  O92  1  0.58429000  0.93332000  0.44931000  1.0
  O  O93  1  0.41571000  0.06669000  0.55069000  1.0
  O  O94  1  0.31693000  0.90154000  0.34669000  1.0
  O  O95  1  0.68303000  0.09845000  0.65331000  1.0
  O  O96  1  0.88042000  0.94480000  0.41443000  1.0
  O  O97  1  0.11956000  0.05520000  0.58557000  1.0
  O  O98  1  0.95510000  0.89149000  0.27625000  1.0
  O  O99  1  0.04488000  0.10849000  0.72376000  1.0
  O  O100  1  0.81055000  0.91132000  0.63896000  1.0
  O  O101  1  0.18944000  0.08868000  0.36104000  1.0
  O  O102  1  0.93258000  0.27843000  0.60157000  1.0
  O  O103  1  0.06742000  0.72156000  0.39843000  1.0
  O  O104  1  0.96522000  0.18313000  0.42903000  1.0
  O  O105  1  0.03478000  0.81687000  0.57099000  1.0
  O  O106  1  0.61149000  0.15760000  0.44637000  1.0
  O  O107  1  0.38849000  0.84240000  0.55362000  1.0
  O  O108  1  0.06262000  0.44804000  0.77648000  1.0
  O  O109  1  0.93741000  0.55198000  0.22352000  1.0
  O  O110  1  0.24364000  0.53223000  0.69601000  1.0
  O  O111  1  0.75640000  0.46779000  0.30398000  1.0
  O  O112  1  0.56228000  0.65528000  0.76155000  1.0
  O  O113  1  0.43777000  0.34474000  0.23846000  1.0
  O  O114  1  0.76346000  0.74038000  0.91925000  1.0
  O  O115  1  0.23657000  0.25964000  0.08077000  1.0
