# generated using pymatgen
data_CoH10C10(NO)4
_symmetry_space_group_name_H-M   'P 1'
_cell_length_a   7.37599000
_cell_length_b   12.47750000
_cell_length_c   13.41960000
_cell_angle_alpha   90.00000000
_cell_angle_beta   90.00000000
_cell_angle_gamma   100.03700000
_symmetry_Int_Tables_number   1
_chemical_formula_structural   CoH10C10(NO)4
_chemical_formula_sum   'Co4 H40 C40 N16 O16'
_cell_volume   1216.15626812
_cell_formula_units_Z   4
loop_
 _symmetry_equiv_pos_site_id
 _symmetry_equiv_pos_as_xyz
  1  'x, y, z'
loop_
 _atom_site_type_symbol
 _atom_site_label
 _atom_site_symmetry_multiplicity
 _atom_site_fract_x
 _atom_site_fract_y
 _atom_site_fract_z
 _atom_site_occupancy
  Co  Co0  1  0.21837000  0.15324000  0.07291000  1.0
  Co  Co1  1  0.28163000  0.84676000  0.57291000  1.0
  Co  Co2  1  0.78163000  0.84676000  0.92709000  1.0
  Co  Co3  1  0.71837000  0.15324000  0.42709000  1.0
  H  H4  1  0.65864000  0.55809000  0.12103000  1.0
  H  H5  1  0.84136000  0.44191000  0.62103000  1.0
  H  H6  1  0.34136000  0.44191000  0.87897000  1.0
  H  H7  1  0.15864000  0.55809000  0.37897000  1.0
  H  H8  1  0.87197000  0.52648000  0.07863000  1.0
  H  H9  1  0.62803000  0.47352000  0.57863000  1.0
  H  H10  1  0.12804000  0.47352000  0.92137000  1.0
  H  H11  1  0.37197000  0.52648000  0.42137000  1.0
  H  H12  1  0.81782000  0.51841000  0.20832000  1.0
  H  H13  1  0.68218000  0.48159000  0.70832000  1.0
  H  H14  1  0.18218000  0.48159000  0.79168000  1.0
  H  H15  1  0.31782000  0.51841000  0.29168000  1.0
  H  H16  1  0.38509000  0.41000000  0.11563000  1.0
  H  H17  1  0.11491000  0.59000000  0.61563000  1.0
  H  H18  1  0.61491000  0.59000000  0.88437000  1.0
  H  H19  1  0.88509000  0.41000000  0.38437000  1.0
  H  H20  1  0.62438000  0.12835000  0.09604000  1.0
  H  H21  1  0.87562000  0.87165000  0.59604000  1.0
  H  H22  1  0.37562000  0.87165000  0.90396000  1.0
  H  H23  1  0.12438000  0.12835000  0.40396000  1.0
  H  H24  1  0.11948000  0.68098000  0.22383000  1.0
  H  H25  1  0.38052000  0.31902000  0.72383000  1.0
  H  H26  1  0.88052000  0.31902000  0.77617000  1.0
  H  H27  1  0.61948000  0.68098000  0.27617000  1.0
  H  H28  1  0.32838000  0.70276000  0.15404000  1.0
  H  H29  1  0.17161000  0.29724000  0.65404000  1.0
  H  H30  1  0.67162000  0.29724000  0.84596000  1.0
  H  H31  1  0.82838000  0.70276000  0.34596000  1.0
  H  H32  1  0.11323000  0.70805000  0.09294000  1.0
  H  H33  1  0.38677000  0.29195000  0.59294000  1.0
  H  H34  1  0.88677000  0.29195000  0.90706000  1.0
  H  H35  1  0.61323000  0.70805000  0.40706000  1.0
  H  H36  1  0.16657000  0.89811000  0.03280000  1.0
  H  H37  1  0.33343000  0.10189000  0.53280000  1.0
  H  H38  1  0.83343000  0.10189000  0.96720000  1.0
  H  H39  1  0.66657000  0.89811000  0.46720000  1.0
  H  H40  1  0.30873000  0.07569000  0.29790000  1.0
  H  H41  1  0.19127000  0.92431000  0.79790000  1.0
  H  H42  1  0.69127000  0.92431000  0.70210000  1.0
  H  H43  1  0.80873000  0.07569000  0.20210000  1.0
  C  C44  1  0.76089000  0.50575000  0.13294000  1.0
  C  C45  1  0.73911000  0.49425000  0.63294000  1.0
  C  C46  1  0.23911000  0.49425000  0.86706000  1.0
  C  C47  1  0.26089000  0.50575000  0.36706000  1.0
  C  C48  1  0.48948000  0.35841000  0.11318000  1.0
  C  C49  1  0.01052000  0.64159000  0.61318000  1.0
  C  C50  1  0.51053000  0.64159000  0.88682000  1.0
  C  C51  1  0.98948000  0.35841000  0.38682000  1.0
  C  C52  1  0.61672000  0.21383000  0.10393000  1.0
  C  C53  1  0.88328000  0.78617000  0.60394000  1.0
  C  C54  1  0.38329000  0.78617000  0.89606000  1.0
  C  C55  1  0.11672000  0.21383000  0.39607000  1.0
  C  C56  1  0.75819000  0.30162000  0.11467000  1.0
  C  C57  1  0.74181000  0.69838000  0.61468000  1.0
  C  C58  1  0.24181000  0.69838000  0.88533000  1.0
  C  C59  1  0.25819000  0.30162000  0.38533000  1.0
  C  C60  1  0.95920000  0.30189000  0.11486000  1.0
  C  C61  1  0.54080000  0.69811000  0.61486000  1.0
  C  C62  1  0.04081000  0.69811000  0.88515000  1.0
  C  C63  1  0.45920000  0.30189000  0.38514000  1.0
  C  C64  1  0.19207000  0.72594000  0.16174000  1.0
  C  C65  1  0.30793000  0.27406000  0.66174000  1.0
  C  C66  1  0.80793000  0.27406000  0.83826000  1.0
  C  C67  1  0.69207000  0.72594000  0.33826000  1.0
  C  C68  1  0.20205000  0.91785000  0.10992000  1.0
  C  C69  1  0.29795000  0.08215000  0.60992000  1.0
  C  C70  1  0.79795000  0.08215000  0.89008000  1.0
  C  C71  1  0.70205000  0.91785000  0.39008000  1.0
  C  C72  1  0.26970000  0.00671000  0.24855000  1.0
  C  C73  1  0.23029000  0.99329000  0.74855000  1.0
  C  C74  1  0.73030000  0.99329000  0.75145000  1.0
  C  C75  1  0.76970000  0.00671000  0.25145000  1.0
  C  C76  1  0.25358000  0.89735000  0.27085000  1.0
  C  C77  1  0.24642000  0.10265000  0.77085000  1.0
  C  C78  1  0.74642000  0.10264000  0.72915000  1.0
  C  C79  1  0.75358000  0.89735000  0.22915000  1.0
  C  C80  1  0.26438000  0.84599000  0.36897000  1.0
  C  C81  1  0.23561000  0.15401000  0.86897000  1.0
  C  C82  1  0.73562000  0.15400000  0.63103000  1.0
  C  C83  1  0.76438000  0.84599000  0.13103000  1.0
  N  N84  1  0.67313000  0.39265000  0.12029000  1.0
  N  N85  1  0.82687000  0.60735000  0.62029000  1.0
  N  N86  1  0.32687000  0.60735000  0.87971000  1.0
  N  N87  1  0.17313000  0.39265000  0.37971000  1.0
  N  N88  1  0.45151000  0.24996000  0.10296000  1.0
  N  N89  1  0.04849000  0.75004000  0.60296000  1.0
  N  N90  1  0.54849000  0.75004000  0.89704000  1.0
  N  N91  1  0.95151000  0.24996000  0.39704000  1.0
  N  N92  1  0.21242000  0.84253000  0.18089000  1.0
  N  N93  1  0.28758000  0.15747000  0.68089000  1.0
  N  N94  1  0.78758000  0.15747000  0.81911000  1.0
  N  N95  1  0.71242000  0.84253000  0.31911000  1.0
  N  N96  1  0.23584000  0.01835000  0.14894000  1.0
  N  N97  1  0.26416000  0.98165000  0.64894000  1.0
  N  N98  1  0.76416000  0.98165000  0.85106000  1.0
  N  N99  1  0.73584000  0.01835000  0.35106000  1.0
  O  O100  1  0.99358000  0.20309000  0.10406000  1.0
  O  O101  1  0.50642000  0.79691000  0.60406000  1.0
  O  O102  1  0.00642000  0.79691000  0.89594000  1.0
  O  O103  1  0.49358000  0.20309000  0.39594000  1.0
  O  O104  1  0.07448000  0.38717000  0.12325000  1.0
  O  O105  1  0.42552000  0.61283000  0.62325000  1.0
  O  O106  1  0.92553000  0.61283000  0.87675000  1.0
  O  O107  1  0.57448000  0.38717000  0.37675000  1.0
  O  O108  1  0.27945000  0.91491000  0.44277000  1.0
  O  O109  1  0.22054000  0.08509000  0.94278000  1.0
  O  O110  1  0.72055000  0.08509000  0.55722000  1.0
  O  O111  1  0.77945000  0.91491000  0.05722000  1.0
  O  O112  1  0.25803000  0.74575000  0.37905000  1.0
  O  O113  1  0.24198000  0.25425000  0.87906000  1.0
  O  O114  1  0.74197000  0.25425000  0.62094000  1.0
  O  O115  1  0.75802000  0.74575000  0.12094000  1.0
