# generated using pymatgen
data_SrH14C6N10O7
_symmetry_space_group_name_H-M   'P 1'
_cell_length_a   7.70164000
_cell_length_b   9.72778000
_cell_length_c   11.23400000
_cell_angle_alpha   90.19310000
_cell_angle_beta   102.89700000
_cell_angle_gamma   92.28210000
_symmetry_Int_Tables_number   1
_chemical_formula_structural   SrH14C6N10O7
_chemical_formula_sum   'Sr2 H28 C12 N20 O14'
_cell_volume   819.70169778
_cell_formula_units_Z   2
loop_
 _symmetry_equiv_pos_site_id
 _symmetry_equiv_pos_as_xyz
  1  'x, y, z'
loop_
 _atom_site_type_symbol
 _atom_site_label
 _atom_site_symmetry_multiplicity
 _atom_site_fract_x
 _atom_site_fract_y
 _atom_site_fract_z
 _atom_site_occupancy
  Sr  Sr0  1  0.25995000  0.00768000  0.02972000  1.0
  Sr  Sr1  1  0.74005000  0.99231000  0.97029000  1.0
  H  H2  1  0.67992000  0.27689000  0.39338000  1.0
  H  H3  1  0.32009000  0.72310000  0.60661000  1.0
  H  H4  1  0.58200000  0.36566000  0.49848000  1.0
  H  H5  1  0.41800000  0.63433000  0.50150000  1.0
  H  H6  1  0.96929000  0.48830000  0.62076000  1.0
  H  H7  1  0.03069000  0.51171000  0.37923000  1.0
  H  H8  1  0.86682000  0.59652000  0.70906000  1.0
  H  H9  1  0.13318000  0.40349000  0.29093000  1.0
  H  H10  1  0.03684000  0.75055000  0.10123000  1.0
  H  H11  1  0.96316000  0.24944000  0.89877000  1.0
  H  H12  1  0.24148000  0.71515000  0.14686000  1.0
  H  H13  1  0.75853000  0.28485000  0.85314000  1.0
  H  H14  1  0.61649000  0.99621000  0.25724000  1.0
  H  H15  1  0.38349000  0.00379000  0.74276000  1.0
  H  H16  1  0.50323000  0.85720000  0.25381000  1.0
  H  H17  1  0.49677000  0.14279000  0.74620000  1.0
  H  H18  1  0.14106000  0.20580000  0.77969000  1.0
  H  H19  1  0.85894000  0.79420000  0.22031000  1.0
  H  H20  1  0.26947000  0.28777000  0.88633000  1.0
  H  H21  1  0.73053000  0.71222000  0.11368000  1.0
  H  H22  1  0.77260000  0.30971000  0.20560000  1.0
  H  H23  1  0.22740000  0.69029000  0.79440000  1.0
  H  H24  1  0.70353000  0.40989000  0.07297000  1.0
  H  H25  1  0.29647000  0.59009000  0.92702000  1.0
  H  H26  1  0.73357000  0.81181000  0.71069000  1.0
  H  H27  1  0.26642000  0.18819000  0.28931000  1.0
  H  H28  1  0.75184000  0.97003000  0.63705000  1.0
  H  H29  1  0.24818000  0.02999000  0.36294000  1.0
  C  C30  1  0.57034000  0.45995000  0.33603000  1.0
  C  C31  1  0.42965000  0.54006000  0.66398000  1.0
  C  C32  1  0.65972000  0.36293000  0.15045000  1.0
  C  C33  1  0.34028000  0.63706000  0.84954000  1.0
  C  C34  1  0.50760000  0.25595000  0.10410000  1.0
  C  C35  1  0.49240000  0.74406000  0.89590000  1.0
  C  C36  1  0.90526000  0.67698000  0.54966000  1.0
  C  C37  1  0.09474000  0.32303000  0.45033000  1.0
  C  C38  1  0.82012000  0.87464000  0.66461000  1.0
  C  C39  1  0.17988000  0.12537000  0.33539000  1.0
  C  C40  1  0.00007000  0.90833000  0.75464000  1.0
  C  C41  1  0.99995000  0.09167000  0.24537000  1.0
  N  N42  1  0.60645000  0.46950000  0.22310000  1.0
  N  N43  1  0.39355000  0.53049000  0.77691000  1.0
  N  N44  1  0.54917000  0.59161000  0.17433000  1.0
  N  N45  1  0.45084000  0.40838000  0.82567000  1.0
  N  N46  1  0.48384000  0.65385000  0.25597000  1.0
  N  N47  1  0.51616000  0.34615000  0.74402000  1.0
  N  N48  1  0.49298000  0.57695000  0.35732000  1.0
  N  N49  1  0.50700000  0.42306000  0.64267000  1.0
  N  N50  1  0.60322000  0.35323000  0.41150000  1.0
  N  N51  1  0.39679000  0.64676000  0.58850000  1.0
  N  N52  1  0.84246000  0.80453000  0.55642000  1.0
  N  N53  1  0.15754000  0.19549000  0.44358000  1.0
  N  N54  1  0.83821000  0.86957000  0.44926000  1.0
  N  N55  1  0.16180000  0.13043000  0.55074000  1.0
  N  N56  1  0.89567000  0.78338000  0.38058000  1.0
  N  N57  1  0.10433000  0.21663000  0.61941000  1.0
  N  N58  1  0.93912000  0.66228000  0.43817000  1.0
  N  N59  1  0.06088000  0.33773000  0.56182000  1.0
  N  N60  1  0.93285000  0.58586000  0.64114000  1.0
  N  N61  1  0.06714000  0.41415000  0.35885000  1.0
  O  O62  1  0.35987000  0.26705000  0.13299000  1.0
  O  O63  1  0.64014000  0.73296000  0.86702000  1.0
  O  O64  1  0.14371000  0.89252000  0.72250000  1.0
  O  O65  1  0.85631000  0.10749000  0.27751000  1.0
  O  O66  1  0.15615000  0.75738000  0.08096000  1.0
  O  O67  1  0.84385000  0.24260000  0.91904000  1.0
  O  O68  1  0.49418000  0.95604000  0.23599000  1.0
  O  O69  1  0.50581000  0.04395000  0.76402000  1.0
  O  O70  1  0.98308000  0.95151000  0.85910000  1.0
  O  O71  1  0.01694000  0.04848000  0.14090000  1.0
  O  O72  1  0.17088000  0.21816000  0.87085000  1.0
  O  O73  1  0.82912000  0.78184000  0.12915000  1.0
  O  O74  1  0.54411000  0.15871000  0.03854000  1.0
  O  O75  1  0.45588000  0.84129000  0.96146000  1.0
