# generated using pymatgen
data_AlH9C14NO7
_symmetry_space_group_name_H-M   'P 1'
_cell_length_a   6.66124000
_cell_length_b   15.18793115
_cell_length_c   16.86670000
_cell_angle_alpha   89.79144859
_cell_angle_beta   83.42720000
_cell_angle_gamma   78.65421484
_symmetry_Int_Tables_number   1
_chemical_formula_structural   AlH9C14NO7
_chemical_formula_sum   'Al2 H18 C28 N2 O14'
_cell_volume   1661.75568142
_cell_formula_units_Z   2
loop_
 _symmetry_equiv_pos_site_id
 _symmetry_equiv_pos_as_xyz
  1  'x, y, z'
loop_
 _atom_site_type_symbol
 _atom_site_label
 _atom_site_symmetry_multiplicity
 _atom_site_fract_x
 _atom_site_fract_y
 _atom_site_fract_z
 _atom_site_occupancy
  Al  Al0  1  1.00000000  0.50000000  0.50000000  1.0
  Al  Al1  1  0.49999000  0.50000000  0.50000000  1.0
  H  H2  1  0.18632000  0.59762000  0.56495000  1.0
  H  H3  1  0.81365000  0.40238000  0.43505000  1.0
  H  H4  1  0.65202000  0.45744000  0.26306000  1.0
  H  H5  1  0.71617000  0.46159000  0.11444000  1.0
  H  H6  1  0.06225000  0.54428000  0.10402000  1.0
  H  H7  1  0.93780000  0.45569000  0.89597000  1.0
  H  H8  1  0.28387000  0.53839000  0.88556000  1.0
  H  H9  1  0.34799000  0.54256000  0.73694000  1.0
  H  H10  1  0.77158000  0.06555000  0.53760000  1.0
  H  H11  1  0.22839000  0.93446000  0.46242000  1.0
  H  H12  1  0.92578000  0.77325000  0.50891000  1.0
  H  H13  1  0.84465000  0.93673000  0.52188000  1.0
  H  H14  1  0.07421000  0.22676000  0.49109000  1.0
  H  H15  1  0.15533000  0.06328000  0.47811000  1.0
  H  H16  1  0.96081000  0.53541000  0.31513000  1.0
  H  H17  1  0.03918000  0.46459000  0.68486000  1.0
  H  H18  1  0.66246000  0.29931000  0.55219000  1.0
  H  H19  1  0.33752000  0.70070000  0.44782000  1.0
  C  C20  1  0.67433000  0.66151000  0.48251000  1.0
  C  C21  1  0.70899000  0.50706000  0.64488000  1.0
  C  C22  1  0.32565000  0.33849000  0.51750000  1.0
  C  C23  1  0.29100000  0.49295000  0.35511000  1.0
  C  C24  1  0.32221000  0.49599000  0.26777000  1.0
  C  C25  1  0.52418000  0.47508000  0.22745000  1.0
  C  C26  1  0.56084000  0.47775000  0.14547000  1.0
  C  C27  1  0.39157000  0.50293000  0.10117000  1.0
  C  C28  1  0.19035000  0.52435000  0.13929000  1.0
  C  C29  1  0.15273000  0.52088000  0.22262000  1.0
  C  C30  1  0.80968000  0.47563000  0.86070000  1.0
  C  C31  1  0.60847000  0.49705000  0.89882000  1.0
  C  C32  1  0.43919000  0.52224000  0.85453000  1.0
  C  C33  1  0.47585000  0.52491000  0.77255000  1.0
  C  C34  1  0.67781000  0.50401000  0.73223000  1.0
  C  C35  1  0.84729000  0.47912000  0.77738000  1.0
  C  C36  1  0.37465000  0.24014000  0.51792000  1.0
  C  C37  1  0.62534000  0.75986000  0.48209000  1.0
  C  C38  1  0.57212000  0.19220000  0.53246000  1.0
  C  C39  1  0.61767000  0.09837000  0.52574000  1.0
  C  C40  1  0.42786000  0.80781000  0.46756000  1.0
  C  C41  1  0.38231000  0.90164000  0.47427000  1.0
  C  C42  1  0.77206000  0.80946000  0.50045000  1.0
  C  C43  1  0.72536000  0.90202000  0.50711000  1.0
  C  C44  1  0.22793000  0.19055000  0.49955000  1.0
  C  C45  1  0.27462000  0.09799000  0.49289000  1.0
  C  C46  1  0.47308000  0.04963000  0.50470000  1.0
  C  C47  1  0.52689000  0.95038000  0.49531000  1.0
  N  N48  1  0.40836000  0.50901000  0.01699000  1.0
  N  N49  1  0.59168000  0.49097000  0.98300000  1.0
  O  O50  1  0.85147000  0.62151000  0.49839000  1.0
  O  O51  1  0.55306000  0.52459000  0.60607000  1.0
  O  O52  1  0.47032000  0.38069000  0.53121000  1.0
  O  O53  1  0.10230000  0.50826000  0.38924000  1.0
  O  O54  1  0.14851000  0.37850000  0.50160000  1.0
  O  O55  1  0.44693000  0.47542000  0.39393000  1.0
  O  O56  1  0.52967000  0.61931000  0.46879000  1.0
  O  O57  1  0.89771000  0.49174000  0.61075000  1.0
  O  O58  1  0.22092000  0.54423000  0.53107000  1.0
  O  O59  1  0.77906000  0.45578000  0.46893000  1.0
  O  O60  1  0.95531000  0.54209000  0.25636000  1.0
  O  O61  1  0.04471000  0.45791000  0.74363000  1.0
  O  O62  1  0.72209000  0.23356000  0.55217000  1.0
  O  O63  1  0.27790000  0.76645000  0.44784000  1.0
