# generated using pymatgen
data_CaH18(C11O3)2
_symmetry_space_group_name_H-M   'P 1'
_cell_length_a   7.66425000
_cell_length_b   11.38560000
_cell_length_c   11.93880000
_cell_angle_alpha   61.53600000
_cell_angle_beta   86.18940000
_cell_angle_gamma   89.99230000
_symmetry_Int_Tables_number   1
_chemical_formula_structural   CaH18(C11O3)2
_chemical_formula_sum   'Ca2 H36 C44 O12'
_cell_volume   913.25210763
_cell_formula_units_Z   2
loop_
 _symmetry_equiv_pos_site_id
 _symmetry_equiv_pos_as_xyz
  1  'x, y, z'
loop_
 _atom_site_type_symbol
 _atom_site_label
 _atom_site_symmetry_multiplicity
 _atom_site_fract_x
 _atom_site_fract_y
 _atom_site_fract_z
 _atom_site_occupancy
  Ca  Ca0  1  0.24999000  0.04572000  0.00002000  1.0
  Ca  Ca1  1  0.75001000  0.95428000  0.99998000  1.0
  H  H2  1  0.97527000  0.08637000  0.16687000  1.0
  H  H3  1  0.52474000  0.25320000  0.83318000  1.0
  H  H4  1  0.02473000  0.91362000  0.83314000  1.0
  H  H5  1  0.47527000  0.74680000  0.16682000  1.0
  H  H6  1  0.14200000  0.14286000  0.20403000  1.0
  H  H7  1  0.35795000  0.34679000  0.79606000  1.0
  H  H8  1  0.85800000  0.85714000  0.79597000  1.0
  H  H9  1  0.64206000  0.65321000  0.20394000  1.0
  H  H10  1  0.06576000  0.32805000  0.96453000  1.0
  H  H11  1  0.43425000  0.29255000  0.03534000  1.0
  H  H12  1  0.93424000  0.67195000  0.03547000  1.0
  H  H13  1  0.56575000  0.70745000  0.96465000  1.0
  H  H14  1  0.15225000  0.56645000  0.89514000  1.0
  H  H15  1  0.34777000  0.46162000  0.10470000  1.0
  H  H16  1  0.84775000  0.43355000  0.10486000  1.0
  H  H17  1  0.65223000  0.53838000  0.89530000  1.0
  H  H18  1  0.07123000  0.74576000  0.68520000  1.0
  H  H19  1  0.42875000  0.43111000  0.31465000  1.0
  H  H20  1  0.92878000  0.25424000  0.31481000  1.0
  H  H21  1  0.57125000  0.56888000  0.68535000  1.0
  H  H22  1  0.94312000  0.81515000  0.48344000  1.0
  H  H23  1  0.55671000  0.29873000  0.51651000  1.0
  H  H24  1  0.05688000  0.18485000  0.51657000  1.0
  H  H25  1  0.44329000  0.70127000  0.48349000  1.0
  H  H26  1  0.77407000  0.76315000  0.34089000  1.0
  H  H27  1  0.72576000  0.10421000  0.65902000  1.0
  H  H28  1  0.22594000  0.23685000  0.65912000  1.0
  H  H29  1  0.27423000  0.89579000  0.34098000  1.0
  H  H30  1  0.67763000  0.52594000  0.41272000  1.0
  H  H31  1  0.82221000  0.93882000  0.58716000  1.0
  H  H32  1  0.32238000  0.47406000  0.58728000  1.0
  H  H33  1  0.17779000  0.06118000  0.41284000  1.0
  H  H34  1  0.74847000  0.34583000  0.62179000  1.0
  H  H35  1  0.75137000  0.96772000  0.37807000  1.0
  H  H36  1  0.25154000  0.65417000  0.37821000  1.0
  H  H37  1  0.24863000  0.03228000  0.62192000  1.0
  C  C38  1  0.87979000  0.22992000  0.84844000  1.0
  C  C39  1  0.62028000  0.07830000  0.15155000  1.0
  C  C40  1  0.12021000  0.77008000  0.15155000  1.0
  C  C41  1  0.37972000  0.92170000  0.84845000  1.0
  C  C42  1  0.93133000  0.37414000  0.79789000  1.0
  C  C43  1  0.56863000  0.17206000  0.20201000  1.0
  C  C44  1  0.06867000  0.62587000  0.20211000  1.0
  C  C45  1  0.43137000  0.82794000  0.79799000  1.0
  C  C46  1  0.02911000  0.40770000  0.87306000  1.0
  C  C47  1  0.47088000  0.28077000  0.12681000  1.0
  C  C48  1  0.97089000  0.59230000  0.12695000  1.0
  C  C49  1  0.52912000  0.71923000  0.87318000  1.0
  C  C50  1  0.07764000  0.54201000  0.83382000  1.0
  C  C51  1  0.42236000  0.37588000  0.16604000  1.0
  C  C52  1  0.92237000  0.45799000  0.16618000  1.0
  C  C53  1  0.57764000  0.62412000  0.83395000  1.0
  C  C54  1  0.03220000  0.64183000  0.71742000  1.0
  C  C55  1  0.46775000  0.35934000  0.28246000  1.0
  C  C56  1  0.96781000  0.35817000  0.28259000  1.0
  C  C57  1  0.53224000  0.64066000  0.71754000  1.0
  C  C58  1  0.93780000  0.61151000  0.63579000  1.0
  C  C59  1  0.56208000  0.24742000  0.36411000  1.0
  C  C60  1  0.06221000  0.38849000  0.36421000  1.0
  C  C61  1  0.43792000  0.75257000  0.63589000  1.0
  C  C62  1  0.89687000  0.71318000  0.51380000  1.0
  C  C63  1  0.60296000  0.22711000  0.48613000  1.0
  C  C64  1  0.10313000  0.28683000  0.48621000  1.0
  C  C65  1  0.39703000  0.77289000  0.51387000  1.0
  C  C66  1  0.80406000  0.68413000  0.43462000  1.0
  C  C67  1  0.69576000  0.11890000  0.56528000  1.0
  C  C68  1  0.19594000  0.31587000  0.56538000  1.0
  C  C69  1  0.30423000  0.88110000  0.43471000  1.0
  C  C70  1  0.74963000  0.55029000  0.47528000  1.0
  C  C71  1  0.75021000  0.02571000  0.52462000  1.0
  C  C72  1  0.25038000  0.44971000  0.52473000  1.0
  C  C73  1  0.24978000  0.97429000  0.47538000  1.0
  C  C74  1  0.78821000  0.44862000  0.59264000  1.0
  C  C75  1  0.71164000  0.04138000  0.40723000  1.0
  C  C76  1  0.21179000  0.55138000  0.40736000  1.0
  C  C77  1  0.28836000  0.95863000  0.59276000  1.0
  C  C78  1  0.88273000  0.47561000  0.67675000  1.0
  C  C79  1  0.61717000  0.15245000  0.32315000  1.0
  C  C80  1  0.11727000  0.52439000  0.32325000  1.0
  C  C81  1  0.38282000  0.84755000  0.67684000  1.0
  O  O82  1  0.99092000  0.14166000  0.90469000  1.0
  O  O83  1  0.50917000  0.04619000  0.09532000  1.0
  O  O84  1  0.00908000  0.85834000  0.09531000  1.0
  O  O85  1  0.49084000  0.95381000  0.90468000  1.0
  O  O86  1  0.72495000  0.19591000  0.83854000  1.0
  O  O87  1  0.77508000  0.03437000  0.16153000  1.0
  O  O88  1  0.27505000  0.80409000  0.16145000  1.0
  O  O89  1  0.22492000  0.96564000  0.83847000  1.0
  O  O90  1  0.10505000  0.10526000  0.15135000  1.0
  O  O91  1  0.39495000  0.25654000  0.84869000  1.0
  O  O92  1  0.89496000  0.89472000  0.84866000  1.0
  O  O93  1  0.60505000  0.74346000  0.15131000  1.0
