# generated using pymatgen
data_Zn4H26C28S2O15
_symmetry_space_group_name_H-M   'P 1'
_cell_length_a   17.85370000
_cell_length_b   18.62340000
_cell_length_c   19.35316922
_cell_angle_alpha   118.57267141
_cell_angle_beta   116.06032547
_cell_angle_gamma   90.07940000
_symmetry_Int_Tables_number   1
_chemical_formula_structural   Zn4H26C28S2O15
_chemical_formula_sum   'Zn8 H52 C56 S4 O30'
_cell_volume   4890.79645123
_cell_formula_units_Z   2
loop_
 _symmetry_equiv_pos_site_id
 _symmetry_equiv_pos_as_xyz
  1  'x, y, z'
loop_
 _atom_site_type_symbol
 _atom_site_label
 _atom_site_symmetry_multiplicity
 _atom_site_fract_x
 _atom_site_fract_y
 _atom_site_fract_z
 _atom_site_occupancy
  Zn  Zn0  1  0.12990000  0.53686000  0.07868000  1.0
  Zn  Zn1  1  0.96316000  0.38031000  0.93091000  1.0
  Zn  Zn2  1  0.96738000  0.55270000  0.93337000  1.0
  Zn  Zn3  1  0.95350000  0.54686000  0.09057000  1.0
  Zn  Zn4  1  0.37671000  0.96531000  0.93341000  1.0
  Zn  Zn5  1  0.54089000  0.95709000  0.08493000  1.0
  Zn  Zn6  1  0.53710000  0.12815000  0.08664000  1.0
  Zn  Zn7  1  0.55850000  0.96782000  0.93183000  1.0
  H  H8  1  0.21353000  0.80386000  0.12002000  1.0
  H  H9  1  0.12769000  0.78576000  0.01653000  1.0
  H  H10  1  0.21740000  0.88058000  0.01997000  1.0
  H  H11  1  0.30297000  0.89754000  0.12305000  1.0
  H  H12  1  0.19665000  0.76422000  0.87041000  1.0
  H  H13  1  0.26763000  0.69840000  0.86555000  1.0
  H  H14  1  0.10771000  0.66822000  0.86695000  1.0
  H  H15  1  0.18030000  0.60398000  0.86392000  1.0
  H  H16  1  0.31756000  0.70996000  0.11647000  1.0
  H  H17  1  0.30363000  0.62837000  0.01192000  1.0
  H  H18  1  0.39276000  0.72264000  0.01440000  1.0
  H  H19  1  0.40651000  0.80421000  0.11879000  1.0
  H  H20  1  0.90900000  0.31256000  0.12991000  1.0
  H  H21  1  0.89152000  0.23119000  0.02256000  1.0
  H  H22  1  0.80295000  0.13761000  0.02156000  1.0
  H  H23  1  0.82056000  0.21979000  0.12868000  1.0
  H  H24  1  0.67994000  0.11609000  0.87814000  1.0
  H  H25  1  0.60818000  0.18119000  0.88148000  1.0
  H  H26  1  0.76737000  0.21068000  0.87894000  1.0
  H  H27  1  0.69610000  0.27616000  0.88438000  1.0
  H  H28  1  0.80856000  0.40883000  0.13884000  1.0
  H  H29  1  0.72181000  0.39457000  0.03892000  1.0
  H  H30  1  0.63274000  0.30067000  0.03693000  1.0
  H  H31  1  0.71937000  0.31500000  0.13674000  1.0
  H  H32  1  0.17445000  0.27935000  0.08515000  1.0
  H  H33  1  0.26552000  0.36443000  0.14107000  1.0
  H  H34  1  0.35449000  0.27284000  0.14550000  1.0
  H  H35  1  0.26270000  0.18802000  0.08849000  1.0
  H  H36  1  0.40234000  0.30447000  0.05608000  1.0
  H  H37  1  0.34571000  0.24177000  0.93628000  1.0
  H  H38  1  0.31229000  0.39547000  0.05045000  1.0
  H  H39  1  0.25557000  0.33137000  0.93067000  1.0
  H  H40  1  0.09117000  0.18782000  0.91212000  1.0
  H  H41  1  0.12423000  0.20936000  0.84927000  1.0
  H  H42  1  0.21393000  0.11835000  0.85358000  1.0
  H  H43  1  0.18083000  0.09683000  0.91636000  1.0
  H  H44  1  0.91380000  0.81780000  0.09869000  1.0
  H  H45  1  0.87796000  0.79422000  0.15940000  1.0
  H  H46  1  0.79066000  0.88735000  0.15612000  1.0
  H  H47  1  0.82525000  0.90863000  0.09332000  1.0
  H  H48  1  0.66130000  0.76607000  0.07551000  1.0
  H  H49  1  0.60197000  0.70262000  0.95585000  1.0
  H  H50  1  0.74897000  0.67256000  0.07669000  1.0
  H  H51  1  0.69014000  0.61082000  0.95688000  1.0
  H  H52  1  0.83059000  0.72937000  0.92578000  1.0
  H  H53  1  0.74033000  0.64388000  0.86730000  1.0
  H  H54  1  0.64978000  0.73408000  0.86418000  1.0
  H  H55  1  0.73996000  0.81915000  0.92071000  1.0
  H  H56  1  0.38596000  0.71328000  0.42658000  1.0
  H  H57  1  0.13264000  0.79410000  0.58836000  1.0
  H  H58  1  0.78917000  0.45086000  0.57883000  1.0
  H  H59  1  0.71647000  0.05761000  0.43791000  1.0
  C  C60  1  0.14135000  0.36059000  0.99609000  1.0
  C  C61  1  0.87954000  0.38378000  0.76350000  1.0
  C  C62  1  0.14391000  0.63577000  0.99920000  1.0
  C  C63  1  0.86488000  0.64702000  0.01641000  1.0
  C  C64  1  0.12944000  0.62616000  0.25297000  1.0
  C  C65  1  0.86377000  0.37013000  0.01541000  1.0
  C  C66  1  0.36038000  0.86226000  0.00430000  1.0
  C  C67  1  0.61844000  0.12569000  0.25438000  1.0
  C  C68  1  0.35848000  0.14074000  0.00506000  1.0
  C  C69  1  0.64700000  0.14448000  0.01224000  1.0
  C  C70  1  0.38791000  0.88198000  0.76397000  1.0
  C  C71  1  0.64885000  0.86923000  0.01142000  1.0
  C  C72  1  0.27119000  0.70415000  0.40831000  1.0
  C  C73  1  0.24787000  0.80387000  0.60812000  1.0
  C  C74  1  0.18131000  0.67593000  0.35234000  1.0
  C  C75  1  0.33770000  0.83241000  0.66446000  1.0
  C  C76  1  0.22397000  0.75728000  0.51482000  1.0
  C  C77  1  0.29541000  0.75110000  0.50179000  1.0
  C  C78  1  0.80141000  0.36296000  0.60444000  1.0
  C  C79  1  0.70192000  0.14593000  0.41296000  1.0
  C  C80  1  0.83082000  0.33466000  0.66427000  1.0
  C  C81  1  0.67071000  0.17451000  0.35339000  1.0
  C  C82  1  0.74993000  0.21496000  0.50471000  1.0
  C  C83  1  0.75459000  0.29384000  0.51273000  1.0
  C  C84  1  0.19571000  0.78556000  0.05055000  1.0
  C  C85  1  0.25514000  0.84819000  0.05258000  1.0
  C  C86  1  0.30312000  0.79961000  0.00215000  1.0
  C  C87  1  0.23457000  0.73201000  0.90308000  1.0
  C  C88  1  0.17594000  0.66908000  0.90142000  1.0
  C  C89  1  0.20366000  0.69435000  0.99940000  1.0
  C  C90  1  0.29836000  0.69341000  0.04734000  1.0
  C  C91  1  0.35720000  0.75569000  0.04887000  1.0
  C  C92  1  0.85848000  0.26515000  0.05983000  1.0
  C  C93  1  0.79949000  0.20302000  0.05896000  1.0
  C  C94  1  0.70458000  0.20656000  0.01372000  1.0
  C  C95  1  0.67638000  0.18136000  0.91567000  1.0
  C  C96  1  0.73475000  0.24398000  0.91687000  1.0
  C  C97  1  0.80413000  0.31158000  0.01570000  1.0
  C  C98  1  0.75929000  0.36023000  0.06889000  1.0
  C  C99  1  0.70028000  0.29803000  0.06751000  1.0
  C  C100  1  0.23068000  0.29928000  0.08251000  1.0
  C  C101  1  0.28970000  0.23869000  0.08518000  1.0
  C  C102  1  0.29835000  0.19814000  0.99904000  1.0
  C  C103  1  0.33743000  0.27003000  0.99619000  1.0
  C  C104  1  0.27781000  0.33000000  0.99273000  1.0
  C  C105  1  0.19834000  0.29967000  0.99417000  1.0
  C  C106  1  0.14852000  0.20887000  0.91197000  1.0
  C  C107  1  0.20788000  0.14867000  0.91481000  1.0
  C  C108  1  0.85580000  0.79622000  0.09777000  1.0
  C  C109  1  0.79711000  0.85738000  0.09515000  1.0
  C  C110  1  0.70588000  0.80817000  0.01010000  1.0
  C  C111  1  0.66776000  0.73698000  0.01464000  1.0
  C  C112  1  0.72625000  0.67573000  0.01576000  1.0
  C  C113  1  0.80527000  0.70550000  0.01341000  1.0
  C  C114  1  0.77408000  0.70859000  0.92727000  1.0
  C  C115  1  0.71447000  0.76845000  0.92474000  1.0
  S  S116  1  0.12688000  0.70651000  0.41379000  1.0
  S  S117  1  0.39242000  0.80241000  0.60324000  1.0
  S  S118  1  0.80205000  0.22414000  0.60866000  1.0
  S  S119  1  0.70068000  0.28494000  0.40904000  1.0
  O  O120  1  0.00275000  0.50436000  0.00969000  1.0
  O  O121  1  0.17960000  0.43958000  0.05347000  1.0
  O  O122  1  0.89552000  0.34024000  0.80105000  1.0
  O  O123  1  0.06279000  0.62191000  0.94912000  1.0
  O  O124  1  0.06007000  0.32840000  0.94225000  1.0
  O  O125  1  0.17872000  0.60644000  0.04986000  1.0
  O  O126  1  0.90136000  0.46434000  0.80351000  1.0
  O  O127  1  0.89450000  0.62657000  0.96244000  1.0
  O  O128  1  0.04696000  0.60919000  0.21918000  1.0
  O  O129  1  0.88146000  0.62368000  0.07273000  1.0
  O  O130  1  0.17049000  0.60449000  0.20948000  1.0
  O  O131  1  0.89438000  0.33337000  0.96268000  1.0
  O  O132  1  0.87912000  0.45005000  0.06732000  1.0
  O  O133  1  0.50355000  0.00420000  0.00742000  1.0
  O  O134  1  0.32248000  0.89439000  0.95706000  1.0
  O  O135  1  0.59453000  0.04523000  0.21440000  1.0
  O  O136  1  0.43840000  0.17742000  0.06495000  1.0
  O  O137  1  0.44190000  0.87848000  0.05364000  1.0
  O  O138  1  0.32481000  0.06093000  0.95101000  1.0
  O  O139  1  0.60120000  0.16927000  0.21685000  1.0
  O  O140  1  0.61503000  0.17656000  0.06412000  1.0
  O  O141  1  0.47061000  0.90358000  0.80060000  1.0
  O  O142  1  0.63547000  0.06527000  0.95941000  1.0
  O  O143  1  0.34455000  0.89883000  0.80484000  1.0
  O  O144  1  0.62662000  0.89458000  0.07189000  1.0
  O  O145  1  0.62823000  0.89087000  0.95346000  1.0
  O  O146  1  0.32672000  0.68796000  0.37577000  1.0
  O  O147  1  0.19161000  0.81952000  0.63973000  1.0
  O  O148  1  0.81610000  0.44609000  0.63196000  1.0
  O  O149  1  0.68734000  0.06270000  0.38511000  1.0
