# generated using pymatgen
data_Zn4H12C40O17F8
_symmetry_space_group_name_H-M   'P 1'
_cell_length_a   23.88964180
_cell_length_b   23.89010000
_cell_length_c   23.88850000
_cell_angle_alpha   66.34410000
_cell_angle_beta   72.57733523
_cell_angle_gamma   107.41950059
_symmetry_Int_Tables_number   1
_chemical_formula_structural   Zn4H12C40O17F8
_chemical_formula_sum   'Zn8 H24 C80 O34 F16'
_cell_volume   10452.78421072
_cell_formula_units_Z   2
loop_
 _symmetry_equiv_pos_site_id
 _symmetry_equiv_pos_as_xyz
  1  'x, y, z'
loop_
 _atom_site_type_symbol
 _atom_site_label
 _atom_site_symmetry_multiplicity
 _atom_site_fract_x
 _atom_site_fract_y
 _atom_site_fract_z
 _atom_site_occupancy
  Zn  Zn0  1  0.05700000  0.09962000  0.45737000  1.0
  Zn  Zn1  1  0.05700000  0.95737000  0.48562000  1.0
  Zn  Zn2  1  0.94299000  0.95736000  0.59964000  1.0
  Zn  Zn3  1  0.94301000  0.98564000  0.45736000  1.0
  Zn  Zn4  1  0.94300000  0.40037000  0.04263000  1.0
  Zn  Zn5  1  0.05701000  0.54264000  0.90036000  1.0
  Zn  Zn6  1  0.94300000  0.54263000  0.01437000  1.0
  Zn  Zn7  1  0.05699000  0.51437000  0.04264000  1.0
  H  H8  1  0.92298000  0.20840000  0.90242000  1.0
  H  H9  1  0.07701000  0.40242000  0.70837000  1.0
  H  H10  1  0.92298000  0.09758000  0.79163000  1.0
  H  H11  1  0.07697000  0.29162000  0.59756000  1.0
  H  H12  1  0.07703000  0.67464000  0.21456000  1.0
  H  H13  1  0.92299000  0.71462000  0.17458000  1.0
  H  H14  1  0.07697000  0.78535000  0.32545000  1.0
  H  H15  1  0.92298000  0.82540000  0.28541000  1.0
  H  H16  1  0.61081000  0.20840000  0.21462000  1.0
  H  H17  1  0.61080000  0.40242000  0.17458000  1.0
  H  H18  1  0.38920000  0.09758000  0.32543000  1.0
  H  H19  1  0.38919000  0.29159000  0.28546000  1.0
  H  H20  1  0.38920000  0.71465000  0.70839000  1.0
  H  H21  1  0.38918000  0.67457000  0.90245000  1.0
  H  H22  1  0.61082000  0.82543000  0.59755000  1.0
  H  H23  1  0.61080000  0.78543000  0.79160000  1.0
  H  H24  1  0.91964000  0.08248000  0.33716000  1.0
  H  H25  1  0.08036000  0.41752000  0.16284000  1.0
  H  H26  1  0.91964000  0.25680000  0.16284000  1.0
  H  H27  1  0.08037000  0.24321000  0.33715000  1.0
  H  H28  1  0.91963000  0.83714000  0.74323000  1.0
  H  H29  1  0.08037000  0.66285000  0.75677000  1.0
  H  H30  1  0.91964000  0.66283000  0.91753000  1.0
  H  H31  1  0.08036000  0.83716000  0.58247000  1.0
  C  C32  1  0.18101000  0.09049000  0.40950000  1.0
  C  C33  1  0.00000000  0.86011000  0.63989000  1.0
  C  C34  1  0.99998000  0.09049000  0.59052000  1.0
  C  C35  1  0.81899000  0.90950000  0.59050000  1.0
  C  C36  1  0.00001000  0.13990000  0.36010000  1.0
  C  C37  1  0.99999000  0.90948000  0.40950000  1.0
  C  C38  1  0.00001000  0.40952000  0.90948000  1.0
  C  C39  1  0.00001000  0.63989000  0.86010000  1.0
  C  C40  1  0.81899000  0.40950000  0.09051000  1.0
  C  C41  1  0.99999000  0.59051000  0.09050000  1.0
  C  C42  1  0.00000000  0.36011000  0.13989000  1.0
  C  C43  1  0.18101000  0.59052000  0.90950000  1.0
  C  C44  1  0.00000000  0.19587000  0.30413000  1.0
  C  C45  1  0.00000000  0.30413000  0.19587000  1.0
  C  C46  1  0.95628000  0.17943000  0.27685000  1.0
  C  C47  1  0.04372000  0.32057000  0.22315000  1.0
  C  C48  1  0.95628000  0.23313000  0.22315000  1.0
  C  C49  1  0.04372000  0.26687000  0.27685000  1.0
  C  C50  1  0.00000000  0.80413000  0.69587000  1.0
  C  C51  1  0.00000000  0.69586000  0.80413000  1.0
  C  C52  1  0.95628000  0.77685000  0.76688000  1.0
  C  C53  1  0.04373000  0.72316000  0.73311000  1.0
  C  C54  1  0.95628000  0.72314000  0.82058000  1.0
  C  C55  1  0.04372000  0.77685000  0.67942000  1.0
  C  C56  1  0.00000000  0.37213000  0.87211000  1.0
  C  C57  1  0.95770000  0.29976000  0.90618000  1.0
  C  C58  1  0.95692000  0.26411000  0.87259000  1.0
  C  C59  1  0.99999000  0.30057000  0.80056000  1.0
  C  C60  1  0.04307000  0.37260000  0.76409000  1.0
  C  C61  1  0.04230000  0.40620000  0.79972000  1.0
  C  C62  1  0.99998000  0.26525000  0.76525000  1.0
  C  C63  1  0.99998000  0.23476000  0.73475000  1.0
  C  C64  1  0.99998000  0.19944000  0.69943000  1.0
  C  C65  1  0.95692000  0.12742000  0.73590000  1.0
  C  C66  1  0.95769000  0.09381000  0.70026000  1.0
  C  C67  1  0.99998000  0.12788000  0.62788000  1.0
  C  C68  1  0.04226000  0.20026000  0.59380000  1.0
  C  C69  1  0.04303000  0.23589000  0.62741000  1.0
  C  C70  1  0.00001000  0.62791000  0.12785000  1.0
  C  C71  1  0.04232000  0.63616000  0.15792000  1.0
  C  C72  1  0.04308000  0.67052000  0.19279000  1.0
  C  C73  1  0.00000000  0.69945000  0.19941000  1.0
  C  C74  1  0.95694000  0.69285000  0.17046000  1.0
  C  C75  1  0.95771000  0.65798000  0.13608000  1.0
  C  C76  1  0.99999000  0.73476000  0.23475000  1.0
  C  C77  1  0.99998000  0.76523000  0.26526000  1.0
  C  C78  1  0.99998000  0.80055000  0.30059000  1.0
  C  C79  1  0.04304000  0.80714000  0.32955000  1.0
  C  C80  1  0.04226000  0.84200000  0.36393000  1.0
  C  C81  1  0.99998000  0.87210000  0.37214000  1.0
  C  C82  1  0.95769000  0.86388000  0.34205000  1.0
  C  C83  1  0.95692000  0.82951000  0.30718000  1.0
  C  C84  1  0.74424000  0.37212000  0.12788000  1.0
  C  C85  1  0.70593000  0.29975000  0.15797000  1.0
  C  C86  1  0.63669000  0.26411000  0.19284000  1.0
  C  C87  1  0.60113000  0.30057000  0.19944000  1.0
  C  C88  1  0.63669000  0.37259000  0.17047000  1.0
  C  C89  1  0.70593000  0.40619000  0.13610000  1.0
  C  C90  1  0.53049000  0.26525000  0.23477000  1.0
  C  C91  1  0.46951000  0.23475000  0.26527000  1.0
  C  C92  1  0.39886000  0.19941000  0.30061000  1.0
  C  C93  1  0.36331000  0.12740000  0.32955000  1.0
  C  C94  1  0.29407000  0.09380000  0.36392000  1.0
  C  C95  1  0.25576000  0.12787000  0.37215000  1.0
  C  C96  1  0.29407000  0.20024000  0.34209000  1.0
  C  C97  1  0.36331000  0.23588000  0.30722000  1.0
  C  C98  1  0.25576000  0.62790000  0.87213000  1.0
  C  C99  1  0.29407000  0.65799000  0.79975000  1.0
  C  C100  1  0.36331000  0.69286000  0.76411000  1.0
  C  C101  1  0.39886000  0.69945000  0.80058000  1.0
  C  C102  1  0.36330000  0.67048000  0.87261000  1.0
  C  C103  1  0.29406000  0.63610000  0.90621000  1.0
  C  C104  1  0.46951000  0.73478000  0.76525000  1.0
  C  C105  1  0.53049000  0.76527000  0.73475000  1.0
  C  C106  1  0.60114000  0.80060000  0.69941000  1.0
  C  C107  1  0.63669000  0.82954000  0.62740000  1.0
  C  C108  1  0.70593000  0.86391000  0.59380000  1.0
  C  C109  1  0.74425000  0.87215000  0.62786000  1.0
  C  C110  1  0.70593000  0.84207000  0.70024000  1.0
  C  C111  1  0.63668000  0.80719000  0.73589000  1.0
  O  O112  1  0.00000000  0.00000000  0.50000000  1.0
  O  O113  1  0.15203000  0.12706000  0.41199000  1.0
  O  O114  1  0.04002000  0.88392000  0.57606000  1.0
  O  O115  1  0.96090000  0.02495000  0.62709000  1.0
  O  O116  1  0.15204000  0.02495000  0.43596000  1.0
  O  O117  1  0.03908000  0.12706000  0.52496000  1.0
  O  O118  1  0.95997000  0.88391000  0.65612000  1.0
  O  O119  1  0.84796000  0.91199000  0.62707000  1.0
  O  O120  1  0.95998000  0.07606000  0.38391000  1.0
  O  O121  1  0.84797000  0.93598000  0.52494000  1.0
  O  O122  1  0.04003000  0.15611000  0.38391000  1.0
  O  O123  1  0.03907000  0.91200000  0.43596000  1.0
  O  O124  1  0.96092000  0.93597000  0.41199000  1.0
  O  O125  1  0.00000000  0.50000000  0.00000000  1.0
  O  O126  1  0.96093000  0.37294000  0.97503000  1.0
  O  O127  1  0.04004000  0.61609000  0.84387000  1.0
  O  O128  1  0.84796000  0.47504000  0.06405000  1.0
  O  O129  1  0.03908000  0.47505000  0.87291000  1.0
  O  O130  1  0.84797000  0.37293000  0.08800000  1.0
  O  O131  1  0.95998000  0.61608000  0.92394000  1.0
  O  O132  1  0.96092000  0.58801000  0.06403000  1.0
  O  O133  1  0.04002000  0.42394000  0.11609000  1.0
  O  O134  1  0.03905000  0.56402000  0.08802000  1.0
  O  O135  1  0.95997000  0.34389000  0.11609000  1.0
  O  O136  1  0.15204000  0.58800000  0.87294000  1.0
  O  O137  1  0.15203000  0.56405000  0.97506000  1.0
  O  O138  1  0.91337000  0.11356000  0.29981000  1.0
  O  O139  1  0.08663000  0.38644000  0.20019000  1.0
  O  O140  1  0.91337000  0.21318000  0.20019000  1.0
  O  O141  1  0.08664000  0.28682000  0.29980000  1.0
  O  O142  1  0.91337000  0.79980000  0.78683000  1.0
  O  O143  1  0.08664000  0.70020000  0.71316000  1.0
  O  O144  1  0.91337000  0.70018000  0.88646000  1.0
  O  O145  1  0.08663000  0.79982000  0.61354000  1.0
  F  F146  1  0.91476000  0.26121000  0.97524000  1.0
  F  F147  1  0.08523000  0.47524000  0.76117000  1.0
  F  F148  1  0.91477000  0.02476000  0.73882000  1.0
  F  F149  1  0.08517000  0.23881000  0.52474000  1.0
  F  F150  1  0.08526000  0.61005000  0.15353000  1.0
  F  F151  1  0.91478000  0.65361000  0.10997000  1.0
  F  F152  1  0.08517000  0.84635000  0.39008000  1.0
  F  F153  1  0.91476000  0.89000000  0.34643000  1.0
  F  F154  1  0.73643000  0.26120000  0.15360000  1.0
  F  F155  1  0.73642000  0.47524000  0.10997000  1.0
  F  F156  1  0.26358000  0.02475000  0.39004000  1.0
  F  F157  1  0.26357000  0.23879000  0.34648000  1.0
  F  F158  1  0.26358000  0.65365000  0.76118000  1.0
  F  F159  1  0.26356000  0.60996000  0.97527000  1.0
  F  F160  1  0.73644000  0.89004000  0.52473000  1.0
  F  F161  1  0.73642000  0.84645000  0.73880000  1.0
