# generated using pymatgen
data_HgH14C15N2(ClO2)2
_symmetry_space_group_name_H-M   'P 1'
_cell_length_a   7.54636000
_cell_length_b   9.16317000
_cell_length_c   14.13613923
_cell_angle_alpha   71.68147265
_cell_angle_beta   87.03006282
_cell_angle_gamma   66.46330000
_symmetry_Int_Tables_number   1
_chemical_formula_structural   HgH14C15N2(ClO2)2
_chemical_formula_sum   'Hg2 H28 C30 N4 Cl4 O8'
_cell_volume   847.70075527
_cell_formula_units_Z   2
loop_
 _symmetry_equiv_pos_site_id
 _symmetry_equiv_pos_as_xyz
  1  'x, y, z'
loop_
 _atom_site_type_symbol
 _atom_site_label
 _atom_site_symmetry_multiplicity
 _atom_site_fract_x
 _atom_site_fract_y
 _atom_site_fract_z
 _atom_site_occupancy
  Hg  Hg0  1  0.51796000  0.43633000  0.72966000  1.0
  Hg  Hg1  1  0.48204000  0.56367000  0.27034000  1.0
  H  H2  1  0.14697000  0.54486000  0.43170000  1.0
  H  H3  1  0.85304000  0.45513000  0.56831000  1.0
  H  H4  1  0.88845000  0.68985000  0.28803000  1.0
  H  H5  1  0.11156000  0.31015000  0.71197000  1.0
  H  H6  1  0.60052000  0.08868000  0.39670000  1.0
  H  H7  1  0.39948000  0.91132000  0.60330000  1.0
  H  H8  1  0.84155000  0.94981000  0.55030000  1.0
  H  H9  1  0.15845000  0.05019000  0.44970000  1.0
  H  H10  1  0.47809000  0.07761000  0.26358000  1.0
  H  H11  1  0.52191000  0.92238000  0.73643000  1.0
  H  H12  1  0.55912000  0.88618000  0.23535000  1.0
  H  H13  1  0.44088000  0.11382000  0.76465000  1.0
  H  H14  1  0.84574000  0.95382000  0.15596000  1.0
  H  H15  1  0.15426000  0.04618000  0.84404000  1.0
  H  H16  1  0.61340000  0.07374000  0.08961000  1.0
  H  H17  1  0.38660000  0.92626000  0.91039000  1.0
  H  H18  1  0.58046000  0.32006000  0.12908000  1.0
  H  H19  1  0.41954000  0.67994000  0.87092000  1.0
  H  H20  1  0.75563000  0.20323000  0.23359000  1.0
  H  H21  1  0.24437000  0.79678000  0.76641000  1.0
  H  H22  1  0.72409000  0.25700000  0.96890000  1.0
  H  H23  1  0.27591000  0.74300000  0.03110000  1.0
  H  H24  1  0.97037000  0.31587000  0.85661000  1.0
  H  H25  1  0.02963000  0.68413000  0.14339000  1.0
  H  H26  1  0.27247000  0.30487000  0.11163000  1.0
  H  H27  1  0.72753000  0.69513000  0.88837000  1.0
  H  H28  1  0.01422000  0.24306000  0.21619000  1.0
  H  H29  1  0.98578000  0.75694000  0.78381000  1.0
  C  C30  1  0.16629000  0.65786000  0.58868000  1.0
  C  C31  1  0.83372000  0.34214000  0.41132000  1.0
  C  C32  1  0.01259000  0.73775000  0.50174000  1.0
  C  C33  1  0.98742000  0.26225000  0.49826000  1.0
  C  C34  1  0.02706000  0.66341000  0.42767000  1.0
  C  C35  1  0.97295000  0.33658000  0.57234000  1.0
  C  C36  1  0.88861000  0.74230000  0.34727000  1.0
  C  C37  1  0.11139000  0.25769000  0.65273000  1.0
  C  C38  1  0.72248000  0.96701000  0.41045000  1.0
  C  C39  1  0.27753000  0.03299000  0.58955000  1.0
  C  C40  1  0.85575000  0.89045000  0.49305000  1.0
  C  C41  1  0.14426000  0.10955000  0.50695000  1.0
  C  C42  1  0.60493000  0.97841000  0.24787000  1.0
  C  C43  1  0.39507000  0.02159000  0.75213000  1.0
  C  C44  1  0.70043000  0.04911000  0.15727000  1.0
  C  C45  1  0.29957000  0.95089000  0.84273000  1.0
  C  C46  1  0.71693000  0.20960000  0.15842000  1.0
  C  C47  1  0.28307000  0.79040000  0.84158000  1.0
  C  C48  1  0.85243000  0.26226000  0.99691000  1.0
  C  C49  1  0.14756000  0.73774000  0.00309000  1.0
  C  C50  1  0.98989000  0.29530000  0.93600000  1.0
  C  C51  1  0.01011000  0.70469000  0.06400000  1.0
  C  C52  1  0.14599000  0.30875000  0.97630000  1.0
  C  C53  1  0.85401000  0.69125000  0.02370000  1.0
  C  C54  1  0.15734000  0.28928000  0.07811000  1.0
  C  C55  1  0.84266000  0.71072000  0.92189000  1.0
  C  C56  1  0.01689000  0.25549000  0.13693000  1.0
  C  C57  1  0.98310000  0.74451000  0.86307000  1.0
  C  C58  1  0.29434000  0.35196000  0.91004000  1.0
  C  C59  1  0.70566000  0.64804000  0.08996000  1.0
  N  N60  1  0.74140000  0.89244000  0.33921000  1.0
  N  N61  1  0.25861000  0.10756000  0.66079000  1.0
  N  N62  1  0.86812000  0.24271000  0.09551000  1.0
  N  N63  1  0.13188000  0.75729000  0.90449000  1.0
  Cl  Cl64  1  0.68941000  0.62631000  0.70537000  1.0
  Cl  Cl65  1  0.31060000  0.37368000  0.29464000  1.0
  Cl  Cl66  1  0.77488000  0.14024000  0.78222000  1.0
  Cl  Cl67  1  0.22512000  0.85976000  0.21778000  1.0
  O  O68  1  0.30212000  0.51698000  0.59047000  1.0
  O  O69  1  0.69788000  0.48302000  0.40953000  1.0
  O  O70  1  0.15091000  0.73569000  0.64975000  1.0
  O  O71  1  0.84909000  0.26431000  0.35025000  1.0
  O  O72  1  0.27370000  0.36077000  0.81867000  1.0
  O  O73  1  0.72630000  0.63923000  0.18133000  1.0
  O  O74  1  0.42071000  0.37848000  0.94791000  1.0
  O  O75  1  0.57928000  0.62153000  0.05209000  1.0
