# generated using pymatgen
data_ZnH14C20(NO)4
_symmetry_space_group_name_H-M   'P 1'
_cell_length_a   6.62680000
_cell_length_b   9.86721000
_cell_length_c   15.49795289
_cell_angle_alpha   107.73245297
_cell_angle_beta   90.01511524
_cell_angle_gamma   109.59850000
_symmetry_Int_Tables_number   1
_chemical_formula_structural   ZnH14C20(NO)4
_chemical_formula_sum   'Zn2 H28 C40 N8 O8'
_cell_volume   903.37085291
_cell_formula_units_Z   2
loop_
 _symmetry_equiv_pos_site_id
 _symmetry_equiv_pos_as_xyz
  1  'x, y, z'
loop_
 _atom_site_type_symbol
 _atom_site_label
 _atom_site_symmetry_multiplicity
 _atom_site_fract_x
 _atom_site_fract_y
 _atom_site_fract_z
 _atom_site_occupancy
  Zn  Zn0  1  0.38834000  0.00014000  0.25002000  1.0
  Zn  Zn1  1  0.61167000  0.99986000  0.74998000  1.0
  H  H2  1  0.85355000  0.48740000  0.04178000  1.0
  H  H3  1  0.36581000  0.51227000  0.45807000  1.0
  H  H4  1  0.14645000  0.51259000  0.95822000  1.0
  H  H5  1  0.63414000  0.48776000  0.54195000  1.0
  H  H6  1  0.73064000  0.68750000  0.14103000  1.0
  H  H7  1  0.04259000  0.31239000  0.35889000  1.0
  H  H8  1  0.26936000  0.31251000  0.85897000  1.0
  H  H9  1  0.95736000  0.68763000  0.64113000  1.0
  H  H10  1  0.08079000  0.09462000  0.37060000  1.0
  H  H11  1  0.98625000  0.90597000  0.12974000  1.0
  H  H12  1  0.91919000  0.90537000  0.62939000  1.0
  H  H13  1  0.01376000  0.09402000  0.87025000  1.0
  H  H14  1  0.63955000  0.69542000  0.41838000  1.0
  H  H15  1  0.94449000  0.30474000  0.08113000  1.0
  H  H16  1  0.36046000  0.30458000  0.58163000  1.0
  H  H17  1  0.05555000  0.69526000  0.91885000  1.0
  H  H18  1  0.18125000  0.68731000  0.26338000  1.0
  H  H19  1  0.49446000  0.31303000  0.23630000  1.0
  H  H20  1  0.81875000  0.31269000  0.73663000  1.0
  H  H21  1  0.50556000  0.68696000  0.76369000  1.0
  H  H22  1  0.80985000  0.12462000  0.47236000  1.0
  H  H23  1  0.68559000  0.87566000  0.02789000  1.0
  H  H24  1  0.19014000  0.87537000  0.52764000  1.0
  H  H25  1  0.31443000  0.12434000  0.97210000  1.0
  H  H26  1  0.86435000  0.54963000  0.32971000  1.0
  H  H27  1  0.31507000  0.45060000  0.16976000  1.0
  H  H28  1  0.13566000  0.45037000  0.67030000  1.0
  H  H29  1  0.68496000  0.54940000  0.83023000  1.0
  C  C30  1  0.69771000  0.49193000  0.02402000  1.0
  C  C31  1  0.20554000  0.50783000  0.47586000  1.0
  C  C32  1  0.30229000  0.50807000  0.97597000  1.0
  C  C33  1  0.79441000  0.49218000  0.52416000  1.0
  C  C34  1  0.83737000  0.90488000  0.39809000  1.0
  C  C35  1  0.93280000  0.09549000  0.10182000  1.0
  C  C36  1  0.16263000  0.09510000  0.60190000  1.0
  C  C37  1  0.06724000  0.90450000  0.89816000  1.0
  C  C38  1  0.63023000  0.60534000  0.07909000  1.0
  C  C39  1  0.02451000  0.39458000  0.42086000  1.0
  C  C40  1  0.36978000  0.39466000  0.92091000  1.0
  C  C41  1  0.97545000  0.60544000  0.57916000  1.0
  C  C42  1  0.02135000  0.97300000  0.36066000  1.0
  C  C43  1  0.04863000  0.02747000  0.13939000  1.0
  C  C44  1  0.97864000  0.02699000  0.63933000  1.0
  C  C45  1  0.95140000  0.97252000  0.86059000  1.0
  C  C46  1  0.35553000  0.73553000  0.11445000  1.0
  C  C47  1  0.61964000  0.26476000  0.38571000  1.0
  C  C48  1  0.64449000  0.26448000  0.88556000  1.0
  C  C49  1  0.38032000  0.73525000  0.61430000  1.0
  C  C50  1  0.43181000  0.61455000  0.05549000  1.0
  C  C51  1  0.81706000  0.38562000  0.44457000  1.0
  C  C52  1  0.56820000  0.38545000  0.94451000  1.0
  C  C53  1  0.18289000  0.61439000  0.55545000  1.0
  C  C54  1  0.77680000  0.74904000  0.38649000  1.0
  C  C55  1  0.02811000  0.25124000  0.11318000  1.0
  C  C56  1  0.22320000  0.25096000  0.61351000  1.0
  C  C57  1  0.97191000  0.74876000  0.88681000  1.0
  C  C58  1  0.07953000  0.74518000  0.30164000  1.0
  C  C59  1  0.33483000  0.25520000  0.19808000  1.0
  C  C60  1  0.92047000  0.25482000  0.69836000  1.0
  C  C61  1  0.66519000  0.74479000  0.80191000  1.0
  C  C62  1  0.72615000  0.00114000  0.45109000  1.0
  C  C63  1  0.72524000  0.99911000  0.04895000  1.0
  C  C64  1  0.27385000  0.99885000  0.54891000  1.0
  C  C65  1  0.27478000  0.00088000  0.95103000  1.0
  C  C66  1  0.90071000  0.66925000  0.33784000  1.0
  C  C67  1  0.23185000  0.33104000  0.16178000  1.0
  C  C68  1  0.09929000  0.33075000  0.66216000  1.0
  C  C69  1  0.76817000  0.66896000  0.83822000  1.0
  N  N70  1  0.13835000  0.89462000  0.31282000  1.0
  N  N71  1  0.24409000  0.10583000  0.18713000  1.0
  N  N72  1  0.86164000  0.10536000  0.68717000  1.0
  N  N73  1  0.75593000  0.89416000  0.81286000  1.0
  N  N74  1  0.53592000  0.94377000  0.47344000  1.0
  N  N75  1  0.59217000  0.05631000  0.02649000  1.0
  N  N76  1  0.46408000  0.05622000  0.52656000  1.0
  N  N77  1  0.40785000  0.94369000  0.97350000  1.0
  O  O78  1  0.16764000  0.73116000  0.09923000  1.0
  O  O79  1  0.43618000  0.26910000  0.40104000  1.0
  O  O80  1  0.83239000  0.26886000  0.90078000  1.0
  O  O81  1  0.56378000  0.73091000  0.59896000  1.0
  O  O82  1  0.49654000  0.84034000  0.18070000  1.0
  O  O83  1  0.65585000  0.16005000  0.31937000  1.0
  O  O84  1  0.50348000  0.15965000  0.81930000  1.0
  O  O85  1  0.34412000  0.83997000  0.68065000  1.0
