# generated using pymatgen
data_CdH16C13N4O7
_symmetry_space_group_name_H-M   'P 1'
_cell_length_a   7.75433000
_cell_length_b   10.37280000
_cell_length_c   11.88710000
_cell_angle_alpha   100.69400000
_cell_angle_beta   102.53200000
_cell_angle_gamma   105.30300000
_symmetry_Int_Tables_number   1
_chemical_formula_structural   CdH16C13N4O7
_chemical_formula_sum   'Cd2 H32 C26 N8 O14'
_cell_volume   869.80071210
_cell_formula_units_Z   2
loop_
 _symmetry_equiv_pos_site_id
 _symmetry_equiv_pos_as_xyz
  1  'x, y, z'
loop_
 _atom_site_type_symbol
 _atom_site_label
 _atom_site_symmetry_multiplicity
 _atom_site_fract_x
 _atom_site_fract_y
 _atom_site_fract_z
 _atom_site_occupancy
  Cd  Cd0  1  0.86978000  0.77538000  0.10369000  1.0
  Cd  Cd1  1  0.13021000  0.22462000  0.89631000  1.0
  H  H2  1  0.93745000  0.81904000  0.37903000  1.0
  H  H3  1  0.06255000  0.18096000  0.62097000  1.0
  H  H4  1  0.77204000  0.82768000  0.53812000  1.0
  H  H5  1  0.22796000  0.17231000  0.46188000  1.0
  H  H6  1  0.28016000  0.79440000  0.26674000  1.0
  H  H7  1  0.71985000  0.20560000  0.73326000  1.0
  H  H8  1  0.45842000  0.77814000  0.11862000  1.0
  H  H9  1  0.54158000  0.22186000  0.88138000  1.0
  H  H10  1  0.30480000  0.86652000  0.49015000  1.0
  H  H11  1  0.69519000  0.13348000  0.50985000  1.0
  H  H12  1  0.50124000  0.85989000  0.59594000  1.0
  H  H13  1  0.49876000  0.14011000  0.40406000  1.0
  H  H14  1  0.39162000  0.59650000  0.50301000  1.0
  H  H15  1  0.60838000  0.40350000  0.49699000  1.0
  H  H16  1  0.18819000  0.61335000  0.41480000  1.0
  H  H17  1  0.81181000  0.38665000  0.58520000  1.0
  H  H18  1  0.60393000  0.92649000  0.97740000  1.0
  H  H19  1  0.39606000  0.07351000  0.02260000  1.0
  H  H20  1  0.39800000  0.47932000  0.68083000  1.0
  H  H21  1  0.60200000  0.52068000  0.31917000  1.0
  H  H22  1  0.64696000  0.53512000  0.87085000  1.0
  H  H23  1  0.35304000  0.46488000  0.12916000  1.0
  H  H24  1  0.34828000  0.88526000  0.79333000  1.0
  H  H25  1  0.65172000  0.11474000  0.20667000  1.0
  H  H26  1  0.12332000  0.71841000  0.61061000  1.0
  H  H27  1  0.87668000  0.28159000  0.38939000  1.0
  H  H28  1  0.11178000  0.54261000  0.58570000  1.0
  H  H29  1  0.88822000  0.45739000  0.41430000  1.0
  H  H30  1  0.07896000  0.70645000  0.95172000  1.0
  H  H31  1  0.92104000  0.29355000  0.04828000  1.0
  H  H32  1  0.09467000  0.86163000  0.96448000  1.0
  H  H33  1  0.90532000  0.13837000  0.03552000  1.0
  C  C34  1  0.79106000  0.81265000  0.35813000  1.0
  C  C35  1  0.20894000  0.18735000  0.64187000  1.0
  C  C36  1  0.69907000  0.81835000  0.44609000  1.0
  C  C37  1  0.30093000  0.18165000  0.55392000  1.0
  C  C38  1  0.51097000  0.81108000  0.41547000  1.0
  C  C39  1  0.48903000  0.18892000  0.58453000  1.0
  C  C40  1  0.42527000  0.79960000  0.29592000  1.0
  C  C41  1  0.57474000  0.20040000  0.70408000  1.0
  C  C42  1  0.52545000  0.79149000  0.21262000  1.0
  C  C43  1  0.47455000  0.20851000  0.78738000  1.0
  C  C44  1  0.40402000  0.80855000  0.50659000  1.0
  C  C45  1  0.59598000  0.19145000  0.49340000  1.0
  C  C46  1  0.29611000  0.65863000  0.50078000  1.0
  C  C47  1  0.70390000  0.34137000  0.49922000  1.0
  C  C48  1  0.55243000  0.82805000  0.90972000  1.0
  C  C49  1  0.44757000  0.17195000  0.09028000  1.0
  C  C50  1  0.35174000  0.67823000  0.72041000  1.0
  C  C51  1  0.64825000  0.32177000  0.27959000  1.0
  C  C52  1  0.43850000  0.57982000  0.74452000  1.0
  C  C53  1  0.56149000  0.42018000  0.25548000  1.0
  C  C54  1  0.57725000  0.60977000  0.85018000  1.0
  C  C55  1  0.42275000  0.39024000  0.14983000  1.0
  C  C56  1  0.41187000  0.80508000  0.80623000  1.0
  C  C57  1  0.58812000  0.19492000  0.19377000  1.0
  C  C58  1  0.20717000  0.64819000  0.60403000  1.0
  C  C59  1  0.79283000  0.35181000  0.39597000  1.0
  N  N60  1  0.06013000  0.07053000  0.22066000  1.0
  N  N61  1  0.93988000  0.92947000  0.77934000  1.0
  N  N62  1  0.93720000  0.52571000  0.14822000  1.0
  N  N63  1  0.06280000  0.47429000  0.85178000  1.0
  N  N64  1  0.70579000  0.79770000  0.24265000  1.0
  N  N65  1  0.29421000  0.20230000  0.75735000  1.0
  N  N66  1  0.63371000  0.73212000  0.93218000  1.0
  N  N67  1  0.36629000  0.26789000  0.06782000  1.0
  O  O68  1  0.11641000  0.98123000  0.26445000  1.0
  O  O69  1  0.88359000  0.01877000  0.73555000  1.0
  O  O70  1  0.92574000  0.02448000  0.12128000  1.0
  O  O71  1  0.07426000  0.97552000  0.87872000  1.0
  O  O72  1  0.99213000  0.64093000  0.22761000  1.0
  O  O73  1  0.00787000  0.35907000  0.77239000  1.0
  O  O74  1  0.82899000  0.51401000  0.04723000  1.0
  O  O75  1  0.17101000  0.48599000  0.95277000  1.0
  O  O76  1  0.12651000  0.19645000  0.26884000  1.0
  O  O77  1  0.87349000  0.80355000  0.73116000  1.0
  O  O78  1  0.99082000  0.42721000  0.17162000  1.0
  O  O79  1  0.00918000  0.57279000  0.82837000  1.0
  O  O80  1  0.10619000  0.79452000  0.01361000  1.0
  O  O81  1  0.89381000  0.20548000  0.98639000  1.0
