# generated using pymatgen
data_CdH16C20N4O5
_symmetry_space_group_name_H-M   'P 1'
_cell_length_a   6.00854000
_cell_length_b   8.22183000
_cell_length_c   20.96330000
_cell_angle_alpha   82.04770000
_cell_angle_beta   89.47940000
_cell_angle_gamma   70.07500000
_symmetry_Int_Tables_number   1
_chemical_formula_structural   CdH16C20N4O5
_chemical_formula_sum   'Cd2 H32 C40 N8 O10'
_cell_volume   963.45110478
_cell_formula_units_Z   2
loop_
 _symmetry_equiv_pos_site_id
 _symmetry_equiv_pos_as_xyz
  1  'x, y, z'
loop_
 _atom_site_type_symbol
 _atom_site_label
 _atom_site_symmetry_multiplicity
 _atom_site_fract_x
 _atom_site_fract_y
 _atom_site_fract_z
 _atom_site_occupancy
  Cd  Cd0  1  0.14656000  0.00408000  0.75168000  1.0
  Cd  Cd1  1  0.85345000  0.99592000  0.24832000  1.0
  H  H2  1  0.06478000  0.74383000  0.86779000  1.0
  H  H3  1  0.77296000  0.26497000  0.63642000  1.0
  H  H4  1  0.93521000  0.25615000  0.13220000  1.0
  H  H5  1  0.22705000  0.73506000  0.36360000  1.0
  H  H6  1  0.64433000  0.67241000  0.75227000  1.0
  H  H7  1  0.28983000  0.33654000  0.74766000  1.0
  H  H8  1  0.35568000  0.32760000  0.24772000  1.0
  H  H9  1  0.71020000  0.66345000  0.25236000  1.0
  H  H10  1  0.69601000  0.29456000  0.92099000  1.0
  H  H11  1  0.99637000  0.70817000  0.57729000  1.0
  H  H12  1  0.30402000  0.70543000  0.07899000  1.0
  H  H13  1  0.00360000  0.29190000  0.42275000  1.0
  H  H14  1  0.87778000  0.39176000  0.82266000  1.0
  H  H15  1  0.26831000  0.61383000  0.67468000  1.0
  H  H16  1  0.12227000  0.60824000  0.17733000  1.0
  H  H17  1  0.73169000  0.38620000  0.32536000  1.0
  H  H18  1  0.72872000  0.04389000  0.59061000  1.0
  H  H19  1  0.76349000  0.96518000  0.90685000  1.0
  H  H20  1  0.27123000  0.95615000  0.40938000  1.0
  H  H21  1  0.23650000  0.03477000  0.09314000  1.0
  H  H22  1  0.15292000  0.90693000  0.52297000  1.0
  H  H23  1  0.06430000  0.10234000  0.98111000  1.0
  H  H24  1  0.84705000  0.09310000  0.47702000  1.0
  H  H25  1  0.93569000  0.89761000  0.01889000  1.0
  H  H26  1  0.71710000  0.94698000  0.72193000  1.0
  H  H27  1  0.68555000  0.99797000  0.79136000  1.0
  H  H28  1  0.28289000  0.05302000  0.27806000  1.0
  H  H29  1  0.31445000  0.00203000  0.20864000  1.0
  H  H30  1  0.36851000  0.35231000  0.99614000  1.0
  H  H31  1  0.71994000  0.65474000  0.50580000  1.0
  H  H32  1  0.63150000  0.64764000  0.00384000  1.0
  H  H33  1  0.28005000  0.34534000  0.49423000  1.0
  C  C34  1  0.24532000  0.66351000  0.85936000  1.0
  C  C35  1  0.88047000  0.34483000  0.64344000  1.0
  C  C36  1  0.75472000  0.33646000  0.14063000  1.0
  C  C37  1  0.11954000  0.65521000  0.35658000  1.0
  C  C38  1  0.56963000  0.62143000  0.79479000  1.0
  C  C39  1  0.16840000  0.38751000  0.70542000  1.0
  C  C40  1  0.43039000  0.37857000  0.20520000  1.0
  C  C41  1  0.83163000  0.61250000  0.29460000  1.0
  C  C42  1  0.36446000  0.51224000  0.90276000  1.0
  C  C43  1  0.86257000  0.49339000  0.59856000  1.0
  C  C44  1  0.63558000  0.48771000  0.09722000  1.0
  C  C45  1  0.13746000  0.50664000  0.40146000  1.0
  C  C46  1  0.25537000  0.45936000  0.96074000  1.0
  C  C47  1  0.70822000  0.54506000  0.54053000  1.0
  C  C48  1  0.74463000  0.54060000  0.03923000  1.0
  C  C49  1  0.29178000  0.45498000  0.45950000  1.0
  C  C50  1  0.59694000  0.41381000  0.88923000  1.0
  C  C51  1  0.00591000  0.59096000  0.61025000  1.0
  C  C52  1  0.40308000  0.58616000  0.11075000  1.0
  C  C53  1  0.99410000  0.40908000  0.38978000  1.0
  C  C54  1  0.69931000  0.46817000  0.83430000  1.0
  C  C55  1  0.15871000  0.53825000  0.66451000  1.0
  C  C56  1  0.30070000  0.53183000  0.16569000  1.0
  C  C57  1  0.84131000  0.46177000  0.33551000  1.0
  C  C58  1  0.34459000  0.95570000  0.63029000  1.0
  C  C59  1  0.29452000  0.06762000  0.87041000  1.0
  C  C60  1  0.65537000  0.04432000  0.36970000  1.0
  C  C61  1  0.70546000  0.93235000  0.12958000  1.0
  C  C62  1  0.62824000  0.02551000  0.55096000  1.0
  C  C63  1  0.64805000  0.97989000  0.94754000  1.0
  C  C64  1  0.37171000  0.97453000  0.44903000  1.0
  C  C65  1  0.35194000  0.02007000  0.05245000  1.0
  C  C66  1  0.30379000  0.94899000  0.51214000  1.0
  C  C67  1  0.25518000  0.05592000  0.98992000  1.0
  C  C68  1  0.69617000  0.05104000  0.48785000  1.0
  C  C69  1  0.74481000  0.94403000  0.01007000  1.0
  C  C70  1  0.43001000  0.97466000  0.56341000  1.0
  C  C71  1  0.40160000  0.03595000  0.93707000  1.0
  C  C72  1  0.56990000  0.02538000  0.43658000  1.0
  C  C73  1  0.59839000  0.96401000  0.06293000  1.0
  N  N74  1  0.34611000  0.71751000  0.80728000  1.0
  N  N75  1  0.03062000  0.29297000  0.69503000  1.0
  N  N76  1  0.65393000  0.28247000  0.19271000  1.0
  N  N77  1  0.96943000  0.70703000  0.30499000  1.0
  N  N78  1  0.03296000  0.53476000  0.97077000  1.0
  N  N79  1  0.56294000  0.46551000  0.52934000  1.0
  N  N80  1  0.96704000  0.46520000  0.02921000  1.0
  N  N81  1  0.43707000  0.53452000  0.47069000  1.0
  O  O82  1  0.14432000  0.93714000  0.63843000  1.0
  O  O83  1  0.08219000  0.07241000  0.86355000  1.0
  O  O84  1  0.85563000  0.06290000  0.36156000  1.0
  O  O85  1  0.91780000  0.92756000  0.13645000  1.0
  O  O86  1  0.47183000  0.96628000  0.67724000  1.0
  O  O87  1  0.42192000  0.08287000  0.82208000  1.0
  O  O88  1  0.52816000  0.03372000  0.32275000  1.0
  O  O89  1  0.57806000  0.91710000  0.17792000  1.0
  O  O90  1  0.80926000  0.94029000  0.76177000  1.0
  O  O91  1  0.19073000  0.05971000  0.23822000  1.0
