# generated using pymatgen
data_CuH16C11(N3Cl)2
_symmetry_space_group_name_H-M   'P 1'
_cell_length_a   8.78035000
_cell_length_b   12.02790000
_cell_length_c   14.07500000
_cell_angle_alpha   90.00000000
_cell_angle_beta   90.00000000
_cell_angle_gamma   98.80890000
_symmetry_Int_Tables_number   1
_chemical_formula_structural   CuH16C11(N3Cl)2
_chemical_formula_sum   'Cu4 H64 C44 N24 Cl8'
_cell_volume   1468.91583925
_cell_formula_units_Z   4
loop_
 _symmetry_equiv_pos_site_id
 _symmetry_equiv_pos_as_xyz
  1  'x, y, z'
loop_
 _atom_site_type_symbol
 _atom_site_label
 _atom_site_symmetry_multiplicity
 _atom_site_fract_x
 _atom_site_fract_y
 _atom_site_fract_z
 _atom_site_occupancy
  Cu  Cu0  1  0.37075000  0.11861000  0.23057000  1.0
  Cu  Cu1  1  0.63000000  0.38155000  0.73064000  1.0
  Cu  Cu2  1  0.63001000  0.88155000  0.76937000  1.0
  Cu  Cu3  1  0.37074000  0.61862000  0.26944000  1.0
  H  H4  1  0.45082000  0.13583000  0.40470000  1.0
  H  H5  1  0.54927000  0.36421000  0.90506000  1.0
  H  H6  1  0.54929000  0.86422000  0.59495000  1.0
  H  H7  1  0.45081000  0.63583000  0.09530000  1.0
  H  H8  1  0.82370000  0.35850000  0.33084000  1.0
  H  H9  1  0.17670000  0.14150000  0.83092000  1.0
  H  H10  1  0.17672000  0.64151000  0.66907000  1.0
  H  H11  1  0.82370000  0.85850000  0.16917000  1.0
  H  H12  1  0.71855000  0.45580000  0.48223000  1.0
  H  H13  1  0.28065000  0.04423000  0.98179000  1.0
  H  H14  1  0.28065000  0.54424000  0.51821000  1.0
  H  H15  1  0.71853000  0.95580000  0.01777000  1.0
  H  H16  1  0.23126000  0.35028000  0.19661000  1.0
  H  H17  1  0.76801000  0.15014000  0.69662000  1.0
  H  H18  1  0.76802000  0.65013000  0.80338000  1.0
  H  H19  1  0.23126000  0.85028000  0.30340000  1.0
  H  H20  1  0.59307000  0.98839000  0.42013000  1.0
  H  H21  1  0.40681000  0.51173000  0.92014000  1.0
  H  H22  1  0.40683000  0.01174000  0.57987000  1.0
  H  H23  1  0.59307000  0.48839000  0.07987000  1.0
  H  H24  1  0.67828000  0.07592000  0.51359000  1.0
  H  H25  1  0.32166000  0.42409000  0.01365000  1.0
  H  H26  1  0.32168000  0.92411000  0.48635000  1.0
  H  H27  1  0.67828000  0.57593000  0.98641000  1.0
  H  H28  1  0.79879000  0.06392000  0.30967000  1.0
  H  H29  1  0.20113000  0.43599000  0.80968000  1.0
  H  H30  1  0.20114000  0.93600000  0.69032000  1.0
  H  H31  1  0.79879000  0.56393000  0.19032000  1.0
  H  H32  1  0.89144000  0.03304000  0.41672000  1.0
  H  H33  1  0.10851000  0.46677000  0.91672000  1.0
  H  H34  1  0.10853000  0.96679000  0.58328000  1.0
  H  H35  1  0.89144000  0.53305000  0.08328000  1.0
  H  H36  1  0.91865000  0.23097000  0.46780000  1.0
  H  H37  1  0.08117000  0.26891000  0.96781000  1.0
  H  H38  1  0.08119000  0.76893000  0.53219000  1.0
  H  H39  1  0.91865000  0.73097000  0.03220000  1.0
  H  H40  1  0.99595000  0.22549000  0.35046000  1.0
  H  H41  1  0.00423000  0.27430000  0.85029000  1.0
  H  H42  1  0.00425000  0.77432000  0.64970000  1.0
  H  H43  1  0.99594000  0.72550000  0.14954000  1.0
  H  H44  1  0.91785000  0.60966000  0.50341000  1.0
  H  H45  1  0.08207000  0.89028000  0.00369000  1.0
  H  H46  1  0.08207000  0.39028000  0.49632000  1.0
  H  H47  1  0.91784000  0.10965000  0.99659000  1.0
  H  H48  1  0.75210000  0.64877000  0.55976000  1.0
  H  H49  1  0.24832000  0.85145000  0.05978000  1.0
  H  H50  1  0.24831000  0.35145000  0.44023000  1.0
  H  H51  1  0.75209000  0.14876000  0.94024000  1.0
  H  H52  1  0.88325000  0.71916000  0.36338000  1.0
  H  H53  1  0.11685000  0.78092000  0.86346000  1.0
  H  H54  1  0.11685000  0.28092000  0.63654000  1.0
  H  H55  1  0.88324000  0.21916000  0.13662000  1.0
  H  H56  1  0.85638000  0.80743000  0.46161000  1.0
  H  H57  1  0.14311000  0.69265000  0.96170000  1.0
  H  H58  1  0.14311000  0.19265000  0.53831000  1.0
  H  H59  1  0.85637000  0.30743000  0.03838000  1.0
  H  H60  1  0.57343000  0.76118000  0.44908000  1.0
  H  H61  1  0.42585000  0.73771000  0.94968000  1.0
  H  H62  1  0.42585000  0.23772000  0.55033000  1.0
  H  H63  1  0.57343000  0.26118000  0.05091000  1.0
  H  H64  1  0.64843000  0.80786000  0.33730000  1.0
  H  H65  1  0.35140000  0.69212000  0.83742000  1.0
  H  H66  1  0.35140000  0.19213000  0.66259000  1.0
  H  H67  1  0.64843000  0.30786000  0.16269000  1.0
  C  C68  1  0.32913000  0.36145000  0.24448000  1.0
  C  C69  1  0.67032000  0.13867000  0.74461000  1.0
  C  C70  1  0.67032000  0.63867000  0.75539000  1.0
  C  C71  1  0.32913000  0.86144000  0.25552000  1.0
  C  C72  1  0.51820000  0.43997000  0.33563000  1.0
  C  C73  1  0.48147000  0.05979000  0.83545000  1.0
  C  C74  1  0.48147000  0.55979000  0.66456000  1.0
  C  C75  1  0.51820000  0.93997000  0.16436000  1.0
  C  C76  1  0.52588000  0.32540000  0.32866000  1.0
  C  C77  1  0.47435000  0.17464000  0.82908000  1.0
  C  C78  1  0.47436000  0.67464000  0.67092000  1.0
  C  C79  1  0.52586000  0.82540000  0.17134000  1.0
  C  C80  1  0.63092000  0.25356000  0.36719000  1.0
  C  C81  1  0.36932000  0.24637000  0.86764000  1.0
  C  C82  1  0.36933000  0.74638000  0.63236000  1.0
  C  C83  1  0.63091000  0.75356000  0.13280000  1.0
  C  C84  1  0.66083000  0.07073000  0.43618000  1.0
  C  C85  1  0.33915000  0.42936000  0.93628000  1.0
  C  C86  1  0.33917000  0.92938000  0.56373000  1.0
  C  C87  1  0.66083000  0.57073000  0.06382000  1.0
  C  C88  1  0.81521000  0.08695000  0.38501000  1.0
  C  C89  1  0.18480000  0.41293000  0.88503000  1.0
  C  C90  1  0.18482000  0.91294000  0.61497000  1.0
  C  C91  1  0.81520000  0.58695000  0.11498000  1.0
  C  C92  1  0.89054000  0.20940000  0.39324000  1.0
  C  C93  1  0.10944000  0.29045000  0.89327000  1.0
  C  C94  1  0.10946000  0.79047000  0.60673000  1.0
  C  C95  1  0.89054000  0.70940000  0.10676000  1.0
  C  C96  1  0.60562000  0.53998000  0.38024000  1.0
  C  C97  1  0.39437000  0.95985000  0.88038000  1.0
  C  C98  1  0.39437000  0.45986000  0.61963000  1.0
  C  C99  1  0.60561000  0.03997000  0.11975000  1.0
  C  C100  1  0.80193000  0.63009000  0.49077000  1.0
  C  C101  1  0.19799000  0.86993000  0.99089000  1.0
  C  C102  1  0.19799000  0.36993000  0.50911000  1.0
  C  C103  1  0.80192000  0.13009000  0.00923000  1.0
  C  C104  1  0.80783000  0.73009000  0.42403000  1.0
  C  C105  1  0.19212000  0.76989000  0.92417000  1.0
  C  C106  1  0.19212000  0.26989000  0.57583000  1.0
  C  C107  1  0.80782000  0.23008000  0.07596000  1.0
  C  C108  1  0.64548000  0.73979000  0.38962000  1.0
  C  C109  1  0.35453000  0.75987000  0.89010000  1.0
  C  C110  1  0.35454000  0.25987000  0.60991000  1.0
  C  C111  1  0.64548000  0.23980000  0.11037000  1.0
  N  N112  1  0.40542000  0.27804000  0.27072000  1.0
  N  N113  1  0.59479000  0.22232000  0.77148000  1.0
  N  N114  1  0.59480000  0.72232000  0.72851000  1.0
  N  N115  1  0.40543000  0.77804000  0.22927000  1.0
  N  N116  1  0.39332000  0.45988000  0.28256000  1.0
  N  N117  1  0.60590000  0.03993000  0.78209000  1.0
  N  N118  1  0.60590000  0.53994000  0.71791000  1.0
  N  N119  1  0.39331000  0.95990000  0.21745000  1.0
  N  N120  1  0.57007000  0.15649000  0.40593000  1.0
  N  N121  1  0.43006000  0.34360000  0.90616000  1.0
  N  N122  1  0.43008000  0.84362000  0.59385000  1.0
  N  N123  1  0.57007000  0.65649000  0.09407000  1.0
  N  N124  1  0.78286000  0.28239000  0.35945000  1.0
  N  N125  1  0.21738000  0.21753000  0.85972000  1.0
  N  N126  1  0.21739000  0.71755000  0.64027000  1.0
  N  N127  1  0.78286000  0.78239000  0.14054000  1.0
  N  N128  1  0.71039000  0.53090000  0.44836000  1.0
  N  N129  1  0.28899000  0.96908000  0.94810000  1.0
  N  N130  1  0.28899000  0.46909000  0.55191000  1.0
  N  N131  1  0.71038000  0.03090000  0.05164000  1.0
  N  N132  1  0.57200000  0.63538000  0.34620000  1.0
  N  N133  1  0.42905000  0.86434000  0.84716000  1.0
  N  N134  1  0.42905000  0.36434000  0.65285000  1.0
  N  N135  1  0.57197000  0.13538000  0.15381000  1.0
  Cl  Cl136  1  0.19561000  0.14436000  0.09654000  1.0
  Cl  Cl137  1  0.80499000  0.35589000  0.59671000  1.0
  Cl  Cl138  1  0.80500000  0.85590000  0.90329000  1.0
  Cl  Cl139  1  0.19562000  0.64436000  0.40346000  1.0
  Cl  Cl140  1  0.21734000  0.07737000  0.36989000  1.0
  Cl  Cl141  1  0.78391000  0.42381000  0.87001000  1.0
  Cl  Cl142  1  0.78392000  0.92382000  0.62998000  1.0
  Cl  Cl143  1  0.21733000  0.57737000  0.13011000  1.0
