# generated using pymatgen
data_MnH2(CO2)2
_symmetry_space_group_name_H-M   'P 1'
_cell_length_a   10.03890000
_cell_length_b   11.67200000
_cell_length_c   14.70980000
_cell_angle_alpha   91.51060000
_cell_angle_beta   90.00000000
_cell_angle_gamma   90.00000000
_symmetry_Int_Tables_number   1
_chemical_formula_structural   MnH2(CO2)2
_chemical_formula_sum   'Mn12 H24 C24 O48'
_cell_volume   1723.00769171
_cell_formula_units_Z   12
loop_
 _symmetry_equiv_pos_site_id
 _symmetry_equiv_pos_as_xyz
  1  'x, y, z'
loop_
 _atom_site_type_symbol
 _atom_site_label
 _atom_site_symmetry_multiplicity
 _atom_site_fract_x
 _atom_site_fract_y
 _atom_site_fract_z
 _atom_site_occupancy
  Mn  Mn0  1  0.08280000  0.24073000  0.86853000  1.0
  Mn  Mn1  1  0.58844000  0.25452000  0.63589000  1.0
  Mn  Mn2  1  0.91441000  0.75810000  0.13076000  1.0
  Mn  Mn3  1  0.41498000  0.74168000  0.37072000  1.0
  Mn  Mn4  1  0.90519000  0.26203000  0.68122000  1.0
  Mn  Mn5  1  0.40300000  0.23732000  0.81693000  1.0
  Mn  Mn6  1  0.09671000  0.73916000  0.31976000  1.0
  Mn  Mn7  1  0.59658000  0.76266000  0.18216000  1.0
  Mn  Mn8  1  0.99894000  0.50153000  0.00011000  1.0
  Mn  Mn9  1  0.50181000  0.00224000  0.50058000  1.0
  Mn  Mn10  1  0.00021000  0.00105000  0.99913000  1.0
  Mn  Mn11  1  0.50018000  0.49712000  0.50024000  1.0
  H  H12  1  0.26877000  0.12880000  0.62757000  1.0
  H  H13  1  0.76754000  0.36920000  0.86530000  1.0
  H  H14  1  0.73147000  0.87072000  0.37273000  1.0
  H  H15  1  0.23127000  0.63087000  0.12873000  1.0
  H  H16  1  0.98017000  0.52860000  0.72074000  1.0
  H  H17  1  0.47802000  0.98233000  0.77711000  1.0
  H  H18  1  0.02109000  0.47234000  0.27836000  1.0
  H  H19  1  0.51852000  0.02883000  0.22236000  1.0
  H  H20  1  0.40177000  0.43760000  0.96718000  1.0
  H  H21  1  0.89653000  0.06589000  0.53902000  1.0
  H  H22  1  0.59642000  0.56435000  0.03044000  1.0
  H  H23  1  0.09924000  0.94164000  0.46914000  1.0
  H  H24  1  0.79362000  0.02410000  0.75763000  1.0
  H  H25  1  0.29551000  0.45753000  0.73566000  1.0
  H  H26  1  0.20601000  0.97543000  0.24070000  1.0
  H  H27  1  0.70767000  0.52649000  0.25977000  1.0
  H  H28  1  0.82970000  0.30983000  0.07851000  1.0
  H  H29  1  0.33838000  0.18485000  0.43314000  1.0
  H  H30  1  0.17177000  0.69040000  0.92240000  1.0
  H  H31  1  0.67172000  0.80813000  0.57906000  1.0
  H  H32  1  0.30227000  0.99059000  0.99428000  1.0
  H  H33  1  0.78591000  0.49865000  0.50339000  1.0
  H  H34  1  0.69845000  0.00960000  0.00471000  1.0
  H  H35  1  0.19817000  0.48938000  0.49457000  1.0
  C  C36  1  0.18609000  0.16462000  0.66873000  1.0
  C  C37  1  0.68273000  0.33498000  0.82537000  1.0
  C  C38  1  0.81403000  0.83417000  0.33178000  1.0
  C  C39  1  0.31385000  0.66761000  0.16959000  1.0
  C  C40  1  0.99918000  0.48364000  0.78487000  1.0
  C  C41  1  0.50516000  0.02327000  0.71274000  1.0
  C  C42  1  0.00091000  0.51772000  0.21459000  1.0
  C  C43  1  0.49986000  0.98393000  0.28657000  1.0
  C  C44  1  0.29380000  0.42151000  0.95730000  1.0
  C  C45  1  0.78856000  0.08469000  0.54276000  1.0
  C  C46  1  0.70456000  0.57846000  0.04112000  1.0
  C  C47  1  0.20701000  0.92488000  0.45907000  1.0
  C  C48  1  0.86692000  0.05013000  0.81069000  1.0
  C  C49  1  0.37473000  0.43961000  0.68477000  1.0
  C  C50  1  0.13161000  0.94987000  0.18819000  1.0
  C  C51  1  0.63271000  0.55092000  0.31221000  1.0
  C  C52  1  0.89269000  0.25713000  0.03219000  1.0
  C  C53  1  0.39886000  0.24331000  0.47637000  1.0
  C  C54  1  0.10683000  0.74354000  0.96710000  1.0
  C  C55  1  0.60750000  0.75615000  0.53295000  1.0
  C  C56  1  0.28749000  0.06322000  0.94873000  1.0
  C  C57  1  0.77742000  0.42670000  0.55017000  1.0
  C  C58  1  0.71308000  0.93641000  0.04974000  1.0
  C  C59  1  0.21297000  0.56350000  0.45050000  1.0
  O  O60  1  0.21086000  0.18914000  0.75273000  1.0
  O  O61  1  0.70746000  0.31000000  0.74102000  1.0
  O  O62  1  0.78958000  0.81010000  0.24771000  1.0
  O  O63  1  0.28962000  0.69151000  0.25367000  1.0
  O  O64  1  0.07558000  0.17752000  0.62979000  1.0
  O  O65  1  0.57301000  0.32458000  0.86543000  1.0
  O  O66  1  0.92394000  0.82027000  0.37130000  1.0
  O  O67  1  0.42354000  0.68185000  0.12984000  1.0
  O  O68  1  0.00603000  0.37357000  0.77791000  1.0
  O  O69  1  0.51868000  0.13341000  0.71938000  1.0
  O  O70  1  0.99423000  0.62763000  0.22191000  1.0
  O  O71  1  0.49480000  0.87387000  0.28007000  1.0
  O  O72  1  0.01196000  0.54163000  0.85711000  1.0
  O  O73  1  0.51976000  0.96280000  0.64186000  1.0
  O  O74  1  0.98650000  0.45991000  0.14229000  1.0
  O  O75  1  0.48552000  0.04253000  0.35844000  1.0
  O  O76  1  0.26386000  0.34463000  0.89606000  1.0
  O  O77  1  0.75658000  0.16409000  0.60176000  1.0
  O  O78  1  0.73552000  0.65359000  0.10346000  1.0
  O  O79  1  0.23628000  0.84760000  0.39810000  1.0
  O  O80  1  0.21257000  0.47805000  0.00483000  1.0
  O  O81  1  0.71062000  0.02884000  0.49197000  1.0
  O  O82  1  0.78517000  0.52137000  0.99341000  1.0
  O  O83  1  0.28883000  0.98136000  0.50632000  1.0
  O  O84  1  0.91965000  0.14976000  0.80171000  1.0
  O  O85  1  0.43074000  0.34063000  0.69192000  1.0
  O  O86  1  0.07634000  0.85174000  0.19864000  1.0
  O  O87  1  0.57635000  0.64873000  0.30208000  1.0
  O  O88  1  0.89049000  0.98204000  0.87290000  1.0
  O  O89  1  0.40024000  0.51423000  0.62785000  1.0
  O  O90  1  0.10970000  0.01739000  0.12523000  1.0
  O  O91  1  0.61118000  0.48267000  0.37470000  1.0
  O  O92  1  0.96846000  0.31326000  0.97808000  1.0
  O  O93  1  0.47722000  0.19236000  0.53254000  1.0
  O  O94  1  0.02998000  0.68773000  0.02088000  1.0
  O  O95  1  0.53096000  0.81351000  0.48002000  1.0
  O  O96  1  0.88520000  0.15038000  0.03540000  1.0
  O  O97  1  0.38632000  0.34911000  0.46759000  1.0
  O  O98  1  0.11343000  0.85009000  0.96271000  1.0
  O  O99  1  0.61448000  0.64940000  0.53523000  1.0
  O  O100  1  0.16692000  0.09902000  0.94015000  1.0
  O  O101  1  0.65803000  0.38734000  0.56029000  1.0
  O  O102  1  0.83382000  0.90118000  0.05870000  1.0
  O  O103  1  0.33370000  0.59887000  0.44216000  1.0
  O  O104  1  0.38808000  0.10323000  0.90977000  1.0
  O  O105  1  0.88173000  0.39262000  0.58794000  1.0
  O  O106  1  0.61232000  0.89534000  0.08767000  1.0
  O  O107  1  0.11236000  0.60528000  0.41283000  1.0
