# generated using pymatgen
data_ZnP2H14(CO)6
_symmetry_space_group_name_H-M   'P 1'
_cell_length_a   7.95941000
_cell_length_b   8.50478000
_cell_length_c   9.45132458
_cell_angle_alpha   116.71350216
_cell_angle_beta   101.34286164
_cell_angle_gamma   90.00570000
_symmetry_Int_Tables_number   1
_chemical_formula_structural   ZnP2H14(CO)6
_chemical_formula_sum   'Zn2 P4 H28 C12 O12'
_cell_volume   557.46966151
_cell_formula_units_Z   2
loop_
 _symmetry_equiv_pos_site_id
 _symmetry_equiv_pos_as_xyz
  1  'x, y, z'
loop_
 _atom_site_type_symbol
 _atom_site_label
 _atom_site_symmetry_multiplicity
 _atom_site_fract_x
 _atom_site_fract_y
 _atom_site_fract_z
 _atom_site_occupancy
  Zn  Zn0  1  0.75008000  0.55772000  0.00003000  1.0
  Zn  Zn1  1  0.24992000  0.44229000  0.99997000  1.0
  P  P2  1  0.51435000  0.20836000  0.81673000  1.0
  P  P3  1  0.98568000  0.39154000  0.18343000  1.0
  P  P4  1  0.48565000  0.79164000  0.18327000  1.0
  P  P5  1  0.01433000  0.60847000  0.81657000  1.0
  H  H6  1  0.55024000  0.96830000  0.84537000  1.0
  H  H7  1  0.94942000  0.12288000  0.15472000  1.0
  H  H8  1  0.44976000  0.03171000  0.15464000  1.0
  H  H9  1  0.05058000  0.87712000  0.84528000  1.0
  H  H10  1  0.27895000  0.24247000  0.64363000  1.0
  H  H11  1  0.22098000  0.59865000  0.35660000  1.0
  H  H12  1  0.72105000  0.75755000  0.35637000  1.0
  H  H13  1  0.77903000  0.40135000  0.64340000  1.0
  H  H14  1  0.40042000  0.07745000  0.52810000  1.0
  H  H15  1  0.09964000  0.54885000  0.47208000  1.0
  H  H16  1  0.59958000  0.92256000  0.47191000  1.0
  H  H17  1  0.90037000  0.45114000  0.52791000  1.0
  H  H18  1  0.28731000  0.86611000  0.61363000  1.0
  H  H19  1  0.21298000  0.25216000  0.38647000  1.0
  H  H20  1  0.71268000  0.13388000  0.38637000  1.0
  H  H21  1  0.78703000  0.74784000  0.61353000  1.0
  H  H22  1  0.17840000  0.03267000  0.74236000  1.0
  H  H23  1  0.32170000  0.29022000  0.25766000  1.0
  H  H24  1  0.82159000  0.96735000  0.25765000  1.0
  H  H25  1  0.67830000  0.70977000  0.74233000  1.0
  H  H26  1  0.10010000  0.88617000  0.37155000  1.0
  H  H27  1  0.40012000  0.51431000  0.62846000  1.0
  H  H28  1  0.89990000  0.11383000  0.62845000  1.0
  H  H29  1  0.59989000  0.48569000  0.37154000  1.0
  H  H30  1  0.99089000  0.80937000  0.47637000  1.0
  H  H31  1  0.50949000  0.33301000  0.52366000  1.0
  H  H32  1  0.00910000  0.19063000  0.52363000  1.0
  H  H33  1  0.49051000  0.66700000  0.47634000  1.0
  C  C34  1  0.34484000  0.12612000  0.63605000  1.0
  C  C35  1  0.15516000  0.48974000  0.36409000  1.0
  C  C36  1  0.65515000  0.87389000  0.36395000  1.0
  C  C37  1  0.84485000  0.51025000  0.63590000  1.0
  C  C38  1  0.21957000  0.98298000  0.62636000  1.0
  C  C39  1  0.28057000  0.35638000  0.37369000  1.0
  C  C40  1  0.78043000  0.01703000  0.37365000  1.0
  C  C41  1  0.71943000  0.64361000  0.62630000  1.0
  C  C42  1  0.06048000  0.92764000  0.48771000  1.0
  C  C43  1  0.43968000  0.43978000  0.51229000  1.0
  C  C44  1  0.93952000  0.07236000  0.51230000  1.0
  C  C45  1  0.56031000  0.56021000  0.48770000  1.0
  O  O46  1  0.43349000  0.28294000  0.96532000  1.0
  O  O47  1  0.06664000  0.31749000  0.03491000  1.0
  O  O48  1  0.56649000  0.71706000  0.03469000  1.0
  O  O49  1  0.93338000  0.68251000  0.96508000  1.0
  O  O50  1  0.64965000  0.33085000  0.81111000  1.0
  O  O51  1  0.85065000  0.51993000  0.18917000  1.0
  O  O52  1  0.35034000  0.66913000  0.18889000  1.0
  O  O53  1  0.14937000  0.48006000  0.81083000  1.0
  O  O54  1  0.61326000  0.04151000  0.81407000  1.0
  O  O55  1  0.88651000  0.22743000  0.18604000  1.0
  O  O56  1  0.38674000  0.95850000  0.18594000  1.0
  O  O57  1  0.11349000  0.77258000  0.81396000  1.0
