# generated using pymatgen
data_TlH5C3(NO2)2
_symmetry_space_group_name_H-M   'P 1'
_cell_length_a   4.54665000
_cell_length_b   7.81877000
_cell_length_c   9.27012000
_cell_angle_alpha   89.99960000
_cell_angle_beta   77.11800000
_cell_angle_gamma   89.99990000
_symmetry_Int_Tables_number   1
_chemical_formula_structural   TlH5C3(NO2)2
_chemical_formula_sum   'Tl2 H10 C6 N4 O8'
_cell_volume   321.25121195
_cell_formula_units_Z   2
loop_
 _symmetry_equiv_pos_site_id
 _symmetry_equiv_pos_as_xyz
  1  'x, y, z'
loop_
 _atom_site_type_symbol
 _atom_site_label
 _atom_site_symmetry_multiplicity
 _atom_site_fract_x
 _atom_site_fract_y
 _atom_site_fract_z
 _atom_site_occupancy
  Tl  Tl0  1  0.97898000  0.15868000  0.01371000  1.0
  Tl  Tl1  1  0.47898000  0.84132000  0.51371000  1.0
  H  H2  1  0.13124000  0.87582000  0.21940000  1.0
  H  H3  1  0.63124000  0.12418000  0.71941000  1.0
  H  H4  1  0.67696000  0.45652000  0.66963000  1.0
  H  H5  1  0.17696000  0.54349000  0.16963000  1.0
  H  H6  1  0.67005000  0.77963000  0.14511000  1.0
  H  H7  1  0.17005000  0.22037000  0.64511000  1.0
  H  H8  1  0.81688000  0.68691000  0.76985000  1.0
  H  H9  1  0.31688000  0.31309000  0.26985000  1.0
  H  H10  1  0.88761000  0.63768000  0.94557000  1.0
  H  H11  1  0.38761000  0.36232000  0.44558000  1.0
  C  C12  1  0.52764000  0.49083000  0.89476000  1.0
  C  C13  1  0.02764000  0.50917000  0.39476000  1.0
  C  C14  1  0.70861000  0.65511000  0.88451000  1.0
  C  C15  1  0.20861000  0.34489000  0.38451000  1.0
  C  C16  1  0.49885000  0.79970000  0.95122000  1.0
  C  C17  1  0.99885000  0.20030000  0.45122000  1.0
  N  N18  1  0.54233000  0.40993000  0.76774000  1.0
  N  N19  1  0.04233000  0.59008000  0.26774000  1.0
  N  N20  1  0.51853000  0.83764000  0.08977000  1.0
  N  N21  1  0.01853000  0.16236000  0.58977000  1.0
  O  O22  1  0.39864000  0.25740000  0.76059000  1.0
  O  O23  1  0.89864000  0.74260000  0.26059000  1.0
  O  O24  1  0.37472000  0.43591000  0.01807000  1.0
  O  O25  1  0.87472000  0.56409000  0.51807000  1.0
  O  O26  1  0.31952000  0.86797000  0.88377000  1.0
  O  O27  1  0.81952000  0.13203000  0.38377000  1.0
  O  O28  1  0.32145000  0.95332000  0.17629000  1.0
  O  O29  1  0.82144000  0.04668000  0.67629000  1.0
