# generated using pymatgen
data_SmH22C20SN3O11
_symmetry_space_group_name_H-M   'P 1'
_cell_length_a   10.11720000
_cell_length_b   12.82160000
_cell_length_c   13.28600000
_cell_angle_alpha   81.52200000
_cell_angle_beta   87.27890000
_cell_angle_gamma   70.10660000
_symmetry_Int_Tables_number   1
_chemical_formula_structural   SmH22C20SN3O11
_chemical_formula_sum   'Sm2 H44 C40 S2 N6 O22'
_cell_volume   1602.88436948
_cell_formula_units_Z   2
loop_
 _symmetry_equiv_pos_site_id
 _symmetry_equiv_pos_as_xyz
  1  'x, y, z'
loop_
 _atom_site_type_symbol
 _atom_site_label
 _atom_site_symmetry_multiplicity
 _atom_site_fract_x
 _atom_site_fract_y
 _atom_site_fract_z
 _atom_site_occupancy
  Sm  Sm0  1  0.82318000  0.55726000  0.58071000  1.0
  Sm  Sm1  1  0.17682000  0.44274000  0.41929000  1.0
  H  H2  1  0.96562000  0.71493000  0.69463000  1.0
  H  H3  1  0.03438000  0.28507000  0.30537000  1.0
  H  H4  1  0.00091000  0.82685000  0.82281000  1.0
  H  H5  1  0.99909000  0.17315000  0.17719000  1.0
  H  H6  1  0.44754000  0.70939000  0.76616000  1.0
  H  H7  1  0.55246000  0.29061000  0.23384000  1.0
  H  H8  1  0.41161000  0.59832000  0.63803000  1.0
  H  H9  1  0.58839000  0.40168000  0.36197000  1.0
  H  H10  1  0.01592000  0.05157000  0.90751000  1.0
  H  H11  1  0.98408000  0.94843000  0.09249000  1.0
  H  H12  1  0.95023000  0.23993000  0.80058000  1.0
  H  H13  1  0.04977000  0.76007000  0.19942000  1.0
  H  H14  1  0.32869000  0.12882000  0.62629000  1.0
  H  H15  1  0.67131000  0.87118000  0.37371000  1.0
  H  H16  1  0.39762000  0.94153000  0.73156000  1.0
  H  H17  1  0.60238000  0.05847000  0.26844000  1.0
  H  H18  1  0.55934000  0.41345000  0.58212000  1.0
  H  H19  1  0.44066000  0.58655000  0.41788000  1.0
  H  H20  1  0.39858000  0.27410000  0.74422000  1.0
  H  H21  1  0.60142000  0.72590000  0.25578000  1.0
  H  H22  1  0.54997000  0.17046000  0.70188000  1.0
  H  H23  1  0.45003000  0.82954000  0.29812000  1.0
  H  H24  1  0.45503000  0.29167000  0.61578000  1.0
  H  H25  1  0.54497000  0.70833000  0.38422000  1.0
  H  H26  1  0.70443000  0.33788000  0.83550000  1.0
  H  H27  1  0.29557000  0.66212000  0.16450000  1.0
  H  H28  1  0.69992000  0.19917000  0.83835000  1.0
  H  H29  1  0.30008000  0.80083000  0.16164000  1.0
  H  H30  1  0.55322000  0.30344000  0.88314000  1.0
  H  H31  1  0.44678000  0.69656000  0.11686000  1.0
  H  H32  1  0.00402000  0.45446000  0.83548000  1.0
  H  H33  1  0.99598000  0.54554000  0.16452000  1.0
  H  H34  1  0.64666000  0.60939000  0.97287000  1.0
  H  H35  1  0.35334000  0.39061000  0.02713000  1.0
  H  H36  1  0.62499000  0.47799000  0.96452000  1.0
  H  H37  1  0.37501000  0.52201000  0.03548000  1.0
  H  H38  1  0.62783000  0.57234000  0.85124000  1.0
  H  H39  1  0.37217000  0.42766000  0.14876000  1.0
  H  H40  1  0.86299000  0.32953000  0.01318000  1.0
  H  H41  1  0.13701000  0.67047000  0.98682000  1.0
  H  H42  1  0.87116000  0.44125000  0.07577000  1.0
  H  H43  1  0.12884000  0.55876000  0.92423000  1.0
  H  H44  1  0.00910000  0.37754000  0.99226000  1.0
  H  H45  1  0.99090000  0.62246000  0.00774000  1.0
  C  C46  1  0.17188000  0.57765000  0.58362000  1.0
  C  C47  1  0.82812000  0.42235000  0.41638000  1.0
  C  C48  1  0.18763000  0.64671000  0.66067000  1.0
  C  C49  1  0.81238000  0.35329000  0.33933000  1.0
  C  C50  1  0.07100000  0.71246000  0.71143000  1.0
  C  C51  1  0.92901000  0.28753000  0.28856000  1.0
  C  C52  1  0.09044000  0.77555000  0.78270000  1.0
  C  C53  1  0.90956000  0.22445000  0.21730000  1.0
  C  C54  1  0.22679000  0.77158000  0.80296000  1.0
  C  C55  1  0.77321000  0.22842000  0.19704000  1.0
  C  C56  1  0.34310000  0.70840000  0.75152000  1.0
  C  C57  1  0.65690000  0.29160000  0.24848000  1.0
  C  C58  1  0.32266000  0.64606000  0.68024000  1.0
  C  C59  1  0.67734000  0.35394000  0.31976000  1.0
  C  C60  1  0.21073000  0.98707000  0.82592000  1.0
  C  C61  1  0.78927000  0.01293000  0.17409000  1.0
  C  C62  1  0.08436000  0.06915000  0.84649000  1.0
  C  C63  1  0.91564000  0.93085000  0.15351000  1.0
  C  C64  1  0.04830000  0.17409000  0.78735000  1.0
  C  C65  1  0.95170000  0.82591000  0.21265000  1.0
  C  C66  1  0.13635000  0.19593000  0.70848000  1.0
  C  C67  1  0.86365000  0.80406000  0.29152000  1.0
  C  C68  1  0.26221000  0.11190000  0.68894000  1.0
  C  C69  1  0.73779000  0.88810000  0.31106000  1.0
  C  C70  1  0.30062000  0.00699000  0.74784000  1.0
  C  C71  1  0.69938000  0.99301000  0.25216000  1.0
  C  C72  1  0.09467000  0.30906000  0.64383000  1.0
  C  C73  1  0.90533000  0.69094000  0.35617000  1.0
  C  C74  1  0.60543000  0.40111000  0.65827000  1.0
  C  C75  1  0.39457000  0.59888000  0.34173000  1.0
  C  C76  1  0.49116000  0.26083000  0.69445000  1.0
  C  C77  1  0.50884000  0.73916000  0.30555000  1.0
  C  C78  1  0.63737000  0.28877000  0.82598000  1.0
  C  C79  1  0.36263000  0.71123000  0.17402000  1.0
  C  C80  1  0.89126000  0.50547000  0.83458000  1.0
  C  C81  1  0.10874000  0.49453000  0.16541000  1.0
  C  C82  1  0.67151000  0.53980000  0.92775000  1.0
  C  C83  1  0.32849000  0.46020000  0.07225000  1.0
  C  C84  1  0.89523000  0.40390000  0.00487000  1.0
  C  C85  1  0.10477000  0.59610000  0.99513000  1.0
  S  S86  1  0.25475000  0.85018000  0.89482000  1.0
  S  S87  1  0.74525000  0.14982000  0.10518000  1.0
  N  N88  1  0.62652000  0.78369000  0.59562000  1.0
  N  N89  1  0.37348000  0.21631000  0.40437000  1.0
  N  N90  1  0.82278000  0.48489000  0.91956000  1.0
  N  N91  1  0.17722000  0.51512000  0.08044000  1.0
  N  N92  1  0.57934000  0.32053000  0.72356000  1.0
  N  N93  1  0.42066000  0.67947000  0.27644000  1.0
  O  O94  1  0.05030000  0.57449000  0.56468000  1.0
  O  O95  1  0.94969000  0.42551000  0.43532000  1.0
  O  O96  1  0.28052000  0.52348000  0.53715000  1.0
  O  O97  1  0.71947000  0.47652000  0.46285000  1.0
  O  O98  1  0.15243000  0.85114000  0.97598000  1.0
  O  O99  1  0.84757000  0.14886000  0.02402000  1.0
  O  O100  1  0.40365000  0.80743000  0.91971000  1.0
  O  O101  1  0.59636000  0.19257000  0.08029000  1.0
  O  O102  1  0.97346000  0.37809000  0.65935000  1.0
  O  O103  1  0.02654000  0.62191000  0.34064000  1.0
  O  O104  1  0.18333000  0.32763000  0.57926000  1.0
  O  O105  1  0.81667000  0.67237000  0.42074000  1.0
  O  O106  1  0.75895000  0.76056000  0.60684000  1.0
  O  O107  1  0.24105000  0.23944000  0.39316000  1.0
  O  O108  1  0.58672000  0.70136000  0.57943000  1.0
  O  O109  1  0.41328000  0.29864000  0.42056000  1.0
  O  O110  1  0.54095000  0.87810000  0.59977000  1.0
  O  O111  1  0.45905000  0.12190000  0.40023000  1.0
  O  O112  1  0.83564000  0.57570000  0.75976000  1.0
  O  O113  1  0.16435000  0.42430000  0.24024000  1.0
  O  O114  1  0.67553000  0.45893000  0.68001000  1.0
  O  O115  1  0.32447000  0.54107000  0.31998000  1.0
