# generated using pymatgen
data_ZnMo6H20C16(N3O11)2
_symmetry_space_group_name_H-M   'P 1'
_cell_length_a   7.65850000
_cell_length_b   10.09170000
_cell_length_c   10.27860000
_cell_angle_alpha   106.26500000
_cell_angle_beta   92.36770000
_cell_angle_gamma   98.71630000
_symmetry_Int_Tables_number   1
_chemical_formula_structural   ZnMo6H20C16(N3O11)2
_chemical_formula_sum   'Zn1 Mo6 H20 C16 N6 O22'
_cell_volume   750.86047871
_cell_formula_units_Z   1
loop_
 _symmetry_equiv_pos_site_id
 _symmetry_equiv_pos_as_xyz
  1  'x, y, z'
loop_
 _atom_site_type_symbol
 _atom_site_label
 _atom_site_symmetry_multiplicity
 _atom_site_fract_x
 _atom_site_fract_y
 _atom_site_fract_z
 _atom_site_occupancy
  Zn  Zn0  1  0.50000000  0.50000000  0.50000000  1.0
  Mo  Mo1  1  0.19696000  0.30591000  0.85965000  1.0
  Mo  Mo2  1  0.80304000  0.69409000  0.14035000  1.0
  Mo  Mo3  1  0.49297000  0.59453000  0.88073000  1.0
  Mo  Mo4  1  0.50703000  0.40548000  0.11927000  1.0
  Mo  Mo5  1  0.99128000  0.57345000  0.85744000  1.0
  Mo  Mo6  1  0.00872000  0.42655000  0.14256000  1.0
  H  H7  1  0.42442000  0.68214000  0.31682000  1.0
  H  H8  1  0.57558000  0.31786000  0.68318000  1.0
  H  H9  1  0.15799000  0.10554000  0.06792000  1.0
  H  H10  1  0.84201000  0.89446000  0.93208000  1.0
  H  H11  1  0.14791000  0.44050000  0.44863000  1.0
  H  H12  1  0.85209000  0.55949000  0.55137000  1.0
  H  H13  1  0.19562000  0.36323000  0.56107000  1.0
  H  H14  1  0.80438000  0.63677000  0.43894000  1.0
  H  H15  1  0.33841000  0.77196000  0.71813000  1.0
  H  H16  1  0.66159000  0.22804000  0.28187000  1.0
  H  H17  1  0.22685000  0.97985000  0.62992000  1.0
  H  H18  1  0.77315000  0.02015000  0.37008000  1.0
  H  H19  1  0.32320000  0.92726000  0.00287000  1.0
  H  H20  1  0.67680000  0.07274000  0.99713000  1.0
  H  H21  1  0.40480000  0.80238000  0.16667000  1.0
  H  H22  1  0.59520000  0.19762000  0.83333000  1.0
  H  H23  1  0.14222000  0.08221000  0.46800000  1.0
  H  H24  1  0.85777000  0.91778000  0.53199000  1.0
  H  H25  1  0.06175000  0.18803000  0.28575000  1.0
  H  H26  1  0.93825000  0.81196000  0.71425000  1.0
  C  C27  1  0.33879000  0.78571000  0.61732000  1.0
  C  C28  1  0.66121000  0.21430000  0.38268000  1.0
  C  C29  1  0.28147000  0.89103000  0.57091000  1.0
  C  C30  1  0.71853000  0.10897000  0.42908000  1.0
  C  C31  1  0.31388000  0.85939000  0.43326000  1.0
  C  C32  1  0.68611000  0.14061000  0.56674000  1.0
  C  C33  1  0.28539000  0.95492000  0.10629000  1.0
  C  C34  1  0.71461000  0.04508000  0.89371000  1.0
  C  C35  1  0.32962000  0.88751000  0.19951000  1.0
  C  C36  1  0.67038000  0.11249000  0.80049000  1.0
  C  C37  1  0.27625000  0.92924000  0.33220000  1.0
  C  C38  1  0.72375000  0.07076000  0.66780000  1.0
  C  C39  1  0.18143000  0.04150000  0.36574000  1.0
  C  C40  1  0.81856000  0.95850000  0.63426000  1.0
  C  C41  1  0.13766000  0.10331000  0.26780000  1.0
  C  C42  1  0.86234000  0.89669000  0.73220000  1.0
  N  N43  1  0.38840000  0.74136000  0.40642000  1.0
  N  N44  1  0.61160000  0.25863000  0.59357000  1.0
  N  N45  1  0.40315000  0.69487000  0.51596000  1.0
  N  N46  1  0.59685000  0.30513000  0.48403000  1.0
  N  N47  1  0.18907000  0.05856000  0.14144000  1.0
  N  N48  1  0.81092000  0.94144000  0.85855000  1.0
  O  O49  1  0.24712000  0.54079000  0.88038000  1.0
  O  O50  1  0.75288000  0.45921000  0.11962000  1.0
  O  O51  1  0.45310000  0.37247000  0.90767000  1.0
  O  O52  1  0.54690000  0.62753000  0.09234000  1.0
  O  O53  1  0.98261000  0.37503000  0.90378000  1.0
  O  O54  1  0.01739000  0.62497000  0.09622000  1.0
  O  O55  1  0.18767000  0.26469000  0.68350000  1.0
  O  O56  1  0.81234000  0.73531000  0.31650000  1.0
  O  O57  1  0.24057000  0.41148000  0.09048000  1.0
  O  O58  1  0.75943000  0.58852000  0.90952000  1.0
  O  O59  1  0.16622000  0.14676000  0.89578000  1.0
  O  O60  1  0.83378000  0.85324000  0.10422000  1.0
  O  O61  1  0.51399000  0.52256000  0.70668000  1.0
  O  O62  1  0.48601000  0.47744000  0.29332000  1.0
  O  O63  1  0.49985000  0.76921000  0.90047000  1.0
  O  O64  1  0.50015000  0.23080000  0.09953000  1.0
  O  O65  1  0.95067000  0.49765000  0.68386000  1.0
  O  O66  1  0.04933000  0.50235000  0.31614000  1.0
  O  O67  1  0.07416000  0.74638000  0.87359000  1.0
  O  O68  1  0.92585000  0.25362000  0.12641000  1.0
  O  O69  1  0.23551000  0.39242000  0.48145000  1.0
  O  O70  1  0.76449000  0.60757000  0.51855000  1.0
