# generated using pymatgen
data_BaH2C6(NO2)2
_symmetry_space_group_name_H-M   'P 1'
_cell_length_a   7.01723000
_cell_length_b   9.19776000
_cell_length_c   11.73170000
_cell_angle_alpha   89.99990000
_cell_angle_beta   76.78900000
_cell_angle_gamma   89.99950000
_symmetry_Int_Tables_number   1
_chemical_formula_structural   BaH2C6(NO2)2
_chemical_formula_sum   'Ba4 H8 C24 N8 O16'
_cell_volume   737.15755851
_cell_formula_units_Z   4
loop_
 _symmetry_equiv_pos_site_id
 _symmetry_equiv_pos_as_xyz
  1  'x, y, z'
loop_
 _atom_site_type_symbol
 _atom_site_label
 _atom_site_symmetry_multiplicity
 _atom_site_fract_x
 _atom_site_fract_y
 _atom_site_fract_z
 _atom_site_occupancy
  Ba  Ba0  1  0.47372000  0.10916000  0.86054000  1.0
  Ba  Ba1  1  0.02628000  0.60915000  0.13946000  1.0
  Ba  Ba2  1  0.52628000  0.89084000  0.13946000  1.0
  Ba  Ba3  1  0.97372000  0.39084000  0.86054000  1.0
  H  H4  1  0.65846000  0.95908000  0.56339000  1.0
  H  H5  1  0.84154000  0.45908000  0.43661000  1.0
  H  H6  1  0.34154000  0.04092000  0.43661000  1.0
  H  H7  1  0.15846000  0.54092000  0.56339000  1.0
  H  H8  1  0.75229000  0.73128000  0.44795000  1.0
  H  H9  1  0.74771000  0.23128000  0.55205000  1.0
  H  H10  1  0.24771000  0.26872000  0.55205000  1.0
  H  H11  1  0.25229000  0.76872000  0.44795000  1.0
  C  C12  1  0.61574000  0.85326000  0.60320000  1.0
  C  C13  1  0.88426000  0.35326000  0.39680000  1.0
  C  C14  1  0.38426000  0.14674000  0.39680000  1.0
  C  C15  1  0.11574000  0.64674000  0.60320000  1.0
  C  C16  1  0.67267000  0.72634000  0.53935000  1.0
  C  C17  1  0.82733000  0.22634000  0.46065000  1.0
  C  C18  1  0.32733000  0.27366000  0.46065000  1.0
  C  C19  1  0.17267000  0.77366000  0.53935000  1.0
  C  C20  1  0.52890000  0.58892000  0.69824000  1.0
  C  C21  1  0.97110000  0.08892000  0.30177000  1.0
  C  C22  1  0.47110000  0.41108000  0.30176000  1.0
  C  C23  1  0.02890000  0.91108000  0.69823000  1.0
  C  C24  1  0.46485000  0.71661000  0.76228000  1.0
  C  C25  1  0.03515000  0.21660000  0.23772000  1.0
  C  C26  1  0.53515000  0.28339000  0.23772000  1.0
  C  C27  1  0.96485000  0.78340000  0.76228000  1.0
  C  C28  1  0.49701000  0.43863000  0.75176000  1.0
  C  C29  1  0.00299000  0.93863000  0.24825000  1.0
  C  C30  1  0.50299000  0.56137000  0.24824000  1.0
  C  C31  1  0.99701000  0.06137000  0.75175000  1.0
  C  C32  1  0.34219000  0.70829000  0.88639000  1.0
  C  C33  1  0.15781000  0.20829000  0.11362000  1.0
  C  C34  1  0.65781000  0.29171000  0.11361000  1.0
  C  C35  1  0.84219000  0.79172000  0.88638000  1.0
  N  N36  1  0.51252000  0.84810000  0.71451000  1.0
  N  N37  1  0.98748000  0.34809000  0.28549000  1.0
  N  N38  1  0.48748000  0.15190000  0.28549000  1.0
  N  N39  1  0.01252000  0.65191000  0.71451000  1.0
  N  N40  1  0.63272000  0.59435000  0.58695000  1.0
  N  N41  1  0.86728000  0.09436000  0.41305000  1.0
  N  N42  1  0.36728000  0.40565000  0.41305000  1.0
  N  N43  1  0.13272000  0.90564000  0.58695000  1.0
  O  O44  1  0.36364000  0.35847000  0.72833000  1.0
  O  O45  1  0.13635000  0.85847000  0.27167000  1.0
  O  O46  1  0.63636000  0.64153000  0.27167000  1.0
  O  O47  1  0.86364000  0.14153000  0.72833000  1.0
  O  O48  1  0.61588000  0.39986000  0.81270000  1.0
  O  O49  1  0.88412000  0.89986000  0.18730000  1.0
  O  O50  1  0.38412000  0.60015000  0.18730000  1.0
  O  O51  1  0.11587000  0.10014000  0.81270000  1.0
  O  O52  1  0.33717000  0.81653000  0.95404000  1.0
  O  O53  1  0.16283000  0.31652000  0.04596000  1.0
  O  O54  1  0.66283000  0.18347000  0.04596000  1.0
  O  O55  1  0.83717000  0.68348000  0.95404000  1.0
  O  O56  1  0.24988000  0.58996000  0.91373000  1.0
  O  O57  1  0.25012000  0.08996000  0.08628000  1.0
  O  O58  1  0.75012000  0.41004000  0.08627000  1.0
  O  O59  1  0.74987000  0.91004000  0.91372000  1.0
