# generated using pymatgen
data_MgH7C10N3O5
_symmetry_space_group_name_H-M   'P 1'
_cell_length_a   7.60720000
_cell_length_b   10.09280000
_cell_length_c   15.94900000
_cell_angle_alpha   90.00010000
_cell_angle_beta   90.00020000
_cell_angle_gamma   89.99950000
_symmetry_Int_Tables_number   1
_chemical_formula_structural   MgH7C10N3O5
_chemical_formula_sum   'Mg4 H28 C40 N12 O20'
_cell_volume   1224.53149515
_cell_formula_units_Z   4
loop_
 _symmetry_equiv_pos_site_id
 _symmetry_equiv_pos_as_xyz
  1  'x, y, z'
loop_
 _atom_site_type_symbol
 _atom_site_label
 _atom_site_symmetry_multiplicity
 _atom_site_fract_x
 _atom_site_fract_y
 _atom_site_fract_z
 _atom_site_occupancy
  Mg  Mg0  1  0.84814000  0.97595000  0.79022000  1.0
  Mg  Mg1  1  0.15186000  0.02405000  0.29022000  1.0
  Mg  Mg2  1  0.34814000  0.52405000  0.79022000  1.0
  Mg  Mg3  1  0.65186000  0.47595000  0.29022000  1.0
  H  H4  1  0.57284000  0.12125000  0.72460000  1.0
  H  H5  1  0.42716000  0.87875000  0.22460000  1.0
  H  H6  1  0.07284000  0.37875000  0.72460000  1.0
  H  H7  1  0.92716000  0.62125000  0.22460000  1.0
  H  H8  1  0.75165000  0.20447000  0.71905000  1.0
  H  H9  1  0.24834000  0.79553000  0.21905000  1.0
  H  H10  1  0.25165000  0.29553000  0.71905000  1.0
  H  H11  1  0.74834000  0.70447000  0.21905000  1.0
  H  H12  1  0.93236000  0.53240000  0.60256000  1.0
  H  H13  1  0.06763000  0.46760000  0.10257000  1.0
  H  H14  1  0.43236000  0.96760000  0.60257000  1.0
  H  H15  1  0.56764000  0.03240000  0.10257000  1.0
  H  H16  1  0.16655000  0.73333000  0.36495000  1.0
  H  H17  1  0.83346000  0.26668000  0.86495000  1.0
  H  H18  1  0.66654000  0.76667000  0.36495000  1.0
  H  H19  1  0.33346000  0.23333000  0.86495000  1.0
  H  H20  1  0.06789000  0.10178000  0.46893000  1.0
  H  H21  1  0.93212000  0.89822000  0.96892000  1.0
  H  H22  1  0.56789000  0.39822000  0.46892000  1.0
  H  H23  1  0.43212000  0.60178000  0.96892000  1.0
  H  H24  1  0.04779000  0.61650000  0.48843000  1.0
  H  H25  1  0.95221000  0.38349000  0.98844000  1.0
  H  H26  1  0.54779000  0.88349000  0.48844000  1.0
  H  H27  1  0.45221000  0.11651000  0.98844000  1.0
  H  H28  1  0.93759000  0.00101000  0.59825000  1.0
  H  H29  1  0.06241000  0.99898000  0.09824000  1.0
  H  H30  1  0.43760000  0.49898000  0.59824000  1.0
  H  H31  1  0.56241000  0.50102000  0.09824000  1.0
  C  C32  1  0.89654000  0.73947000  0.62659000  1.0
  C  C33  1  0.10347000  0.26052000  0.12660000  1.0
  C  C34  1  0.39653000  0.76052000  0.62659000  1.0
  C  C35  1  0.60347000  0.23948000  0.12660000  1.0
  C  C36  1  0.76767000  0.58305000  0.70360000  1.0
  C  C37  1  0.23233000  0.41695000  0.20360000  1.0
  C  C38  1  0.26767000  0.91695000  0.70360000  1.0
  C  C39  1  0.73233000  0.08306000  0.20360000  1.0
  C  C40  1  0.72639000  0.70849000  0.73467000  1.0
  C  C41  1  0.27361000  0.29151000  0.23468000  1.0
  C  C42  1  0.22639000  0.79151000  0.73468000  1.0
  C  C43  1  0.77361000  0.20849000  0.23468000  1.0
  C  C44  1  0.98224000  0.79992000  0.55494000  1.0
  C  C45  1  0.01776000  0.20007000  0.05494000  1.0
  C  C46  1  0.48224000  0.70007000  0.55494000  1.0
  C  C47  1  0.51776000  0.29993000  0.05494000  1.0
  C  C48  1  0.11757000  0.78930000  0.41861000  1.0
  C  C49  1  0.88243000  0.21070000  0.91862000  1.0
  C  C50  1  0.61757000  0.71070000  0.41862000  1.0
  C  C51  1  0.38243000  0.28930000  0.91862000  1.0
  C  C52  1  0.06237000  0.99468000  0.47706000  1.0
  C  C53  1  0.93764000  0.00532000  0.97706000  1.0
  C  C54  1  0.56236000  0.50531000  0.47705000  1.0
  C  C55  1  0.43764000  0.49469000  0.97705000  1.0
  C  C56  1  0.05039000  0.72446000  0.48847000  1.0
  C  C57  1  0.94961000  0.27554000  0.98847000  1.0
  C  C58  1  0.55039000  0.77554000  0.48847000  1.0
  C  C59  1  0.44961000  0.22446000  0.98847000  1.0
  C  C60  1  0.71846000  0.44420000  0.72429000  1.0
  C  C61  1  0.28155000  0.55580000  0.22429000  1.0
  C  C62  1  0.21845000  0.05580000  0.72429000  1.0
  C  C63  1  0.78154000  0.94420000  0.22430000  1.0
  C  C64  1  0.99029000  0.93851000  0.54857000  1.0
  C  C65  1  0.00972000  0.06149000  0.04857000  1.0
  C  C66  1  0.49028000  0.56149000  0.54857000  1.0
  C  C67  1  0.50972000  0.43851000  0.04857000  1.0
  C  C68  1  0.61804000  0.75030000  0.80824000  1.0
  C  C69  1  0.38197000  0.24972000  0.30824000  1.0
  C  C70  1  0.11803000  0.74971000  0.80824000  1.0
  C  C71  1  0.88196000  0.25031000  0.30824000  1.0
  N  N72  1  0.12236000  0.92215000  0.41193000  1.0
  N  N73  1  0.87764000  0.07785000  0.91192000  1.0
  N  N74  1  0.62236000  0.57784000  0.41192000  1.0
  N  N75  1  0.37764000  0.42216000  0.91192000  1.0
  N  N76  1  0.80997000  0.80359000  0.68750000  1.0
  N  N77  1  0.19003000  0.19640000  0.18751000  1.0
  N  N78  1  0.30997000  0.69640000  0.68750000  1.0
  N  N79  1  0.69003000  0.30360000  0.18750000  1.0
  N  N80  1  0.87736000  0.60616000  0.63703000  1.0
  N  N81  1  0.12264000  0.39384000  0.13704000  1.0
  N  N82  1  0.37736000  0.89384000  0.63704000  1.0
  N  N83  1  0.62264000  0.10616000  0.13704000  1.0
  O  O84  1  0.63775000  0.86907000  0.83271000  1.0
  O  O85  1  0.36225000  0.13092000  0.33272000  1.0
  O  O86  1  0.13775000  0.63092000  0.83272000  1.0
  O  O87  1  0.86225000  0.36908000  0.33271000  1.0
  O  O88  1  0.51228000  0.66756000  0.83986000  1.0
  O  O89  1  0.48771000  0.33244000  0.33986000  1.0
  O  O90  1  0.01228000  0.83244000  0.83986000  1.0
  O  O91  1  0.98773000  0.16756000  0.33986000  1.0
  O  O92  1  0.56423000  0.42022000  0.74973000  1.0
  O  O93  1  0.43577000  0.57978000  0.24973000  1.0
  O  O94  1  0.06423000  0.07978000  0.74973000  1.0
  O  O95  1  0.93577000  0.92021000  0.24974000  1.0
  O  O96  1  0.70236000  0.11280000  0.72658000  1.0
  O  O97  1  0.29763000  0.88720000  0.22658000  1.0
  O  O98  1  0.20236000  0.38720000  0.72658000  1.0
  O  O99  1  0.79763000  0.61280000  0.22658000  1.0
  O  O100  1  0.83634000  0.35697000  0.71057000  1.0
  O  O101  1  0.16366000  0.64303000  0.21057000  1.0
  O  O102  1  0.33634000  0.14303000  0.71057000  1.0
  O  O103  1  0.66366000  0.85697000  0.21058000  1.0
