# generated using pymatgen
data_AgH7C5(NO)2
_symmetry_space_group_name_H-M   'P 1'
_cell_length_a   12.26890000
_cell_length_b   12.44130000
_cell_length_c   12.86670000
_cell_angle_alpha   83.92370000
_cell_angle_beta   61.52570000
_cell_angle_gamma   77.17100000
_symmetry_Int_Tables_number   1
_chemical_formula_structural   AgH7C5(NO)2
_chemical_formula_sum   'Ag8 H56 C40 N16 O16'
_cell_volume   1683.30928861
_cell_formula_units_Z   8
loop_
 _symmetry_equiv_pos_site_id
 _symmetry_equiv_pos_as_xyz
  1  'x, y, z'
loop_
 _atom_site_type_symbol
 _atom_site_label
 _atom_site_symmetry_multiplicity
 _atom_site_fract_x
 _atom_site_fract_y
 _atom_site_fract_z
 _atom_site_occupancy
  Ag  Ag0  1  0.58185000  0.01805000  0.88700000  1.0
  Ag  Ag1  1  0.53116000  0.48195000  0.88700000  1.0
  Ag  Ag2  1  0.41815000  0.98195000  0.11300000  1.0
  Ag  Ag3  1  0.46884000  0.51805000  0.11300000  1.0
  Ag  Ag4  1  0.50249000  0.78705000  0.50694000  1.0
  Ag  Ag5  1  0.99056000  0.71295000  0.50694000  1.0
  Ag  Ag6  1  0.49750000  0.21295000  0.49306000  1.0
  Ag  Ag7  1  0.00944000  0.28705000  0.49306000  1.0
  H  H8  1  0.46910000  0.76200000  0.91232000  1.0
  H  H9  1  0.61858000  0.73800000  0.91232000  1.0
  H  H10  1  0.53090000  0.23800000  0.08768000  1.0
  H  H11  1  0.38142000  0.26200000  0.08767000  1.0
  H  H12  1  0.55880000  0.93749000  0.65174000  1.0
  H  H13  1  0.78946000  0.56251000  0.65173000  1.0
  H  H14  1  0.44120000  0.06251000  0.34826000  1.0
  H  H15  1  0.21054000  0.43749000  0.34827000  1.0
  H  H16  1  0.43659000  0.87598000  0.76385000  1.0
  H  H17  1  0.79956000  0.62402000  0.76385000  1.0
  H  H18  1  0.56341000  0.12402000  0.23614000  1.0
  H  H19  1  0.20045000  0.37598000  0.23614000  1.0
  H  H20  1  0.76340000  0.90465000  0.64976000  1.0
  H  H21  1  0.58685000  0.59535000  0.64975000  1.0
  H  H22  1  0.23660000  0.09535000  0.35024000  1.0
  H  H23  1  0.41315000  0.40465000  0.35025000  1.0
  H  H24  1  0.78693000  0.82173000  0.76253000  1.0
  H  H25  1  0.45055000  0.67827000  0.76253000  1.0
  H  H26  1  0.21307000  0.17827000  0.23747000  1.0
  H  H27  1  0.54946000  0.32173000  0.23747000  1.0
  H  H28  1  0.74538000  0.82245000  0.49864000  1.0
  H  H29  1  0.75598000  0.67755000  0.49864000  1.0
  H  H30  1  0.25462000  0.17755000  0.50135000  1.0
  H  H31  1  0.24402000  0.32245000  0.50136000  1.0
  H  H32  1  0.75913000  0.32362000  0.43755000  1.0
  H  H33  1  0.80333000  0.17638000  0.43755000  1.0
  H  H34  1  0.24088000  0.67638000  0.56245000  1.0
  H  H35  1  0.19668000  0.82362000  0.56245000  1.0
  H  H36  1  0.51423000  0.13582000  0.70139000  1.0
  H  H37  1  0.78438000  0.36418000  0.70139000  1.0
  H  H38  1  0.48577000  0.86418000  0.29861000  1.0
  H  H39  1  0.21562000  0.63583000  0.29860000  1.0
  H  H40  1  0.66523000  0.07045000  0.58760000  1.0
  H  H41  1  0.74717000  0.42955000  0.58760000  1.0
  H  H42  1  0.33477000  0.92955000  0.41240000  1.0
  H  H43  1  0.25283000  0.57046000  0.41239000  1.0
  H  H44  1  0.85456000  0.08536000  0.59015000  1.0
  H  H45  1  0.55529000  0.41463000  0.59015000  1.0
  H  H46  1  0.14544000  0.91464000  0.40985000  1.0
  H  H47  1  0.44471000  0.58537000  0.40985000  1.0
  H  H48  1  0.84774000  0.16675000  0.70145000  1.0
  H  H49  1  0.45082000  0.33324000  0.70145000  1.0
  H  H50  1  0.15226000  0.83325000  0.29855000  1.0
  H  H51  1  0.54918000  0.66676000  0.29855000  1.0
  H  H52  1  0.50301000  0.24332000  0.85007000  1.0
  H  H53  1  0.64692000  0.25668000  0.85007000  1.0
  H  H54  1  0.49699000  0.75668000  0.14993000  1.0
  H  H55  1  0.35308000  0.74333000  0.14993000  1.0
  H  H56  1  0.90454000  0.92792000  0.99771000  1.0
  H  H57  1  0.09775000  0.57208000  0.99770000  1.0
  H  H58  1  0.09546000  0.07208000  0.00229000  1.0
  H  H59  1  0.90224000  0.42792000  0.00230000  1.0
  H  H60  1  0.89859000  0.86453000  0.18290000  1.0
  H  H61  1  0.91852000  0.63547000  0.18288000  1.0
  H  H62  1  0.10141000  0.13547000  0.81711000  1.0
  H  H63  1  0.08147000  0.36452000  0.81712000  1.0
  C  C64  1  0.57198000  0.75000000  0.85604000  1.0
  C  C65  1  0.42802000  0.25000000  0.14396000  1.0
  C  C66  1  0.53926000  0.86430000  0.70765000  1.0
  C  C67  1  0.75308000  0.63570000  0.70765000  1.0
  C  C68  1  0.46074000  0.13570000  0.29234000  1.0
  C  C69  1  0.24692000  0.36430000  0.29235000  1.0
  C  C70  1  0.74003000  0.83209000  0.70666000  1.0
  C  C71  1  0.55331000  0.66791000  0.70666000  1.0
  C  C72  1  0.25997000  0.16791000  0.29334000  1.0
  C  C73  1  0.44669000  0.33210000  0.29335000  1.0
  C  C74  1  0.72223000  0.75000000  0.55554000  1.0
  C  C75  1  0.27777000  0.25000000  0.44446000  1.0
  C  C76  1  0.75311000  0.25000000  0.49377000  1.0
  C  C77  1  0.24689000  0.75000000  0.50623000  1.0
  C  C78  1  0.61321000  0.14286000  0.64566000  1.0
  C  C79  1  0.74114000  0.35714000  0.64566000  1.0
  C  C80  1  0.38679000  0.85715000  0.35434000  1.0
  C  C81  1  0.25886000  0.64286000  0.35434000  1.0
  C  C82  1  0.80323000  0.15876000  0.64684000  1.0
  C  C83  1  0.54993000  0.34123000  0.64684000  1.0
  C  C84  1  0.19677000  0.84124000  0.35316000  1.0
  C  C85  1  0.45007000  0.65877000  0.35316000  1.0
  C  C86  1  0.60248000  0.25000000  0.79505000  1.0
  C  C87  1  0.39752000  0.75000000  0.20495000  1.0
  C  C88  1  0.70864000  0.93295000  0.04256000  1.0
  C  C89  1  0.24880000  0.56704000  0.04255000  1.0
  C  C90  1  0.29136000  0.06705000  0.95744000  1.0
  C  C91  1  0.75120000  0.43296000  0.95745000  1.0
  C  C92  1  0.81574000  0.91155000  0.07056000  1.0
  C  C93  1  0.11371000  0.58844000  0.07054000  1.0
  C  C94  1  0.18425000  0.08845000  0.92945000  1.0
  C  C95  1  0.88629000  0.41155000  0.92946000  1.0
  C  C96  1  0.81160000  0.87680000  0.17487000  1.0
  C  C97  1  0.01353000  0.62320000  0.17486000  1.0
  C  C98  1  0.18840000  0.12320000  0.82514000  1.0
  C  C99  1  0.98647000  0.37680000  0.82514000  1.0
  C  C100  1  0.70257000  0.84779000  0.28631000  1.0
  C  C101  1  0.01112000  0.65220000  0.28630000  1.0
  C  C102  1  0.29743000  0.15220000  0.71369000  1.0
  C  C103  1  0.98888000  0.34780000  0.71370000  1.0
  N  N104  1  0.60275000  0.84883000  0.78178000  1.0
  N  N105  1  0.61548000  0.65117000  0.78178000  1.0
  N  N106  1  0.39725000  0.15117000  0.21822000  1.0
  N  N107  1  0.38453000  0.34883000  0.21822000  1.0
  N  N108  1  0.58276000  0.76639000  0.62994000  1.0
  N  N109  1  0.78730000  0.73360000  0.62994000  1.0
  N  N110  1  0.41725000  0.23360000  0.37006000  1.0
  N  N111  1  0.21270000  0.26640000  0.37005000  1.0
  N  N112  1  0.61845000  0.24185000  0.56835000  1.0
  N  N113  1  0.81320000  0.25814000  0.56835000  1.0
  N  N114  1  0.38155000  0.75815000  0.43165000  1.0
  N  N115  1  0.18680000  0.74186000  0.43165000  1.0
  N  N116  1  0.67072000  0.14990000  0.72100000  1.0
  N  N117  1  0.60828000  0.35010000  0.72100000  1.0
  N  N118  1  0.32928000  0.85010000  0.27900000  1.0
  N  N119  1  0.39172000  0.64990000  0.27900000  1.0
  O  O120  1  0.73287000  0.97220000  0.93917000  1.0
  O  O121  1  0.32797000  0.52781000  0.93916000  1.0
  O  O122  1  0.26713000  0.02780000  0.06083000  1.0
  O  O123  1  0.67203000  0.47219000  0.06084000  1.0
  O  O124  1  0.39851000  0.08718000  0.87906000  1.0
  O  O125  1  0.72243000  0.41282000  0.87906000  1.0
  O  O126  1  0.60149000  0.91282000  0.12094000  1.0
  O  O127  1  0.27757000  0.58717000  0.12094000  1.0
  O  O128  1  0.63269000  0.92302000  0.36341000  1.0
  O  O129  1  0.00389000  0.57698000  0.36341000  1.0
  O  O130  1  0.36730000  0.07698000  0.63659000  1.0
  O  O131  1  0.99611000  0.42302000  0.63659000  1.0
  O  O132  1  0.69293000  0.74685000  0.30012000  1.0
  O  O133  1  0.00696000  0.75315000  0.30011000  1.0
  O  O134  1  0.30707000  0.25315000  0.69988000  1.0
  O  O135  1  0.99304000  0.24685000  0.69989000  1.0
