# generated using pymatgen
data_Li2B2H12C14O11
_symmetry_space_group_name_H-M   'P 1'
_cell_length_a   6.86844000
_cell_length_b   7.49436000
_cell_length_c   16.62670000
_cell_angle_alpha   86.04380000
_cell_angle_beta   78.39820000
_cell_angle_gamma   77.87030000
_symmetry_Int_Tables_number   1
_chemical_formula_structural   Li2B2H12C14O11
_chemical_formula_sum   'Li4 B4 H24 C28 O22'
_cell_volume   819.32968406
_cell_formula_units_Z   2
loop_
 _symmetry_equiv_pos_site_id
 _symmetry_equiv_pos_as_xyz
  1  'x, y, z'
loop_
 _atom_site_type_symbol
 _atom_site_label
 _atom_site_symmetry_multiplicity
 _atom_site_fract_x
 _atom_site_fract_y
 _atom_site_fract_z
 _atom_site_occupancy
  Li  Li0  1  0.48817000  0.31729000  0.37692000  1.0
  Li  Li1  1  0.51204000  0.68267000  0.62295000  1.0
  Li  Li2  1  0.75951000  0.74045000  0.39669000  1.0
  Li  Li3  1  0.24067000  0.25901000  0.60351000  1.0
  B  B4  1  0.44675000  0.70018000  0.30907000  1.0
  B  B5  1  0.55354000  0.29969000  0.69092000  1.0
  B  B6  1  0.79352000  0.10519000  0.42124000  1.0
  B  B7  1  0.20651000  0.89482000  0.57873000  1.0
  H  H8  1  0.60976000  0.22253000  0.52475000  1.0
  H  H9  1  0.39032000  0.77754000  0.47523000  1.0
  H  H10  1  0.71292000  0.52190000  0.29518000  1.0
  H  H11  1  0.28743000  0.47807000  0.70479000  1.0
  H  H12  1  0.45790000  0.94560000  0.35494000  1.0
  H  H13  1  0.54279000  0.05418000  0.64504000  1.0
  H  H14  1  0.87049000  0.89698000  0.50517000  1.0
  H  H15  1  0.12948000  0.10316000  0.49483000  1.0
  H  H16  1  0.60985000  0.81147000  0.06882000  1.0
  H  H17  1  0.39017000  0.18867000  0.93119000  1.0
  H  H18  1  0.44438000  0.71878000  0.96168000  1.0
  H  H19  1  0.55565000  0.28128000  0.03834000  1.0
  H  H20  1  0.12869000  0.59543000  0.00261000  1.0
  H  H21  1  0.87136000  0.40459000  0.99743000  1.0
  H  H22  1  0.97762000  0.56462000  0.15191000  1.0
  H  H23  1  0.02249000  0.43537000  0.84814000  1.0
  H  H24  1  0.66180000  0.04006000  0.19876000  1.0
  H  H25  1  0.33837000  0.95982000  0.80120000  1.0
  H  H26  1  0.88982000  0.07065000  0.06339000  1.0
  H  H27  1  0.11037000  0.92925000  0.93658000  1.0
  H  H28  1  0.22146000  0.16131000  0.05652000  1.0
  H  H29  1  0.77869000  0.83867000  0.94348000  1.0
  H  H30  1  0.32922000  0.21209000  0.18703000  1.0
  H  H31  1  0.67087000  0.78790000  0.81298000  1.0
  C  C32  1  0.21283000  0.66176000  0.19292000  1.0
  C  C33  1  0.78733000  0.33817000  0.80712000  1.0
  C  C34  1  0.39211000  0.73304000  0.16945000  1.0
  C  C35  1  0.60802000  0.26696000  0.83057000  1.0
  C  C36  1  0.47239000  0.75554000  0.08551000  1.0
  C  C37  1  0.52767000  0.24453000  0.91451000  1.0
  C  C38  1  0.37814000  0.70533000  0.02665000  1.0
  C  C39  1  0.62188000  0.29475000  0.97338000  1.0
  C  C40  1  0.20004000  0.63511000  0.04961000  1.0
  C  C41  1  0.80001000  0.36495000  0.95042000  1.0
  C  C42  1  0.11735000  0.61593000  0.13226000  1.0
  C  C43  1  0.88276000  0.38406000  0.86778000  1.0
  C  C44  1  0.12219000  0.65072000  0.28030000  1.0
  C  C45  1  0.87804000  0.34917000  0.71975000  1.0
  C  C46  1  0.05721000  0.15728000  0.26419000  1.0
  C  C47  1  0.94287000  0.84267000  0.73580000  1.0
  C  C48  1  0.86561000  0.11344000  0.26745000  1.0
  C  C49  1  0.13451000  0.88648000  0.73253000  1.0
  C  C50  1  0.80621000  0.08173000  0.19463000  1.0
  C  C51  1  0.19395000  0.91817000  0.80535000  1.0
  C  C52  1  0.93553000  0.09719000  0.11979000  1.0
  C  C53  1  0.06462000  0.90272000  0.88018000  1.0
  C  C54  1  0.12314000  0.14708000  0.11568000  1.0
  C  C55  1  0.87698000  0.85285000  0.88430000  1.0
  C  C56  1  0.18350000  0.17573000  0.18764000  1.0
  C  C57  1  0.81658000  0.82423000  0.81235000  1.0
  C  C58  1  0.12533000  0.17815000  0.34033000  1.0
  C  C59  1  0.87471000  0.82187000  0.65966000  1.0
  O  O60  1  0.94690000  0.62032000  0.30541000  1.0
  O  O61  1  0.05332000  0.37959000  0.69465000  1.0
  O  O62  1  0.22775000  0.68200000  0.33405000  1.0
  O  O63  1  0.77254000  0.31781000  0.66598000  1.0
  O  O64  1  0.48399000  0.78455000  0.22531000  1.0
  O  O65  1  0.51612000  0.21547000  0.77472000  1.0
  O  O66  1  0.00276000  0.15540000  0.41068000  1.0
  O  O67  1  0.99725000  0.84462000  0.58930000  1.0
  O  O68  1  0.29625000  0.21052000  0.34072000  1.0
  O  O69  1  0.70376000  0.78957000  0.65930000  1.0
  O  O70  1  0.73588000  0.10297000  0.33931000  1.0
  O  O71  1  0.26419000  0.89704000  0.66065000  1.0
  O  O72  1  0.64227000  0.24744000  0.46501000  1.0
  O  O73  1  0.35773000  0.75260000  0.53496000  1.0
  O  O74  1  0.56901000  0.51736000  0.31268000  1.0
  O  O75  1  0.43136000  0.48251000  0.68722000  1.0
  O  O76  1  0.49240000  0.81458000  0.36774000  1.0
  O  O77  1  0.50799000  0.18520000  0.63226000  1.0
  O  O78  1  0.80547000  0.92301000  0.45684000  1.0
  O  O79  1  0.19449000  0.07706000  0.54315000  1.0
  O  O80  1  0.08895000  0.47491000  0.50067000  1.0
  O  O81  1  0.90550000  0.52664000  0.49925000  1.0
