# generated using pymatgen
data_ZnH20C16N3O5
_symmetry_space_group_name_H-M   'P 1'
_cell_length_a   8.83382000
_cell_length_b   9.60048000
_cell_length_c   10.89700000
_cell_angle_alpha   88.05090000
_cell_angle_beta   79.26900000
_cell_angle_gamma   70.83340000
_symmetry_Int_Tables_number   1
_chemical_formula_structural   ZnH20C16N3O5
_chemical_formula_sum   'Zn2 H40 C32 N6 O10'
_cell_volume   857.30245767
_cell_formula_units_Z   2
loop_
 _symmetry_equiv_pos_site_id
 _symmetry_equiv_pos_as_xyz
  1  'x, y, z'
loop_
 _atom_site_type_symbol
 _atom_site_label
 _atom_site_symmetry_multiplicity
 _atom_site_fract_x
 _atom_site_fract_y
 _atom_site_fract_z
 _atom_site_occupancy
  Zn  Zn0  1  0.81170000  0.31521000  0.74723000  1.0
  Zn  Zn1  1  0.18830000  0.68479000  0.25277000  1.0
  H  H2  1  0.98343000  0.46248000  0.91374000  1.0
  H  H3  1  0.01657000  0.53752000  0.08626000  1.0
  H  H4  1  0.23383000  0.54096000  0.88237000  1.0
  H  H5  1  0.76617000  0.45905000  0.11763000  1.0
  H  H6  1  0.40564000  0.51170000  0.66736000  1.0
  H  H7  1  0.59436000  0.48830000  0.33264000  1.0
  H  H8  1  0.32114000  0.40448000  0.49360000  1.0
  H  H9  1  0.67887000  0.59553000  0.50641000  1.0
  H  H10  1  0.13193000  0.28156000  0.42660000  1.0
  H  H11  1  0.86807000  0.71844000  0.57340000  1.0
  H  H12  1  0.55703000  0.20967000  0.41363000  1.0
  H  H13  1  0.44297000  0.79033000  0.58637000  1.0
  H  H14  1  0.73506000  0.05362000  0.39086000  1.0
  H  H15  1  0.26494000  0.94638000  0.60914000  1.0
  H  H16  1  0.45136000  0.10441000  0.61564000  1.0
  H  H17  1  0.54864000  0.89559000  0.38436000  1.0
  H  H18  1  0.62385000  0.94476000  0.58765000  1.0
  H  H19  1  0.37615000  0.05524000  0.41235000  1.0
  H  H20  1  0.92774000  0.14891000  0.40527000  1.0
  H  H21  1  0.07226000  0.85109000  0.59473000  1.0
  H  H22  1  0.04401000  0.78095000  0.82323000  1.0
  H  H23  1  0.95599000  0.21905000  0.17677000  1.0
  H  H24  1  0.05937000  0.89532000  0.94161000  1.0
  H  H25  1  0.94063000  0.10468000  0.05839000  1.0
  H  H26  1  0.86481000  0.77646000  0.03288000  1.0
  H  H27  1  0.13519000  0.22354000  0.96712000  1.0
  H  H28  1  0.75682000  0.96470000  0.02031000  1.0
  H  H29  1  0.24318000  0.03530000  0.97969000  1.0
  H  H30  1  0.79214000  0.72621000  0.82657000  1.0
  H  H31  1  0.20786000  0.27379000  0.17343000  1.0
  H  H32  1  0.66443000  0.91107000  0.82995000  1.0
  H  H33  1  0.33557000  0.08893000  0.17005000  1.0
  H  H34  1  0.63066000  0.69005000  0.03564000  1.0
  H  H35  1  0.36934000  0.30995000  0.96436000  1.0
  H  H36  1  0.49573000  0.87106000  0.03292000  1.0
  H  H37  1  0.50427000  0.12894000  0.96708000  1.0
  H  H38  1  0.41472000  0.80795000  0.83939000  1.0
  H  H39  1  0.58528000  0.19205000  0.16061000  1.0
  H  H40  1  0.39024000  0.68388000  0.96199000  1.0
  H  H41  1  0.60976000  0.31612000  0.03801000  1.0
  C  C42  1  0.06499000  0.44922000  0.82335000  1.0
  C  C43  1  0.93501000  0.55078000  0.17666000  1.0
  C  C44  1  0.20247000  0.49432000  0.80472000  1.0
  C  C45  1  0.79753000  0.50568000  0.19528000  1.0
  C  C46  1  0.29784000  0.47719000  0.68528000  1.0
  C  C47  1  0.70216000  0.52281000  0.31472000  1.0
  C  C48  1  0.25352000  0.41546000  0.58924000  1.0
  C  C49  1  0.74648000  0.58454000  0.41076000  1.0
  C  C50  1  0.11601000  0.37039000  0.61638000  1.0
  C  C51  1  0.88399000  0.62961000  0.38362000  1.0
  C  C52  1  0.06027000  0.30486000  0.52150000  1.0
  C  C53  1  0.93973000  0.69514000  0.47850000  1.0
  C  C54  1  0.71153000  0.19863000  0.54238000  1.0
  C  C55  1  0.28847000  0.80137000  0.45762000  1.0
  C  C56  1  0.63815000  0.12281000  0.46360000  1.0
  C  C57  1  0.36185000  0.87718000  0.53640000  1.0
  C  C58  1  0.54180000  0.03323000  0.54054000  1.0
  C  C59  1  0.45820000  0.96677000  0.45946000  1.0
  C  C60  1  0.93625000  0.01167000  0.79830000  1.0
  C  C61  1  0.06375000  0.98833000  0.20170000  1.0
  C  C62  1  0.97751000  0.88072000  0.88212000  1.0
  C  C63  1  0.02249000  0.11928000  0.11788000  1.0
  C  C64  1  0.82537000  0.86211000  0.96509000  1.0
  C  C65  1  0.17463000  0.13789000  0.03491000  1.0
  C  C66  1  0.71585000  0.81999000  0.89058000  1.0
  C  C67  1  0.28415000  0.18000000  0.10942000  1.0
  C  C68  1  0.57876000  0.77705000  0.97250000  1.0
  C  C69  1  0.42124000  0.22295000  0.02750000  1.0
  C  C70  1  0.47968000  0.72043000  0.89682000  1.0
  C  C71  1  0.52032000  0.27957000  0.10318000  1.0
  C  C72  1  0.58923000  0.59079000  0.81143000  1.0
  C  C73  1  0.41077000  0.40921000  0.18857000  1.0
  N  N74  1  0.02366000  0.38746000  0.73254000  1.0
  N  N75  1  0.97634000  0.61254000  0.26746000  1.0
  N  N76  1  0.92421000  0.27962000  0.55745000  1.0
  N  N77  1  0.07579000  0.72038000  0.44255000  1.0
  N  N78  1  0.85599000  0.21751000  0.48487000  1.0
  N  N79  1  0.14400000  0.78249000  0.51513000  1.0
  O  O80  1  0.64628000  0.24540000  0.65129000  1.0
  O  O81  1  0.35372000  0.75460000  0.34871000  1.0
  O  O82  1  0.86686000  0.13920000  0.85360000  1.0
  O  O83  1  0.13314000  0.86080000  0.14640000  1.0
  O  O84  1  0.96907000  0.99338000  0.68068000  1.0
  O  O85  1  0.03093000  0.00662000  0.31932000  1.0
  O  O86  1  0.60600000  0.59997000  0.69449000  1.0
  O  O87  1  0.39400000  0.40003000  0.30551000  1.0
  O  O88  1  0.66457000  0.47345000  0.86656000  1.0
  O  O89  1  0.33543000  0.52655000  0.13344000  1.0
