# generated using pymatgen
data_NiH28C23NO4
_symmetry_space_group_name_H-M   'P 1'
_cell_length_a   9.17017000
_cell_length_b   12.85410000
_cell_length_c   13.10760000
_cell_angle_alpha   114.49500000
_cell_angle_beta   94.70440000
_cell_angle_gamma   96.40440000
_symmetry_Int_Tables_number   1
_chemical_formula_structural   NiH28C23NO4
_chemical_formula_sum   'Ni2 H56 C46 N2 O8'
_cell_volume   1383.09107000
_cell_formula_units_Z   2
loop_
 _symmetry_equiv_pos_site_id
 _symmetry_equiv_pos_as_xyz
  1  'x, y, z'
loop_
 _atom_site_type_symbol
 _atom_site_label
 _atom_site_symmetry_multiplicity
 _atom_site_fract_x
 _atom_site_fract_y
 _atom_site_fract_z
 _atom_site_occupancy
  Ni  Ni0  1  0.18522000  0.32160000  0.43932000  1.0
  Ni  Ni1  1  0.92396000  0.32245000  0.44305000  1.0
  H  H2  1  0.24596000  0.32888000  0.12133000  1.0
  H  H3  1  0.36138000  0.33277000  0.95653000  1.0
  H  H4  1  0.77290000  0.28933000  0.10770000  1.0
  H  H5  1  0.86208000  0.31236000  0.75997000  1.0
  H  H6  1  0.74541000  0.29468000  0.91902000  1.0
  H  H7  1  0.33305000  0.33434000  0.76608000  1.0
  H  H8  1  0.92451000  0.71023000  0.56329000  1.0
  H  H9  1  0.83585000  0.89190000  0.58191000  1.0
  H  H10  1  0.30360000  0.61175000  0.39439000  1.0
  H  H11  1  0.20628000  0.94820000  0.34326000  1.0
  H  H12  1  0.31316000  0.77688000  0.34196000  1.0
  H  H13  1  0.83491000  0.05087000  0.51988000  1.0
  H  H14  1  0.47348000  0.40236000  0.61751000  1.0
  H  H15  1  0.45552000  0.49855000  0.55361000  1.0
  H  H16  1  0.40375000  0.14159000  0.35833000  1.0
  H  H17  1  0.40141000  0.19607000  0.50629000  1.0
  H  H18  1  0.44500000  0.41850000  0.34836000  1.0
  H  H19  1  0.38974000  0.26770000  0.26512000  1.0
  H  H20  1  0.70666000  0.50108000  0.51685000  1.0
  H  H21  1  0.73031000  0.43889000  0.61406000  1.0
  H  H22  1  0.66582000  0.23426000  0.54533000  1.0
  H  H23  1  0.65903000  0.14225000  0.39955000  1.0
  H  H24  1  0.63435000  0.22996000  0.26700000  1.0
  H  H25  1  0.68911000  0.38135000  0.31623000  1.0
  H  H26  1  0.71721000  0.96626000  0.25009000  1.0
  H  H27  1  0.56407000  0.89503000  0.12843000  1.0
  H  H28  1  0.82028000  0.08983000  0.16228000  1.0
  H  H29  1  0.66865000  0.01823000  0.04052000  1.0
  H  H30  1  0.50369000  0.14033000  0.70532000  1.0
  H  H31  1  0.33564000  0.03016000  0.63091000  1.0
  H  H32  1  0.63237000  0.99033000  0.72976000  1.0
  H  H33  1  0.46379000  0.88033000  0.65520000  1.0
  H  H34  1  0.60908000  0.41194000  0.86727000  1.0
  H  H35  1  0.49637000  0.50606000  0.83035000  1.0
  H  H36  1  0.83357000  0.50610000  0.82445000  1.0
  H  H37  1  0.71851000  0.59964000  0.78885000  1.0
  H  H38  1  0.60914000  0.46719000  0.13009000  1.0
  H  H39  1  0.50487000  0.57204000  0.10470000  1.0
  H  H40  1  0.84630000  0.59284000  0.15242000  1.0
  H  H41  1  0.74247000  0.69771000  0.12638000  1.0
  H  H42  1  0.96716000  0.88982000  0.00040000  1.0
  H  H43  1  0.89115000  0.73547000  0.95808000  1.0
  H  H44  1  0.03865000  0.83981000  0.80961000  1.0
  H  H45  1  0.96305000  0.68493000  0.76595000  1.0
  H  H46  1  0.19748000  0.08313000  0.16205000  1.0
  H  H47  1  0.28307000  0.94962000  0.10380000  1.0
  H  H48  1  0.27398000  0.13097000  0.00617000  1.0
  H  H49  1  0.36023000  0.99779000  0.95049000  1.0
  H  H50  1  0.56020000  0.82874000  0.46545000  1.0
  H  H51  1  0.64023000  0.76413000  0.33119000  1.0
  H  H52  1  0.57306000  0.64957000  0.49198000  1.0
  H  H53  1  0.65444000  0.58663000  0.35787000  1.0
  H  H54  1  0.60563000  0.75571000  0.90816000  1.0
  H  H55  1  0.50398000  0.83383000  0.84167000  1.0
  H  H56  1  0.36569000  0.66187000  0.93064000  1.0
  H  H57  1  0.26428000  0.74109000  0.86537000  1.0
  C  C58  1  0.49761000  0.41909000  0.54465000  1.0
  C  C59  1  0.45291000  0.21184000  0.44033000  1.0
  C  C60  1  0.46180000  0.33251000  0.34069000  1.0
  C  C61  1  0.02736000  0.30676000  0.23762000  1.0
  C  C62  1  0.01199000  0.30803000  0.12419000  1.0
  C  C63  1  0.13727000  0.31996000  0.07527000  1.0
  C  C64  1  0.12582000  0.32073000  0.96755000  1.0
  C  C65  1  0.25218000  0.32851000  0.91352000  1.0
  C  C66  1  0.86929000  0.29825000  0.06686000  1.0
  C  C67  1  0.09442000  0.53947000  0.49151000  1.0
  C  C68  1  0.11172000  0.65106000  0.48085000  1.0
  C  C69  1  0.01168000  0.72720000  0.51777000  1.0
  C  C70  1  0.01755000  0.82455000  0.49306000  1.0
  C  C71  1  0.91542000  0.90347000  0.52866000  1.0
  C  C72  1  0.22452000  0.67174000  0.42047000  1.0
  C  C73  1  0.66566000  0.42830000  0.53534000  1.0
  C  C74  1  0.62364000  0.22080000  0.45925000  1.0
  C  C75  1  0.62523000  0.31474000  0.33372000  1.0
  C  C76  1  0.08050000  0.33412000  0.64353000  1.0
  C  C77  1  0.09557000  0.32712000  0.75450000  1.0
  C  C78  1  0.97033000  0.31682000  0.80410000  1.0
  C  C79  1  0.98140000  0.31220000  0.91019000  1.0
  C  C80  1  0.85480000  0.30083000  0.96272000  1.0
  C  C81  1  0.23737000  0.33016000  0.80896000  1.0
  C  C82  1  0.02252000  0.10755000  0.39780000  1.0
  C  C83  1  0.01916000  0.00616000  0.42556000  1.0
  C  C84  1  0.12406000  0.93358000  0.39352000  1.0
  C  C85  1  0.12537000  0.84098000  0.42516000  1.0
  C  C86  1  0.22950000  0.76343000  0.39180000  1.0
  C  C87  1  0.91421000  0.99086000  0.49424000  1.0
  C  C88  1  0.66446000  0.95877000  0.16902000  1.0
  C  C89  1  0.72097000  0.02512000  0.12148000  1.0
  C  C90  1  0.44938000  0.05049000  0.67365000  1.0
  C  C91  1  0.51861000  0.96999000  0.68685000  1.0
  C  C92  1  0.60426000  0.47989000  0.83825000  1.0
  C  C93  1  0.72455000  0.53052000  0.81604000  1.0
  C  C94  1  0.61193000  0.54889000  0.12256000  1.0
  C  C95  1  0.73954000  0.61634000  0.13454000  1.0
  C  C96  1  0.94535000  0.80099000  0.93483000  1.0
  C  C97  1  0.98356000  0.77383000  0.83188000  1.0
  C  C98  1  0.25808000  0.02809000  0.09753000  1.0
  C  C99  1  0.29978000  0.05371000  0.01439000  1.0
  C  C100  1  0.60251000  0.75520000  0.40435000  1.0
  C  C101  1  0.60974000  0.65896000  0.41859000  1.0
  C  C102  1  0.49935000  0.77269000  0.87994000  1.0
  C  C103  1  0.37050000  0.72287000  0.89221000  1.0
  N  N104  1  0.41360000  0.32129000  0.44146000  1.0
  N  N105  1  0.69515000  0.32103000  0.44263000  1.0
  O  O106  1  0.15838000  0.31874000  0.28651000  1.0
  O  O107  1  0.90929000  0.29454000  0.27905000  1.0
  O  O108  1  0.96165000  0.49150000  0.48423000  1.0
  O  O109  1  0.90635000  0.15558000  0.40918000  1.0
  O  O110  1  0.95545000  0.34977000  0.60711000  1.0
  O  O111  1  0.19439000  0.32260000  0.59171000  1.0
  O  O112  1  0.14181000  0.14473000  0.37161000  1.0
  O  O113  1  0.21072000  0.49584000  0.49911000  1.0
