# generated using pymatgen
data_CdH18C16N2O5
_symmetry_space_group_name_H-M   'P 1'
_cell_length_a   8.42270000
_cell_length_b   9.87412000
_cell_length_c   9.87406000
_cell_angle_alpha   95.79010000
_cell_angle_beta   90.86630000
_cell_angle_gamma   90.86640000
_symmetry_Int_Tables_number   1
_chemical_formula_structural   CdH18C16N2O5
_chemical_formula_sum   'Cd2 H36 C32 N4 O10'
_cell_volume   816.79611810
_cell_formula_units_Z   2
loop_
 _symmetry_equiv_pos_site_id
 _symmetry_equiv_pos_as_xyz
  1  'x, y, z'
loop_
 _atom_site_type_symbol
 _atom_site_label
 _atom_site_symmetry_multiplicity
 _atom_site_fract_x
 _atom_site_fract_y
 _atom_site_fract_z
 _atom_site_occupancy
  Cd  Cd0  1  0.25000000  0.89285000  0.10715000  1.0
  Cd  Cd1  1  0.75000000  0.10715000  0.89286000  1.0
  H  H2  1  0.49927000  0.97290000  0.36131000  1.0
  H  H3  1  0.00074000  0.63869000  0.02710000  1.0
  H  H4  1  0.50074000  0.02710000  0.63869000  1.0
  H  H5  1  0.99926000  0.36131000  0.97289000  1.0
  H  H6  1  0.59742000  0.17252000  0.51816000  1.0
  H  H7  1  0.90258000  0.48184000  0.82749000  1.0
  H  H8  1  0.40258000  0.82749000  0.48184000  1.0
  H  H9  1  0.09742000  0.51816000  0.17250000  1.0
  H  H10  1  0.31322000  0.42684000  0.28122000  1.0
  H  H11  1  0.18679000  0.71877000  0.57316000  1.0
  H  H12  1  0.68679000  0.57316000  0.71878000  1.0
  H  H13  1  0.81321000  0.28123000  0.42684000  1.0
  H  H14  1  0.22242000  0.21625000  0.14084000  1.0
  H  H15  1  0.27759000  0.85916000  0.78375000  1.0
  H  H16  1  0.77759000  0.78376000  0.85916000  1.0
  H  H17  1  0.72242000  0.14084000  0.21625000  1.0
  H  H18  1  0.58882000  0.40961000  0.59441000  1.0
  H  H19  1  0.91120000  0.40559000  0.59039000  1.0
  H  H20  1  0.41119000  0.59040000  0.40559000  1.0
  H  H21  1  0.08880000  0.59441000  0.40960000  1.0
  H  H22  1  0.87574000  0.79838000  0.48469000  1.0
  H  H23  1  0.62426000  0.51532000  0.20162000  1.0
  H  H24  1  0.12426000  0.20161000  0.51532000  1.0
  H  H25  1  0.37574000  0.48468000  0.79838000  1.0
  H  H26  1  0.76314000  0.83976000  0.33888000  1.0
  H  H27  1  0.73687000  0.66113000  0.16024000  1.0
  H  H28  1  0.23687000  0.16023000  0.66113000  1.0
  H  H29  1  0.26313000  0.33887000  0.83976000  1.0
  H  H30  1  0.85269000  0.97067000  0.45269000  1.0
  H  H31  1  0.64731000  0.54732000  0.02932000  1.0
  H  H32  1  0.14731000  0.02932000  0.54732000  1.0
  H  H33  1  0.35269000  0.45268000  0.97068000  1.0
  H  H34  1  0.15760000  0.07316000  0.88818000  1.0
  H  H35  1  0.34240000  0.11182000  0.92684000  1.0
  H  H36  1  0.84240000  0.92683000  0.11182000  1.0
  H  H37  1  0.65760000  0.88818000  0.07317000  1.0
  C  C38  1  0.45747000  0.07510000  0.35033000  1.0
  C  C39  1  0.04253000  0.64967000  0.92490000  1.0
  C  C40  1  0.54254000  0.92491000  0.64967000  1.0
  C  C41  1  0.95746000  0.35033000  0.07509000  1.0
  C  C42  1  0.51086000  0.18624000  0.43757000  1.0
  C  C43  1  0.98915000  0.56243000  0.81376000  1.0
  C  C44  1  0.48915000  0.81376000  0.56243000  1.0
  C  C45  1  0.01085000  0.43757000  0.18623000  1.0
  C  C46  1  0.45872000  0.31756000  0.41729000  1.0
  C  C47  1  0.04128000  0.58270000  0.68244000  1.0
  C  C48  1  0.54128000  0.68245000  0.58271000  1.0
  C  C49  1  0.95872000  0.41730000  0.31755000  1.0
  C  C50  1  0.35383000  0.32831000  0.30694000  1.0
  C  C51  1  0.14617000  0.69306000  0.67169000  1.0
  C  C52  1  0.64617000  0.67170000  0.69307000  1.0
  C  C53  1  0.85383000  0.30694000  0.32830000  1.0
  C  C54  1  0.30402000  0.21151000  0.22677000  1.0
  C  C55  1  0.19598000  0.77323000  0.78849000  1.0
  C  C56  1  0.69598000  0.78849000  0.77324000  1.0
  C  C57  1  0.80402000  0.22677000  0.21151000  1.0
  C  C58  1  0.51584000  0.43423000  0.50791000  1.0
  C  C59  1  0.98416000  0.49208000  0.56577000  1.0
  C  C60  1  0.48416000  0.56577000  0.49209000  1.0
  C  C61  1  0.01584000  0.50792000  0.43423000  1.0
  C  C62  1  0.01844000  0.86328000  0.32184000  1.0
  C  C63  1  0.48156000  0.67816000  0.13671000  1.0
  C  C64  1  0.98157000  0.13671000  0.67816000  1.0
  C  C65  1  0.51843000  0.32184000  0.86329000  1.0
  C  C66  1  0.86789000  0.86646000  0.40385000  1.0
  C  C67  1  0.63211000  0.59615000  0.13354000  1.0
  C  C68  1  0.13211000  0.13353000  0.59615000  1.0
  C  C69  1  0.36788000  0.40385000  0.86647000  1.0
  N  N70  1  0.35400000  0.08608000  0.24718000  1.0
  N  N71  1  0.14601000  0.75282000  0.91393000  1.0
  N  N72  1  0.64600000  0.91393000  0.75282000  1.0
  N  N73  1  0.85399000  0.24718000  0.08607000  1.0
  O  O74  1  0.14983000  0.83766000  0.37414000  1.0
  O  O75  1  0.35017000  0.62586000  0.16234000  1.0
  O  O76  1  0.85017000  0.16234000  0.62586000  1.0
  O  O77  1  0.64982000  0.37414000  0.83764000  1.0
  O  O78  1  0.00411000  0.89146000  0.19632000  1.0
  O  O79  1  0.49588000  0.80369000  0.10854000  1.0
  O  O80  1  0.99588000  0.10853000  0.80369000  1.0
  O  O81  1  0.50411000  0.19632000  0.89148000  1.0
  O  O82  1  0.25000000  0.05272000  0.94728000  1.0
  O  O83  1  0.75000000  0.94727000  0.05272000  1.0
