# generated using pymatgen
data_CaH14(C7O4)2
_symmetry_space_group_name_H-M   'P 1'
_cell_length_a   7.54056000
_cell_length_b   9.99712000
_cell_length_c   9.99711000
_cell_angle_alpha   70.19520000
_cell_angle_beta   88.74820000
_cell_angle_gamma   88.74830000
_symmetry_Int_Tables_number   1
_chemical_formula_structural   CaH14(C7O4)2
_chemical_formula_sum   'Ca2 H28 C28 O16'
_cell_volume   708.79330611
_cell_formula_units_Z   2
loop_
 _symmetry_equiv_pos_site_id
 _symmetry_equiv_pos_as_xyz
  1  'x, y, z'
loop_
 _atom_site_type_symbol
 _atom_site_label
 _atom_site_symmetry_multiplicity
 _atom_site_fract_x
 _atom_site_fract_y
 _atom_site_fract_z
 _atom_site_occupancy
  Ca  Ca0  1  0.25000000  0.94345000  0.05655000  1.0
  Ca  Ca1  1  0.75000000  0.05655000  0.94345000  1.0
  H  H2  1  0.16555000  0.94233000  0.36491000  1.0
  H  H3  1  0.33445000  0.63509000  0.05767000  1.0
  H  H4  1  0.83445000  0.05767000  0.63509000  1.0
  H  H5  1  0.66555000  0.36491000  0.94233000  1.0
  H  H6  1  0.99731000  0.95094000  0.26990000  1.0
  H  H7  1  0.50268000  0.73010000  0.04906000  1.0
  H  H8  1  0.00269000  0.04906000  0.73010000  1.0
  H  H9  1  0.49731000  0.26990000  0.95094000  1.0
  H  H10  1  0.20637000  0.96208000  0.61307000  1.0
  H  H11  1  0.29363000  0.38693000  0.03792000  1.0
  H  H12  1  0.79363000  0.03792000  0.38693000  1.0
  H  H13  1  0.70637000  0.61307000  0.96208000  1.0
  H  H14  1  0.33627000  0.16804000  0.25896000  1.0
  H  H15  1  0.16373000  0.74104000  0.83196000  1.0
  H  H16  1  0.66373000  0.83196000  0.74104000  1.0
  H  H17  1  0.83627000  0.25896000  0.16804000  1.0
  H  H18  1  0.52433000  0.37957000  0.21552000  1.0
  H  H19  1  0.97568000  0.78448000  0.62043000  1.0
  H  H20  1  0.47568000  0.62043000  0.78448000  1.0
  H  H21  1  0.02433000  0.21553000  0.37957000  1.0
  H  H22  1  0.63844000  0.44255000  0.41799000  1.0
  H  H23  1  0.86156000  0.58201000  0.55745000  1.0
  H  H24  1  0.36156000  0.55745000  0.58201000  1.0
  H  H25  1  0.13844000  0.41799000  0.44255000  1.0
  H  H26  1  0.56443000  0.28922000  0.66683000  1.0
  H  H27  1  0.93556000  0.33317000  0.71078000  1.0
  H  H28  1  0.43557000  0.71078000  0.33317000  1.0
  H  H29  1  0.06443000  0.66683000  0.28922000  1.0
  C  C30  1  0.40698000  0.14467000  0.60313000  1.0
  C  C31  1  0.09302000  0.39687000  0.85532000  1.0
  C  C32  1  0.59302000  0.85533000  0.39687000  1.0
  C  C33  1  0.90698000  0.60313000  0.14467000  1.0
  C  C34  1  0.34028000  0.11264000  0.48656000  1.0
  C  C35  1  0.15973000  0.51344000  0.88736000  1.0
  C  C36  1  0.65973000  0.88736000  0.51344000  1.0
  C  C37  1  0.84027000  0.48656000  0.11264000  1.0
  C  C38  1  0.38742000  0.19493000  0.34760000  1.0
  C  C39  1  0.11259000  0.65240000  0.80507000  1.0
  C  C40  1  0.61258000  0.80507000  0.65240000  1.0
  C  C41  1  0.88742000  0.34760000  0.19493000  1.0
  C  C42  1  0.49269000  0.31325000  0.32429000  1.0
  C  C43  1  0.00731000  0.67571000  0.68675000  1.0
  C  C44  1  0.50731000  0.68675000  0.67571000  1.0
  C  C45  1  0.99269000  0.32429000  0.31325000  1.0
  C  C46  1  0.55649000  0.34917000  0.43810000  1.0
  C  C47  1  0.94351000  0.56190000  0.65083000  1.0
  C  C48  1  0.44352000  0.65083000  0.56190000  1.0
  C  C49  1  0.05649000  0.43810000  0.34917000  1.0
  C  C50  1  0.51552000  0.26401000  0.57642000  1.0
  C  C51  1  0.98448000  0.42358000  0.73599000  1.0
  C  C52  1  0.48448000  0.73599000  0.42358000  1.0
  C  C53  1  0.01552000  0.57642000  0.26401000  1.0
  C  C54  1  0.36171000  0.05405000  0.74988000  1.0
  C  C55  1  0.13829000  0.25012000  0.94595000  1.0
  C  C56  1  0.63829000  0.94595000  0.25012000  1.0
  C  C57  1  0.86171000  0.74988000  0.05405000  1.0
  O  O58  1  0.12339000  0.92078000  0.28180000  1.0
  O  O59  1  0.37660000  0.71820000  0.07921000  1.0
  O  O60  1  0.87661000  0.07922000  0.71820000  1.0
  O  O61  1  0.62339000  0.28180000  0.92079000  1.0
  O  O62  1  0.22454000  0.97354000  0.77122000  1.0
  O  O63  1  0.27545000  0.22877000  0.02646000  1.0
  O  O64  1  0.77546000  0.02646000  0.22878000  1.0
  O  O65  1  0.72455000  0.77122000  0.97354000  1.0
  O  O66  1  0.45455000  0.05573000  0.85446000  1.0
  O  O67  1  0.04545000  0.14554000  0.94427000  1.0
  O  O68  1  0.54545000  0.94427000  0.14554000  1.0
  O  O69  1  0.95455000  0.85446000  0.05573000  1.0
  O  O70  1  0.22871000  0.00165000  0.50689000  1.0
  O  O71  1  0.27129000  0.49311000  0.99835000  1.0
  O  O72  1  0.77129000  0.99835000  0.49311000  1.0
  O  O73  1  0.72871000  0.50689000  0.00165000  1.0
