# generated using pymatgen
data_TlH10C8NO2
_symmetry_space_group_name_H-M   'P 1'
_cell_length_a   6.72366000
_cell_length_b   10.40390000
_cell_length_c   13.46490000
_cell_angle_alpha   85.34920000
_cell_angle_beta   81.70340000
_cell_angle_gamma   83.62970000
_symmetry_Int_Tables_number   1
_chemical_formula_structural   TlH10C8NO2
_chemical_formula_sum   'Tl4 H40 C32 N4 O8'
_cell_volume   924.25807388
_cell_formula_units_Z   4
loop_
 _symmetry_equiv_pos_site_id
 _symmetry_equiv_pos_as_xyz
  1  'x, y, z'
loop_
 _atom_site_type_symbol
 _atom_site_label
 _atom_site_symmetry_multiplicity
 _atom_site_fract_x
 _atom_site_fract_y
 _atom_site_fract_z
 _atom_site_occupancy
  Tl  Tl0  1  0.14244000  0.49654000  0.71453000  1.0
  Tl  Tl1  1  0.85756000  0.50346000  0.28547000  1.0
  Tl  Tl2  1  0.56811000  0.71180000  0.75778000  1.0
  Tl  Tl3  1  0.43189000  0.28820000  0.24222000  1.0
  H  H4  1  0.33870000  0.18939000  0.67108000  1.0
  H  H5  1  0.66129000  0.81061000  0.32891000  1.0
  H  H6  1  0.25849000  0.97469000  0.61779000  1.0
  H  H7  1  0.74151000  0.02531000  0.38221000  1.0
  H  H8  1  0.90130000  0.95243000  0.59369000  1.0
  H  H9  1  0.09871000  0.04756000  0.40631000  1.0
  H  H10  1  0.63909000  0.14269000  0.62623000  1.0
  H  H11  1  0.36091000  0.85731000  0.37377000  1.0
  H  H12  1  0.14100000  0.52040000  0.91489000  1.0
  H  H13  1  0.85900000  0.47960000  0.08511000  1.0
  H  H14  1  0.18889000  0.35270000  0.88691000  1.0
  H  H15  1  0.81111000  0.64730000  0.11309000  1.0
  H  H16  1  0.93626000  0.43313000  0.89439000  1.0
  H  H17  1  0.06374000  0.56687000  0.10561000  1.0
  H  H18  1  0.10214000  0.64433000  0.54390000  1.0
  H  H19  1  0.89786000  0.35567000  0.45610000  1.0
  H  H20  1  0.19208000  0.48137000  0.51353000  1.0
  H  H21  1  0.80792000  0.51864000  0.48647000  1.0
  H  H22  1  0.36493000  0.58660000  0.54332000  1.0
  H  H23  1  0.63506000  0.41340000  0.45668000  1.0
  H  H24  1  0.36055000  0.00883000  0.84262000  1.0
  H  H25  1  0.63946000  0.99118000  0.15738000  1.0
  H  H26  1  0.44131000  0.20570000  0.92183000  1.0
  H  H27  1  0.55870000  0.79431000  0.07817000  1.0
  H  H28  1  0.79899000  0.21311000  0.95602000  1.0
  H  H29  1  0.20101000  0.78689000  0.04398000  1.0
  H  H30  1  0.05846000  0.03062000  0.90210000  1.0
  H  H31  1  0.94154000  0.96937000  0.09790000  1.0
  H  H32  1  0.43055000  0.77727000  0.57712000  1.0
  H  H33  1  0.56945000  0.22273000  0.42287000  1.0
  H  H34  1  0.69987000  0.74154000  0.55924000  1.0
  H  H35  1  0.30013000  0.25846000  0.44075000  1.0
  H  H36  1  0.58886000  0.89517000  0.60331000  1.0
  H  H37  1  0.41114000  0.10484000  0.39669000  1.0
  H  H38  1  0.40324000  0.65429000  0.94852000  1.0
  H  H39  1  0.59677000  0.34571000  0.05148000  1.0
  H  H40  1  0.67517000  0.63042000  0.93919000  1.0
  H  H41  1  0.32483000  0.36958000  0.06081000  1.0
  H  H42  1  0.53930000  0.51079000  0.89692000  1.0
  H  H43  1  0.46071000  0.48922000  0.10308000  1.0
  C  C44  1  0.18645000  0.17206000  0.65971000  1.0
  C  C45  1  0.81355000  0.82794000  0.34029000  1.0
  C  C46  1  0.14120000  0.05494000  0.62960000  1.0
  C  C47  1  0.85879000  0.94505000  0.37040000  1.0
  C  C48  1  0.94219000  0.04290000  0.61652000  1.0
  C  C49  1  0.05781000  0.95710000  0.38347000  1.0
  C  C50  1  0.79640000  0.14722000  0.63479000  1.0
  C  C51  1  0.20360000  0.85278000  0.36521000  1.0
  C  C52  1  0.85320000  0.26128000  0.66568000  1.0
  C  C53  1  0.14680000  0.73871000  0.33433000  1.0
  C  C54  1  0.69751000  0.37706000  0.68859000  1.0
  C  C55  1  0.30248000  0.62294000  0.31141000  1.0
  C  C56  1  0.09710000  0.44443000  0.87348000  1.0
  C  C57  1  0.90290000  0.55557000  0.12652000  1.0
  C  C58  1  0.20986000  0.56072000  0.55900000  1.0
  C  C59  1  0.79014000  0.43928000  0.44100000  1.0
  C  C60  1  0.51332000  0.02033000  0.85679000  1.0
  C  C61  1  0.48668000  0.97967000  0.14321000  1.0
  C  C62  1  0.55881000  0.12797000  0.90135000  1.0
  C  C63  1  0.44120000  0.87203000  0.09865000  1.0
  C  C64  1  0.75692000  0.13256000  0.91932000  1.0
  C  C65  1  0.24308000  0.86744000  0.08068000  1.0
  C  C66  1  0.90188000  0.03145000  0.89024000  1.0
  C  C67  1  0.09813000  0.96854000  0.10976000  1.0
  C  C68  1  0.84547000  0.92815000  0.84409000  1.0
  C  C69  1  0.15453000  0.07184000  0.15592000  1.0
  C  C70  1  0.00374000  0.82036000  0.80522000  1.0
  C  C71  1  0.99627000  0.17964000  0.19478000  1.0
  C  C72  1  0.57102000  0.79170000  0.60483000  1.0
  C  C73  1  0.42897000  0.20831000  0.39517000  1.0
  C  C74  1  0.54281000  0.61414000  0.90493000  1.0
  C  C75  1  0.45719000  0.38586000  0.09507000  1.0
  N  N76  1  0.04585000  0.27272000  0.67666000  1.0
  N  N77  1  0.95414000  0.72728000  0.32334000  1.0
  N  N78  1  0.65309000  0.92299000  0.82898000  1.0
  N  N79  1  0.34692000  0.07701000  0.17101000  1.0
  O  O80  1  0.51436000  0.35639000  0.69673000  1.0
  O  O81  1  0.48564000  0.64360000  0.30326000  1.0
  O  O82  1  0.76578000  0.48454000  0.69772000  1.0
  O  O83  1  0.23421000  0.51545000  0.30229000  1.0
  O  O84  1  0.18164000  0.82552000  0.82318000  1.0
  O  O85  1  0.81837000  0.17448000  0.17682000  1.0
  O  O86  1  0.94435000  0.73546000  0.75584000  1.0
  O  O87  1  0.05567000  0.26453000  0.24416000  1.0
