# generated using pymatgen
data_FeAg2H10(C8N5)2
_symmetry_space_group_name_H-M   'P 1'
_cell_length_a   10.10550000
_cell_length_b   10.15090000
_cell_length_c   29.91590000
_cell_angle_alpha   89.99910000
_cell_angle_beta   89.99440000
_cell_angle_gamma   78.90300000
_symmetry_Int_Tables_number   1
_chemical_formula_structural   FeAg2H10(C8N5)2
_chemical_formula_sum   'Fe4 Ag8 H40 C64 N40'
_cell_volume   3011.39301997
_cell_formula_units_Z   4
loop_
 _symmetry_equiv_pos_site_id
 _symmetry_equiv_pos_as_xyz
  1  'x, y, z'
loop_
 _atom_site_type_symbol
 _atom_site_label
 _atom_site_symmetry_multiplicity
 _atom_site_fract_x
 _atom_site_fract_y
 _atom_site_fract_z
 _atom_site_occupancy
  Fe  Fe0  1  0.23713000  0.23663000  0.94122000  1.0
  Fe  Fe1  1  0.26289000  0.26339000  0.44122000  1.0
  Fe  Fe2  1  0.76286000  0.76337000  0.05878000  1.0
  Fe  Fe3  1  0.73712000  0.73661000  0.55878000  1.0
  Ag  Ag4  1  0.23197000  0.73766000  0.94963000  1.0
  Ag  Ag5  1  0.26809000  0.76235000  0.44964000  1.0
  Ag  Ag6  1  0.76803000  0.26235000  0.05036000  1.0
  Ag  Ag7  1  0.73193000  0.23764000  0.55036000  1.0
  Ag  Ag8  1  0.73668000  0.23978000  0.94952000  1.0
  Ag  Ag9  1  0.76333000  0.26025000  0.44952000  1.0
  Ag  Ag10  1  0.26331000  0.76021000  0.05048000  1.0
  Ag  Ag11  1  0.23668000  0.73974000  0.55049000  1.0
  H  H12  1  0.17654000  0.43886000  0.69698000  1.0
  H  H13  1  0.32346000  0.06115000  0.19698000  1.0
  H  H14  1  0.82347000  0.56115000  0.30301000  1.0
  H  H15  1  0.67654000  0.93885000  0.80302000  1.0
  H  H16  1  0.11310000  0.31960000  0.67135000  1.0
  H  H17  1  0.38690000  0.18040000  0.17134000  1.0
  H  H18  1  0.88691000  0.68040000  0.32865000  1.0
  H  H19  1  0.61309000  0.81959000  0.82865000  1.0
  H  H20  1  0.39774000  0.04473000  0.88140000  1.0
  H  H21  1  0.10225000  0.45528000  0.38141000  1.0
  H  H22  1  0.60225000  0.95527000  0.11860000  1.0
  H  H23  1  0.89774000  0.54470000  0.61859000  1.0
  H  H24  1  0.44718000  0.02279000  0.79934000  1.0
  H  H25  1  0.05281000  0.47721000  0.29935000  1.0
  H  H26  1  0.55282000  0.97721000  0.20066000  1.0
  H  H27  1  0.94717000  0.52277000  0.70065000  1.0
  H  H28  1  0.16377000  0.39674000  0.78080000  1.0
  H  H29  1  0.33626000  0.10329000  0.28080000  1.0
  H  H30  1  0.83624000  0.60327000  0.21920000  1.0
  H  H31  1  0.66374000  0.89671000  0.71920000  1.0
  H  H32  1  0.12590000  0.40246000  0.86145000  1.0
  H  H33  1  0.37413000  0.09757000  0.36145000  1.0
  H  H34  1  0.87410000  0.59754000  0.13855000  1.0
  H  H35  1  0.62587000  0.90243000  0.63855000  1.0
  H  H36  1  0.44615000  0.02468000  0.59824000  1.0
  H  H37  1  0.05389000  0.47535000  0.09825000  1.0
  H  H38  1  0.55389000  0.97534000  0.40176000  1.0
  H  H39  1  0.94612000  0.52465000  0.90175000  1.0
  H  H40  1  0.39991000  0.05577000  0.51682000  1.0
  H  H41  1  0.10012000  0.44426000  0.01683000  1.0
  H  H42  1  0.60012000  0.94424000  0.48318000  1.0
  H  H43  1  0.89987000  0.55574000  0.98317000  1.0
  H  H44  1  0.18525000  0.44224000  0.53535000  1.0
  H  H45  1  0.31471000  0.05776000  0.03535000  1.0
  H  H46  1  0.81473000  0.55775000  0.46465000  1.0
  H  H47  1  0.68525000  0.94224000  0.96465000  1.0
  H  H48  1  0.22571000  0.43242000  0.61709000  1.0
  H  H49  1  0.27428000  0.06760000  0.11709000  1.0
  H  H50  1  0.77428000  0.56758000  0.38291000  1.0
  H  H51  1  0.72571000  0.93240000  0.88291000  1.0
  C  C52  1  0.34980000  0.11994000  0.85762000  1.0
  C  C53  1  0.15020000  0.38008000  0.35762000  1.0
  C  C54  1  0.65020000  0.88007000  0.14238000  1.0
  C  C55  1  0.84979000  0.61991000  0.64238000  1.0
  C  C56  1  0.37738000  0.10919000  0.81248000  1.0
  C  C57  1  0.12261000  0.39081000  0.31249000  1.0
  C  C58  1  0.62262000  0.89081000  0.18752000  1.0
  C  C59  1  0.87737000  0.60917000  0.68751000  1.0
  C  C60  1  0.31408000  0.20936000  0.78275000  1.0
  C  C61  1  0.18592000  0.29065000  0.28275000  1.0
  C  C62  1  0.68592000  0.79065000  0.21725000  1.0
  C  C63  1  0.81407000  0.70934000  0.71725000  1.0
  C  C64  1  0.21996000  0.31570000  0.80097000  1.0
  C  C65  1  0.28006000  0.18432000  0.30097000  1.0
  C  C66  1  0.78004000  0.68431000  0.19903000  1.0
  C  C67  1  0.71994000  0.81567000  0.69903000  1.0
  C  C68  1  0.19669000  0.31940000  0.84684000  1.0
  C  C69  1  0.30332000  0.18062000  0.34684000  1.0
  C  C70  1  0.80330000  0.68060000  0.15316000  1.0
  C  C71  1  0.69668000  0.81937000  0.65316000  1.0
  C  C72  1  0.35530000  0.19358000  0.73612000  1.0
  C  C73  1  0.14471000  0.30643000  0.23612000  1.0
  C  C74  1  0.64471000  0.80642000  0.26388000  1.0
  C  C75  1  0.85529000  0.69357000  0.76387000  1.0
  C  C76  1  0.36859000  0.20162000  0.66265000  1.0
  C  C77  1  0.13142000  0.29840000  0.16266000  1.0
  C  C78  1  0.63142000  0.79839000  0.33735000  1.0
  C  C79  1  0.86859000  0.70160000  0.83734000  1.0
  C  C80  1  0.33805000  0.22471000  0.61528000  1.0
  C  C81  1  0.16196000  0.27532000  0.11529000  1.0
  C  C82  1  0.66196000  0.77530000  0.38472000  1.0
  C  C83  1  0.83804000  0.72469000  0.88471000  1.0
  C  C84  1  0.38837000  0.11902000  0.58586000  1.0
  C  C85  1  0.11164000  0.38100000  0.08586000  1.0
  C  C86  1  0.61165000  0.88099000  0.41414000  1.0
  C  C87  1  0.88836000  0.61900000  0.91413000  1.0
  C  C88  1  0.36307000  0.13587000  0.54048000  1.0
  C  C89  1  0.13694000  0.36415000  0.04049000  1.0
  C  C90  1  0.63695000  0.86413000  0.45952000  1.0
  C  C91  1  0.86304000  0.63585000  0.95951000  1.0
  C  C92  1  0.24224000  0.35159000  0.55087000  1.0
  C  C93  1  0.25774000  0.14842000  0.05087000  1.0
  C  C94  1  0.75775000  0.64840000  0.44913000  1.0
  C  C95  1  0.74224000  0.85158000  0.94913000  1.0
  C  C96  1  0.26394000  0.34397000  0.59692000  1.0
  C  C97  1  0.23605000  0.15604000  0.09692000  1.0
  C  C98  1  0.73606000  0.65602000  0.40308000  1.0
  C  C99  1  0.76394000  0.84396000  0.90308000  1.0
  C  C100  1  0.22778000  0.54052000  0.94424000  1.0
  C  C101  1  0.27225000  0.95949000  0.44424000  1.0
  C  C102  1  0.77220000  0.45949000  0.05576000  1.0
  C  C103  1  0.72777000  0.04050000  0.55576000  1.0
  C  C104  1  0.92979000  0.26064000  0.94117000  1.0
  C  C105  1  0.57023000  0.23940000  0.44117000  1.0
  C  C106  1  0.07020000  0.73934000  0.05882000  1.0
  C  C107  1  0.42978000  0.76061000  0.55884000  1.0
  C  C108  1  0.24021000  0.93454000  0.94839000  1.0
  C  C109  1  0.25985000  0.56548000  0.44839000  1.0
  C  C110  1  0.75982000  0.06547000  0.05161000  1.0
  C  C111  1  0.74016000  0.43452000  0.55161000  1.0
  C  C112  1  0.54271000  0.21605000  0.95048000  1.0
  C  C113  1  0.95730000  0.28396000  0.45048000  1.0
  C  C114  1  0.45728000  0.78395000  0.04953000  1.0
  C  C115  1  0.04272000  0.71601000  0.54952000  1.0
  N  N116  1  0.26111000  0.22463000  0.87529000  1.0
  N  N117  1  0.23890000  0.27540000  0.37529000  1.0
  N  N118  1  0.73889000  0.77537000  0.12471000  1.0
  N  N119  1  0.76110000  0.72460000  0.62471000  1.0
  N  N120  1  0.46694000  0.10939000  0.72303000  1.0
  N  N121  1  0.03307000  0.39063000  0.22304000  1.0
  N  N122  1  0.53307000  0.89062000  0.27697000  1.0
  N  N123  1  0.96693000  0.60938000  0.77696000  1.0
  N  N124  1  0.47391000  0.11300000  0.67757000  1.0
  N  N125  1  0.02610000  0.38703000  0.17758000  1.0
  N  N126  1  0.52610000  0.88701000  0.32244000  1.0
  N  N127  1  0.97390000  0.61298000  0.82242000  1.0
  N  N128  1  0.29175000  0.25601000  0.69882000  1.0
  N  N129  1  0.20826000  0.24401000  0.19882000  1.0
  N  N130  1  0.70826000  0.74400000  0.30118000  1.0
  N  N131  1  0.79174000  0.75600000  0.80118000  1.0
  N  N132  1  0.16476000  0.34111000  0.69893000  1.0
  N  N133  1  0.33524000  0.15890000  0.19893000  1.0
  N  N134  1  0.83524000  0.65890000  0.30107000  1.0
  N  N135  1  0.66476000  0.84110000  0.80107000  1.0
  N  N136  1  0.29077000  0.24940000  0.52347000  1.0
  N  N137  1  0.20923000  0.25061000  0.02348000  1.0
  N  N138  1  0.70924000  0.75060000  0.47653000  1.0
  N  N139  1  0.79075000  0.74938000  0.97652000  1.0
  N  N140  1  0.22782000  0.42530000  0.94151000  1.0
  N  N141  1  0.27220000  0.07473000  0.44150000  1.0
  N  N142  1  0.77215000  0.57472000  0.05849000  1.0
  N  N143  1  0.72783000  0.92527000  0.55850000  1.0
  N  N144  1  0.04573000  0.25971000  0.93856000  1.0
  N  N145  1  0.45429000  0.24031000  0.43855000  1.0
  N  N146  1  0.95426000  0.74027000  0.06144000  1.0
  N  N147  1  0.54572000  0.75970000  0.56145000  1.0
  N  N148  1  0.24385000  0.04907000  0.94607000  1.0
  N  N149  1  0.25619000  0.45095000  0.44607000  1.0
  N  N150  1  0.75616000  0.95093000  0.05393000  1.0
  N  N151  1  0.74382000  0.54905000  0.55393000  1.0
  N  N152  1  0.42704000  0.21524000  0.94851000  1.0
  N  N153  1  0.07297000  0.28479000  0.44851000  1.0
  N  N154  1  0.57294000  0.78478000  0.05150000  1.0
  N  N155  1  0.92704000  0.71520000  0.55149000  1.0
