# generated using pymatgen
data_AgH24C22N5O3
_symmetry_space_group_name_H-M   'P 1'
_cell_length_a   7.81596000
_cell_length_b   12.17150000
_cell_length_c   12.31070000
_cell_angle_alpha   80.71510000
_cell_angle_beta   72.12880000
_cell_angle_gamma   71.31640000
_symmetry_Int_Tables_number   1
_chemical_formula_structural   AgH24C22N5O3
_chemical_formula_sum   'Ag2 H48 C44 N10 O6'
_cell_volume   1053.30907750
_cell_formula_units_Z   2
loop_
 _symmetry_equiv_pos_site_id
 _symmetry_equiv_pos_as_xyz
  1  'x, y, z'
loop_
 _atom_site_type_symbol
 _atom_site_label
 _atom_site_symmetry_multiplicity
 _atom_site_fract_x
 _atom_site_fract_y
 _atom_site_fract_z
 _atom_site_occupancy
  Ag  Ag0  1  0.66907000  0.24984000  0.74904000  1.0
  Ag  Ag1  1  0.33093000  0.75016000  0.25096000  1.0
  H  H2  1  0.74408000  0.86159000  0.03081000  1.0
  H  H3  1  0.63659000  0.63858000  0.46871000  1.0
  H  H4  1  0.25592000  0.13841000  0.96919000  1.0
  H  H5  1  0.36341000  0.36142000  0.53129000  1.0
  H  H6  1  0.65798000  0.00960000  0.72704000  1.0
  H  H7  1  0.39962000  0.48949000  0.77068000  1.0
  H  H8  1  0.34202000  0.99040000  0.27296000  1.0
  H  H9  1  0.60038000  0.51051000  0.22932000  1.0
  H  H10  1  0.63712000  0.88149000  0.81617000  1.0
  H  H11  1  0.33813000  0.61771000  0.68152000  1.0
  H  H12  1  0.36288000  0.11851000  0.18383000  1.0
  H  H13  1  0.66187000  0.38230000  0.31848000  1.0
  H  H14  1  0.86222000  0.89430000  0.73714000  1.0
  H  H15  1  0.49726000  0.60505000  0.76220000  1.0
  H  H16  1  0.13778000  0.10570000  0.26286000  1.0
  H  H17  1  0.50274000  0.39495000  0.23780000  1.0
  H  H18  1  0.91610000  0.04491000  0.16147000  1.0
  H  H19  1  0.11948000  0.45527000  0.34119000  1.0
  H  H20  1  0.08390000  0.95509000  0.83853000  1.0
  H  H21  1  0.88052000  0.54473000  0.65881000  1.0
  H  H22  1  0.75891000  0.95979000  0.21711000  1.0
  H  H23  1  0.93334000  0.54050000  0.28347000  1.0
  H  H24  1  0.24109000  0.04020000  0.78289000  1.0
  H  H25  1  0.06666000  0.45950000  0.71653000  1.0
  H  H26  1  0.67157000  0.11402000  0.20760000  1.0
  H  H27  1  0.99072000  0.38632000  0.29283000  1.0
  H  H28  1  0.32843000  0.88597000  0.79240000  1.0
  H  H29  1  0.00928000  0.61368000  0.70717000  1.0
  H  H30  1  0.87984000  0.26223000  0.90452000  1.0
  H  H31  1  0.04769000  0.23798000  0.59650000  1.0
  H  H32  1  0.12016000  0.73777000  0.09548000  1.0
  H  H33  1  0.95230000  0.76202000  0.40350000  1.0
  H  H34  1  0.83615000  0.23139000  0.05397000  1.0
  H  H35  1  0.11933000  0.26874000  0.44710000  1.0
  H  H36  1  0.16385000  0.76861000  0.94603000  1.0
  H  H37  1  0.88067000  0.73126000  0.55290000  1.0
  H  H38  1  0.42492000  0.21917000  0.03212000  1.0
  H  H39  1  0.67483000  0.28039000  0.46807000  1.0
  H  H40  1  0.57508000  0.78083000  0.96788000  1.0
  H  H41  1  0.32518000  0.71961000  0.53193000  1.0
  H  H42  1  0.11927000  0.37238000  0.06943000  1.0
  H  H43  1  0.55869000  0.12694000  0.43063000  1.0
  H  H44  1  0.88073000  0.62762000  0.93057000  1.0
  H  H45  1  0.44132000  0.87306000  0.56937000  1.0
  H  H46  1  0.89359000  0.42199000  0.94159000  1.0
  H  H47  1  0.25881000  0.07853000  0.55847000  1.0
  H  H48  1  0.10641000  0.57800000  0.05841000  1.0
  H  H49  1  0.74119000  0.92147000  0.44153000  1.0
  C  C50  1  0.73262000  0.99645000  0.88313000  1.0
  C  C51  1  0.61409000  0.50334000  0.61593000  1.0
  C  C52  1  0.26738000  0.00355000  0.11687000  1.0
  C  C53  1  0.38591000  0.49666000  0.38407000  1.0
  C  C54  1  0.74707000  0.94823000  0.99338000  1.0
  C  C55  1  0.68914000  0.55190000  0.50626000  1.0
  C  C56  1  0.25293000  0.05177000  0.00662000  1.0
  C  C57  1  0.31086000  0.44810000  0.49374000  1.0
  C  C58  1  0.76211000  0.03544000  0.04770000  1.0
  C  C59  1  0.84451000  0.46475000  0.45252000  1.0
  C  C60  1  0.23789000  0.96456000  0.95230000  1.0
  C  C61  1  0.15549000  0.53525000  0.54749000  1.0
  C  C62  1  0.72134000  0.94269000  0.78591000  1.0
  C  C63  1  0.45343000  0.55669000  0.71250000  1.0
  C  C64  1  0.27866000  0.05731000  0.21409000  1.0
  C  C65  1  0.54657000  0.44331000  0.28750000  1.0
  C  C66  1  0.77753000  0.03874000  0.16443000  1.0
  C  C67  1  0.97847000  0.46158000  0.33654000  1.0
  C  C68  1  0.22247000  0.96126000  0.83557000  1.0
  C  C69  1  0.02153000  0.53842000  0.66346000  1.0
  C  C70  1  0.77538000  0.24169000  0.98197000  1.0
  C  C71  1  0.99869000  0.25838000  0.51863000  1.0
  C  C72  1  0.22462000  0.75830000  0.01803000  1.0
  C  C73  1  0.00131000  0.74162000  0.48137000  1.0
  C  C74  1  0.58887000  0.45546000  0.98943000  1.0
  C  C75  1  0.03411000  0.04458000  0.51052000  1.0
  C  C76  1  0.41114000  0.54453000  0.01057000  1.0
  C  C77  1  0.96590000  0.95542000  0.48948000  1.0
  C  C78  1  0.59013000  0.33661000  0.00023000  1.0
  C  C79  1  0.92660000  0.16334000  0.49986000  1.0
  C  C80  1  0.40987000  0.66339000  0.99977000  1.0
  C  C81  1  0.07341000  0.83667000  0.50014000  1.0
  C  C82  1  0.42242000  0.30950000  0.02847000  1.0
  C  C83  1  0.75911000  0.19013000  0.47173000  1.0
  C  C84  1  0.57758000  0.69050000  0.97154000  1.0
  C  C85  1  0.24089000  0.80987000  0.52827000  1.0
  C  C86  1  0.24883000  0.39672000  0.04890000  1.0
  C  C87  1  0.69251000  0.10279000  0.45136000  1.0
  C  C88  1  0.75117000  0.60328000  0.95110000  1.0
  C  C89  1  0.30750000  0.89721000  0.54864000  1.0
  C  C90  1  0.75763000  0.48795000  0.95914000  1.0
  C  C91  1  0.20616000  0.01245000  0.54064000  1.0
  C  C92  1  0.24237000  0.51205000  0.04086000  1.0
  C  C93  1  0.79385000  0.98756000  0.45936000  1.0
  N  N94  1  0.75920000  0.12908000  0.97036000  1.0
  N  N95  1  0.85875000  0.37092000  0.52971000  1.0
  N  N96  1  0.24080000  0.87092000  0.02964000  1.0
  N  N97  1  0.14125000  0.62908000  0.47029000  1.0
  N  N98  1  0.73875000  0.10725000  0.87063000  1.0
  N  N99  1  0.71830000  0.39251000  0.62868000  1.0
  N  N100  1  0.26125000  0.89275000  0.12937000  1.0
  N  N101  1  0.28170000  0.60749000  0.37132000  1.0
  N  N102  1  0.26796000  0.25009000  0.75008000  1.0
  N  N103  1  0.73204000  0.74991000  0.24992000  1.0
  O  O104  1  0.41215000  0.19416000  0.67740000  1.0
  O  O105  1  0.28663000  0.30676000  0.82185000  1.0
  O  O106  1  0.58785000  0.80584000  0.32259000  1.0
  O  O107  1  0.71337000  0.69324000  0.17815000  1.0
  O  O108  1  0.10578000  0.24934000  0.75094000  1.0
  O  O109  1  0.89422000  0.75066000  0.24906000  1.0
