# generated using pymatgen
data_CuH8C6(SN2)2
_symmetry_space_group_name_H-M   'P 1'
_cell_length_a   7.79000000
_cell_length_b   9.06083000
_cell_length_c   14.02500000
_cell_angle_alpha   89.99280000
_cell_angle_beta   89.99230000
_cell_angle_gamma   71.01300000
_symmetry_Int_Tables_number   1
_chemical_formula_structural   CuH8C6(SN2)2
_chemical_formula_sum   'Cu4 H32 C24 S8 N16'
_cell_volume   936.07853489
_cell_formula_units_Z   4
loop_
 _symmetry_equiv_pos_site_id
 _symmetry_equiv_pos_as_xyz
  1  'x, y, z'
loop_
 _atom_site_type_symbol
 _atom_site_label
 _atom_site_symmetry_multiplicity
 _atom_site_fract_x
 _atom_site_fract_y
 _atom_site_fract_z
 _atom_site_occupancy
  Cu  Cu0  1  0.00000000  0.00000000  0.00000000  1.0
  Cu  Cu1  1  0.00000000  0.50000000  0.50000000  1.0
  Cu  Cu2  1  0.50000000  0.00000000  0.50000000  1.0
  Cu  Cu3  1  0.50000000  0.50000000  1.00000000  1.0
  H  H4  1  0.82781000  0.11120000  0.66991000  1.0
  H  H5  1  0.17214000  0.38900000  0.17006000  1.0
  H  H6  1  0.17219000  0.88880000  0.33009000  1.0
  H  H7  1  0.82787000  0.61100000  0.82995000  1.0
  H  H8  1  0.87110000  0.05605000  0.54799000  1.0
  H  H9  1  0.12900000  0.44395000  0.04808000  1.0
  H  H10  1  0.12890000  0.94394000  0.45201000  1.0
  H  H11  1  0.87100000  0.55605000  0.95192000  1.0
  H  H12  1  0.93465000  0.81626000  0.64729000  1.0
  H  H13  1  0.06521000  0.68385000  0.14733000  1.0
  H  H14  1  0.06535000  0.18374000  0.35271000  1.0
  H  H15  1  0.93479000  0.31615000  0.85267000  1.0
  H  H16  1  0.71702000  0.89052000  0.70064000  1.0
  H  H17  1  0.28290000  0.60977000  0.20060000  1.0
  H  H18  1  0.28298000  0.10948000  0.29936000  1.0
  H  H19  1  0.71710000  0.39023000  0.79940000  1.0
  H  H20  1  0.67071000  0.73588000  0.58378000  1.0
  H  H21  1  0.32891000  0.76440000  0.08354000  1.0
  H  H22  1  0.32929000  0.26412000  0.41622000  1.0
  H  H23  1  0.67110000  0.23560000  0.91646000  1.0
  H  H24  1  0.79607000  0.78562000  0.50227000  1.0
  H  H25  1  0.20369000  0.71432000  0.00215000  1.0
  H  H26  1  0.20393000  0.21438000  0.49773000  1.0
  H  H27  1  0.79631000  0.28568000  0.99785000  1.0
  H  H28  1  0.59257000  0.24321000  0.54568000  1.0
  H  H29  1  0.40759000  0.25682000  0.04603000  1.0
  H  H30  1  0.40743000  0.75679000  0.45432000  1.0
  H  H31  1  0.59241000  0.74318000  0.95397000  1.0
  H  H32  1  0.51766000  0.17700000  0.64190000  1.0
  H  H33  1  0.48239000  0.32340000  0.14210000  1.0
  H  H34  1  0.48235000  0.82300000  0.35810000  1.0
  H  H35  1  0.51761000  0.67660000  0.85790000  1.0
  C  C36  1  0.80637000  0.00753000  0.19560000  1.0
  C  C37  1  0.19384000  0.49244000  0.69552000  1.0
  C  C38  1  0.19362000  0.99248000  0.80440000  1.0
  C  C39  1  0.80616000  0.50756000  0.30448000  1.0
  C  C40  1  0.77546000  0.01014000  0.29487000  1.0
  C  C41  1  0.22476000  0.48984000  0.79479000  1.0
  C  C42  1  0.22454000  0.98985000  0.70513000  1.0
  C  C43  1  0.77525000  0.51016000  0.20521000  1.0
  C  C44  1  0.70906000  0.94244000  0.13504000  1.0
  C  C45  1  0.29101000  0.55766000  0.63493000  1.0
  C  C46  1  0.29093000  0.05757000  0.86495000  1.0
  C  C47  1  0.70900000  0.44234000  0.36507000  1.0
  C  C48  1  0.57372000  0.88673000  0.17206000  1.0
  C  C49  1  0.42645000  0.61326000  0.67189000  1.0
  C  C50  1  0.42628000  0.11327000  0.82794000  1.0
  C  C51  1  0.57356000  0.38674000  0.32811000  1.0
  C  C52  1  0.78390000  0.05552000  0.60928000  1.0
  C  C53  1  0.21610000  0.44461000  0.10938000  1.0
  C  C54  1  0.21610000  0.94448000  0.39073000  1.0
  C  C55  1  0.78390000  0.55538000  0.89062000  1.0
  C  C56  1  0.79360000  0.89029000  0.63497000  1.0
  C  C57  1  0.20628000  0.60991000  0.13497000  1.0
  C  C58  1  0.20640000  0.10971000  0.36503000  1.0
  C  C59  1  0.79372000  0.39009000  0.86503000  1.0
  S  S60  1  0.97091000  0.08104000  0.15431000  1.0
  S  S61  1  0.02948000  0.41872000  0.65425000  1.0
  S  S62  1  0.02909000  0.91896000  0.84569000  1.0
  S  S63  1  0.97051000  0.58128000  0.34575000  1.0
  S  S64  1  0.74820000  0.92664000  0.01355000  1.0
  S  S65  1  0.25150000  0.57372000  0.51346000  1.0
  S  S66  1  0.25179000  0.07337000  0.98645000  1.0
  S  S67  1  0.74850000  0.42628000  0.48654000  1.0
  N  N68  1  0.75178000  0.01009000  0.37744000  1.0
  N  N69  1  0.24845000  0.48992000  0.87735000  1.0
  N  N70  1  0.24823000  0.98991000  0.62256000  1.0
  N  N71  1  0.75156000  0.51008000  0.12265000  1.0
  N  N72  1  0.46107000  0.84005000  0.20294000  1.0
  N  N73  1  0.53916000  0.65983000  0.70276000  1.0
  N  N74  1  0.53892000  0.15995000  0.79706000  1.0
  N  N75  1  0.46084000  0.34016000  0.29723000  1.0
  N  N76  1  0.70782000  0.82703000  0.55794000  1.0
  N  N77  1  0.29191000  0.67313000  0.05784000  1.0
  N  N78  1  0.29218000  0.17296000  0.44207000  1.0
  N  N79  1  0.70809000  0.32687000  0.94216000  1.0
  N  N80  1  0.59455000  0.14343000  0.58128000  1.0
  N  N81  1  0.40550000  0.35674000  0.08147000  1.0
  N  N82  1  0.40545000  0.85657000  0.41872000  1.0
  N  N83  1  0.59451000  0.64327000  0.91853000  1.0
