# generated using pymatgen
data_Zn4C24O13F12
_symmetry_space_group_name_H-M   'P 1'
_cell_length_a   18.10930000
_cell_length_b   18.38600000
_cell_length_c   18.28077561
_cell_angle_alpha   118.63318479
_cell_angle_beta   119.22519436
_cell_angle_gamma   61.24600000
_symmetry_Int_Tables_number   1
_chemical_formula_structural   Zn4C24O13F12
_chemical_formula_sum   'Zn8 C48 O26 F24'
_cell_volume   4413.08571603
_cell_formula_units_Z   2
loop_
 _symmetry_equiv_pos_site_id
 _symmetry_equiv_pos_as_xyz
  1  'x, y, z'
loop_
 _atom_site_type_symbol
 _atom_site_label
 _atom_site_symmetry_multiplicity
 _atom_site_fract_x
 _atom_site_fract_y
 _atom_site_fract_z
 _atom_site_occupancy
  Zn  Zn0  1  0.14091000  0.93583000  0.03707000  1.0
  Zn  Zn1  1  0.96448000  0.94272000  0.04824000  1.0
  Zn  Zn2  1  0.96204000  0.93952000  0.86797000  1.0
  Zn  Zn3  1  0.96848000  0.11010000  0.03850000  1.0
  Zn  Zn4  1  0.37723000  0.52232000  0.45157000  1.0
  Zn  Zn5  1  0.55619000  0.52863000  0.45763000  1.0
  Zn  Zn6  1  0.55532000  0.35398000  0.45532000  1.0
  Zn  Zn7  1  0.54757000  0.52321000  0.62799000  1.0
  C  C8  1  0.14742000  0.84390000  0.13627000  1.0
  C  C9  1  0.20589000  0.78532000  0.19319000  1.0
  C  C10  1  0.20210000  0.70129000  0.16371000  1.0
  C  C11  1  0.25662000  0.64712000  0.21653000  1.0
  C  C12  1  0.31658000  0.67545000  0.30047000  1.0
  C  C13  1  0.37404000  0.61793000  0.35833000  1.0
  C  C14  1  0.32041000  0.75952000  0.32979000  1.0
  C  C15  1  0.26584000  0.81363000  0.27693000  1.0
  C  C16  1  0.14141000  0.84152000  0.85392000  1.0
  C  C17  1  0.19687000  0.78195000  0.79445000  1.0
  C  C18  1  0.19584000  0.80986000  0.73501000  1.0
  C  C19  1  0.24846000  0.75501000  0.68093000  1.0
  C  C20  1  0.30364000  0.67070000  0.68485000  1.0
  C  C21  1  0.36282000  0.61302000  0.62895000  1.0
  C  C22  1  0.30408000  0.64257000  0.74387000  1.0
  C  C23  1  0.25144000  0.69743000  0.79787000  1.0
  C  C24  1  0.15404000  0.11304000  0.12962000  1.0
  C  C25  1  0.21274000  0.16993000  0.18898000  1.0
  C  C26  1  0.20859000  0.22404000  0.27350000  1.0
  C  C27  1  0.26043000  0.27924000  0.32828000  1.0
  C  C28  1  0.31806000  0.28177000  0.30010000  1.0
  C  C29  1  0.37409000  0.34121000  0.35885000  1.0
  C  C30  1  0.32251000  0.22737000  0.21575000  1.0
  C  C31  1  0.27060000  0.17215000  0.16093000  1.0
  C  C32  1  0.86669000  0.84851000  0.87076000  1.0
  C  C33  1  0.81077000  0.78876000  0.81500000  1.0
  C  C34  1  0.84437000  0.70467000  0.76117000  1.0
  C  C35  1  0.79169000  0.65029000  0.70571000  1.0
  C  C36  1  0.70380000  0.67841000  0.70258000  1.0
  C  C37  1  0.64619000  0.62050000  0.64187000  1.0
  C  C38  1  0.67059000  0.76208000  0.75728000  1.0
  C  C39  1  0.72335000  0.81648000  0.81275000  1.0
  C  C40  1  0.87518000  0.12387000  0.14049000  1.0
  C  C41  1  0.81863000  0.18368000  0.19892000  1.0
  C  C42  1  0.73289000  0.23908000  0.16708000  1.0
  C  C43  1  0.68015000  0.29469000  0.22098000  1.0
  C  C44  1  0.71177000  0.29640000  0.30820000  1.0
  C  C45  1  0.65338000  0.35278000  0.36510000  1.0
  C  C46  1  0.79776000  0.24153000  0.34027000  1.0
  C  C47  1  0.85047000  0.18589000  0.28640000  1.0
  C  C48  1  0.87186000  0.11778000  0.85707000  1.0
  C  C49  1  0.81435000  0.17524000  0.79936000  1.0
  C  C50  1  0.84321000  0.23658000  0.80511000  1.0
  C  C51  1  0.78906000  0.29107000  0.75267000  1.0
  C  C52  1  0.70460000  0.28579000  0.69308000  1.0
  C  C53  1  0.64635000  0.34406000  0.63610000  1.0
  C  C54  1  0.67574000  0.22451000  0.68721000  1.0
  C  C55  1  0.72986000  0.16993000  0.73956000  1.0
  O  O56  1  0.00924000  0.98129000  0.99824000  1.0
  O  O57  1  0.06380000  0.86529000  0.11690000  1.0
  O  O58  1  0.18827000  0.86563000  0.11393000  1.0
  O  O59  1  0.45758000  0.60403000  0.38665000  1.0
  O  O60  1  0.33256000  0.58964000  0.37297000  1.0
  O  O61  1  0.05763000  0.86827000  0.81558000  1.0
  O  O62  1  0.18448000  0.85876000  0.93633000  1.0
  O  O63  1  0.44564000  0.58543000  0.67091000  1.0
  O  O64  1  0.32439000  0.59834000  0.54611000  1.0
  O  O65  1  0.07077000  0.15371000  0.11231000  1.0
  O  O66  1  0.19316000  0.03122000  0.10341000  1.0
  O  O67  1  0.45783000  0.30395000  0.37583000  1.0
  O  O68  1  0.33196000  0.42222000  0.38516000  1.0
  O  O69  1  0.89150000  0.86505000  0.82794000  1.0
  O  O70  1  0.88311000  0.87595000  0.95362000  1.0
  O  O71  1  0.61542000  0.60339000  0.67891000  1.0
  O  O72  1  0.63417000  0.59511000  0.56009000  1.0
  O  O73  1  0.89181000  0.16127000  0.10988000  1.0
  O  O74  1  0.90010000  0.04256000  0.12770000  1.0
  O  O75  1  0.63572000  0.31127000  0.39025000  1.0
  O  O76  1  0.62774000  0.43484000  0.38168000  1.0
  O  O77  1  0.89856000  0.15737000  0.93953000  1.0
  O  O78  1  0.88758000  0.03599000  0.81771000  1.0
  O  O79  1  0.62478000  0.30508000  0.55330000  1.0
  O  O80  1  0.62499000  0.42575000  0.67673000  1.0
  O  O81  1  0.50898000  0.48268000  0.49792000  1.0
  F  F82  1  0.14669000  0.67070000  0.08217000  1.0
  F  F83  1  0.25244000  0.56555000  0.18441000  1.0
  F  F84  1  0.37532000  0.79068000  0.41137000  1.0
  F  F85  1  0.26980000  0.89529000  0.30867000  1.0
  F  F86  1  0.14576000  0.89187000  0.73133000  1.0
  F  F87  1  0.24785000  0.78576000  0.62674000  1.0
  F  F88  1  0.35432000  0.56075000  0.74794000  1.0
  F  F89  1  0.25221000  0.66716000  0.85258000  1.0
  F  F90  1  0.15523000  0.22192000  0.30383000  1.0
  F  F91  1  0.25605000  0.32891000  0.41027000  1.0
  F  F92  1  0.37553000  0.22966000  0.18517000  1.0
  F  F93  1  0.27467000  0.12264000  0.07880000  1.0
  F  F94  1  0.92954000  0.67455000  0.76357000  1.0
  F  F95  1  0.82736000  0.56884000  0.65613000  1.0
  F  F96  1  0.58536000  0.79251000  0.75481000  1.0
  F  F97  1  0.68768000  0.89802000  0.86223000  1.0
  F  F98  1  0.69885000  0.23740000  0.08229000  1.0
  F  F99  1  0.59648000  0.34506000  0.18683000  1.0
  F  F100  1  0.83147000  0.24302000  0.42495000  1.0
  F  F101  1  0.93398000  0.13535000  0.32050000  1.0
  F  F102  1  0.92532000  0.24220000  0.86006000  1.0
  F  F103  1  0.82026000  0.34780000  0.75837000  1.0
  F  F104  1  0.59351000  0.21918000  0.63211000  1.0
  F  F105  1  0.69820000  0.11356000  0.73376000  1.0
