# generated using pymatgen
data_CdH12C10S(NO3)2
_symmetry_space_group_name_H-M   'P 1'
_cell_length_a   7.02613000
_cell_length_b   10.14250000
_cell_length_c   10.14250000
_cell_angle_alpha   79.70880000
_cell_angle_beta   76.08540000
_cell_angle_gamma   76.08560000
_symmetry_Int_Tables_number   1
_chemical_formula_structural   CdH12C10S(NO3)2
_chemical_formula_sum   'Cd2 H24 C20 S2 N4 O12'
_cell_volume   675.36079952
_cell_formula_units_Z   2
loop_
 _symmetry_equiv_pos_site_id
 _symmetry_equiv_pos_as_xyz
  1  'x, y, z'
loop_
 _atom_site_type_symbol
 _atom_site_label
 _atom_site_symmetry_multiplicity
 _atom_site_fract_x
 _atom_site_fract_y
 _atom_site_fract_z
 _atom_site_occupancy
  Cd  Cd0  1  0.25000000  0.78248000  0.21752000  1.0
  Cd  Cd1  1  0.75000000  0.21752000  0.78248000  1.0
  H  H2  1  0.39197000  0.00746000  0.19601000  1.0
  H  H3  1  0.89197000  0.19600000  0.00746000  1.0
  H  H4  1  0.60803000  0.99254000  0.80399000  1.0
  H  H5  1  0.10803000  0.80399000  0.99254000  1.0
  H  H6  1  0.20023000  0.06461000  0.12977000  1.0
  H  H7  1  0.70023000  0.12977000  0.06461000  1.0
  H  H8  1  0.79977000  0.93539000  0.87023000  1.0
  H  H9  1  0.29977000  0.87023000  0.93539000  1.0
  H  H10  1  0.18716000  0.92867000  0.48601000  1.0
  H  H11  1  0.68716000  0.48601000  0.92868000  1.0
  H  H12  1  0.81284000  0.07133000  0.51399000  1.0
  H  H13  1  0.31283000  0.51400000  0.07132000  1.0
  H  H14  1  0.18057000  0.86893000  0.73686000  1.0
  H  H15  1  0.68057000  0.73685000  0.86894000  1.0
  H  H16  1  0.81942000  0.13108000  0.26314000  1.0
  H  H17  1  0.31942000  0.26315000  0.13106000  1.0
  H  H18  1  0.21016000  0.62085000  0.83783000  1.0
  H  H19  1  0.71015000  0.83783000  0.62086000  1.0
  H  H20  1  0.78985000  0.37915000  0.16218000  1.0
  H  H21  1  0.28986000  0.16218000  0.37913000  1.0
  H  H22  1  0.25248000  0.44513000  0.68550000  1.0
  H  H23  1  0.75247000  0.68551000  0.44514000  1.0
  H  H24  1  0.74753000  0.55487000  0.31450000  1.0
  H  H25  1  0.24754000  0.31449000  0.55486000  1.0
  C  C26  1  0.19993000  0.82281000  0.53492000  1.0
  C  C27  1  0.69993000  0.53492000  0.82281000  1.0
  C  C28  1  0.80006000  0.17719000  0.46508000  1.0
  C  C29  1  0.30006000  0.46508000  0.17719000  1.0
  C  C30  1  0.19483000  0.78884000  0.67458000  1.0
  C  C31  1  0.69483000  0.67459000  0.78884000  1.0
  C  C32  1  0.80515000  0.21117000  0.32542000  1.0
  C  C33  1  0.30515000  0.32542000  0.21116000  1.0
  C  C34  1  0.21204000  0.65118000  0.72901000  1.0
  C  C35  1  0.71203000  0.72902000  0.65119000  1.0
  C  C36  1  0.78795000  0.34883000  0.27098000  1.0
  C  C37  1  0.28796000  0.27099000  0.34881000  1.0
  C  C38  1  0.23441000  0.55294000  0.64331000  1.0
  C  C39  1  0.73440000  0.64332000  0.55295000  1.0
  C  C40  1  0.76559000  0.44706000  0.35669000  1.0
  C  C41  1  0.26560000  0.35668000  0.44705000  1.0
  C  C42  1  0.23812000  0.59503000  0.50344000  1.0
  C  C43  1  0.73811000  0.50344000  0.59504000  1.0
  C  C44  1  0.76188000  0.40497000  0.49656000  1.0
  C  C45  1  0.26189000  0.49656000  0.40497000  1.0
  S  S46  1  0.75000000  0.84639000  0.15361000  1.0
  S  S47  1  0.25000000  0.15361000  0.84639000  1.0
  N  N48  1  0.22070000  0.72877000  0.45229000  1.0
  N  N49  1  0.72070000  0.45229000  0.72878000  1.0
  N  N50  1  0.77929000  0.27123000  0.54771000  1.0
  N  N51  1  0.27930000  0.54771000  0.27122000  1.0
  O  O52  1  0.89115000  0.81012000  0.24853000  1.0
  O  O53  1  0.39115000  0.24852000  0.81013000  1.0
  O  O54  1  0.10886000  0.18987000  0.75147000  1.0
  O  O55  1  0.60885000  0.75147000  0.18987000  1.0
  O  O56  1  0.63400000  0.99109000  0.16347000  1.0
  O  O57  1  0.13400000  0.16346000  0.99109000  1.0
  O  O58  1  0.36601000  0.00891000  0.83654000  1.0
  O  O59  1  0.86601000  0.83653000  0.00891000  1.0
  O  O60  1  0.24438000  0.00908000  0.21322000  1.0
  O  O61  1  0.74438000  0.21321000  0.00909000  1.0
  O  O62  1  0.75563000  0.99091000  0.78678000  1.0
  O  O63  1  0.25562000  0.78678000  0.99091000  1.0
