# generated using pymatgen
data_Al3H40C45Cl3O17
_symmetry_space_group_name_H-M   'P 1'
_cell_length_a   13.84310000
_cell_length_b   13.91090000
_cell_length_c   28.06220000
_cell_angle_alpha   90.33030000
_cell_angle_beta   90.17810000
_cell_angle_gamma   60.17870000
_symmetry_Int_Tables_number   1
_chemical_formula_structural   Al3H40C45Cl3O17
_chemical_formula_sum   'Al6 H80 C90 Cl6 O34'
_cell_volume   4688.27328812
_cell_formula_units_Z   2
loop_
 _symmetry_equiv_pos_site_id
 _symmetry_equiv_pos_as_xyz
  1  'x, y, z'
loop_
 _atom_site_type_symbol
 _atom_site_label
 _atom_site_symmetry_multiplicity
 _atom_site_fract_x
 _atom_site_fract_y
 _atom_site_fract_z
 _atom_site_occupancy
  Al  Al0  1  0.23823000  0.25347000  0.24863000  1.0
  Al  Al1  1  0.47237000  0.24866000  0.24809000  1.0
  Al  Al2  1  0.26429000  0.46998000  0.25073000  1.0
  Al  Al3  1  0.49000000  0.73919000  0.75100000  1.0
  Al  Al4  1  0.71816000  0.74665000  0.75053000  1.0
  Al  Al5  1  0.73402000  0.52429000  0.75020000  1.0
  H  H6  1  0.62135000  0.32672000  0.95668000  1.0
  H  H7  1  0.04720000  0.61916000  0.94825000  1.0
  H  H8  1  0.33978000  0.05311000  0.95211000  1.0
  H  H9  1  0.89409000  0.66280000  0.05148000  1.0
  H  H10  1  0.65794000  0.44783000  0.05779000  1.0
  H  H11  1  0.46161000  0.88765000  0.05078000  1.0
  H  H12  1  0.66146000  0.53520000  0.49903000  1.0
  H  H13  1  0.81854000  0.63385000  0.50398000  1.0
  H  H14  1  0.56110000  0.79876000  0.49780000  1.0
  H  H15  1  0.20598000  0.45441000  0.50658000  1.0
  H  H16  1  0.45774000  0.35165000  0.49357000  1.0
  H  H17  1  0.36806000  0.18548000  0.49812000  1.0
  H  H18  1  0.71138000  0.34593000  0.44983000  1.0
  H  H19  1  0.95397000  0.69371000  0.45760000  1.0
  H  H20  1  0.36746000  0.94022000  0.44842000  1.0
  H  H21  1  0.06091000  0.64414000  0.55316000  1.0
  H  H22  1  0.64989000  0.29225000  0.54328000  1.0
  H  H23  1  0.31112000  0.04322000  0.54450000  1.0
  H  H24  1  0.59223000  0.31023000  0.03768000  1.0
  H  H25  1  0.09555000  0.60019000  0.02906000  1.0
  H  H26  1  0.32229000  0.09100000  0.03418000  1.0
  H  H27  1  0.84698000  0.68143000  0.97057000  1.0
  H  H28  1  0.68553000  0.46494000  0.97674000  1.0
  H  H29  1  0.47862000  0.85116000  0.96865000  1.0
  H  H30  1  0.56035000  0.59100000  0.06070000  1.0
  H  H31  1  0.85085000  0.56354000  0.05754000  1.0
  H  H32  1  0.60526000  0.84307000  0.05407000  1.0
  H  H33  1  0.14282000  0.47719000  0.93905000  1.0
  H  H34  1  0.47921000  0.37423000  0.94528000  1.0
  H  H35  1  0.38656000  0.14907000  0.94403000  1.0
  H  H36  1  0.58723000  0.60799000  0.97963000  1.0
  H  H37  1  0.80294000  0.58276000  0.97679000  1.0
  H  H38  1  0.62224000  0.80642000  0.97208000  1.0
  H  H39  1  0.19046000  0.45792000  0.01986000  1.0
  H  H40  1  0.44984000  0.35905000  0.02631000  1.0
  H  H41  1  0.37039000  0.18584000  0.02609000  1.0
  H  H42  1  0.31042000  0.56514000  0.03085000  1.0
  H  H43  1  0.12754000  0.31633000  0.02901000  1.0
  H  H44  1  0.57664000  0.12101000  0.03135000  1.0
  H  H45  1  0.94011000  0.37842000  0.96366000  1.0
  H  H46  1  0.38349000  0.67583000  0.96325000  1.0
  H  H47  1  0.68988000  0.94429000  0.96036000  1.0
  H  H48  1  0.35610000  0.65995000  0.04458000  1.0
  H  H49  1  0.98863000  0.35937000  0.04453000  1.0
  H  H50  1  0.67291000  0.98049000  0.04254000  1.0
  H  H51  1  0.07934000  0.33453000  0.94818000  1.0
  H  H52  1  0.33846000  0.58059000  0.94963000  1.0
  H  H53  1  0.59349000  0.08479000  0.94923000  1.0
  H  H54  1  0.39432000  0.57797000  0.53486000  1.0
  H  H55  1  0.04959000  0.37841000  0.54436000  1.0
  H  H56  1  0.59376000  0.02541000  0.54040000  1.0
  H  H57  1  0.98738000  0.40698000  0.46533000  1.0
  H  H58  1  0.43209000  0.61027000  0.45730000  1.0
  H  H59  1  0.63115000  0.95967000  0.46068000  1.0
  H  H60  1  0.35776000  0.48542000  0.47333000  1.0
  H  H61  1  0.18209000  0.34734000  0.48556000  1.0
  H  H62  1  0.50292000  0.15458000  0.47960000  1.0
  H  H63  1  0.85228000  0.50022000  0.52438000  1.0
  H  H64  1  0.52886000  0.64056000  0.51893000  1.0
  H  H65  1  0.66345000  0.82879000  0.51993000  1.0
  H  H66  1  0.67663000  0.43545000  0.38366000  1.0
  H  H67  1  0.73383000  0.48959000  0.42735000  1.0
  H  H68  1  0.68430000  0.55672000  0.37175000  1.0
  H  H69  1  0.90754000  0.65130000  0.39098000  1.0
  H  H70  1  0.79255000  0.70233000  0.43242000  1.0
  H  H71  1  0.78515000  0.64651000  0.37640000  1.0
  H  H72  1  0.46339000  0.88519000  0.38318000  1.0
  H  H73  1  0.51969000  0.77389000  0.42614000  1.0
  H  H74  1  0.58859000  0.75942000  0.37115000  1.0
  H  H75  1  0.10756000  0.55817000  0.62074000  1.0
  H  H76  1  0.22463000  0.50354000  0.58010000  1.0
  H  H77  1  0.23530000  0.43844000  0.63567000  1.0
  H  H78  1  0.55520000  0.33228000  0.60928000  1.0
  H  H79  1  0.49779000  0.28101000  0.56448000  1.0
  H  H80  1  0.42805000  0.33324000  0.61950000  1.0
  H  H81  1  0.34158000  0.10074000  0.61128000  1.0
  H  H82  1  0.29263000  0.20787000  0.56654000  1.0
  H  H83  1  0.33688000  0.22892000  0.62299000  1.0
  H  H84  1  0.15906000  0.14942000  0.27553000  1.0
  H  H85  1  0.30597000  0.84480000  0.72479000  1.0
  C  C86  1  0.43245000  0.12519000  0.18239000  1.0
  C  C87  1  0.43769000  0.42237000  0.18436000  1.0
  C  C88  1  0.13153000  0.44842000  0.18259000  1.0
  C  C89  1  0.55544000  0.87164000  0.81560000  1.0
  C  C90  1  0.85766000  0.57674000  0.81600000  1.0
  C  C91  1  0.57983000  0.54681000  0.81827000  1.0
  C  C92  1  0.52182000  0.54989000  0.45679000  1.0
  C  C93  1  0.95281000  0.49730000  0.46430000  1.0
  C  C94  1  0.57232000  0.92824000  0.45868000  1.0
  C  C95  1  0.07788000  0.43961000  0.54588000  1.0
  C  C96  1  0.45084000  0.48775000  0.53554000  1.0
  C  C97  1  0.50357000  0.05616000  0.53976000  1.0
  C  C98  1  0.58582000  0.51772000  0.63100000  1.0
  C  C99  1  0.89612000  0.57296000  0.63714000  1.0
  C  C100  1  0.53762000  0.88495000  0.63110000  1.0
  C  C101  1  0.12111000  0.46808000  0.37176000  1.0
  C  C102  1  0.47930000  0.41898000  0.36244000  1.0
  C  C103  1  0.43879000  0.10083000  0.36592000  1.0
  C  C104  1  0.52939000  0.43278000  0.45266000  1.0
  C  C105  1  0.05823000  0.51353000  0.46222000  1.0
  C  C106  1  0.45340000  0.03570000  0.45548000  1.0
  C  C107  1  0.96715000  0.55607000  0.54801000  1.0
  C  C108  1  0.57159000  0.47282000  0.54005000  1.0
  C  C109  1  0.49287000  0.94798000  0.54107000  1.0
  C  C110  1  0.65921000  0.35437000  0.52336000  1.0
  C  C111  1  0.99291000  0.64767000  0.53199000  1.0
  C  C112  1  0.37555000  0.97573000  0.52340000  1.0
  C  C113  1  0.02407000  0.63304000  0.47872000  1.0
  C  C114  1  0.64601000  0.34126000  0.46957000  1.0
  C  C115  1  0.36224000  0.00772000  0.47038000  1.0
  C  C116  1  0.58679000  0.49577000  0.58899000  1.0
  C  C117  1  0.92361000  0.57185000  0.59597000  1.0
  C  C118  1  0.51573000  0.90729000  0.58931000  1.0
  C  C119  1  0.09995000  0.48967000  0.41379000  1.0
  C  C120  1  0.50451000  0.41853000  0.40396000  1.0
  C  C121  1  0.43905000  0.07686000  0.40743000  1.0
  C  C122  1  0.42726000  0.13579000  0.31725000  1.0
  C  C123  1  0.44564000  0.41136000  0.31494000  1.0
  C  C124  1  0.14823000  0.44019000  0.32223000  1.0
  C  C125  1  0.56009000  0.85336000  0.68022000  1.0
  C  C126  1  0.85463000  0.58195000  0.68464000  1.0
  C  C127  1  0.58662000  0.54801000  0.68003000  1.0
  C  C128  1  0.51742000  0.37785000  0.02109000  1.0
  C  C129  1  0.10347000  0.52309000  0.01449000  1.0
  C  C130  1  0.38990000  0.10033000  0.01863000  1.0
  C  C131  1  0.87303000  0.59733000  0.98319000  1.0
  C  C132  1  0.60008000  0.52514000  0.98764000  1.0
  C  C133  1  0.53904000  0.87521000  0.98107000  1.0
  C  C134  1  0.58198000  0.51403000  0.04129000  1.0
  C  C135  1  0.90455000  0.58489000  0.03667000  1.0
  C  C136  1  0.52778000  0.89937000  0.03523000  1.0
  C  C137  1  0.07192000  0.53552000  0.96103000  1.0
  C  C138  1  0.53643000  0.38842000  0.96756000  1.0
  C  C139  1  0.40106000  0.07595000  0.96453000  1.0
  C  C140  1  0.55736000  0.52240000  0.86539000  1.0
  C  C141  1  0.91146000  0.54712000  0.86164000  1.0
  C  C142  1  0.53656000  0.92563000  0.86113000  1.0
  C  C143  1  0.08468000  0.47352000  0.13530000  1.0
  C  C144  1  0.46062000  0.45453000  0.13920000  1.0
  C  C145  1  0.46619000  0.07234000  0.13661000  1.0
  C  C146  1  0.48638000  0.48759000  0.04778000  1.0
  C  C147  1  0.02736000  0.49255000  0.04349000  1.0
  C  C148  1  0.50028000  0.02029000  0.04450000  1.0
  C  C149  1  0.97396000  0.51314000  0.95285000  1.0
  C  C150  1  0.51761000  0.50575000  0.95701000  1.0
  C  C151  1  0.51944000  0.97950000  0.95306000  1.0
  C  C152  1  0.39730000  0.59285000  0.97163000  1.0
  C  C153  1  0.00918000  0.39452000  0.97004000  1.0
  C  C154  1  0.60625000  0.01201000  0.96951000  1.0
  C  C155  1  0.04097000  0.38228000  0.02357000  1.0
  C  C156  1  0.37888000  0.58246000  0.02539000  1.0
  C  C157  1  0.59512000  0.03593000  0.02376000  1.0
  C  C158  1  0.53768000  0.51498000  0.90697000  1.0
  C  C159  1  0.94193000  0.52859000  0.90296000  1.0
  C  C160  1  0.52932000  0.95336000  0.90268000  1.0
  C  C161  1  0.05746000  0.48223000  0.09361000  1.0
  C  C162  1  0.47118000  0.47343000  0.09786000  1.0
  C  C163  1  0.48581000  0.04541000  0.09498000  1.0
  C  C164  1  0.44196000  0.43643000  0.48806000  1.0
  C  C165  1  0.14118000  0.43244000  0.49952000  1.0
  C  C166  1  0.45393000  0.11789000  0.49273000  1.0
  C  C167  1  0.88775000  0.54976000  0.51068000  1.0
  C  C168  1  0.57454000  0.55606000  0.50441000  1.0
  C  C169  1  0.57923000  0.86599000  0.50493000  1.0
  C  C170  1  0.66968000  0.51099000  0.39980000  1.0
  C  C171  1  0.84127000  0.63832000  0.40565000  1.0
  C  C172  1  0.53994000  0.81854000  0.39933000  1.0
  C  C173  1  0.17877000  0.48259000  0.60610000  1.0
  C  C174  1  0.47827000  0.34411000  0.59228000  1.0
  C  C175  1  0.35310000  0.16663000  0.59545000  1.0
  Cl  Cl176  1  0.66856000  0.20475000  0.45678000  1.0
  Cl  Cl177  1  0.13302000  0.66527000  0.46841000  1.0
  Cl  Cl178  1  0.22463000  0.12207000  0.45940000  1.0
  Cl  Cl179  1  0.87743000  0.78425000  0.54291000  1.0
  Cl  Cl180  1  0.79892000  0.32436000  0.53607000  1.0
  Cl  Cl181  1  0.35081000  0.86168000  0.53230000  1.0
  O  O182  1  0.14205000  0.36210000  0.20199000  1.0
  O  O183  1  0.50804000  0.13360000  0.20647000  1.0
  O  O184  1  0.35427000  0.49558000  0.20812000  1.0
  O  O185  1  0.50360000  0.63211000  0.79833000  1.0
  O  O186  1  0.63844000  0.86373000  0.79111000  1.0
  O  O187  1  0.84940000  0.50170000  0.79260000  1.0
  O  O188  1  0.33238000  0.16273000  0.19454000  1.0
  O  O189  1  0.49944000  0.32104000  0.19645000  1.0
  O  O190  1  0.16264000  0.51446000  0.20051000  1.0
  O  O191  1  0.49367000  0.83262000  0.80405000  1.0
  O  O192  1  0.81753000  0.67747000  0.80293000  1.0
  O  O193  1  0.67772000  0.48148000  0.80114000  1.0
  O  O194  1  0.16619000  0.34670000  0.30802000  1.0
  O  O195  1  0.50171000  0.15689000  0.30116000  1.0
  O  O196  1  0.34811000  0.48521000  0.30203000  1.0
  O  O197  1  0.51060000  0.64171000  0.69370000  1.0
  O  O198  1  0.65472000  0.83509000  0.69655000  1.0
  O  O199  1  0.83152000  0.50822000  0.69822000  1.0
  O  O200  1  0.34379000  0.14556000  0.29462000  1.0
  O  O201  1  0.51421000  0.32869000  0.28949000  1.0
  O  O202  1  0.15367000  0.51410000  0.29618000  1.0
  O  O203  1  0.48674000  0.84374000  0.70299000  1.0
  O  O204  1  0.84022000  0.66561000  0.70956000  1.0
  O  O205  1  0.66798000  0.47632000  0.70600000  1.0
  O  O206  1  0.32578000  0.32460000  0.24917000  1.0
  O  O207  1  0.64879000  0.66947000  0.75052000  1.0
  O  O208  1  0.55950000  0.58363000  0.41691000  1.0
  O  O209  1  0.88476000  0.52819000  0.42323000  1.0
  O  O210  1  0.60895000  0.85968000  0.41769000  1.0
  O  O211  1  0.14496000  0.40808000  0.58726000  1.0
  O  O212  1  0.41172000  0.45467000  0.57515000  1.0
  O  O213  1  0.46557000  0.12530000  0.58056000  1.0
  O  O214  1  0.15186000  0.19508000  0.24840000  1.0
  O  O215  1  0.34513000  0.79832000  0.75165000  1.0
