# generated using pymatgen
data_Cu7H14(C10N9)2
_symmetry_space_group_name_H-M   'P 1'
_cell_length_a   8.34674000
_cell_length_b   9.40238000
_cell_length_c   9.72729000
_cell_angle_alpha   67.81880000
_cell_angle_beta   70.83560000
_cell_angle_gamma   81.12370000
_symmetry_Int_Tables_number   1
_chemical_formula_structural   Cu7H14(C10N9)2
_chemical_formula_sum   'Cu7 H14 C20 N18'
_cell_volume   667.31687577
_cell_formula_units_Z   1
loop_
 _symmetry_equiv_pos_site_id
 _symmetry_equiv_pos_as_xyz
  1  'x, y, z'
loop_
 _atom_site_type_symbol
 _atom_site_label
 _atom_site_symmetry_multiplicity
 _atom_site_fract_x
 _atom_site_fract_y
 _atom_site_fract_z
 _atom_site_occupancy
  Cu  Cu0  1  0.44220000  0.66920000  0.06636000  1.0
  Cu  Cu1  1  0.55779000  0.33080000  0.93365000  1.0
  Cu  Cu2  1  0.51994000  0.21964000  0.59360000  1.0
  Cu  Cu3  1  0.48007000  0.78038000  0.40639000  1.0
  Cu  Cu4  1  0.97695000  0.94865000  0.31798000  1.0
  Cu  Cu5  1  0.02304000  0.05133000  0.68205000  1.0
  Cu  Cu6  1  0.99999000  0.00002000  0.99995000  1.0
  H  H7  1  0.06401000  0.46720000  0.65498000  1.0
  H  H8  1  0.93599000  0.53279000  0.34503000  1.0
  H  H9  1  0.80059000  0.54113000  0.56880000  1.0
  H  H10  1  0.19941000  0.45886000  0.43121000  1.0
  H  H11  1  0.59571000  0.73611000  0.65142000  1.0
  H  H12  1  0.40428000  0.26388000  0.34859000  1.0
  H  H13  1  0.12179000  0.77141000  0.92834000  1.0
  H  H14  1  0.87820000  0.22858000  0.07167000  1.0
  H  H15  1  0.54201000  0.91853000  0.79449000  1.0
  H  H16  1  0.45799000  0.08147000  0.20550000  1.0
  H  H17  1  0.66700000  0.91438000  0.90092000  1.0
  H  H18  1  0.33300000  0.08562000  0.09908000  1.0
  H  H19  1  0.25750000  0.38764000  0.78079000  1.0
  H  H20  1  0.74250000  0.61236000  0.21920000  1.0
  C  C21  1  0.99432000  0.62562000  0.78137000  1.0
  C  C22  1  0.00568000  0.37438000  0.21862000  1.0
  C  C23  1  0.97329000  0.55344000  0.68785000  1.0
  C  C24  1  0.02671000  0.44656000  0.31215000  1.0
  C  C25  1  0.82649000  0.59538000  0.63994000  1.0
  C  C26  1  0.17351000  0.40462000  0.36007000  1.0
  C  C27  1  0.71073000  0.70230000  0.68739000  1.0
  C  C28  1  0.28927000  0.29770000  0.31261000  1.0
  C  C29  1  0.74197000  0.76288000  0.78783000  1.0
  C  C30  1  0.25803000  0.23712000  0.21216000  1.0
  C  C31  1  0.19068000  0.67133000  0.90499000  1.0
  C  C32  1  0.80931000  0.32866000  0.09501000  1.0
  C  C33  1  0.26037000  0.47575000  0.82614000  1.0
  C  C34  1  0.73963000  0.52426000  0.17386000  1.0
  C  C35  1  0.16158000  0.84108000  0.23760000  1.0
  C  C36  1  0.83842000  0.15889000  0.76245000  1.0
  C  C37  1  0.68867000  0.11264000  0.48795000  1.0
  C  C38  1  0.31133000  0.88736000  0.51205000  1.0
  C  C39  1  0.20482000  0.08065000  0.86192000  1.0
  C  C40  1  0.79520000  0.91937000  0.13805000  1.0
  N  N41  1  0.33312000  0.60930000  0.93654000  1.0
  N  N42  1  0.66687000  0.39070000  0.06347000  1.0
  N  N43  1  0.37785000  0.48472000  0.88575000  1.0
  N  N44  1  0.62215000  0.51528000  0.11425000  1.0
  N  N45  1  0.14082000  0.59164000  0.83474000  1.0
  N  N46  1  0.85918000  0.40836000  0.16526000  1.0
  N  N47  1  0.88461000  0.72754000  0.83122000  1.0
  N  N48  1  0.11540000  0.27246000  0.16877000  1.0
  N  N49  1  0.61883000  0.85140000  0.85895000  1.0
  N  N50  1  0.38117000  0.14860000  0.14104000  1.0
  N  N51  1  0.27976000  0.77507000  0.17903000  1.0
  N  N52  1  0.72023000  0.22491000  0.82099000  1.0
  N  N53  1  0.80000000  0.04787000  0.42095000  1.0
  N  N54  1  0.19999000  0.95213000  0.57904000  1.0
  N  N55  1  0.33394000  0.13232000  0.77079000  1.0
  N  N56  1  0.66607000  0.86770000  0.22920000  1.0
  N  N57  1  0.49955000  0.43318000  0.52142000  1.0
  N  N58  1  0.50047000  0.56683000  0.47858000  1.0
