# generated using pymatgen
data_CaH24C18(NO3)2
_symmetry_space_group_name_H-M   'P 1'
_cell_length_a   7.63596000
_cell_length_b   15.07900000
_cell_length_c   16.75490000
_cell_angle_alpha   90.00000000
_cell_angle_beta   99.04880000
_cell_angle_gamma   90.00000000
_symmetry_Int_Tables_number   1
_chemical_formula_structural   CaH24C18(NO3)2
_chemical_formula_sum   'Ca4 H96 C72 N8 O24'
_cell_volume   1905.19400221
_cell_formula_units_Z   4
loop_
 _symmetry_equiv_pos_site_id
 _symmetry_equiv_pos_as_xyz
  1  'x, y, z'
loop_
 _atom_site_type_symbol
 _atom_site_label
 _atom_site_symmetry_multiplicity
 _atom_site_fract_x
 _atom_site_fract_y
 _atom_site_fract_z
 _atom_site_occupancy
  Ca  Ca0  1  0.50496000  0.21406000  0.24947000  1.0
  Ca  Ca1  1  0.99504000  0.71407000  0.75053000  1.0
  Ca  Ca2  1  0.49504000  0.78594000  0.75053000  1.0
  Ca  Ca3  1  0.00496000  0.28594000  0.24947000  1.0
  H  H4  1  0.33268000  0.04501000  0.80056000  1.0
  H  H5  1  0.16732000  0.54501000  0.19944000  1.0
  H  H6  1  0.66731000  0.95500000  0.19944000  1.0
  H  H7  1  0.83268000  0.45499000  0.80056000  1.0
  H  H8  1  0.50769000  0.02581000  0.93576000  1.0
  H  H9  1  0.99231000  0.52581000  0.06424000  1.0
  H  H10  1  0.49230000  0.97419000  0.06424000  1.0
  H  H11  1  0.00769000  0.47419000  0.93576000  1.0
  H  H12  1  0.31681000  0.25902000  0.02105000  1.0
  H  H13  1  0.18319000  0.75902000  0.97895000  1.0
  H  H14  1  0.68318000  0.74098000  0.97895000  1.0
  H  H15  1  0.81681000  0.24098000  0.02105000  1.0
  H  H16  1  0.13339000  0.29029000  0.88631000  1.0
  H  H17  1  0.36660000  0.79029000  0.11369000  1.0
  H  H18  1  0.86660000  0.70971000  0.11369000  1.0
  H  H19  1  0.63339000  0.20971000  0.88631000  1.0
  H  H20  1  0.17721000  0.16862000  0.70156000  1.0
  H  H21  1  0.32279000  0.66862000  0.29844000  1.0
  H  H22  1  0.82279000  0.83138000  0.29844000  1.0
  H  H23  1  0.67721000  0.33137000  0.70156000  1.0
  H  H24  1  0.06707000  0.25588000  0.74398000  1.0
  H  H25  1  0.43294000  0.75587000  0.25602000  1.0
  H  H26  1  0.93293000  0.74413000  0.25602000  1.0
  H  H27  1  0.56706000  0.24412000  0.74398000  1.0
  H  H28  1  0.96915000  0.05853000  0.75066000  1.0
  H  H29  1  0.53085000  0.55853000  0.24934000  1.0
  H  H30  1  0.03085000  0.94147000  0.24934000  1.0
  H  H31  1  0.46915000  0.44147000  0.75066000  1.0
  H  H32  1  0.86001000  0.14547000  0.79197000  1.0
  H  H33  1  0.63999000  0.64547000  0.20803000  1.0
  H  H34  1  0.13998000  0.85453000  0.20803000  1.0
  H  H35  1  0.36002000  0.35453000  0.79197000  1.0
  H  H36  1  0.94754000  0.24567000  0.61245000  1.0
  H  H37  1  0.55245000  0.74567000  0.38755000  1.0
  H  H38  1  0.05245000  0.75433000  0.38754000  1.0
  H  H39  1  0.44754000  0.25433000  0.61245000  1.0
  H  H40  1  0.73673000  0.24953000  0.48295000  1.0
  H  H41  1  0.76327000  0.74953000  0.51705000  1.0
  H  H42  1  0.26327000  0.75046000  0.51705000  1.0
  H  H43  1  0.23673000  0.25047000  0.48295000  1.0
  H  H44  1  0.43799000  0.04513000  0.55715000  1.0
  H  H45  1  0.06201000  0.54513000  0.44285000  1.0
  H  H46  1  0.56201000  0.95487000  0.44285000  1.0
  H  H47  1  0.93799000  0.45487000  0.55715000  1.0
  H  H48  1  0.63520000  0.03082000  0.68835000  1.0
  H  H49  1  0.86480000  0.53083000  0.31165000  1.0
  H  H50  1  0.36480000  0.96918000  0.31165000  1.0
  H  H51  1  0.13520000  0.46918000  0.68835000  1.0
  H  H52  1  0.61101000  0.50043000  0.13920000  1.0
  H  H53  1  0.88898000  0.00044000  0.86080000  1.0
  H  H54  1  0.38899000  0.49957000  0.86080000  1.0
  H  H55  1  0.11102000  0.99957000  0.13920000  1.0
  H  H56  1  0.75197000  0.44018000  0.08611000  1.0
  H  H57  1  0.74802000  0.94018000  0.91389000  1.0
  H  H58  1  0.24803000  0.55982000  0.91389000  1.0
  H  H59  1  0.25198000  0.05982000  0.08611000  1.0
  H  H60  1  0.65247000  0.54372000  0.96414000  1.0
  H  H61  1  0.84753000  0.04372000  0.03586000  1.0
  H  H62  1  0.34753000  0.45628000  0.03586000  1.0
  H  H63  1  0.15247000  0.95628000  0.96414000  1.0
  H  H64  1  0.50875000  0.59959000  0.01971000  1.0
  H  H65  1  0.99124000  0.09959000  0.98029000  1.0
  H  H66  1  0.49124000  0.40041000  0.98029000  1.0
  H  H67  1  0.00876000  0.90041000  0.01971000  1.0
  H  H68  1  0.38411000  0.50102000  0.35783000  1.0
  H  H69  1  0.11590000  0.00102000  0.64217000  1.0
  H  H70  1  0.61590000  0.49898000  0.64217000  1.0
  H  H71  1  0.88410000  0.99898000  0.35783000  1.0
  H  H72  1  0.25627000  0.43760000  0.41471000  1.0
  H  H73  1  0.24374000  0.93760000  0.58529000  1.0
  H  H74  1  0.74374000  0.56240000  0.58529000  1.0
  H  H75  1  0.75626000  0.06240000  0.41471000  1.0
  H  H76  1  0.65666000  0.47475000  0.45679000  1.0
  H  H77  1  0.84335000  0.97475000  0.54321000  1.0
  H  H78  1  0.34335000  0.52524000  0.54321000  1.0
  H  H79  1  0.15666000  0.02524000  0.45679000  1.0
  H  H80  1  0.54356000  0.40088000  0.51195000  1.0
  H  H81  1  0.95645000  0.90088000  0.48805000  1.0
  H  H82  1  0.45645000  0.59912000  0.48805000  1.0
  H  H83  1  0.04356000  0.09912000  0.51195000  1.0
  H  H84  1  0.71217000  0.86292000  0.64291000  1.0
  H  H85  1  0.78783000  0.36291000  0.35709000  1.0
  H  H86  1  0.28784000  0.13708000  0.35709000  1.0
  H  H87  1  0.21216000  0.63709000  0.64291000  1.0
  H  H88  1  0.52609000  0.86294000  0.58690000  1.0
  H  H89  1  0.97391000  0.36294000  0.41310000  1.0
  H  H90  1  0.47392000  0.13706000  0.41310000  1.0
  H  H91  1  0.02608000  0.63706000  0.58690000  1.0
  H  H92  1  0.28002000  0.86459000  0.85837000  1.0
  H  H93  1  0.21998000  0.36459000  0.14162000  1.0
  H  H94  1  0.71998000  0.13541000  0.14162000  1.0
  H  H95  1  0.78002000  0.63542000  0.85838000  1.0
  H  H96  1  0.46768000  0.86955000  0.91371000  1.0
  H  H97  1  0.03232000  0.36955000  0.08629000  1.0
  H  H98  1  0.53232000  0.13045000  0.08629000  1.0
  H  H99  1  0.96768000  0.63045000  0.91371000  1.0
  C  C100  1  0.32494000  0.09555000  0.84650000  1.0
  C  C101  1  0.17506000  0.59555000  0.15350000  1.0
  C  C102  1  0.67505000  0.90445000  0.15349000  1.0
  C  C103  1  0.82494000  0.40444000  0.84651000  1.0
  C  C104  1  0.42313000  0.08405000  0.92324000  1.0
  C  C105  1  0.07688000  0.58405000  0.07676000  1.0
  C  C106  1  0.57687000  0.91595000  0.07676000  1.0
  C  C107  1  0.92312000  0.41595000  0.92324000  1.0
  C  C108  1  0.31611000  0.21365000  0.97010000  1.0
  C  C109  1  0.18389000  0.71365000  0.02990000  1.0
  C  C110  1  0.68388000  0.78635000  0.02990000  1.0
  C  C111  1  0.81611000  0.28635000  0.97010000  1.0
  C  C112  1  0.21491000  0.23064000  0.89492000  1.0
  C  C113  1  0.28509000  0.73064000  0.10508000  1.0
  C  C114  1  0.78508000  0.76936000  0.10508000  1.0
  C  C115  1  0.71491000  0.26936000  0.89492000  1.0
  C  C116  1  0.21705000  0.17075000  0.83120000  1.0
  C  C117  1  0.28295000  0.67075000  0.16880000  1.0
  C  C118  1  0.78295000  0.82925000  0.16879000  1.0
  C  C119  1  0.71705000  0.32925000  0.83120000  1.0
  C  C120  1  0.10249000  0.18527000  0.75064000  1.0
  C  C121  1  0.39751000  0.68527000  0.24936000  1.0
  C  C122  1  0.89750000  0.81473000  0.24936000  1.0
  C  C123  1  0.60249000  0.31473000  0.75064000  1.0
  C  C124  1  0.93323000  0.12908000  0.74216000  1.0
  C  C125  1  0.56677000  0.62908000  0.25784000  1.0
  C  C126  1  0.06676000  0.87092000  0.25784000  1.0
  C  C127  1  0.43324000  0.37092000  0.74216000  1.0
  C  C128  1  0.80973000  0.13831000  0.66296000  1.0
  C  C129  1  0.69026000  0.63831000  0.33704000  1.0
  C  C130  1  0.19026000  0.86169000  0.33704000  1.0
  C  C131  1  0.30974000  0.36169000  0.66296000  1.0
  C  C132  1  0.83577000  0.20005000  0.60357000  1.0
  C  C133  1  0.66424000  0.70005000  0.39644000  1.0
  C  C134  1  0.16423000  0.79995000  0.39643000  1.0
  C  C135  1  0.33576000  0.29995000  0.60356000  1.0
  C  C136  1  0.71868000  0.20256000  0.53068000  1.0
  C  C137  1  0.78132000  0.70256000  0.46932000  1.0
  C  C138  1  0.28132000  0.79744000  0.46932000  1.0
  C  C139  1  0.21868000  0.29744000  0.53068000  1.0
  C  C140  1  0.55179000  0.08929000  0.57191000  1.0
  C  C141  1  0.94821000  0.58928000  0.42809000  1.0
  C  C142  1  0.44821000  0.91071000  0.42809000  1.0
  C  C143  1  0.05179000  0.41072000  0.57191000  1.0
  C  C144  1  0.66177000  0.08237000  0.64616000  1.0
  C  C145  1  0.83824000  0.58236000  0.35384000  1.0
  C  C146  1  0.33823000  0.91763000  0.35384000  1.0
  C  C147  1  0.16176000  0.41764000  0.64616000  1.0
  C  C148  1  0.58434000  0.36130000  0.14723000  1.0
  C  C149  1  0.91564000  0.86131000  0.85277000  1.0
  C  C150  1  0.41565000  0.63870000  0.85277000  1.0
  C  C151  1  0.08436000  0.13870000  0.14723000  1.0
  C  C152  1  0.61519000  0.44315000  0.09859000  1.0
  C  C153  1  0.88480000  0.94316000  0.90141000  1.0
  C  C154  1  0.38481000  0.55685000  0.90141000  1.0
  C  C155  1  0.11519000  0.05685000  0.09859000  1.0
  C  C156  1  0.48325000  0.45688000  0.02139000  1.0
  C  C157  1  0.01674000  0.95688000  0.97861000  1.0
  C  C158  1  0.51674000  0.54312000  0.97861000  1.0
  C  C159  1  0.98326000  0.04312000  0.02139000  1.0
  C  C160  1  0.42426000  0.36210000  0.35150000  1.0
  C  C161  1  0.07575000  0.86210000  0.64850000  1.0
  C  C162  1  0.57574000  0.63790000  0.64850000  1.0
  C  C163  1  0.92427000  0.13790000  0.35150000  1.0
  C  C164  1  0.39063000  0.44406000  0.39966000  1.0
  C  C165  1  0.10938000  0.94407000  0.60034000  1.0
  C  C166  1  0.60937000  0.55593000  0.60034000  1.0
  C  C167  1  0.89063000  0.05593000  0.39966000  1.0
  C  C168  1  0.52667000  0.46149000  0.47486000  1.0
  C  C169  1  0.97333000  0.96149000  0.52514000  1.0
  C  C170  1  0.47333000  0.53851000  0.52515000  1.0
  C  C171  1  0.02667000  0.03851000  0.47485000  1.0
  N  N172  1  0.41941000  0.14131000  0.98445000  1.0
  N  N173  1  0.08059000  0.64131000  0.01555000  1.0
  N  N174  1  0.58058000  0.85869000  0.01555000  1.0
  N  N175  1  0.91941000  0.35869000  0.98445000  1.0
  N  N176  1  0.57913000  0.14765000  0.51440000  1.0
  N  N177  1  0.92087000  0.64764000  0.48559000  1.0
  N  N178  1  0.42087000  0.85235000  0.48559000  1.0
  N  N179  1  0.07913000  0.35235000  0.51441000  1.0
  O  O180  1  0.43060000  0.32622000  0.13928000  1.0
  O  O181  1  0.06939000  0.82622000  0.86072000  1.0
  O  O182  1  0.56940000  0.67378000  0.86072000  1.0
  O  O183  1  0.93060000  0.17378000  0.13928000  1.0
  O  O184  1  0.71322000  0.33016000  0.19662000  1.0
  O  O185  1  0.78677000  0.83017000  0.80338000  1.0
  O  O186  1  0.28679000  0.66984000  0.80338000  1.0
  O  O187  1  0.21321000  0.16984000  0.19662000  1.0
  O  O188  1  0.29624000  0.33071000  0.30173000  1.0
  O  O189  1  0.20378000  0.83071000  0.69827000  1.0
  O  O190  1  0.70375000  0.66929000  0.69827000  1.0
  O  O191  1  0.79624000  0.16929000  0.30173000  1.0
  O  O192  1  0.57785000  0.32699000  0.36073000  1.0
  O  O193  1  0.92216000  0.82700000  0.63927000  1.0
  O  O194  1  0.42215000  0.67301000  0.63926000  1.0
  O  O195  1  0.07785000  0.17301000  0.36074000  1.0
  O  O196  1  0.58396000  0.87343000  0.64404000  1.0
  O  O197  1  0.91604000  0.37344000  0.35596000  1.0
  O  O198  1  0.41606000  0.12656000  0.35596000  1.0
  O  O199  1  0.08395000  0.62657000  0.64404000  1.0
  O  O200  1  0.40740000  0.87662000  0.85657000  1.0
  O  O201  1  0.09260000  0.37662000  0.14343000  1.0
  O  O202  1  0.59261000  0.12338000  0.14343000  1.0
  O  O203  1  0.90740000  0.62338000  0.85657000  1.0
