# generated using pymatgen
data_V2CuH10C15(NO2)3
_symmetry_space_group_name_H-M   'P 1'
_cell_length_a   7.91100000
_cell_length_b   8.41705000
_cell_length_c   12.59780000
_cell_angle_alpha   83.71310000
_cell_angle_beta   77.50280000
_cell_angle_gamma   83.00570000
_symmetry_Int_Tables_number   1
_chemical_formula_structural   V2CuH10C15(NO2)3
_chemical_formula_sum   'V4 Cu2 H20 C30 N6 O12'
_cell_volume   809.88480161
_cell_formula_units_Z   2
loop_
 _symmetry_equiv_pos_site_id
 _symmetry_equiv_pos_as_xyz
  1  'x, y, z'
loop_
 _atom_site_type_symbol
 _atom_site_label
 _atom_site_symmetry_multiplicity
 _atom_site_fract_x
 _atom_site_fract_y
 _atom_site_fract_z
 _atom_site_occupancy
  V  V0  1  0.08138000  0.14621000  0.61578000  1.0
  V  V1  1  0.91857000  0.85380000  0.38422000  1.0
  V  V2  1  0.81063000  0.85323000  0.66042000  1.0
  V  V3  1  0.18935000  0.14679000  0.33959000  1.0
  Cu  Cu4  1  0.40239000  0.08095000  0.72528000  1.0
  Cu  Cu5  1  0.59763000  0.91904000  0.27472000  1.0
  H  H6  1  0.19294000  0.79282000  0.80546000  1.0
  H  H7  1  0.80707000  0.20720000  0.19453000  1.0
  H  H8  1  0.06782000  0.66143000  0.99004000  1.0
  H  H9  1  0.93219000  0.33859000  0.00995000  1.0
  H  H10  1  0.08468000  0.79203000  0.15739000  1.0
  H  H11  1  0.91532000  0.20797000  0.84260000  1.0
  H  H12  1  0.22695000  0.04736000  0.13326000  1.0
  H  H13  1  0.77307000  0.95263000  0.86674000  1.0
  H  H14  1  0.32893000  0.28983000  0.08899000  1.0
  H  H15  1  0.67107000  0.71016000  0.91101000  1.0
  H  H16  1  0.63975000  0.55884000  0.81522000  1.0
  H  H17  1  0.36028000  0.44115000  0.18478000  1.0
  H  H18  1  0.78076000  0.52853000  0.64111000  1.0
  H  H19  1  0.21924000  0.47148000  0.35888000  1.0
  H  H20  1  0.85622000  0.51673000  0.43775000  1.0
  H  H21  1  0.14375000  0.48328000  0.56224000  1.0
  H  H22  1  0.71533000  0.32520000  0.35453000  1.0
  H  H23  1  0.28463000  0.67479000  0.64548000  1.0
  H  H24  1  0.50606000  0.15108000  0.47527000  1.0
  H  H25  1  0.49393000  0.84891000  0.52474000  1.0
  C  C26  1  0.20168000  0.84178000  0.88051000  1.0
  C  C27  1  0.79834000  0.15822000  0.11949000  1.0
  C  C28  1  0.13117000  0.77107000  0.98340000  1.0
  C  C29  1  0.86884000  0.22893000  0.01660000  1.0
  C  C30  1  0.14062000  0.84405000  0.07588000  1.0
  C  C31  1  0.85939000  0.15592000  0.92411000  1.0
  C  C32  1  0.22060000  0.98597000  0.06278000  1.0
  C  C33  1  0.77943000  0.01402000  0.93722000  1.0
  C  C34  1  0.29027000  0.04973000  0.95784000  1.0
  C  C35  1  0.70977000  0.95024000  0.04216000  1.0
  C  C36  1  0.38145000  0.19658000  0.93174000  1.0
  C  C37  1  0.61859000  0.80342000  0.06827000  1.0
  C  C38  1  0.39492000  0.30717000  0.00360000  1.0
  C  C39  1  0.60510000  0.69284000  0.99640000  1.0
  C  C40  1  0.49008000  0.44026000  0.96304000  1.0
  C  C41  1  0.50993000  0.55972000  0.03696000  1.0
  C  C42  1  0.56528000  0.45826000  0.85090000  1.0
  C  C43  1  0.43475000  0.54174000  0.14911000  1.0
  C  C44  1  0.54288000  0.34522000  0.78303000  1.0
  C  C45  1  0.45713000  0.65479000  0.21698000  1.0
  C  C46  1  0.60091000  0.34928000  0.66392000  1.0
  C  C47  1  0.39910000  0.65072000  0.33608000  1.0
  C  C48  1  0.71926000  0.44934000  0.60175000  1.0
  C  C49  1  0.28072000  0.55066000  0.39824000  1.0
  C  C50  1  0.76265000  0.44133000  0.48884000  1.0
  C  C51  1  0.23732000  0.55867000  0.51114000  1.0
  C  C52  1  0.68446000  0.33537000  0.44205000  1.0
  C  C53  1  0.31553000  0.66463000  0.55795000  1.0
  C  C54  1  0.56797000  0.23671000  0.50909000  1.0
  C  C55  1  0.43202000  0.76329000  0.49091000  1.0
  N  N56  1  0.27966000  0.97678000  0.86873000  1.0
  N  N57  1  0.72035000  0.02320000  0.13127000  1.0
  N  N58  1  0.45475000  0.21847000  0.82523000  1.0
  N  N59  1  0.54526000  0.78150000  0.17476000  1.0
  N  N60  1  0.52892000  0.24291000  0.61721000  1.0
  N  N61  1  0.47107000  0.75709000  0.38277000  1.0
  O  O62  1  0.59343000  0.87586000  0.69358000  1.0
  O  O63  1  0.40655000  0.12413000  0.30643000  1.0
  O  O64  1  0.25596000  0.01678000  0.63667000  1.0
  O  O65  1  0.74400000  0.98324000  0.36333000  1.0
  O  O66  1  0.88676000  0.04699000  0.66007000  1.0
  O  O67  1  0.11322000  0.95303000  0.33993000  1.0
  O  O68  1  0.11237000  0.21747000  0.47413000  1.0
  O  O69  1  0.88759000  0.78254000  0.52589000  1.0
  O  O70  1  0.06416000  0.29822000  0.68953000  1.0
  O  O71  1  0.93582000  0.70181000  0.31047000  1.0
  O  O72  1  0.88150000  0.72383000  0.75330000  1.0
  O  O73  1  0.11848000  0.27620000  0.24670000  1.0
