# generated using pymatgen
data_Zr3H15C32O18F5
_symmetry_space_group_name_H-M   'P 1'
_cell_length_a   14.82984649
_cell_length_b   14.83233638
_cell_length_c   14.87580000
_cell_angle_alpha   119.87665695
_cell_angle_beta   90.01740196
_cell_angle_gamma   119.97921973
_symmetry_Int_Tables_number   1
_chemical_formula_structural   Zr3H15C32O18F5
_chemical_formula_sum   'Zr6 H30 C64 O36 F10'
_cell_volume   2318.40398017
_cell_formula_units_Z   2
loop_
 _symmetry_equiv_pos_site_id
 _symmetry_equiv_pos_as_xyz
  1  'x, y, z'
loop_
 _atom_site_type_symbol
 _atom_site_label
 _atom_site_symmetry_multiplicity
 _atom_site_fract_x
 _atom_site_fract_y
 _atom_site_fract_z
 _atom_site_occupancy
  Zr  Zr0  1  0.11904000  0.50232000  0.12004000  1.0
  Zr  Zr1  1  0.87856000  0.49896000  0.88077000  1.0
  Zr  Zr2  1  0.88087000  0.26011000  0.87904000  1.0
  Zr  Zr3  1  0.11500000  0.73672000  0.11812000  1.0
  Zr  Zr4  1  0.11800000  0.49914000  0.88083000  1.0
  Zr  Zr5  1  0.87742000  0.49382000  0.11654000  1.0
  H  H6  1  0.09452000  0.31319000  0.90408000  1.0
  H  H7  1  0.08920000  0.68511000  0.90448000  1.0
  H  H8  1  0.71728000  0.30824000  0.90366000  1.0
  H  H9  1  0.08984000  0.68515000  0.27970000  1.0
  H  H10  1  0.41497000  0.49977000  0.78484000  1.0
  H  H11  1  0.33255000  0.33819000  0.74255000  1.0
  H  H12  1  0.50122000  0.33541000  0.73971000  1.0
  H  H13  1  0.58355000  0.49827000  0.78538000  1.0
  H  H14  1  0.76173000  0.46323000  0.39658000  1.0
  H  H15  1  0.86938000  0.62845000  0.48228000  1.0
  H  H16  1  0.86358000  0.62120000  0.64828000  1.0
  H  H17  1  0.75942000  0.45423000  0.56175000  1.0
  H  H18  1  0.48280000  0.10440000  0.25915000  1.0
  H  H19  1  0.40803000  0.13711000  0.20082000  1.0
  H  H20  1  0.58603000  0.30323000  0.20536000  1.0
  H  H21  1  0.65917000  0.26312000  0.25619000  1.0
  H  H22  1  0.13131000  0.10687000  0.34336000  1.0
  H  H23  1  0.22455000  0.11458000  0.42676000  1.0
  H  H24  1  0.22957000  0.28930000  0.59598000  1.0
  H  H25  1  0.13444000  0.27940000  0.51271000  1.0
  H  H26  1  0.19122000  0.25899000  0.99292000  1.0
  H  H27  1  0.34782000  0.24241000  0.97267000  1.0
  H  H28  1  0.18757000  0.92128000  0.99237000  1.0
  H  H29  1  0.34524000  0.07176000  0.97165000  1.0
  H  H30  1  0.44909000  0.70211000  0.37107000  1.0
  H  H31  1  0.37084000  0.71647000  0.46182000  1.0
  H  H32  1  0.54709000  0.88207000  0.62422000  1.0
  H  H33  1  0.62528000  0.87141000  0.53319000  1.0
  H  H34  1  0.89569000  0.89620000  0.16811000  1.0
  H  H35  1  0.94722000  0.22428000  0.16080000  1.0
  C  C36  1  0.30630000  0.51004000  0.00668000  1.0
  C  C37  1  0.99562000  0.49307000  0.69537000  1.0
  C  C38  1  0.69944000  0.50316000  0.00386000  1.0
  C  C39  1  0.99312000  0.48931000  0.29701000  1.0
  C  C40  1  0.00089000  0.20057000  0.00624000  1.0
  C  C41  1  0.30338000  0.80580000  0.29830000  1.0
  C  C42  1  0.99374000  0.80348000  0.00392000  1.0
  C  C43  1  0.70340000  0.19939000  0.69141000  1.0
  C  C44  1  0.99416000  0.19630000  0.69183000  1.0
  C  C45  1  0.70048000  0.19000000  0.99658000  1.0
  C  C46  1  0.98599000  0.79382000  0.29324000  1.0
  C  C47  1  0.29991000  0.80013000  0.99921000  1.0
  C  C48  1  0.40769000  0.51250000  0.00878000  1.0
  C  C49  1  0.60191000  0.50805000  0.00691000  1.0
  C  C50  1  0.44087000  0.47660000  0.91627000  1.0
  C  C51  1  0.57029000  0.54600000  0.10142000  1.0
  C  C52  1  0.53359000  0.47421000  0.91525000  1.0
  C  C53  1  0.47675000  0.54777000  0.10210000  1.0
  C  C54  1  0.41163000  0.43139000  0.79740000  1.0
  C  C55  1  0.51727000  0.42933000  0.79644000  1.0
  C  C56  1  0.99230000  0.48632000  0.39555000  1.0
  C  C57  1  0.99447000  0.48903000  0.59337000  1.0
  C  C58  1  0.92462000  0.50625000  0.45696000  1.0
  C  C59  1  0.06370000  0.46987000  0.53251000  1.0
  C  C60  1  0.92483000  0.50604000  0.55064000  1.0
  C  C61  1  0.06138000  0.46652000  0.43673000  1.0
  C  C62  1  0.83938000  0.53563000  0.46585000  1.0
  C  C63  1  0.83757000  0.53196000  0.57031000  1.0
  C  C64  1  0.39781000  0.89786000  0.99472000  1.0
  C  C65  1  0.59742000  0.08973000  0.99322000  1.0
  C  C66  1  0.46223000  0.02650000  0.08252000  1.0
  C  C67  1  0.53121000  0.96109000  0.90271000  1.0
  C  C68  1  0.55784000  0.11769000  0.08174000  1.0
  C  C69  1  0.43519000  0.86878000  0.90335000  1.0
  C  C70  1  0.47344000  0.12162000  0.19726000  1.0
  C  C71  1  0.58362000  0.22427000  0.19729000  1.0
  C  C72  1  0.98164000  0.89278000  0.38978000  1.0
  C  C73  1  0.98708000  0.09352000  0.58764000  1.0
  C  C74  1  0.05527000  0.02210000  0.43395000  1.0
  C  C75  1  0.91018000  0.96278000  0.54199000  1.0
  C  C76  1  0.05816000  0.11804000  0.52828000  1.0
  C  C77  1  0.90776000  0.86650000  0.44728000  1.0
  C  C78  1  0.15084000  0.11454000  0.41921000  1.0
  C  C79  1  0.15357000  0.22333000  0.52544000  1.0
  C  C80  1  0.00220000  0.10217000  0.01119000  1.0
  C  C81  1  0.09355000  0.09382000  0.99769000  1.0
  C  C82  1  0.91368000  0.02014000  0.02638000  1.0
  C  C83  1  0.18727000  0.18119000  0.98779000  1.0
  C  C84  1  0.27583000  0.17310000  0.97821000  1.0
  C  C85  1  0.99702000  0.90788000  0.00628000  1.0
  C  C86  1  0.90874000  0.91769000  0.01842000  1.0
  C  C87  1  0.09225000  0.99652000  0.99788000  1.0
  C  C88  1  0.18516000  0.99124000  0.98810000  1.0
  C  C89  1  0.27454000  0.07711000  0.97807000  1.0
  C  C90  1  0.40581000  0.90686000  0.39587000  1.0
  C  C91  1  0.60582000  0.10169000  0.58902000  1.0
  C  C92  1  0.45576000  0.87837000  0.44762000  1.0
  C  C93  1  0.55680000  0.13165000  0.53677000  1.0
  C  C94  1  0.55154000  0.97130000  0.53936000  1.0
  C  C95  1  0.46066000  0.03831000  0.44469000  1.0
  C  C96  1  0.44443000  0.76989000  0.44539000  1.0
  C  C97  1  0.55421000  0.87501000  0.54792000  1.0
  C  C98  1  0.80801000  0.81745000  0.02135000  1.0
  C  C99  1  0.82698000  0.04349000  0.05749000  1.0
  O  O100  1  0.26481000  0.50839000  0.08161000  1.0
  O  O101  1  0.92068000  0.49825000  0.73519000  1.0
  O  O102  1  0.73696000  0.50226000  0.92633000  1.0
  O  O103  1  0.07099000  0.49311000  0.25860000  1.0
  O  O104  1  0.92687000  0.15945000  0.92605000  1.0
  O  O105  1  0.26090000  0.83987000  0.25801000  1.0
  O  O106  1  0.06941000  0.84038000  0.08078000  1.0
  O  O107  1  0.73916000  0.15871000  0.72950000  1.0
  O  O108  1  0.07421000  0.31081000  0.73127000  1.0
  O  O109  1  0.73854000  0.30464000  0.07471000  1.0
  O  O110  1  0.91416000  0.67786000  0.25578000  1.0
  O  O111  1  0.26140000  0.68391000  0.92675000  1.0
  O  O112  1  0.74240000  0.15598000  0.92196000  1.0
  O  O113  1  0.06445000  0.83505000  0.25691000  1.0
  O  O114  1  0.26173000  0.84047000  0.07585000  1.0
  O  O115  1  0.92073000  0.16217000  0.73503000  1.0
  O  O116  1  0.07539000  0.31651000  0.08360000  1.0
  O  O117  1  0.74197000  0.31590000  0.73487000  1.0
  O  O118  1  0.91782000  0.68922000  0.92666000  1.0
  O  O119  1  0.26489000  0.69114000  0.26274000  1.0
  O  O120  1  0.91651000  0.49053000  0.25984000  1.0
  O  O121  1  0.26623000  0.50536000  0.92730000  1.0
  O  O122  1  0.07147000  0.49337000  0.73615000  1.0
  O  O123  1  0.73609000  0.49612000  0.07602000  1.0
  O  O124  1  0.06383000  0.63234000  0.20007000  1.0
  O  O125  1  0.79726000  0.36152000  0.93052000  1.0
  O  O126  1  0.06368000  0.63398000  0.93328000  1.0
  O  O127  1  0.06734000  0.36593000  0.93289000  1.0
  O  O128  1  0.94969000  0.40090000  0.85160000  1.0
  O  O129  1  0.14629000  0.59908000  0.04921000  1.0
  O  O130  1  0.94699000  0.59561000  0.04822000  1.0
  O  O131  1  0.95031000  0.39891000  0.04778000  1.0
  O  O132  1  0.82105000  0.82438000  0.11648000  1.0
  O  O133  1  0.72203000  0.73343000  0.94578000  1.0
  O  O134  1  0.86646000  0.16802000  0.13550000  1.0
  O  O135  1  0.72863000  0.96167000  0.02185000  1.0
  F  F136  1  0.63066000  0.58576000  0.19754000  1.0
  F  F137  1  0.45699000  0.58806000  0.19880000  1.0
  F  F138  1  0.13620000  0.45224000  0.56287000  1.0
  F  F139  1  0.12901000  0.44121000  0.38454000  1.0
  F  F140  1  0.55605000  0.92021000  0.80912000  1.0
  F  F141  1  0.37849000  0.74985000  0.80998000  1.0
  F  F142  1  0.83507000  0.92219000  0.58839000  1.0
  F  F143  1  0.83156000  0.74646000  0.41564000  1.0
  F  F144  1  0.59978000  0.25335000  0.57321000  1.0
  F  F145  1  0.42258000  0.08226000  0.40527000  1.0
