# generated using pymatgen
data_ZnH16C19N4O5
_symmetry_space_group_name_H-M   'P 1'
_cell_length_a   5.69104000
_cell_length_b   9.97291000
_cell_length_c   15.85050000
_cell_angle_alpha   98.44900000
_cell_angle_beta   100.03600000
_cell_angle_gamma   102.82100000
_symmetry_Int_Tables_number   1
_chemical_formula_structural   ZnH16C19N4O5
_chemical_formula_sum   'Zn2 H32 C38 N8 O10'
_cell_volume   847.47179988
_cell_formula_units_Z   2
loop_
 _symmetry_equiv_pos_site_id
 _symmetry_equiv_pos_as_xyz
  1  'x, y, z'
loop_
 _atom_site_type_symbol
 _atom_site_label
 _atom_site_symmetry_multiplicity
 _atom_site_fract_x
 _atom_site_fract_y
 _atom_site_fract_z
 _atom_site_occupancy
  Zn  Zn0  1  0.63957000  0.08895000  0.66216000  1.0
  Zn  Zn1  1  0.36044000  0.91106000  0.33784000  1.0
  H  H2  1  0.17219000  0.13825000  0.59794000  1.0
  H  H3  1  0.82781000  0.86175000  0.40206000  1.0
  H  H4  1  0.31604000  0.29191000  0.72544000  1.0
  H  H5  1  0.68398000  0.70809000  0.27455000  1.0
  H  H6  1  0.10691000  0.38977000  0.52117000  1.0
  H  H7  1  0.89308000  0.61024000  0.47883000  1.0
  H  H8  1  0.32295000  0.37919000  0.61114000  1.0
  H  H9  1  0.67704000  0.62082000  0.38886000  1.0
  H  H10  1  0.60645000  0.43830000  0.00307000  1.0
  H  H11  1  0.39353000  0.56168000  0.99692000  1.0
  H  H12  1  0.33902000  0.87287000  0.81708000  1.0
  H  H13  1  0.66095000  0.12710000  0.18292000  1.0
  H  H14  1  0.27815000  0.60485000  0.69371000  1.0
  H  H15  1  0.72187000  0.39516000  0.30628000  1.0
  H  H16  1  0.06064000  0.61756000  0.60519000  1.0
  H  H17  1  0.93939000  0.38246000  0.39481000  1.0
  H  H18  1  0.37226000  0.01177000  0.96685000  1.0
  H  H19  1  0.62771000  0.98821000  0.03315000  1.0
  H  H20  1  0.30467000  0.44309000  0.86503000  1.0
  H  H21  1  0.69530000  0.55690000  0.13497000  1.0
  H  H22  1  0.60178000  0.61863000  0.60262000  1.0
  H  H23  1  0.39824000  0.38138000  0.39738000  1.0
  H  H24  1  0.38848000  0.63189000  0.51207000  1.0
  H  H25  1  0.61156000  0.36812000  0.48793000  1.0
  H  H26  1  0.04076000  0.90549000  0.69161000  1.0
  H  H27  1  0.95925000  0.09451000  0.30840000  1.0
  H  H28  1  0.12268000  0.42472000  0.22217000  1.0
  H  H29  1  0.87729000  0.57526000  0.77784000  1.0
  H  H30  1  0.41486000  0.26921000  0.20790000  1.0
  H  H31  1  0.58511000  0.73077000  0.79210000  1.0
  H  H32  1  0.32732000  0.11128000  0.52361000  1.0
  H  H33  1  0.67269000  0.88872000  0.47639000  1.0
  C  C34  1  0.09153000  0.11279000  0.92171000  1.0
  C  C35  1  0.90846000  0.88721000  0.07828000  1.0
  C  C36  1  0.92274000  0.12056000  0.84719000  1.0
  C  C37  1  0.07724000  0.87943000  0.15281000  1.0
  C  C38  1  0.94391000  0.28786000  0.01297000  1.0
  C  C39  1  0.05608000  0.71214000  0.98703000  1.0
  C  C40  1  0.75856000  0.21175000  0.85443000  1.0
  C  C41  1  0.24142000  0.78826000  0.14557000  1.0
  C  C42  1  0.44262000  0.29508000  0.78602000  1.0
  C  C43  1  0.55740000  0.70493000  0.21398000  1.0
  C  C44  1  0.76746000  0.29339000  0.93613000  1.0
  C  C45  1  0.23256000  0.70660000  0.06387000  1.0
  C  C46  1  0.10646000  0.19970000  0.00548000  1.0
  C  C47  1  0.89353000  0.80028000  0.99452000  1.0
  C  C48  1  0.16032000  0.41981000  0.59289000  1.0
  C  C49  1  0.83968000  0.58020000  0.40710000  1.0
  C  C50  1  0.49985000  0.81260000  0.61570000  1.0
  C  C51  1  0.50016000  0.18741000  0.38431000  1.0
  C  C52  1  0.94611000  0.34199000  0.62762000  1.0
  C  C53  1  0.05390000  0.65803000  0.37239000  1.0
  C  C54  1  0.60079000  0.37735000  0.93982000  1.0
  C  C55  1  0.39921000  0.62265000  0.06018000  1.0
  C  C56  1  0.22278000  0.94343000  0.82854000  1.0
  C  C57  1  0.77722000  0.05656000  0.17146000  1.0
  C  C58  1  0.22537000  0.57833000  0.62201000  1.0
  C  C59  1  0.77464000  0.42167000  0.37799000  1.0
  C  C60  1  0.24238000  0.02046000  0.91040000  1.0
  C  C61  1  0.75761000  0.97953000  0.08960000  1.0
  C  C62  1  0.43732000  0.37902000  0.86452000  1.0
  C  C63  1  0.56268000  0.62098000  0.13548000  1.0
  C  C64  1  0.43376000  0.65503000  0.58390000  1.0
  C  C65  1  0.56628000  0.34498000  0.41610000  1.0
  C  C66  1  0.05408000  0.96096000  0.75752000  1.0
  C  C67  1  0.94592000  0.03904000  0.24249000  1.0
  C  C68  1  0.11552000  0.36029000  0.15899000  1.0
  C  C69  1  0.88446000  0.63971000  0.84101000  1.0
  C  C70  1  0.28035000  0.27439000  0.15087000  1.0
  C  C71  1  0.71963000  0.72560000  0.84913000  1.0
  N  N72  1  0.90800000  0.04687000  0.76703000  1.0
  N  N73  1  0.09200000  0.95313000  0.23297000  1.0
  N  N74  1  0.59807000  0.21355000  0.78110000  1.0
  N  N75  1  0.40192000  0.78645000  0.21890000  1.0
  N  N76  1  0.94981000  0.36787000  0.09054000  1.0
  N  N77  1  0.05018000  0.63212000  0.90946000  1.0
  N  N78  1  0.27756000  0.19525000  0.07536000  1.0
  N  N79  1  0.72242000  0.80475000  0.92464000  1.0
  O  O80  1  0.31648000  0.10390000  0.58529000  1.0
  O  O81  1  0.68351000  0.89610000  0.41470000  1.0
  O  O82  1  0.42543000  0.86229000  0.68103000  1.0
  O  O83  1  0.57459000  0.13771000  0.31896000  1.0
  O  O84  1  0.63748000  0.89490000  0.57790000  1.0
  O  O85  1  0.36254000  0.10512000  0.42210000  1.0
  O  O86  1  0.92401000  0.20704000  0.62047000  1.0
  O  O87  1  0.07597000  0.79297000  0.37953000  1.0
  O  O88  1  0.80459000  0.40451000  0.65910000  1.0
  O  O89  1  0.19544000  0.59552000  0.34091000  1.0
