# generated using pymatgen
data_Cu5H6(C4N13)2
_symmetry_space_group_name_H-M   'P 1'
_cell_length_a   8.89345000
_cell_length_b   8.89682000
_cell_length_c   9.08484000
_cell_angle_alpha   63.31860000
_cell_angle_beta   63.36530000
_cell_angle_gamma   77.80690000
_symmetry_Int_Tables_number   1
_chemical_formula_structural   Cu5H6(C4N13)2
_chemical_formula_sum   'Cu5 H6 C8 N26'
_cell_volume   574.08009424
_cell_formula_units_Z   1
loop_
 _symmetry_equiv_pos_site_id
 _symmetry_equiv_pos_as_xyz
  1  'x, y, z'
loop_
 _atom_site_type_symbol
 _atom_site_label
 _atom_site_symmetry_multiplicity
 _atom_site_fract_x
 _atom_site_fract_y
 _atom_site_fract_z
 _atom_site_occupancy
  Cu  Cu0  1  0.00000000  0.00000000  0.00000000  1.0
  Cu  Cu1  1  0.49778000  0.49779000  0.28153000  1.0
  Cu  Cu2  1  0.50223000  0.50221000  0.71847000  1.0
  Cu  Cu3  1  0.79843000  0.79839000  0.86387000  1.0
  Cu  Cu4  1  0.20157000  0.20161000  0.13613000  1.0
  H  H5  1  0.79909000  0.79912000  0.42979000  1.0
  H  H6  1  0.20091000  0.20088000  0.57020000  1.0
  H  H7  1  0.61346000  0.16504000  0.19289000  1.0
  H  H8  1  0.83501000  0.38638000  0.80734000  1.0
  H  H9  1  0.38654000  0.83497000  0.80711000  1.0
  H  H10  1  0.16499000  0.61362000  0.19266000  1.0
  C  C11  1  0.76231000  0.76229000  0.35218000  1.0
  C  C12  1  0.23769000  0.23771000  0.64781000  1.0
  C  C13  1  0.71212000  0.20748000  0.20363000  1.0
  C  C14  1  0.79257000  0.28775000  0.79658000  1.0
  C  C15  1  0.28788000  0.79252000  0.79636000  1.0
  C  C16  1  0.20743000  0.71224000  0.20342000  1.0
  C  C17  1  0.31225000  0.31224000  0.18854000  1.0
  C  C18  1  0.68775000  0.68776000  0.81146000  1.0
  N  N19  1  0.82613000  0.82608000  0.17154000  1.0
  N  N20  1  0.17387000  0.17392000  0.82846000  1.0
  N  N21  1  0.74892000  0.74885000  0.12815000  1.0
  N  N22  1  0.25108000  0.25115000  0.87185000  1.0
  N  N23  1  0.64241000  0.64239000  0.27889000  1.0
  N  N24  1  0.35759000  0.35761000  0.72110000  1.0
  N  N25  1  0.64727000  0.64728000  0.42135000  1.0
  N  N26  1  0.35273000  0.35272000  0.57865000  1.0
  N  N27  1  0.69564000  0.33480000  0.25083000  1.0
  N  N28  1  0.66533000  0.30434000  0.74913000  1.0
  N  N29  1  0.30436000  0.66520000  0.74917000  1.0
  N  N30  1  0.33467000  0.69566000  0.25086000  1.0
  N  N31  1  0.84477000  0.34953000  0.24865000  1.0
  N  N32  1  0.65060000  0.15525000  0.75130000  1.0
  N  N33  1  0.15523000  0.65046000  0.75135000  1.0
  N  N34  1  0.34940000  0.84475000  0.24870000  1.0
  N  N35  1  0.94684000  0.23402000  0.20044000  1.0
  N  N36  1  0.76603000  0.05309000  0.79976000  1.0
  N  N37  1  0.05315000  0.76598000  0.79956000  1.0
  N  N38  1  0.23397000  0.94691000  0.20024000  1.0
  N  N39  1  0.86742000  0.14345000  0.17028000  1.0
  N  N40  1  0.85653000  0.13242000  0.83012000  1.0
  N  N41  1  0.13258000  0.85655000  0.82972000  1.0
  N  N42  1  0.14347000  0.86758000  0.16988000  1.0
  N  N43  1  0.38305000  0.38316000  0.22152000  1.0
  N  N44  1  0.61695000  0.61684000  0.77849000  1.0
