# generated using pymatgen
data_CuSiH8C24(N2F7)2
_symmetry_space_group_name_H-M   'P 1'
_cell_length_a   8.00212000
_cell_length_b   13.76270000
_cell_length_c   13.76250000
_cell_angle_alpha   89.99940000
_cell_angle_beta   89.99960000
_cell_angle_gamma   89.99980000
_symmetry_Int_Tables_number   1
_chemical_formula_structural   CuSiH8C24(N2F7)2
_chemical_formula_sum   'Cu1 Si1 H8 C24 N4 F14'
_cell_volume   1515.67481729
_cell_formula_units_Z   1
loop_
 _symmetry_equiv_pos_site_id
 _symmetry_equiv_pos_as_xyz
  1  'x, y, z'
loop_
 _atom_site_type_symbol
 _atom_site_label
 _atom_site_symmetry_multiplicity
 _atom_site_fract_x
 _atom_site_fract_y
 _atom_site_fract_z
 _atom_site_occupancy
  Cu  Cu0  1  0.50002000  0.50000000  0.50000000  1.0
  Si  Si1  1  0.00001000  0.50000000  0.50000000  1.0
  H  H2  1  0.23759000  0.65638000  0.49998000  1.0
  H  H3  1  0.76242000  0.65638000  0.49998000  1.0
  H  H4  1  0.23762000  0.34362000  0.49998000  1.0
  H  H5  1  0.76245000  0.34360000  0.50009000  1.0
  H  H6  1  0.23759000  0.50002000  0.65638000  1.0
  H  H7  1  0.76243000  0.50001000  0.65638000  1.0
  H  H8  1  0.23761000  0.50001000  0.34363000  1.0
  H  H9  1  0.76244000  0.49991000  0.34361000  1.0
  C  C10  1  0.35370000  0.69768000  0.49999000  1.0
  C  C11  1  0.35182000  0.79845000  0.50000000  1.0
  C  C12  1  0.50000000  0.85368000  0.50001000  1.0
  C  C13  1  0.64819000  0.79846000  0.50000000  1.0
  C  C14  1  0.64631000  0.69768000  0.49999000  1.0
  C  C15  1  0.50000000  0.95575000  0.50004000  1.0
  C  C16  1  0.50000000  0.04423000  0.50004000  1.0
  C  C17  1  0.50001000  0.14632000  0.50004000  1.0
  C  C18  1  0.35183000  0.20154000  0.50000000  1.0
  C  C19  1  0.35372000  0.30231000  0.50000000  1.0
  C  C20  1  0.64634000  0.30230000  0.50006000  1.0
  C  C21  1  0.64820000  0.20152000  0.50006000  1.0
  C  C22  1  0.35370000  0.50001000  0.69769000  1.0
  C  C23  1  0.35183000  0.50000000  0.79847000  1.0
  C  C24  1  0.50001000  0.49999000  0.85368000  1.0
  C  C25  1  0.64820000  0.50000000  0.79847000  1.0
  C  C26  1  0.64632000  0.50001000  0.69769000  1.0
  C  C27  1  0.50001000  0.49997000  0.95576000  1.0
  C  C28  1  0.50000000  0.49996000  0.04424000  1.0
  C  C29  1  0.50001000  0.49996000  0.14632000  1.0
  C  C30  1  0.35182000  0.49999000  0.20154000  1.0
  C  C31  1  0.35372000  0.50000000  0.30232000  1.0
  C  C32  1  0.64633000  0.49994000  0.30231000  1.0
  C  C33  1  0.64820000  0.49994000  0.20153000  1.0
  N  N34  1  0.50000000  0.64921000  0.49999000  1.0
  N  N35  1  0.50003000  0.35078000  0.50002000  1.0
  N  N36  1  0.50001000  0.50001000  0.64922000  1.0
  N  N37  1  0.50003000  0.49997000  0.35079000  1.0
  F  F38  1  0.21785000  0.49999000  0.50001000  1.0
  F  F39  1  0.78218000  0.50000000  0.50000000  1.0
  F  F40  1  0.00002000  0.58762000  0.41238000  1.0
  F  F41  1  0.00000000  0.41238000  0.58762000  1.0
  F  F42  1  0.00001000  0.58761000  0.58762000  1.0
  F  F43  1  0.00002000  0.41238000  0.41238000  1.0
  F  F44  1  0.79574000  0.84524000  0.50000000  1.0
  F  F45  1  0.20427000  0.84524000  0.50000000  1.0
  F  F46  1  0.79575000  0.15474000  0.50009000  1.0
  F  F47  1  0.20427000  0.15476000  0.49999000  1.0
  F  F48  1  0.79574000  0.49999000  0.84525000  1.0
  F  F49  1  0.20427000  0.50001000  0.84525000  1.0
  F  F50  1  0.79575000  0.49990000  0.15475000  1.0
  F  F51  1  0.20427000  0.50001000  0.15477000  1.0
