# generated using pymatgen
data_Zn4H25C33NO16
_symmetry_space_group_name_H-M   'P 1'
_cell_length_a   10.86170000
_cell_length_b   18.87300000
_cell_length_c   23.16670000
_cell_angle_alpha   90.00000000
_cell_angle_beta   90.00120000
_cell_angle_gamma   89.99950000
_symmetry_Int_Tables_number   1
_chemical_formula_structural   Zn4H25C33NO16
_chemical_formula_sum   'Zn16 H100 C132 N4 O64'
_cell_volume   4749.00818352
_cell_formula_units_Z   4
loop_
 _symmetry_equiv_pos_site_id
 _symmetry_equiv_pos_as_xyz
  1  'x, y, z'
loop_
 _atom_site_type_symbol
 _atom_site_label
 _atom_site_symmetry_multiplicity
 _atom_site_fract_x
 _atom_site_fract_y
 _atom_site_fract_z
 _atom_site_occupancy
  Zn  Zn0  1  0.77770000  0.70825000  0.82614000  1.0
  Zn  Zn1  1  0.22230000  0.79175000  0.32614000  1.0
  Zn  Zn2  1  0.72229000  0.20825000  0.17385000  1.0
  Zn  Zn3  1  0.27769000  0.29176000  0.67386000  1.0
  Zn  Zn4  1  0.76260000  0.80238000  0.71370000  1.0
  Zn  Zn5  1  0.23740000  0.69762000  0.21371000  1.0
  Zn  Zn6  1  0.73740000  0.30237000  0.28629000  1.0
  Zn  Zn7  1  0.26259000  0.19763000  0.78629000  1.0
  Zn  Zn8  1  0.96710000  0.84024000  0.79537000  1.0
  Zn  Zn9  1  0.03288000  0.65977000  0.29537000  1.0
  Zn  Zn10  1  0.53288000  0.34024000  0.20463000  1.0
  Zn  Zn11  1  0.46711000  0.15977000  0.70463000  1.0
  Zn  Zn12  1  0.98565000  0.68426000  0.72923000  1.0
  Zn  Zn13  1  0.01435000  0.81574000  0.22922000  1.0
  Zn  Zn14  1  0.51435000  0.18426000  0.27077000  1.0
  Zn  Zn15  1  0.48566000  0.31574000  0.77078000  1.0
  H  H16  1  0.54574000  0.97174000  0.77394000  1.0
  H  H17  1  0.45424000  0.52825000  0.27395000  1.0
  H  H18  1  0.95420000  0.47175000  0.22603000  1.0
  H  H19  1  0.04576000  0.02826000  0.72605000  1.0
  H  H20  1  0.28496000  0.01889000  0.90818000  1.0
  H  H21  1  0.71506000  0.48111000  0.40818000  1.0
  H  H22  1  0.21506000  0.51888000  0.09182000  1.0
  H  H23  1  0.78494000  0.98112000  0.59182000  1.0
  H  H24  1  0.47181000  0.81627000  0.90406000  1.0
  H  H25  1  0.52825000  0.68375000  0.40405000  1.0
  H  H26  1  0.02823000  0.31626000  0.09594000  1.0
  H  H27  1  0.97174000  0.18376000  0.59595000  1.0
  H  H28  1  0.33109000  0.98224000  0.01425000  1.0
  H  H29  1  0.66891000  0.51777000  0.51426000  1.0
  H  H30  1  0.16891000  0.48224000  0.98575000  1.0
  H  H31  1  0.83110000  0.01777000  0.48575000  1.0
  H  H32  1  0.21630000  0.93643000  0.09922000  1.0
  H  H33  1  0.78368000  0.56358000  0.59923000  1.0
  H  H34  1  0.28371000  0.43643000  0.90078000  1.0
  H  H35  1  0.71632000  0.06358000  0.40077000  1.0
  H  H36  1  0.12747000  0.74612000  0.00562000  1.0
  H  H37  1  0.87259000  0.75387000  0.50562000  1.0
  H  H38  1  0.37260000  0.24613000  0.99438000  1.0
  H  H39  1  0.62737000  0.25386000  0.49438000  1.0
  H  H40  1  0.24961000  0.78967000  0.92198000  1.0
  H  H41  1  0.75048000  0.71032000  0.42197000  1.0
  H  H42  1  0.25048000  0.28968000  0.07803000  1.0
  H  H43  1  0.74949000  0.21032000  0.57803000  1.0
  H  H44  1  0.10754000  0.46931000  0.76352000  1.0
  H  H45  1  0.89246000  0.03069000  0.26352000  1.0
  H  H46  1  0.39248000  0.96931000  0.23649000  1.0
  H  H47  1  0.60757000  0.53068000  0.73648000  1.0
  H  H48  1  0.02002000  0.31214000  0.89052000  1.0
  H  H49  1  0.97997000  0.18787000  0.39051000  1.0
  H  H50  1  0.47998000  0.81213000  0.10949000  1.0
  H  H51  1  0.52003000  0.68785000  0.60949000  1.0
  H  H52  1  0.87127000  0.52389000  0.90499000  1.0
  H  H53  1  0.12873000  0.97612000  0.40500000  1.0
  H  H54  1  0.62873000  0.02387000  0.09500000  1.0
  H  H55  1  0.37129000  0.47611000  0.59501000  1.0
  H  H56  1  0.86798000  0.49442000  0.99810000  1.0
  H  H57  1  0.13203000  0.00559000  0.49810000  1.0
  H  H58  1  0.63202000  0.99440000  0.00190000  1.0
  H  H59  1  0.36797000  0.50557000  0.50190000  1.0
  H  H60  1  0.73318000  0.45712000  0.07949000  1.0
  H  H61  1  0.26681000  0.04289000  0.57949000  1.0
  H  H62  1  0.76680000  0.95709000  0.92051000  1.0
  H  H63  1  0.23318000  0.54288000  0.42051000  1.0
  H  H64  1  0.71356000  0.24695000  0.00996000  1.0
  H  H65  1  0.28639000  0.25307000  0.50998000  1.0
  H  H66  1  0.78642000  0.74692000  0.99004000  1.0
  H  H67  1  0.21360000  0.75306000  0.49003000  1.0
  H  H68  1  0.84152000  0.28419000  0.92616000  1.0
  H  H69  1  0.15845000  0.21583000  0.42616000  1.0
  H  H70  1  0.65847000  0.78417000  0.07385000  1.0
  H  H71  1  0.34155000  0.71581000  0.57384000  1.0
  H  H72  1  0.68364000  0.56284000  0.83159000  1.0
  H  H73  1  0.31638000  0.93716000  0.33159000  1.0
  H  H74  1  0.81636000  0.06284000  0.16841000  1.0
  H  H75  1  0.18361000  0.43717000  0.66841000  1.0
  H  H76  1  0.62859000  0.45704000  0.84914000  1.0
  H  H77  1  0.37143000  0.04296000  0.34916000  1.0
  H  H78  1  0.87142000  0.95704000  0.15085000  1.0
  H  H79  1  0.12854000  0.54297000  0.65084000  1.0
  H  H80  1  0.48593000  0.45469000  0.88650000  1.0
  H  H81  1  0.51408000  0.04530000  0.38654000  1.0
  H  H82  1  0.01408000  0.95470000  0.11348000  1.0
  H  H83  1  0.98590000  0.54530000  0.61346000  1.0
  H  H84  1  0.62397000  0.42919000  0.92298000  1.0
  H  H85  1  0.37603000  0.07081000  0.42300000  1.0
  H  H86  1  0.87605000  0.92918000  0.07701000  1.0
  H  H87  1  0.12395000  0.57082000  0.57700000  1.0
  H  H88  1  0.59983000  0.52600000  0.99917000  1.0
  H  H89  1  0.40014000  0.97400000  0.49919000  1.0
  H  H90  1  0.90015000  0.02600000  0.00082000  1.0
  H  H91  1  0.09986000  0.47400000  0.50081000  1.0
  H  H92  1  0.45695000  0.55163000  0.96762000  1.0
  H  H93  1  0.54302000  0.94836000  0.46765000  1.0
  H  H94  1  0.04303000  0.05164000  0.03237000  1.0
  H  H95  1  0.95698000  0.44835000  0.53236000  1.0
  H  H96  1  0.57955000  0.61505000  0.97306000  1.0
  H  H97  1  0.42040000  0.88494000  0.47308000  1.0
  H  H98  1  0.92042000  0.11506000  0.02693000  1.0
  H  H99  1  0.07960000  0.38494000  0.52693000  1.0
  H  H100  1  0.04066000  0.74596000  0.63642000  1.0
  H  H101  1  0.95937000  0.75404000  0.13641000  1.0
  H  H102  1  0.45932000  0.24595000  0.36358000  1.0
  H  H103  1  0.54067000  0.25404000  0.86359000  1.0
  H  H104  1  0.19176000  0.71505000  0.68078000  1.0
  H  H105  1  0.80826000  0.78495000  0.18076000  1.0
  H  H106  1  0.30824000  0.21505000  0.31921000  1.0
  H  H107  1  0.69176000  0.28494000  0.81923000  1.0
  H  H108  1  0.14732000  0.79491000  0.73940000  1.0
  H  H109  1  0.85268000  0.70509000  0.23939000  1.0
  H  H110  1  0.35267000  0.29492000  0.26060000  1.0
  H  H111  1  0.64733000  0.20508000  0.76061000  1.0
  H  H112  1  0.19378000  0.86835000  0.76868000  1.0
  H  H113  1  0.80621000  0.63166000  0.26867000  1.0
  H  H114  1  0.30620000  0.36835000  0.23132000  1.0
  H  H115  1  0.69379000  0.13165000  0.73132000  1.0
  C  C116  1  0.51845000  0.88960000  0.83684000  1.0
  C  C117  1  0.48157000  0.61040000  0.33684000  1.0
  C  C118  1  0.98154000  0.38960000  0.16315000  1.0
  C  C119  1  0.01842000  0.11041000  0.66316000  1.0
  C  C120  1  0.49742000  0.95633000  0.81303000  1.0
  C  C121  1  0.50258000  0.54367000  0.31304000  1.0
  C  C122  1  0.00255000  0.45633000  0.18695000  1.0
  C  C123  1  0.99741000  0.04368000  0.68697000  1.0
  C  C124  1  0.41458000  0.00322000  0.83895000  1.0
  C  C125  1  0.58544000  0.49678000  0.33895000  1.0
  C  C126  1  0.08541000  0.50323000  0.16104000  1.0
  C  C127  1  0.91456000  0.99679000  0.66105000  1.0
  C  C128  1  0.35103000  0.98247000  0.88881000  1.0
  C  C129  1  0.64900000  0.51753000  0.38881000  1.0
  C  C130  1  0.14899000  0.48247000  0.11119000  1.0
  C  C131  1  0.85100000  0.01754000  0.61119000  1.0
  C  C132  1  0.36833000  0.91431000  0.91185000  1.0
  C  C133  1  0.63170000  0.58570000  0.41185000  1.0
  C  C134  1  0.13169000  0.41430000  0.08815000  1.0
  C  C135  1  0.86829000  0.08571000  0.58816000  1.0
  C  C136  1  0.45353000  0.86848000  0.88586000  1.0
  C  C137  1  0.54651000  0.63153000  0.38586000  1.0
  C  C138  1  0.04650000  0.36847000  0.11413000  1.0
  C  C139  1  0.95348000  0.13154000  0.61415000  1.0
  C  C140  1  0.61073000  0.84146000  0.80922000  1.0
  C  C141  1  0.38928000  0.65855000  0.30923000  1.0
  C  C142  1  0.88925000  0.34146000  0.19076000  1.0
  C  C143  1  0.11071000  0.15856000  0.69078000  1.0
  C  C144  1  0.39347000  0.07324000  0.81009000  1.0
  C  C145  1  0.60653000  0.42677000  0.31009000  1.0
  C  C146  1  0.10652000  0.57324000  0.18991000  1.0
  C  C147  1  0.89347000  0.92677000  0.68991000  1.0
  C  C148  1  0.29738000  0.88919000  0.96222000  1.0
  C  C149  1  0.70266000  0.61081000  0.46222000  1.0
  C  C150  1  0.20266000  0.38919000  0.03778000  1.0
  C  C151  1  0.79733000  0.11082000  0.53778000  1.0
  C  C152  1  0.28563000  0.93079000  0.01217000  1.0
  C  C153  1  0.71438000  0.56922000  0.51218000  1.0
  C  C154  1  0.21439000  0.43078000  0.98783000  1.0
  C  C155  1  0.78562000  0.06922000  0.48783000  1.0
  C  C156  1  0.22117000  0.90545000  0.05964000  1.0
  C  C157  1  0.77883000  0.59456000  0.55964000  1.0
  C  C158  1  0.27885000  0.40545000  0.94036000  1.0
  C  C159  1  0.72116000  0.09456000  0.44036000  1.0
  C  C160  1  0.16287000  0.83907000  0.05738000  1.0
  C  C161  1  0.83716000  0.66094000  0.55739000  1.0
  C  C162  1  0.33717000  0.33907000  0.94262000  1.0
  C  C163  1  0.66283000  0.16093000  0.44262000  1.0
  C  C164  1  0.17323000  0.79741000  0.00747000  1.0
  C  C165  1  0.82682000  0.70259000  0.50747000  1.0
  C  C166  1  0.32683000  0.29741000  0.99254000  1.0
  C  C167  1  0.67315000  0.20259000  0.49253000  1.0
  C  C168  1  0.24156000  0.82192000  0.96085000  1.0
  C  C169  1  0.75850000  0.67808000  0.46085000  1.0
  C  C170  1  0.25850000  0.32192000  0.03915000  1.0
  C  C171  1  0.74148000  0.17808000  0.53915000  1.0
  C  C172  1  0.08998000  0.81546000  0.10749000  1.0
  C  C173  1  0.91004000  0.68454000  0.60749000  1.0
  C  C174  1  0.41005000  0.31546000  0.89252000  1.0
  C  C175  1  0.58995000  0.18454000  0.39251000  1.0
  C  C176  1  0.98937000  0.50420000  0.83285000  1.0
  C  C177  1  0.01063000  0.99580000  0.33285000  1.0
  C  C178  1  0.51064000  0.00419000  0.16715000  1.0
  C  C179  1  0.48939000  0.49579000  0.66716000  1.0
  C  C180  1  0.06024000  0.45441000  0.80305000  1.0
  C  C181  1  0.93975000  0.04559000  0.30305000  1.0
  C  C182  1  0.43977000  0.95440000  0.19695000  1.0
  C  C183  1  0.56027000  0.54559000  0.69695000  1.0
  C  C184  1  0.06998000  0.38531000  0.82422000  1.0
  C  C185  1  0.93001000  0.11470000  0.32422000  1.0
  C  C186  1  0.43002000  0.88530000  0.17578000  1.0
  C  C187  1  0.56999000  0.61469000  0.67578000  1.0
  C  C188  1  0.00791000  0.36596000  0.87459000  1.0
  C  C189  1  0.99208000  0.13404000  0.37458000  1.0
  C  C190  1  0.49209000  0.86595000  0.12542000  1.0
  C  C191  1  0.50792000  0.63404000  0.62542000  1.0
  C  C192  1  0.93431000  0.41472000  0.90449000  1.0
  C  C193  1  0.06568000  0.08529000  0.40449000  1.0
  C  C194  1  0.56569000  0.91470000  0.09551000  1.0
  C  C195  1  0.43433000  0.58528000  0.59551000  1.0
  C  C196  1  0.92748000  0.48423000  0.88332000  1.0
  C  C197  1  0.07251000  0.01578000  0.38333000  1.0
  C  C198  1  0.57252000  0.98422000  0.11667000  1.0
  C  C199  1  0.42750000  0.51577000  0.61668000  1.0
  C  C200  1  0.97256000  0.57792000  0.80996000  1.0
  C  C201  1  0.02745000  0.92208000  0.30996000  1.0
  C  C202  1  0.52745000  0.07791000  0.19004000  1.0
  C  C203  1  0.47258000  0.42208000  0.69004000  1.0
  C  C204  1  0.14667000  0.33151000  0.79311000  1.0
  C  C205  1  0.85333000  0.16849000  0.29310000  1.0
  C  C206  1  0.35334000  0.83150000  0.20690000  1.0
  C  C207  1  0.64667000  0.66849000  0.70690000  1.0
  C  C208  1  0.86259000  0.39244000  0.95548000  1.0
  C  C209  1  0.13740000  0.10757000  0.45548000  1.0
  C  C210  1  0.63740000  0.89242000  0.04452000  1.0
  C  C211  1  0.36260000  0.60755000  0.54452000  1.0
  C  C212  1  0.83186000  0.44053000  0.99954000  1.0
  C  C213  1  0.16813000  0.05948000  0.49954000  1.0
  C  C214  1  0.66813000  0.94051000  0.00046000  1.0
  C  C215  1  0.33186000  0.55946000  0.50046000  1.0
  C  C216  1  0.75682000  0.41999000  0.04523000  1.0
  C  C217  1  0.24316000  0.08002000  0.54523000  1.0
  C  C218  1  0.74316000  0.91996000  0.95477000  1.0
  C  C219  1  0.25682000  0.58001000  0.45477000  1.0
  C  C220  1  0.71269000  0.35033000  0.04866000  1.0
  C  C221  1  0.28728000  0.14968000  0.54867000  1.0
  C  C222  1  0.78728000  0.85031000  0.95134000  1.0
  C  C223  1  0.21271000  0.64967000  0.45134000  1.0
  C  C224  1  0.74632000  0.30129000  0.00611000  1.0
  C  C225  1  0.25365000  0.19873000  0.50612000  1.0
  C  C226  1  0.75366000  0.80127000  0.99389000  1.0
  C  C227  1  0.24635000  0.69871000  0.49388000  1.0
  C  C228  1  0.81920000  0.32235000  0.95993000  1.0
  C  C229  1  0.18077000  0.17767000  0.45994000  1.0
  C  C230  1  0.68079000  0.82233000  0.04007000  1.0
  C  C231  1  0.31923000  0.67765000  0.54007000  1.0
  C  C232  1  0.63593000  0.32682000  0.09839000  1.0
  C  C233  1  0.36404000  0.17319000  0.59840000  1.0
  C  C234  1  0.86404000  0.82679000  0.90161000  1.0
  C  C235  1  0.13595000  0.67319000  0.40161000  1.0
  C  C236  1  0.65505000  0.58550000  0.87326000  1.0
  C  C237  1  0.34494000  0.91450000  0.37327000  1.0
  C  C238  1  0.84494000  0.08549000  0.12674000  1.0
  C  C239  1  0.15505000  0.41451000  0.62674000  1.0
  C  C240  1  0.58441000  0.46581000  0.89109000  1.0
  C  C241  1  0.41560000  0.03419000  0.39111000  1.0
  C  C242  1  0.91560000  0.96581000  0.10890000  1.0
  C  C243  1  0.08439000  0.53419000  0.60889000  1.0
  C  C244  1  0.55730000  0.55922000  0.96571000  1.0
  C  C245  1  0.44267000  0.94077000  0.46572000  1.0
  C  C246  1  0.94268000  0.05922000  0.03429000  1.0
  C  C247  1  0.05733000  0.44077000  0.53428000  1.0
  N  N248  1  0.60353000  0.53866000  0.90924000  1.0
  N  N249  1  0.39646000  0.96134000  0.40925000  1.0
  N  N250  1  0.89646000  0.03866000  0.09075000  1.0
  N  N251  1  0.10353000  0.46134000  0.59075000  1.0
  O  O252  1  0.88590000  0.75692000  0.76415000  1.0
  O  O253  1  0.11410000  0.74308000  0.26415000  1.0
  O  O254  1  0.61410000  0.25692000  0.23584000  1.0
  O  O255  1  0.38590000  0.24308000  0.73585000  1.0
  O  O256  1  0.11816000  0.74233000  0.68971000  1.0
  O  O257  1  0.88186000  0.75768000  0.18970000  1.0
  O  O258  1  0.38184000  0.24233000  0.31028000  1.0
  O  O259  1  0.61816000  0.25767000  0.81030000  1.0
  O  O260  1  0.14979000  0.82462000  0.77701000  1.0
  O  O261  1  0.85020000  0.67538000  0.27700000  1.0
  O  O262  1  0.35020000  0.32463000  0.22299000  1.0
  O  O263  1  0.64979000  0.17538000  0.72299000  1.0
  O  O264  1  0.63886000  0.78486000  0.83528000  1.0
  O  O265  1  0.36115000  0.71514000  0.33528000  1.0
  O  O266  1  0.86111000  0.28487000  0.16470000  1.0
  O  O267  1  0.13883000  0.21516000  0.66473000  1.0
  O  O268  1  0.65377000  0.86279000  0.76077000  1.0
  O  O269  1  0.34624000  0.63722000  0.26077000  1.0
  O  O270  1  0.84623000  0.36278000  0.23922000  1.0
  O  O271  1  0.15376000  0.13722000  0.73923000  1.0
  O  O272  1  0.44285000  0.08020000  0.76047000  1.0
  O  O273  1  0.55715000  0.41981000  0.26047000  1.0
  O  O274  1  0.05713000  0.58020000  0.23952000  1.0
  O  O275  1  0.94286000  0.91981000  0.73952000  1.0
  O  O276  1  0.32809000  0.11985000  0.83591000  1.0
  O  O277  1  0.67191000  0.38014000  0.33591000  1.0
  O  O278  1  0.17190000  0.61985000  0.16409000  1.0
  O  O279  1  0.82809000  0.88015000  0.66409000  1.0
  O  O280  1  0.09661000  0.84916000  0.15436000  1.0
  O  O281  1  0.90341000  0.65084000  0.65437000  1.0
  O  O282  1  0.40342000  0.34916000  0.84564000  1.0
  O  O283  1  0.59660000  0.15084000  0.34563000  1.0
  O  O284  1  0.01786000  0.76027000  0.10002000  1.0
  O  O285  1  0.98216000  0.73974000  0.60003000  1.0
  O  O286  1  0.48218000  0.26027000  0.89998000  1.0
  O  O287  1  0.51782000  0.23973000  0.39997000  1.0
  O  O288  1  0.90242000  0.61916000  0.83706000  1.0
  O  O289  1  0.09759000  0.88084000  0.33706000  1.0
  O  O290  1  0.59757000  0.11916000  0.16293000  1.0
  O  O291  1  0.40242000  0.38084000  0.66295000  1.0
  O  O292  1  0.03091000  0.59354000  0.76292000  1.0
  O  O293  1  0.96910000  0.90646000  0.26291000  1.0
  O  O294  1  0.46911000  0.09354000  0.23708000  1.0
  O  O295  1  0.53093000  0.40645000  0.73709000  1.0
  O  O296  1  0.16083000  0.27217000  0.81978000  1.0
  O  O297  1  0.83917000  0.22784000  0.31977000  1.0
  O  O298  1  0.33917000  0.77216000  0.18023000  1.0
  O  O299  1  0.66083000  0.72783000  0.68022000  1.0
  O  O300  1  0.19005000  0.34815000  0.74440000  1.0
  O  O301  1  0.80996000  0.15186000  0.24439000  1.0
  O  O302  1  0.30996000  0.84815000  0.25561000  1.0
  O  O303  1  0.69006000  0.65185000  0.75561000  1.0
  O  O304  1  0.59054000  0.37627000  0.13077000  1.0
  O  O305  1  0.40943000  0.12374000  0.63078000  1.0
  O  O306  1  0.90942000  0.87625000  0.86922000  1.0
  O  O307  1  0.09056000  0.62374000  0.36922000  1.0
  O  O308  1  0.62039000  0.26134000  0.10738000  1.0
  O  O309  1  0.37958000  0.23867000  0.60739000  1.0
  O  O310  1  0.87959000  0.76131000  0.89262000  1.0
  O  O311  1  0.12041000  0.73867000  0.39262000  1.0
  O  O312  1  0.67063000  0.64983000  0.88461000  1.0
  O  O313  1  0.32936000  0.85017000  0.38461000  1.0
  O  O314  1  0.82935000  0.14983000  0.11539000  1.0
  O  O315  1  0.17064000  0.35018000  0.61539000  1.0
