# generated using pymatgen
data_Zn2H24C41(NO)8
_symmetry_space_group_name_H-M   'P 1'
_cell_length_a   19.57340000
_cell_length_b   19.63030000
_cell_length_c   20.03060000
_cell_angle_alpha   67.96900000
_cell_angle_beta   75.95700000
_cell_angle_gamma   112.27800000
_symmetry_Int_Tables_number   1
_chemical_formula_structural   Zn2H24C41(NO)8
_chemical_formula_sum   'Zn4 H48 C82 N16 O16'
_cell_volume   5900.10533511
_cell_formula_units_Z   2
loop_
 _symmetry_equiv_pos_site_id
 _symmetry_equiv_pos_as_xyz
  1  'x, y, z'
loop_
 _atom_site_type_symbol
 _atom_site_label
 _atom_site_symmetry_multiplicity
 _atom_site_fract_x
 _atom_site_fract_y
 _atom_site_fract_z
 _atom_site_occupancy
  Zn  Zn0  1  0.10331000  0.61097000  0.00522000  1.0
  Zn  Zn1  1  0.87773000  0.37831000  0.00229000  1.0
  Zn  Zn2  1  0.98861000  0.59380000  0.90407000  1.0
  Zn  Zn3  1  0.99651000  0.39958000  0.09640000  1.0
  H  H4  1  0.75251000  0.45229000  0.60077000  1.0
  H  H5  1  0.01804000  0.54516000  0.39562000  1.0
  H  H6  1  0.56684000  0.98087000  0.54776000  1.0
  H  H7  1  0.43358000  0.76736000  0.47875000  1.0
  H  H8  1  0.40461000  0.91690000  0.56021000  1.0
  H  H9  1  0.59577000  0.83131000  0.46628000  1.0
  H  H10  1  0.53416000  0.80977000  0.62146000  1.0
  H  H11  1  0.46649000  0.93849000  0.40492000  1.0
  H  H12  1  0.43194000  0.42407000  0.08103000  1.0
  H  H13  1  0.52665000  0.54497000  0.23894000  1.0
  H  H14  1  0.58763000  0.57084000  0.01992000  1.0
  H  H15  1  0.37176000  0.39807000  0.30000000  1.0
  H  H16  1  0.00574000  0.05157000  0.84553000  1.0
  H  H17  1  0.27270000  0.22728000  0.83092000  1.0
  H  H18  1  0.02786000  0.07836000  0.97090000  1.0
  H  H19  1  0.24940000  0.20084000  0.70646000  1.0
  H  H20  1  0.71071000  0.18187000  0.15767000  1.0
  H  H21  1  0.26416000  0.63934000  0.87929000  1.0
  H  H22  1  0.86585000  0.62626000  0.01311000  1.0
  H  H23  1  0.12165000  0.35438000  0.16656000  1.0
  H  H24  1  0.85678000  0.35711000  0.25395000  1.0
  H  H25  1  0.98053000  0.64183000  0.73050000  1.0
  H  H26  1  0.71962000  0.34748000  0.13564000  1.0
  H  H27  1  0.26138000  0.63146000  0.05631000  1.0
  H  H28  1  0.00041000  0.63530000  0.13900000  1.0
  H  H29  1  0.83660000  0.36401000  0.85165000  1.0
  H  H30  1  0.87719000  0.21088000  0.26698000  1.0
  H  H31  1  0.11144000  0.60685000  0.75563000  1.0
  H  H32  1  0.02567000  0.79969000  0.81723000  1.0
  H  H33  1  0.15236000  0.40656000  0.97505000  1.0
  H  H34  1  0.21797000  0.75922000  0.03489000  1.0
  H  H35  1  0.82861000  0.22869000  0.93441000  1.0
  H  H36  1  0.03605000  0.76588000  0.45313000  1.0
  H  H37  1  0.73862000  0.23154000  0.54269000  1.0
  H  H38  1  0.35286000  0.26484000  0.20337000  1.0
  H  H39  1  0.32589000  0.25421000  0.30066000  1.0
  H  H40  1  0.36839000  0.19461000  0.27799000  1.0
  H  H41  1  0.63169000  0.71682000  0.01865000  1.0
  H  H42  1  0.60456000  0.70552000  0.11618000  1.0
  H  H43  1  0.58690000  0.77423000  0.04261000  1.0
  H  H44  1  0.15614000  0.35631000  0.63544000  1.0
  H  H45  1  0.23560000  0.98721000  0.95586000  1.0
  H  H46  1  0.85136000  0.67651000  0.47989000  1.0
  H  H47  1  0.74873000  0.58383000  0.53082000  1.0
  H  H48  1  0.78189000  0.67434000  0.43510000  1.0
  H  H49  1  0.02714000  0.41633000  0.46860000  1.0
  H  H50  1  0.92539000  0.32369000  0.51480000  1.0
  H  H51  1  0.99020000  0.32425000  0.56494000  1.0
  C  C52  1  0.13159000  0.79562000  0.92173000  1.0
  C  C53  1  0.00103000  0.33830000  0.92699000  1.0
  C  C54  1  0.76572000  0.16231000  0.24481000  1.0
  C  C55  1  0.21914000  0.63795000  0.78583000  1.0
  C  C56  1  0.76188000  0.48690000  0.09318000  1.0
  C  C57  1  0.21786000  0.49033000  0.12300000  1.0
  C  C58  1  0.91109000  0.49323000  0.22898000  1.0
  C  C59  1  0.90724000  0.50542000  0.75969000  1.0
  C  C60  1  0.81141000  0.47374000  0.55417000  1.0
  C  C61  1  0.95911000  0.52370000  0.44219000  1.0
  C  C62  1  0.85768000  0.55037000  0.46467000  1.0
  C  C63  1  0.91286000  0.44716000  0.53153000  1.0
  C  C64  1  0.88346000  0.48817000  0.30339000  1.0
  C  C65  1  0.90487000  0.50957000  0.68882000  1.0
  C  C66  1  0.82636000  0.41524000  0.52552000  1.0
  C  C67  1  0.94429000  0.58229000  0.47065000  1.0
  C  C68  1  0.87603000  0.49286000  0.43400000  1.0
  C  C69  1  0.89433000  0.50471000  0.56211000  1.0
  C  C70  1  0.87262000  0.48888000  0.36568000  1.0
  C  C71  1  0.90170000  0.50900000  0.62901000  1.0
  C  C72  1  0.44800000  0.89900000  0.53840000  1.0
  C  C73  1  0.55260000  0.84952000  0.48791000  1.0
  C  C74  1  0.76220000  0.20288000  0.17187000  1.0
  C  C75  1  0.21508000  0.62615000  0.86096000  1.0
  C  C76  1  0.53648000  0.93273000  0.53319000  1.0
  C  C77  1  0.46374000  0.81528000  0.49361000  1.0
  C  C78  1  0.70132000  0.08570000  0.31663000  1.0
  C  C79  1  0.29136000  0.68316000  0.71318000  1.0
  C  C80  1  0.48044000  0.90903000  0.45393000  1.0
  C  C81  1  0.51987000  0.83906000  0.57269000  1.0
  C  C82  1  0.57103000  0.94519000  0.44659000  1.0
  C  C83  1  0.42927000  0.80308000  0.58006000  1.0
  C  C84  1  0.64225000  0.01975000  0.37720000  1.0
  C  C85  1  0.35562000  0.73363000  0.65062000  1.0
  C  C86  1  0.53897000  0.53275000  0.08183000  1.0
  C  C87  1  0.41989000  0.43630000  0.23779000  1.0
  C  C88  1  0.45383000  0.45066000  0.11595000  1.0
  C  C89  1  0.50579000  0.51822000  0.20371000  1.0
  C  C90  1  0.28042000  0.48571000  0.14358000  1.0
  C  C91  1  0.69000000  0.48702000  0.12749000  1.0
  C  C92  1  0.49512000  0.56583000  0.12729000  1.0
  C  C93  1  0.46392000  0.40302000  0.19250000  1.0
  C  C94  1  0.40831000  0.48329000  0.16146000  1.0
  C  C95  1  0.55110000  0.48562000  0.15789000  1.0
  C  C96  1  0.84169000  0.55820000  0.03547000  1.0
  C  C97  1  0.14491000  0.42304000  0.13604000  1.0
  C  C98  1  0.33734000  0.48372000  0.15716000  1.0
  C  C99  1  0.62564000  0.48639000  0.14867000  1.0
  C  C100  1  0.07689000  0.10443000  0.91223000  1.0
  C  C101  1  0.20063000  0.17336000  0.76587000  1.0
  C  C102  1  0.06453000  0.09039000  0.84335000  1.0
  C  C103  1  0.21326000  0.18822000  0.83429000  1.0
  C  C104  1  0.12595000  0.93000000  0.84636000  1.0
  C  C105  1  0.11445000  0.30924000  0.88937000  1.0
  C  C106  1  0.15073000  0.09042000  0.89876000  1.0
  C  C107  1  0.12575000  0.18815000  0.78022000  1.0
  C  C108  1  0.13823000  0.07388000  0.82840000  1.0
  C  C109  1  0.13951000  0.20474000  0.84953000  1.0
  C  C110  1  0.13501000  0.00054000  0.82878000  1.0
  C  C111  1  0.13294000  0.26657000  0.86615000  1.0
  C  C112  1  0.89843000  0.42623000  0.21340000  1.0
  C  C113  1  0.94570000  0.57269000  0.77267000  1.0
  C  C114  1  0.76697000  0.41552000  0.09806000  1.0
  C  C115  1  0.21596000  0.56471000  0.07996000  1.0
  C  C116  1  0.97197000  0.56870000  0.15425000  1.0
  C  C117  1  0.87204000  0.43046000  0.83518000  1.0
  C  C118  1  0.84713000  0.21742000  0.22793000  1.0
  C  C119  1  0.13705000  0.60962000  0.79759000  1.0
  C  C120  1  0.05751000  0.78860000  0.85382000  1.0
  C  C121  1  0.09912000  0.38841000  0.96297000  1.0
  C  C122  1  0.10858000  0.84597000  0.87067000  1.0
  C  C123  1  0.07791000  0.34642000  0.92117000  1.0
  C  C124  1  0.18249000  0.81475000  0.96204000  1.0
  C  C125  1  0.94280000  0.28635000  0.90732000  1.0
  C  C126  1  0.01028000  0.67153000  0.43816000  1.0
  C  C127  1  0.76205000  0.32506000  0.55886000  1.0
  C  C128  1  0.37019000  0.25571000  0.25314000  1.0
  C  C129  1  0.58677000  0.71400000  0.06677000  1.0
  C  C130  1  0.11264000  0.24062000  0.71467000  1.0
  C  C131  1  0.16028000  0.02640000  0.95811000  1.0
  C  C132  1  0.80150000  0.63566000  0.47155000  1.0
  C  C133  1  0.97253000  0.36363000  0.52629000  1.0
  N  N134  1  0.09578000  0.71558000  0.93297000  1.0
  N  N135  1  0.98097000  0.37439000  0.96806000  1.0
  N  N136  1  0.83494000  0.27556000  0.11692000  1.0
  N  N137  1  0.13745000  0.59582000  0.91158000  1.0
  N  N138  1  0.88890000  0.53062000  0.00771000  1.0
  N  N139  1  0.10360000  0.45523000  0.10350000  1.0
  N  N140  1  0.94945000  0.45991000  0.13604000  1.0
  N  N141  1  0.93398000  0.53978000  0.84948000  1.0
  N  N142  1  0.84300000  0.44317000  0.04595000  1.0
  N  N143  1  0.14771000  0.54315000  0.06878000  1.0
  N  N144  1  0.99429000  0.54731000  0.09991000  1.0
  N  N145  1  0.88854000  0.45127000  0.88844000  1.0
  N  N146  1  0.88797000  0.28478000  0.15152000  1.0
  N  N147  1  0.08939000  0.58562000  0.87292000  1.0
  N  N148  1  0.05093000  0.71154000  0.89161000  1.0
  N  N149  1  0.03964000  0.40373000  0.99082000  1.0
  O  O150  1  0.21945000  0.88193000  0.96014000  1.0
  O  O151  1  0.18562000  0.74317000  0.00718000  1.0
  O  O152  1  0.95758000  0.25881000  0.86381000  1.0
  O  O153  1  0.86314000  0.26563000  0.94929000  1.0
  O  O154  1  0.07727000  0.71123000  0.37959000  1.0
  O  O155  1  0.98859000  0.70712000  0.48036000  1.0
  O  O156  1  0.69619000  0.28341000  0.61926000  1.0
  O  O157  1  0.78480000  0.29102000  0.51547000  1.0
  O  O158  1  0.45312000  0.32201000  0.22507000  1.0
  O  O159  1  0.50446000  0.64622000  0.09524000  1.0
  O  O160  1  0.05912000  0.21195000  0.69485000  1.0
  O  O161  1  0.16953000  0.32633000  0.67689000  1.0
  O  O162  1  0.10351000  0.96305000  0.02237000  1.0
  O  O163  1  0.23811000  0.04211000  0.92756000  1.0
  O  O164  1  0.82993000  0.60037000  0.42764000  1.0
  O  O165  1  0.94039000  0.39752000  0.56965000  1.0
