# generated using pymatgen
data_Al4H29C50N7(O10F3)2
_symmetry_space_group_name_H-M   'P 1'
_cell_length_a   6.65996000
_cell_length_b   20.44270000
_cell_length_c   23.96510000
_cell_angle_alpha   90.26910000
_cell_angle_beta   91.03640000
_cell_angle_gamma   92.17400000
_symmetry_Int_Tables_number   1
_chemical_formula_structural   Al4H29C50N7(O10F3)2
_chemical_formula_sum   'Al4 H29 C50 N7 O20 F6'
_cell_volume   3259.86084540
_cell_formula_units_Z   1
loop_
 _symmetry_equiv_pos_site_id
 _symmetry_equiv_pos_as_xyz
  1  'x, y, z'
loop_
 _atom_site_type_symbol
 _atom_site_label
 _atom_site_symmetry_multiplicity
 _atom_site_fract_x
 _atom_site_fract_y
 _atom_site_fract_z
 _atom_site_occupancy
  Al  Al0  1  0.85153000  0.50079000  0.49801000  1.0
  Al  Al1  1  0.35132000  0.49881000  0.49727000  1.0
  Al  Al2  1  0.35778000  0.00124000  0.99965000  1.0
  Al  Al3  1  0.85855000  0.00428000  0.00039000  1.0
  H  H4  1  0.83766000  0.23266000  0.17603000  1.0
  H  H5  1  0.40335000  0.29839000  0.27910000  1.0
  H  H6  1  0.19245000  0.29777000  0.16627000  1.0
  H  H7  1  0.41085000  0.25727000  0.18828000  1.0
  H  H8  1  0.11356000  0.13031000  0.27263000  1.0
  H  H9  1  0.82493000  0.18286000  0.23625000  1.0
  H  H10  1  0.39951000  0.25984000  0.68403000  1.0
  H  H11  1  0.29736000  0.68235000  0.26731000  1.0
  H  H12  1  0.29759000  0.76381000  0.18983000  1.0
  H  H13  1  0.91856000  0.81672000  0.22891000  1.0
  H  H14  1  0.91368000  0.74536000  0.68957000  1.0
  H  H15  1  0.44642000  0.12165000  0.29001000  1.0
  H  H16  1  0.51310000  0.19680000  0.26948000  1.0
  H  H17  1  0.65965000  0.26154000  0.81130000  1.0
  H  H18  1  0.78029000  0.20292000  0.84917000  1.0
  H  H19  1  0.82302000  0.33593000  0.18303000  1.0
  H  H20  1  0.98237000  0.37742000  0.22686000  1.0
  H  H21  1  0.94709000  0.70282000  0.34678000  1.0
  H  H22  1  0.07616000  0.76326000  0.30968000  1.0
  H  H23  1  0.14927000  0.73295000  0.80586000  1.0
  H  H24  1  0.26495000  0.79594000  0.84400000  1.0
  H  H25  1  0.39226000  0.39123000  0.21503000  1.0
  H  H26  1  0.31485000  0.40743000  0.27770000  1.0
  H  H27  1  0.41945000  0.20583000  0.35144000  1.0
  H  H28  1  0.29677000  0.26852000  0.38111000  1.0
  H  H29  1  0.59671000  0.41852000  0.51823000  1.0
  H  H30  1  0.11699000  0.57873000  0.52345000  1.0
  H  H31  1  0.61122000  0.08143000  0.02631000  1.0
  H  H32  1  0.09476000  0.92260000  0.02328000  1.0
  C  C33  1  0.60279000  0.57706000  0.42235000  1.0
  C  C34  1  0.61487000  0.57821000  0.57495000  1.0
  C  C35  1  0.09826000  0.41999000  0.57303000  1.0
  C  C36  1  0.08276000  0.42293000  0.42130000  1.0
  C  C37  1  0.89404000  0.28587000  0.25355000  1.0
  C  C38  1  0.27002000  0.31156000  0.25456000  1.0
  C  C39  1  0.25943000  0.27017000  0.20075000  1.0
  C  C40  1  0.13434000  0.12446000  0.12449000  1.0
  C  C41  1  0.08519000  0.29141000  0.29185000  1.0
  C  C42  1  0.90658000  0.22442000  0.21728000  1.0
  C  C43  1  0.13003000  0.20687000  0.21076000  1.0
  C  C44  1  0.20373000  0.17568000  0.26656000  1.0
  C  C45  1  0.14291000  0.22225000  0.31582000  1.0
  C  C46  1  0.14211000  0.16124000  0.16450000  1.0
  C  C47  1  0.06841000  0.33809000  0.33686000  1.0
  C  C48  1  0.07427000  0.37725000  0.37522000  1.0
  C  C49  1  0.27343000  0.25568000  0.71215000  1.0
  C  C50  1  0.10347000  0.29468000  0.70432000  1.0
  C  C51  1  0.94484000  0.28789000  0.74149000  1.0
  C  C52  1  0.94495000  0.24478000  0.78699000  1.0
  C  C53  1  0.11536000  0.20516000  0.79410000  1.0
  C  C54  1  0.27295000  0.21220000  0.75578000  1.0
  C  C55  1  0.09528000  0.33883000  0.65928000  1.0
  C  C56  1  0.12214000  0.16074000  0.83850000  1.0
  C  C57  1  0.11872000  0.12344000  0.87808000  1.0
  C  C58  1  0.09480000  0.37610000  0.61982000  1.0
  C  C59  1  0.43115000  0.75750000  0.21585000  1.0
  C  C60  1  0.60888000  0.79536000  0.20521000  1.0
  C  C61  1  0.78315000  0.78721000  0.23780000  1.0
  C  C62  1  0.78526000  0.74178000  0.28166000  1.0
  C  C63  1  0.60504000  0.70385000  0.29226000  1.0
  C  C64  1  0.43188000  0.71236000  0.25867000  1.0
  C  C65  1  0.60951000  0.84090000  0.16086000  1.0
  C  C66  1  0.60247000  0.65893000  0.33657000  1.0
  C  C67  1  0.60563000  0.62123000  0.37592000  1.0
  C  C68  1  0.60505000  0.87915000  0.12206000  1.0
  C  C69  1  0.43978000  0.75517000  0.78512000  1.0
  C  C70  1  0.61059000  0.79847000  0.79398000  1.0
  C  C71  1  0.77578000  0.79315000  0.75844000  1.0
  C  C72  1  0.78286000  0.74793000  0.71586000  1.0
  C  C73  1  0.61264000  0.70524000  0.70619000  1.0
  C  C74  1  0.44684000  0.71029000  0.74068000  1.0
  C  C75  1  0.61039000  0.84443000  0.83765000  1.0
  C  C76  1  0.61093000  0.65966000  0.66168000  1.0
  C  C77  1  0.61539000  0.62178000  0.62240000  1.0
  C  C78  1  0.60028000  0.88258000  0.87668000  1.0
  C  C79  1  0.60297000  0.92696000  0.92345000  1.0
  C  C80  1  0.60087000  0.92313000  0.07540000  1.0
  C  C81  1  0.12052000  0.08113000  0.07692000  1.0
  C  C82  1  0.11849000  0.07932000  0.92460000  1.0
  N  N83  1  0.41194000  0.15849000  0.26360000  1.0
  N  N84  1  0.79117000  0.24250000  0.82376000  1.0
  N  N85  1  0.86302000  0.34408000  0.22364000  1.0
  N  N86  1  0.95426000  0.73270000  0.31318000  1.0
  N  N87  1  0.27872000  0.75592000  0.81928000  1.0
  N  N88  1  0.27749000  0.38185000  0.24196000  1.0
  N  N89  1  0.28594000  0.22610000  0.35887000  1.0
  O  O90  1  0.44275000  0.56247000  0.55372000  1.0
  O  O91  1  0.77246000  0.56364000  0.44395000  1.0
  O  O92  1  0.91701000  0.44413000  0.43776000  1.0
  O  O93  1  0.78503000  0.56026000  0.55831000  1.0
  O  O94  1  0.92851000  0.43616000  0.55310000  1.0
  O  O95  1  0.43072000  0.55602000  0.43811000  1.0
  O  O96  1  0.59803000  0.46031000  0.49920000  1.0
  O  O97  1  0.27157000  0.43795000  0.55572000  1.0
  O  O98  1  0.25689000  0.43719000  0.44171000  1.0
  O  O99  1  0.10721000  0.53949000  0.50045000  1.0
  O  O100  1  0.76946000  0.93731000  0.05308000  1.0
  O  O101  1  0.43595000  0.93717000  0.94640000  1.0
  O  O102  1  0.28575000  0.05524000  0.93802000  1.0
  O  O103  1  0.42917000  0.94319000  0.06039000  1.0
  O  O104  1  0.28448000  0.06766000  0.05348000  1.0
  O  O105  1  0.77477000  0.95118000  0.93797000  1.0
  O  O106  1  0.61112000  0.04270000  0.00273000  1.0
  O  O107  1  0.94391000  0.06069000  0.06215000  1.0
  O  O108  1  0.95101000  0.06909000  0.94852000  1.0
  O  O109  1  0.10211000  0.96264000  0.00171000  1.0
  F  F110  1  0.71962000  0.27501000  0.28945000  1.0
  F  F111  1  0.43307000  0.17339000  0.76306000  1.0
  F  F112  1  0.77925000  0.32447000  0.73440000  1.0
  F  F113  1  0.28059000  0.67035000  0.73178000  1.0
  F  F114  1  0.93605000  0.83540000  0.76740000  1.0
  F  F115  1  0.95804000  0.19236000  0.33706000  1.0
