# generated using pymatgen
data_Zr3H21C44SCl5O19
_symmetry_space_group_name_H-M   'P 1'
_cell_length_a   19.01324723
_cell_length_b   19.05435310
_cell_length_c   19.05570000
_cell_angle_alpha   90.18012476
_cell_angle_beta   119.84564694
_cell_angle_gamma   119.83984404
_symmetry_Int_Tables_number   1
_chemical_formula_structural   Zr3H21C44SCl5O19
_chemical_formula_sum   'Zr6 H42 C88 S2 Cl10 O38'
_cell_volume   4897.07591946
_cell_formula_units_Z   2
loop_
 _symmetry_equiv_pos_site_id
 _symmetry_equiv_pos_as_xyz
  1  'x, y, z'
loop_
 _atom_site_type_symbol
 _atom_site_label
 _atom_site_symmetry_multiplicity
 _atom_site_fract_x
 _atom_site_fract_y
 _atom_site_fract_z
 _atom_site_occupancy
  Zr  Zr0  1  0.49732000  0.90345000  0.90775000  1.0
  Zr  Zr1  1  0.50367000  0.09235000  0.09671000  1.0
  Zr  Zr2  1  0.68593000  0.08927000  0.09284000  1.0
  Zr  Zr3  1  0.31503000  0.90736000  0.91079000  1.0
  Zr  Zr4  1  0.50041000  0.90534000  0.09466000  1.0
  Zr  Zr5  1  0.50056000  0.09079000  0.90939000  1.0
  H  H6  1  0.64435000  0.92255000  0.07250000  1.0
  H  H7  1  0.35647000  0.92759000  0.07740000  1.0
  H  H8  1  0.64882000  0.21688000  0.07496000  1.0
  H  H9  1  0.35213000  0.92527000  0.78323000  1.0
  H  H10  1  0.56020000  0.34924000  0.13534000  1.0
  H  H11  1  0.55951000  0.70687000  0.92922000  1.0
  H  H12  1  0.41773000  0.63495000  0.06087000  1.0
  H  H13  1  0.41759000  0.50415000  0.05872000  1.0
  H  H14  1  0.42416000  0.28039000  0.86331000  1.0
  H  H15  1  0.42186000  0.41000000  0.86337000  1.0
  H  H16  1  0.43972000  0.06976000  0.29207000  1.0
  H  H17  1  0.43895000  0.86393000  0.65033000  1.0
  H  H18  1  0.57513000  0.13603000  0.71844000  1.0
  H  H19  1  0.57597000  0.13519000  0.58809000  1.0
  H  H20  1  0.58129000  0.93793000  0.36460000  1.0
  H  H21  1  0.58015000  0.93948000  0.49474000  1.0
  H  H22  1  0.72035000  0.34926000  0.93190000  1.0
  H  H23  1  0.28131000  0.70555000  0.13380000  1.0
  H  H24  1  0.07800000  0.63876000  0.86197000  1.0
  H  H25  1  0.94938000  0.50582000  0.86140000  1.0
  H  H26  1  0.92200000  0.27588000  0.05644000  1.0
  H  H27  1  0.04944000  0.40469000  0.05328000  1.0
  H  H28  1  0.71945000  0.86668000  0.29543000  1.0
  H  H29  1  0.28062000  0.06902000  0.65113000  1.0
  H  H30  1  0.07953000  0.94456000  0.72502000  1.0
  H  H31  1  0.95199000  0.94791000  0.59655000  1.0
  H  H32  1  0.92262000  0.13834000  0.36128000  1.0
  H  H33  1  0.05133000  0.13935000  0.49451000  1.0
  H  H34  1  0.29268000  0.12347000  0.11024000  1.0
  H  H35  1  0.24142000  0.19018000  0.16947000  1.0
  H  H36  1  0.07633000  0.90619000  0.88025000  1.0
  H  H37  1  0.70833000  0.89007000  0.87659000  1.0
  H  H38  1  0.75962000  0.83097000  0.80984000  1.0
  H  H39  1  0.92471000  0.11979000  0.09421000  1.0
  H  H40  1  0.92827000  0.35134000  0.29275000  1.0
  H  H41  1  0.07265000  0.70735000  0.64870000  1.0
  H  H42  1  0.27707000  0.63824000  0.72099000  1.0
  H  H43  1  0.14745000  0.50793000  0.59016000  1.0
  H  H44  1  0.72416000  0.27919000  0.36218000  1.0
  H  H45  1  0.85392000  0.41005000  0.49247000  1.0
  H  H46  1  0.02829000  0.16165000  0.23300000  1.0
  H  H47  1  0.97251000  0.76723000  0.83808000  1.0
  C  C48  1  0.49059000  0.75779000  0.99616000  1.0
  C  C49  1  0.50974000  0.00350000  0.24204000  1.0
  C  C50  1  0.49581000  0.23081000  0.00114000  1.0
  C  C51  1  0.50477000  0.99878000  0.76908000  1.0
  C  C52  1  0.73255000  0.99881000  0.99284000  1.0
  C  C53  1  0.26046000  0.75954000  0.77005000  1.0
  C  C54  1  0.26846000  0.00740000  0.00136000  1.0
  C  C55  1  0.74054000  0.23009000  0.24069000  1.0
  C  C56  1  0.73562000  0.99987000  0.23929000  1.0
  C  C57  1  0.73502000  0.22794000  0.99572000  1.0
  C  C58  1  0.26617000  0.00477000  0.77230000  1.0
  C  C59  1  0.26514000  0.76090000  0.00021000  1.0
  C  C60  1  0.49222000  0.30711000  0.99938000  1.0
  C  C61  1  0.48847000  0.67862000  0.99496000  1.0
  C  C62  1  0.53046000  0.36302000  0.07588000  1.0
  C  C63  1  0.53305000  0.43738000  0.07613000  1.0
  C  C64  1  0.52915000  0.66265000  0.95821000  1.0
  C  C65  1  0.53330000  0.59168000  0.96106000  1.0
  C  C66  1  0.44911000  0.62191000  0.03222000  1.0
  C  C67  1  0.45005000  0.54953000  0.03153000  1.0
  C  C68  1  0.45375000  0.32437000  0.92258000  1.0
  C  C69  1  0.45341000  0.39706000  0.92315000  1.0
  C  C70  1  0.49387000  0.45580000  0.99952000  1.0
  C  C71  1  0.49305000  0.53300000  0.99724000  1.0
  C  C72  1  0.51081000  0.00405000  0.32070000  1.0
  C  C73  1  0.50720000  0.00000000  0.69218000  1.0
  C  C74  1  0.46972000  0.04057000  0.33626000  1.0
  C  C75  1  0.46478000  0.03732000  0.40681000  1.0
  C  C76  1  0.46841000  0.92325000  0.63624000  1.0
  C  C77  1  0.46501000  0.92260000  0.56151000  1.0
  C  C78  1  0.54519000  0.07658000  0.67446000  1.0
  C  C79  1  0.54468000  0.07558000  0.60136000  1.0
  C  C80  1  0.54963000  0.96645000  0.37734000  1.0
  C  C81  1  0.54795000  0.96680000  0.44933000  1.0
  C  C82  1  0.50471000  0.00102000  0.46552000  1.0
  C  C83  1  0.50391000  0.99899000  0.54271000  1.0
  C  C84  1  0.81283000  0.30430000  0.99379000  1.0
  C  C85  1  0.18737000  0.68037000  0.99800000  1.0
  C  C86  1  0.79276000  0.36177000  0.95882000  1.0
  C  C87  1  0.86655000  0.43623000  0.96115000  1.0
  C  C88  1  0.20827000  0.66196000  0.07415000  1.0
  C  C89  1  0.13470000  0.58925000  0.07394000  1.0
  C  C90  1  0.09349000  0.62425000  0.92114000  1.0
  C  C91  1  0.02193000  0.55043000  0.92128000  1.0
  C  C92  1  0.90599000  0.32026000  0.02868000  1.0
  C  C93  1  0.97760000  0.39307000  0.02750000  1.0
  C  C94  1  0.96059000  0.45332000  0.99503000  1.0
  C  C95  1  0.03987000  0.53145000  0.99731000  1.0
  C  C96  1  0.81333000  0.00234000  0.32007000  1.0
  C  C97  1  0.18839000  0.00703000  0.69627000  1.0
  C  C98  1  0.79248000  0.92638000  0.33886000  1.0
  C  C99  1  0.86608000  0.92681000  0.41176000  1.0
  C  C100  1  0.20829000  0.04210000  0.63878000  1.0
  C  C101  1  0.13443000  0.03989000  0.56447000  1.0
  C  C102  1  0.09539000  0.97232000  0.68058000  1.0
  C  C103  1  0.02370000  0.97358000  0.60793000  1.0
  C  C104  1  0.90718000  0.07930000  0.37608000  1.0
  C  C105  1  0.97879000  0.07940000  0.45006000  1.0
  C  C106  1  0.96096000  0.00350000  0.46936000  1.0
  C  C107  1  0.04044000  0.00598000  0.54752000  1.0
  C  C108  1  0.21498000  0.07539000  0.05893000  1.0
  C  C109  1  0.14026000  0.07656000  0.05562000  1.0
  C  C110  1  0.16393000  0.14068000  0.11877000  1.0
  C  C111  1  0.09100000  0.95098000  0.92937000  1.0
  C  C112  1  0.01376000  0.94831000  0.92459000  1.0
  C  C113  1  0.91005000  0.88375000  0.85948000  1.0
  C  C114  1  0.78602000  0.94134000  0.92473000  1.0
  C  C115  1  0.86079000  0.94468000  0.92358000  1.0
  C  C116  1  0.83713000  0.88164000  0.85939000  1.0
  C  C117  1  0.91002000  0.07072000  0.04932000  1.0
  C  C118  1  0.98727000  0.07552000  0.05201000  1.0
  C  C119  1  0.09100000  0.14058000  0.11668000  1.0
  C  C120  1  0.19008000  0.01221000  0.99664000  1.0
  C  C121  1  0.03837000  0.01192000  0.98914000  1.0
  C  C122  1  0.81092000  0.00355000  0.98800000  1.0
  C  C123  1  0.96270000  0.01108000  0.98834000  1.0
  C  C124  1  0.81846000  0.30724000  0.31978000  1.0
  C  C125  1  0.18257000  0.68043000  0.69291000  1.0
  C  C126  1  0.91188000  0.36443000  0.33642000  1.0
  C  C127  1  0.98262000  0.43942000  0.40738000  1.0
  C  C128  1  0.08914000  0.66374000  0.63569000  1.0
  C  C129  1  0.01847000  0.59276000  0.56069000  1.0
  C  C130  1  0.20395000  0.62451000  0.67605000  1.0
  C  C131  1  0.13172000  0.55241000  0.60270000  1.0
  C  C132  1  0.79721000  0.32412000  0.37580000  1.0
  C  C133  1  0.86954000  0.39749000  0.44790000  1.0
  C  C134  1  0.96336000  0.45742000  0.46520000  1.0
  C  C135  1  0.03784000  0.53500000  0.54274000  1.0
  S  S136  1  0.13017000  0.22497000  0.19788000  1.0
  S  S137  1  0.87088000  0.80264000  0.77500000  1.0
  Cl  Cl138  1  0.59004000  0.50797000  0.17457000  1.0
  Cl  Cl139  1  0.59358000  0.58043000  0.92186000  1.0
  Cl  Cl140  1  0.40412000  0.07634000  0.41758000  1.0
  Cl  Cl141  1  0.40750000  0.82395000  0.49092000  1.0
  Cl  Cl142  1  0.84010000  0.50907000  0.92464000  1.0
  Cl  Cl143  1  0.16273000  0.57451000  0.17189000  1.0
  Cl  Cl144  1  0.83805000  0.82904000  0.42702000  1.0
  Cl  Cl145  1  0.16082000  0.07659000  0.49165000  1.0
  Cl  Cl146  1  0.09368000  0.51161000  0.41997000  1.0
  Cl  Cl147  1  0.90735000  0.58005000  0.48842000  1.0
  O  O148  1  0.49555000  0.79052000  0.93892000  1.0
  O  O149  1  0.50528000  0.06101000  0.20958000  1.0
  O  O150  1  0.50287000  0.20397000  0.06425000  1.0
  O  O151  1  0.49812000  0.93586000  0.79614000  1.0
  O  O152  1  0.76281000  0.05565000  0.05596000  1.0
  O  O153  1  0.23194000  0.79360000  0.79803000  1.0
  O  O154  1  0.23818000  0.94432000  0.94444000  1.0
  O  O155  1  0.76903000  0.20209000  0.20662000  1.0
  O  O156  1  0.64555000  0.93771000  0.20610000  1.0
  O  O157  1  0.64495000  0.20125000  0.94019000  1.0
  O  O158  1  0.35622000  0.06016000  0.79887000  1.0
  O  O159  1  0.35522000  0.79396000  0.06224000  1.0
  O  O160  1  0.76411000  0.19593000  0.05377000  1.0
  O  O161  1  0.23708000  0.94661000  0.80420000  1.0
  O  O162  1  0.23574000  0.79161000  0.94083000  1.0
  O  O163  1  0.76507000  0.05918000  0.20854000  1.0
  O  O164  1  0.64265000  0.93795000  0.93528000  1.0
  O  O165  1  0.65060000  0.19885000  0.21202000  1.0
  O  O166  1  0.35835000  0.06489000  0.06226000  1.0
  O  O167  1  0.35038000  0.78820000  0.80125000  1.0
  O  O168  1  0.50750000  0.05980000  0.80102000  1.0
  O  O169  1  0.48954000  0.78793000  0.05530000  1.0
  O  O170  1  0.51109000  0.94452000  0.21200000  1.0
  O  O171  1  0.49354000  0.19912000  0.94033000  1.0
  O  O172  1  0.39427000  0.94581000  0.84544000  1.0
  O  O173  1  0.60679000  0.15468000  0.05443000  1.0
  O  O174  1  0.39735000  0.94783000  0.05594000  1.0
  O  O175  1  0.60355000  0.94410000  0.05226000  1.0
  O  O176  1  0.57880000  0.03649000  0.11741000  1.0
  O  O177  1  0.42209000  0.88272000  0.96353000  1.0
  O  O178  1  0.42474000  0.03807000  0.96521000  1.0
  O  O179  1  0.57631000  0.03492000  0.96213000  1.0
  O  O180  1  0.09323000  0.17416000  0.25356000  1.0
  O  O181  1  0.23624000  0.27678000  0.25391000  1.0
  O  O182  1  0.07586000  0.26202000  0.15877000  1.0
  O  O183  1  0.90763000  0.74679000  0.82564000  1.0
  O  O184  1  0.76481000  0.74672000  0.72311000  1.0
  O  O185  1  0.92531000  0.84186000  0.73807000  1.0
