# generated using pymatgen
data_CuH17C17(NO3)2
_symmetry_space_group_name_H-M   'P 1'
_cell_length_a   8.35498000
_cell_length_b   8.90588000
_cell_length_c   11.73240000
_cell_angle_alpha   86.14780000
_cell_angle_beta   69.43470000
_cell_angle_gamma   87.13170000
_symmetry_Int_Tables_number   1
_chemical_formula_structural   CuH17C17(NO3)2
_chemical_formula_sum   'Cu2 H34 C34 N4 O12'
_cell_volume   815.18278974
_cell_formula_units_Z   2
loop_
 _symmetry_equiv_pos_site_id
 _symmetry_equiv_pos_as_xyz
  1  'x, y, z'
loop_
 _atom_site_type_symbol
 _atom_site_label
 _atom_site_symmetry_multiplicity
 _atom_site_fract_x
 _atom_site_fract_y
 _atom_site_fract_z
 _atom_site_occupancy
  Cu  Cu0  1  0.00001000  0.50000000  0.00000000  1.0
  Cu  Cu1  1  0.50000000  0.50000000  0.00000000  1.0
  H  H2  1  0.35928000  0.71247000  0.19431000  1.0
  H  H3  1  0.64071000  0.28753000  0.80569000  1.0
  H  H4  1  0.72893000  0.34553000  0.08655000  1.0
  H  H5  1  0.27108000  0.65447000  0.91345000  1.0
  H  H6  1  0.84309000  0.28595000  0.95312000  1.0
  H  H7  1  0.15691000  0.71405000  0.04688000  1.0
  H  H8  1  0.02200000  0.79664000  0.80935000  1.0
  H  H9  1  0.97800000  0.20336000  0.19065000  1.0
  H  H10  1  0.43089000  0.96572000  0.24229000  1.0
  H  H11  1  0.56910000  0.03428000  0.75770000  1.0
  H  H12  1  0.68448000  0.09580000  0.09406000  1.0
  H  H13  1  0.31551000  0.90420000  0.90594000  1.0
  H  H14  1  0.77262000  0.71054000  0.87172000  1.0
  H  H15  1  0.22739000  0.28946000  0.12828000  1.0
  H  H16  1  0.28838000  0.92951000  0.71604000  1.0
  H  H17  1  0.71161000  0.07048000  0.28396000  1.0
  H  H18  1  0.16544000  0.10102000  0.72463000  1.0
  H  H19  1  0.83455000  0.89897000  0.27537000  1.0
  H  H20  1  0.27732000  0.01202000  0.51479000  1.0
  H  H21  1  0.72268000  0.98797000  0.48521000  1.0
  H  H22  1  0.18274000  0.83524000  0.56577000  1.0
  H  H23  1  0.81726000  0.16476000  0.43423000  1.0
  H  H24  1  0.98950000  0.13928000  0.57375000  1.0
  H  H25  1  0.01050000  0.86072000  0.42625000  1.0
  H  H26  1  0.89062000  0.96673000  0.63404000  1.0
  H  H27  1  0.10938000  0.03327000  0.36596000  1.0
  H  H28  1  0.19903000  0.57115000  0.35033000  1.0
  H  H29  1  0.80097000  0.42885000  0.64967000  1.0
  H  H30  1  0.05723000  0.62155000  0.57095000  1.0
  H  H31  1  0.94277000  0.37845000  0.42905000  1.0
  H  H32  1  0.38182000  0.28504000  0.66449000  1.0
  H  H33  1  0.61818000  0.71495000  0.33551000  1.0
  H  H34  1  0.52999000  0.23904000  0.44291000  1.0
  H  H35  1  0.47002000  0.76097000  0.55709000  1.0
  C  C36  1  0.46958000  0.77283000  0.13385000  1.0
  C  C37  1  0.53040000  0.22718000  0.86615000  1.0
  C  C38  1  0.51095000  0.91297000  0.15936000  1.0
  C  C39  1  0.48904000  0.08704000  0.84064000  1.0
  C  C40  1  0.65267000  0.98456000  0.07710000  1.0
  C  C41  1  0.34733000  0.01544000  0.92290000  1.0
  C  C42  1  0.75218000  0.91298000  0.97185000  1.0
  C  C43  1  0.24781000  0.08702000  0.02814000  1.0
  C  C44  1  0.70243000  0.77218000  0.95227000  1.0
  C  C45  1  0.29757000  0.22782000  0.04774000  1.0
  C  C46  1  0.89942000  0.99500000  0.88075000  1.0
  C  C47  1  0.10057000  0.00501000  0.11926000  1.0
  C  C48  1  0.16996000  0.98082000  0.70863000  1.0
  C  C49  1  0.83004000  0.01918000  0.29138000  1.0
  C  C50  1  0.16548000  0.95639000  0.58193000  1.0
  C  C51  1  0.83451000  0.04360000  0.41807000  1.0
  C  C52  1  0.00245000  0.01677000  0.56235000  1.0
  C  C53  1  0.99756000  0.98323000  0.43765000  1.0
  C  C54  1  0.46717000  0.38249000  0.24978000  1.0
  C  C55  1  0.53283000  0.61751000  0.75023000  1.0
  C  C56  1  0.37352000  0.40221000  0.38307000  1.0
  C  C57  1  0.62648000  0.59779000  0.61693000  1.0
  C  C58  1  0.24007000  0.51006000  0.41921000  1.0
  C  C59  1  0.75993000  0.48994000  0.58079000  1.0
  C  C60  1  0.16081000  0.53792000  0.54155000  1.0
  C  C61  1  0.83918000  0.46207000  0.45846000  1.0
  C  C62  1  0.21067000  0.45703000  0.63061000  1.0
  C  C63  1  0.78933000  0.54296000  0.36939000  1.0
  C  C64  1  0.34229000  0.34701000  0.59508000  1.0
  C  C65  1  0.65772000  0.65299000  0.40492000  1.0
  C  C66  1  0.42372000  0.32046000  0.47203000  1.0
  C  C67  1  0.57628000  0.67954000  0.52798000  1.0
  C  C68  1  0.12086000  0.49511000  0.76057000  1.0
  C  C69  1  0.87915000  0.50489000  0.23943000  1.0
  N  N70  1  0.56361000  0.70452000  0.03169000  1.0
  N  N71  1  0.43639000  0.29548000  0.96832000  1.0
  N  N72  1  0.02702000  0.91253000  0.80592000  1.0
  N  N73  1  0.97298000  0.08747000  0.19408000  1.0
  O  O74  1  0.40301000  0.45800000  0.17788000  1.0
  O  O75  1  0.59699000  0.54200000  0.82212000  1.0
  O  O76  1  0.80694000  0.37885000  0.00093000  1.0
  O  O77  1  0.19306000  0.62115000  0.99907000  1.0
  O  O78  1  0.60050000  0.29884000  0.21694000  1.0
  O  O79  1  0.39951000  0.70117000  0.78306000  1.0
  O  O80  1  0.15193000  0.41214000  0.84512000  1.0
  O  O81  1  0.84809000  0.58787000  0.15488000  1.0
  O  O82  1  0.01707000  0.60658000  0.78260000  1.0
  O  O83  1  0.98294000  0.39342000  0.21740000  1.0
  O  O84  1  0.89905000  0.13632000  0.87561000  1.0
  O  O85  1  0.10096000  0.86367000  0.12440000  1.0
