# generated using pymatgen
data_CuH27C22N(ClO)2
_symmetry_space_group_name_H-M   'P 1'
_cell_length_a   8.32942000
_cell_length_b   9.49654000
_cell_length_c   13.87800000
_cell_angle_alpha   90.00080000
_cell_angle_beta   90.00030000
_cell_angle_gamma   82.73200000
_symmetry_Int_Tables_number   1
_chemical_formula_structural   CuH27C22N(ClO)2
_chemical_formula_sum   'Cu2 H54 C44 N2 Cl4 O4'
_cell_volume   1088.93888564
_cell_formula_units_Z   2
loop_
 _symmetry_equiv_pos_site_id
 _symmetry_equiv_pos_as_xyz
  1  'x, y, z'
loop_
 _atom_site_type_symbol
 _atom_site_label
 _atom_site_symmetry_multiplicity
 _atom_site_fract_x
 _atom_site_fract_y
 _atom_site_fract_z
 _atom_site_occupancy
  Cu  Cu0  1  0.16696000  0.93674000  0.60778000  1.0
  Cu  Cu1  1  0.83304000  0.06326000  0.10778000  1.0
  H  H2  1  0.88258000  0.82145000  0.45118000  1.0
  H  H3  1  0.11742000  0.17855000  0.95118000  1.0
  H  H4  1  0.49427000  0.66352000  0.65146000  1.0
  H  H5  1  0.50573000  0.33648000  0.15146000  1.0
  H  H6  1  0.35230000  0.45186000  0.65184000  1.0
  H  H7  1  0.64771000  0.54814000  0.15184000  1.0
  H  H8  1  0.38275000  0.28204000  0.51503000  1.0
  H  H9  1  0.61726000  0.71795000  0.01503000  1.0
  H  H10  1  0.56160000  0.32598000  0.37589000  1.0
  H  H11  1  0.43840000  0.67401000  0.87589000  1.0
  H  H12  1  0.64649000  0.62494000  0.29856000  1.0
  H  H13  1  0.35350000  0.37505000  0.79857000  1.0
  H  H14  1  0.76193000  0.45578000  0.30771000  1.0
  H  H15  1  0.23807000  0.54422000  0.80771000  1.0
  H  H16  1  0.02785000  0.76505000  0.31468000  1.0
  H  H17  1  0.97213000  0.23496000  0.81468000  1.0
  H  H18  1  0.84526000  0.76373000  0.24972000  1.0
  H  H19  1  0.15473000  0.23627000  0.74972000  1.0
  H  H20  1  0.07864000  0.63962000  0.15991000  1.0
  H  H21  1  0.92137000  0.36038000  0.65990000  1.0
  H  H22  1  0.94025000  0.52074000  0.18789000  1.0
  H  H23  1  0.05976000  0.47926000  0.68789000  1.0
  H  H24  1  0.25649000  0.54726000  0.29618000  1.0
  H  H25  1  0.74351000  0.45275000  0.79617000  1.0
  H  H26  1  0.21470000  0.40410000  0.22315000  1.0
  H  H27  1  0.78532000  0.59591000  0.72314000  1.0
  H  H28  1  0.18646000  0.35460000  0.40130000  1.0
  H  H29  1  0.81354000  0.64541000  0.90130000  1.0
  H  H30  1  0.00746000  0.34282000  0.33722000  1.0
  H  H31  1  0.99255000  0.65718000  0.83722000  1.0
  H  H32  1  0.94979000  0.47666000  0.48984000  1.0
  H  H33  1  0.05021000  0.52335000  0.98984000  1.0
  H  H34  1  0.08940000  0.59488000  0.45911000  1.0
  H  H35  1  0.91059000  0.40513000  0.95911000  1.0
  H  H36  1  0.81880000  0.12245000  0.66411000  1.0
  H  H37  1  0.18120000  0.87755000  0.16411000  1.0
  H  H38  1  0.90868000  0.98735000  0.74128000  1.0
  H  H39  1  0.09132000  0.01265000  0.24128000  1.0
  H  H40  1  0.49285000  0.14139000  0.64314000  1.0
  H  H41  1  0.50716000  0.85861000  0.14314000  1.0
  H  H42  1  0.38758000  0.03510000  0.71931000  1.0
  H  H43  1  0.61242000  0.96490000  0.21932000  1.0
  H  H44  1  0.51798000  0.16910000  0.85969000  1.0
  H  H45  1  0.48202000  0.83089000  0.35968000  1.0
  H  H46  1  0.73042000  0.15514000  0.86878000  1.0
  H  H47  1  0.26958000  0.84485000  0.36877000  1.0
  H  H48  1  0.62939000  0.25757000  0.77378000  1.0
  H  H49  1  0.37061000  0.74242000  0.27377000  1.0
  H  H50  1  0.52585000  0.90597000  0.85783000  1.0
  H  H51  1  0.47414000  0.09402000  0.35784000  1.0
  H  H52  1  0.65116000  0.79884000  0.77606000  1.0
  H  H53  1  0.34884000  0.20115000  0.27607000  1.0
  H  H54  1  0.73988000  0.88919000  0.87073000  1.0
  H  H55  1  0.26011000  0.11081000  0.37074000  1.0
  C  C56  1  0.69422000  0.74207000  0.50818000  1.0
  C  C57  1  0.30578000  0.25793000  0.00819000  1.0
  C  C58  1  0.60392000  0.61948000  0.51071000  1.0
  C  C59  1  0.39607000  0.38052000  0.01071000  1.0
  C  C60  1  0.50832000  0.59129000  0.59032000  1.0
  C  C61  1  0.49167000  0.40871000  0.09032000  1.0
  C  C62  1  0.42924000  0.47089000  0.59109000  1.0
  C  C63  1  0.57076000  0.52910000  0.09109000  1.0
  C  C64  1  0.44700000  0.37542000  0.51398000  1.0
  C  C65  1  0.55300000  0.62458000  0.01399000  1.0
  C  C66  1  0.54461000  0.40087000  0.43574000  1.0
  C  C67  1  0.45538000  0.59913000  0.93574000  1.0
  C  C68  1  0.62273000  0.52229000  0.43294000  1.0
  C  C69  1  0.37726000  0.47771000  0.93294000  1.0
  C  C70  1  0.72285000  0.55378000  0.34768000  1.0
  C  C71  1  0.27715000  0.44621000  0.84769000  1.0
  C  C72  1  0.86872000  0.62728000  0.37621000  1.0
  C  C73  1  0.13127000  0.37273000  0.87621000  1.0
  C  C74  1  0.94073000  0.69550000  0.28839000  1.0
  C  C75  1  0.05926000  0.30450000  0.78839000  1.0
  C  C76  1  0.02804000  0.58451000  0.22024000  1.0
  C  C77  1  0.97197000  0.41549000  0.72025000  1.0
  C  C78  1  0.15901000  0.48632000  0.27289000  1.0
  C  C79  1  0.84100000  0.51369000  0.77289000  1.0
  C  C80  1  0.09010000  0.41781000  0.36072000  1.0
  C  C81  1  0.90991000  0.58220000  0.86072000  1.0
  C  C82  1  0.00243000  0.52845000  0.42864000  1.0
  C  C83  1  0.99757000  0.47156000  0.92864000  1.0
  C  C84  1  0.67470000  0.85815000  0.57778000  1.0
  C  C85  1  0.32530000  0.14185000  0.07778000  1.0
  C  C86  1  0.81465000  0.91598000  0.61265000  1.0
  C  C87  1  0.18535000  0.08402000  0.11266000  1.0
  C  C88  1  0.80186000  0.01823000  0.69547000  1.0
  C  C89  1  0.19814000  0.98177000  0.19546000  1.0
  C  C90  1  0.64438000  0.02807000  0.75358000  1.0
  C  C91  1  0.35563000  0.97192000  0.25358000  1.0
  C  C92  1  0.50346000  0.03911000  0.68198000  1.0
  C  C93  1  0.49654000  0.96089000  0.18198000  1.0
  C  C94  1  0.62983000  0.16061000  0.81716000  1.0
  C  C95  1  0.37017000  0.83938000  0.31715000  1.0
  C  C96  1  0.64081000  0.89749000  0.81809000  1.0
  C  C97  1  0.35918000  0.10251000  0.31810000  1.0
  C  C98  1  0.51827000  0.92444000  0.60656000  1.0
  C  C99  1  0.48174000  0.07557000  0.10656000  1.0
  N  N100  1  0.80988000  0.74293000  0.44314000  1.0
  N  N101  1  0.19011000  0.25707000  0.94314000  1.0
  Cl  Cl102  1  0.11558000  0.15113000  0.54317000  1.0
  Cl  Cl103  1  0.88441000  0.84887000  0.04317000  1.0
  Cl  Cl104  1  0.20234000  0.80790000  0.74228000  1.0
  Cl  Cl105  1  0.79767000  0.19209000  0.24228000  1.0
  O  O106  1  0.95297000  0.88175000  0.57401000  1.0
  O  O107  1  0.04702000  0.11825000  0.07401000  1.0
  O  O108  1  0.39207000  0.89328000  0.56447000  1.0
  O  O109  1  0.60793000  0.10672000  0.06448000  1.0
