# generated using pymatgen
data_UH14C22(N2O3)2
_symmetry_space_group_name_H-M   'P 1'
_cell_length_a   6.11435000
_cell_length_b   9.04914000
_cell_length_c   9.30051000
_cell_angle_alpha   84.54400000
_cell_angle_beta   81.12820000
_cell_angle_gamma   75.67410000
_symmetry_Int_Tables_number   1
_chemical_formula_structural   UH14C22(N2O3)2
_chemical_formula_sum   'U1 H14 C22 N4 O6'
_cell_volume   491.75499186
_cell_formula_units_Z   1
loop_
 _symmetry_equiv_pos_site_id
 _symmetry_equiv_pos_as_xyz
  1  'x, y, z'
loop_
 _atom_site_type_symbol
 _atom_site_label
 _atom_site_symmetry_multiplicity
 _atom_site_fract_x
 _atom_site_fract_y
 _atom_site_fract_z
 _atom_site_occupancy
  U  U0  1  0.00000000  0.50000000  0.00000000  1.0
  H  H1  1  0.66055000  0.37136000  0.60126000  1.0
  H  H2  1  0.33946000  0.62864000  0.39875000  1.0
  H  H3  1  0.21741000  0.97516000  0.65044000  1.0
  H  H4  1  0.78259000  0.02483000  0.34957000  1.0
  H  H5  1  0.00408000  0.89291000  0.87801000  1.0
  H  H6  1  0.99589000  0.10708000  0.12200000  1.0
  H  H7  1  0.62069000  0.04913000  0.96839000  1.0
  H  H8  1  0.37929000  0.95088000  0.03161000  1.0
  H  H9  1  0.82550000  0.34749000  0.35561000  1.0
  H  H10  1  0.17451000  0.65250000  0.64439000  1.0
  H  H11  1  0.47673000  0.36597000  0.15659000  1.0
  H  H12  1  0.52327000  0.63403000  0.84341000  1.0
  H  H13  1  0.42092000  0.14099000  0.56402000  1.0
  H  H14  1  0.57908000  0.85901000  0.43599000  1.0
  C  C15  1  0.61485000  0.21470000  0.78624000  1.0
  C  C16  1  0.38515000  0.78530000  0.21376000  1.0
  C  C17  1  0.73703000  0.26505000  0.65898000  1.0
  C  C18  1  0.26297000  0.73494000  0.34102000  1.0
  C  C19  1  0.95802000  0.18194000  0.61052000  1.0
  C  C20  1  0.04198000  0.81806000  0.38948000  1.0
  C  C21  1  0.05061000  0.04601000  0.68937000  1.0
  C  C22  1  0.94939000  0.95399000  0.31063000  1.0
  C  C23  1  0.92980000  0.99721000  0.81681000  1.0
  C  C24  1  0.07018000  0.00279000  0.18319000  1.0
  C  C25  1  0.71358000  0.08251000  0.86632000  1.0
  C  C26  1  0.28640000  0.91750000  0.13368000  1.0
  C  C27  1  0.38579000  0.30415000  0.84495000  1.0
  C  C28  1  0.61421000  0.69586000  0.15505000  1.0
  C  C29  1  0.09813000  0.23538000  0.48237000  1.0
  C  C30  1  0.90188000  0.76462000  0.51763000  1.0
  C  C31  1  0.00788000  0.31949000  0.36160000  1.0
  C  C32  1  0.99213000  0.68050000  0.63840000  1.0
  C  C33  1  0.36831000  0.32898000  0.25030000  1.0
  C  C34  1  0.63169000  0.67102000  0.74970000  1.0
  C  C35  1  0.33568000  0.20396000  0.47414000  1.0
  C  C36  1  0.66433000  0.79604000  0.52586000  1.0
  N  N37  1  0.14176000  0.36559000  0.24638000  1.0
  N  N38  1  0.85825000  0.63440000  0.75362000  1.0
  N  N39  1  0.47040000  0.25010000  0.36015000  1.0
  N  N40  1  0.52961000  0.74990000  0.63985000  1.0
  O  O41  1  0.19967000  0.61404000  0.01417000  1.0
  O  O42  1  0.80035000  0.38596000  0.98583000  1.0
  O  O43  1  0.29469000  0.26533000  0.97241000  1.0
  O  O44  1  0.70531000  0.73468000  0.02758000  1.0
  O  O45  1  0.27863000  0.42133000  0.77495000  1.0
  O  O46  1  0.72137000  0.57867000  0.22505000  1.0
