# generated using pymatgen
data_AgH12C7S2(OF)2
_symmetry_space_group_name_H-M   'P 1'
_cell_length_a   7.51005000
_cell_length_b   8.24778000
_cell_length_c   10.04040000
_cell_angle_alpha   112.13700000
_cell_angle_beta   107.32400000
_cell_angle_gamma   94.08350000
_symmetry_Int_Tables_number   1
_chemical_formula_structural   AgH12C7S2(OF)2
_chemical_formula_sum   'Ag2 H24 C14 S4 O4 F4'
_cell_volume   537.97729940
_cell_formula_units_Z   2
loop_
 _symmetry_equiv_pos_site_id
 _symmetry_equiv_pos_as_xyz
  1  'x, y, z'
loop_
 _atom_site_type_symbol
 _atom_site_label
 _atom_site_symmetry_multiplicity
 _atom_site_fract_x
 _atom_site_fract_y
 _atom_site_fract_z
 _atom_site_occupancy
  Ag  Ag0  1  0.58512000  0.70092000  0.53269000  1.0
  Ag  Ag1  1  0.41487000  0.29908000  0.46731000  1.0
  H  H2  1  0.21551000  0.90062000  0.63423000  1.0
  H  H3  1  0.78449000  0.09939000  0.36577000  1.0
  H  H4  1  0.21086000  0.72386000  0.69787000  1.0
  H  H5  1  0.78914000  0.27615000  0.30213000  1.0
  H  H6  1  0.00006000  0.73210000  0.56046000  1.0
  H  H7  1  0.99994000  0.26790000  0.43954000  1.0
  H  H8  1  0.05993000  0.81263000  0.07821000  1.0
  H  H9  1  0.94007000  0.18737000  0.92178000  1.0
  H  H10  1  0.95660000  0.92968000  0.21366000  1.0
  H  H11  1  0.04340000  0.07031000  0.78633000  1.0
  H  H12  1  0.27160000  0.96683000  0.97969000  1.0
  H  H13  1  0.72840000  0.03317000  0.02031000  1.0
  H  H14  1  0.43936000  0.17232000  0.11084000  1.0
  H  H15  1  0.56064000  0.82769000  0.88916000  1.0
  H  H16  1  0.45225000  0.97600000  0.14855000  1.0
  H  H17  1  0.54776000  0.02401000  0.85146000  1.0
  H  H18  1  0.12792000  0.56420000  0.19191000  1.0
  H  H19  1  0.87208000  0.43580000  0.80810000  1.0
  H  H20  1  0.97283000  0.66910000  0.28447000  1.0
  H  H21  1  0.02717000  0.33090000  0.71553000  1.0
  H  H22  1  0.23928000  0.95714000  0.43076000  1.0
  H  H23  1  0.76072000  0.04286000  0.56924000  1.0
  H  H24  1  0.35905000  0.84840000  0.30510000  1.0
  H  H25  1  0.64095000  0.15160000  0.69489000  1.0
  C  C26  1  0.62716000  0.63504000  0.22737000  1.0
  C  C27  1  0.37284000  0.36494000  0.77262000  1.0
  C  C28  1  0.60487000  0.52692000  0.05581000  1.0
  C  C29  1  0.39514000  0.47308000  0.94419000  1.0
  C  C30  1  0.15650000  0.75995000  0.60085000  1.0
  C  C31  1  0.84350000  0.24005000  0.39915000  1.0
  C  C32  1  0.09311000  0.91190000  0.19676000  1.0
  C  C33  1  0.90689000  0.08810000  0.80324000  1.0
  C  C34  1  0.35707000  0.05039000  0.10060000  1.0
  C  C35  1  0.64293000  0.94961000  0.89941000  1.0
  C  C36  1  0.12281000  0.67331000  0.29489000  1.0
  C  C37  1  0.87718000  0.32669000  0.70511000  1.0
  C  C38  1  0.21764000  0.85522000  0.31513000  1.0
  C  C39  1  0.78236000  0.14478000  0.68487000  1.0
  S  S40  1  0.19718000  0.12261000  0.20465000  1.0
  S  S41  1  0.80282000  0.87738000  0.79535000  1.0
  S  S42  1  0.22918000  0.61116000  0.45114000  1.0
  S  S43  1  0.77082000  0.38884000  0.54886000  1.0
  O  O44  1  0.65934000  0.80194000  0.27788000  1.0
  O  O45  1  0.34066000  0.19808000  0.72214000  1.0
  O  O46  1  0.60370000  0.53629000  0.29453000  1.0
  O  O47  1  0.39630000  0.46371000  0.70547000  1.0
  F  F48  1  0.71036000  0.62365000  0.00864000  1.0
  F  F49  1  0.28964000  0.37636000  0.99137000  1.0
  F  F50  1  0.67440000  0.37155000  0.03662000  1.0
  F  F51  1  0.32561000  0.62846000  0.96339000  1.0
