# generated using pymatgen
data_HgH8(C5N4)2
_symmetry_space_group_name_H-M   'P 1'
_cell_length_a   6.16625000
_cell_length_b   10.37180000
_cell_length_c   17.89090000
_cell_angle_alpha   89.99970000
_cell_angle_beta   89.99940000
_cell_angle_gamma   83.89480000
_symmetry_Int_Tables_number   1
_chemical_formula_structural   HgH8(C5N4)2
_chemical_formula_sum   'Hg4 H32 C40 N32'
_cell_volume   1137.72486252
_cell_formula_units_Z   4
loop_
 _symmetry_equiv_pos_site_id
 _symmetry_equiv_pos_as_xyz
  1  'x, y, z'
loop_
 _atom_site_type_symbol
 _atom_site_label
 _atom_site_symmetry_multiplicity
 _atom_site_fract_x
 _atom_site_fract_y
 _atom_site_fract_z
 _atom_site_occupancy
  Hg  Hg0  1  0.36848000  0.01437000  0.13293000  1.0
  Hg  Hg1  1  0.63152000  0.48563000  0.63293000  1.0
  Hg  Hg2  1  0.63152000  0.98563000  0.86707000  1.0
  Hg  Hg3  1  0.36847000  0.51437000  0.36707000  1.0
  H  H4  1  0.44226000  0.09658000  0.38874000  1.0
  H  H5  1  0.55774000  0.40341000  0.88874000  1.0
  H  H6  1  0.55777000  0.90340000  0.61126000  1.0
  H  H7  1  0.44224000  0.59659000  0.11125000  1.0
  H  H8  1  0.42705000  0.90246000  0.46815000  1.0
  H  H9  1  0.57294000  0.59754000  0.96816000  1.0
  H  H10  1  0.57297000  0.09752000  0.53184000  1.0
  H  H11  1  0.42704000  0.40246000  0.03184000  1.0
  H  H12  1  0.78038000  0.86352000  0.38744000  1.0
  H  H13  1  0.21960000  0.63649000  0.88744000  1.0
  H  H14  1  0.21960000  0.13650000  0.61258000  1.0
  H  H15  1  0.78039000  0.36351000  0.11257000  1.0
  H  H16  1  0.79993000  0.05073000  0.30456000  1.0
  H  H17  1  0.20007000  0.44927000  0.80457000  1.0
  H  H18  1  0.20007000  0.94927000  0.69544000  1.0
  H  H19  1  0.79994000  0.55073000  0.19544000  1.0
  H  H20  1  0.00635000  0.20431000  0.24723000  1.0
  H  H21  1  0.99365000  0.29569000  0.74723000  1.0
  H  H22  1  0.99366000  0.79568000  0.75278000  1.0
  H  H23  1  0.00634000  0.70432000  0.25276000  1.0
  H  H24  1  0.03357000  0.29632000  0.32767000  1.0
  H  H25  1  0.96643000  0.20368000  0.82768000  1.0
  H  H26  1  0.96645000  0.70367000  0.67233000  1.0
  H  H27  1  0.03357000  0.79632000  0.17232000  1.0
  H  H28  1  0.24681000  0.71359000  0.50276000  1.0
  H  H29  1  0.75318000  0.78642000  0.00276000  1.0
  H  H30  1  0.75317000  0.28641000  0.49724000  1.0
  H  H31  1  0.24683000  0.21359000  0.99724000  1.0
  H  H32  1  0.00650000  0.79566000  0.54077000  1.0
  H  H33  1  0.99349000  0.70434000  0.04076000  1.0
  H  H34  1  0.99349000  0.20433000  0.45924000  1.0
  H  H35  1  0.00652000  0.29566000  0.95923000  1.0
  C  C36  1  0.11901000  0.09044000  0.34227000  1.0
  C  C37  1  0.88100000  0.40957000  0.84226000  1.0
  C  C38  1  0.88100000  0.90956000  0.65774000  1.0
  C  C39  1  0.11901000  0.59044000  0.15773000  1.0
  C  C40  1  0.29574000  0.04600000  0.38815000  1.0
  C  C41  1  0.70425000  0.45400000  0.88815000  1.0
  C  C42  1  0.70427000  0.95401000  0.61185000  1.0
  C  C43  1  0.29575000  0.54600000  0.11184000  1.0
  C  C44  1  0.28683000  0.93711000  0.43365000  1.0
  C  C45  1  0.71317000  0.56289000  0.93365000  1.0
  C  C46  1  0.71318000  0.06287000  0.56635000  1.0
  C  C47  1  0.28683000  0.43711000  0.06634000  1.0
  C  C48  1  0.09941000  0.87193000  0.43531000  1.0
  C  C49  1  0.90057000  0.62808000  0.93531000  1.0
  C  C50  1  0.90059000  0.12808000  0.56469000  1.0
  C  C51  1  0.09943000  0.37192000  0.06469000  1.0
  C  C52  1  0.92481000  0.91522000  0.38873000  1.0
  C  C53  1  0.07518000  0.58478000  0.88872000  1.0
  C  C54  1  0.07519000  0.08477000  0.61128000  1.0
  C  C55  1  0.92481000  0.41522000  0.11127000  1.0
  C  C56  1  0.93546000  0.02182000  0.34215000  1.0
  C  C57  1  0.06452000  0.47818000  0.84214000  1.0
  C  C58  1  0.06454000  0.97818000  0.65786000  1.0
  C  C59  1  0.93547000  0.52182000  0.15785000  1.0
  C  C60  1  0.11244000  0.21310000  0.29588000  1.0
  C  C61  1  0.88756000  0.28690000  0.79589000  1.0
  C  C62  1  0.88758000  0.78689000  0.70412000  1.0
  C  C63  1  0.11244000  0.71310000  0.20411000  1.0
  C  C64  1  0.32711000  0.24465000  0.26879000  1.0
  C  C65  1  0.67289000  0.25535000  0.76880000  1.0
  C  C66  1  0.67290000  0.75534000  0.73121000  1.0
  C  C67  1  0.32710000  0.74465000  0.23120000  1.0
  C  C68  1  0.08284000  0.75906000  0.48835000  1.0
  C  C69  1  0.91714000  0.74094000  0.98835000  1.0
  C  C70  1  0.91714000  0.24094000  0.51165000  1.0
  C  C71  1  0.08285000  0.25905000  0.01165000  1.0
  C  C72  1  0.95239000  0.65869000  0.45731000  1.0
  C  C73  1  0.04759000  0.84132000  0.95731000  1.0
  C  C74  1  0.04759000  0.34132000  0.54268000  1.0
  C  C75  1  0.95241000  0.15868000  0.04269000  1.0
  N  N76  1  0.44398000  0.18098000  0.21457000  1.0
  N  N77  1  0.55603000  0.31902000  0.71457000  1.0
  N  N78  1  0.55603000  0.81902000  0.78543000  1.0
  N  N79  1  0.44397000  0.68098000  0.28543000  1.0
  N  N80  1  0.62868000  0.23907000  0.20578000  1.0
  N  N81  1  0.37133000  0.26092000  0.70578000  1.0
  N  N82  1  0.37133000  0.76093000  0.79422000  1.0
  N  N83  1  0.62867000  0.73908000  0.29421000  1.0
  N  N84  1  0.62660000  0.33527000  0.25261000  1.0
  N  N85  1  0.37340000  0.16473000  0.75262000  1.0
  N  N86  1  0.37340000  0.66474000  0.74738000  1.0
  N  N87  1  0.62660000  0.83527000  0.24738000  1.0
  N  N88  1  0.44027000  0.34041000  0.29320000  1.0
  N  N89  1  0.55973000  0.15959000  0.79321000  1.0
  N  N90  1  0.55973000  0.65958000  0.70680000  1.0
  N  N91  1  0.44027000  0.84042000  0.20679000  1.0
  N  N92  1  0.03739000  0.56057000  0.41258000  1.0
  N  N93  1  0.96261000  0.93944000  0.91257000  1.0
  N  N94  1  0.96260000  0.43944000  0.58742000  1.0
  N  N95  1  0.03739000  0.06056000  0.08742000  1.0
  N  N96  1  0.87581000  0.49160000  0.39211000  1.0
  N  N97  1  0.12419000  0.00840000  0.89211000  1.0
  N  N98  1  0.12418000  0.50840000  0.60789000  1.0
  N  N99  1  0.87581000  0.99160000  0.10789000  1.0
  N  N100  1  0.69827000  0.54697000  0.42447000  1.0
  N  N101  1  0.30172000  0.95303000  0.92447000  1.0
  N  N102  1  0.30172000  0.45303000  0.57553000  1.0
  N  N103  1  0.69828000  0.04697000  0.07553000  1.0
  N  N104  1  0.73805000  0.65145000  0.46547000  1.0
  N  N105  1  0.26194000  0.84856000  0.96547000  1.0
  N  N106  1  0.26193000  0.34855000  0.53453000  1.0
  N  N107  1  0.73807000  0.15145000  0.03453000  1.0
