# generated using pymatgen
data_Zr3H18C25O16F7
_symmetry_space_group_name_H-M   'P 1'
_cell_length_a   14.30050000
_cell_length_b   17.78260000
_cell_length_c   23.82110000
_cell_angle_alpha   88.34620000
_cell_angle_beta   89.50690000
_cell_angle_gamma   86.72180000
_symmetry_Int_Tables_number   1
_chemical_formula_structural   Zr3H18C25O16F7
_chemical_formula_sum   'Zr12 H72 C100 O64 F28'
_cell_volume   6045.12885929
_cell_formula_units_Z   4
loop_
 _symmetry_equiv_pos_site_id
 _symmetry_equiv_pos_as_xyz
  1  'x, y, z'
loop_
 _atom_site_type_symbol
 _atom_site_label
 _atom_site_symmetry_multiplicity
 _atom_site_fract_x
 _atom_site_fract_y
 _atom_site_fract_z
 _atom_site_occupancy
  Zr  Zr0  1  0.47985000  0.37933000  0.45528000  1.0
  Zr  Zr1  1  0.55789000  0.58828000  0.56579000  1.0
  Zr  Zr2  1  0.59769000  0.55324000  0.42182000  1.0
  Zr  Zr3  1  0.45970000  0.41645000  0.59871000  1.0
  Zr  Zr4  1  0.68295000  0.41895000  0.53073000  1.0
  Zr  Zr5  1  0.35473000  0.54555000  0.49653000  1.0
  Zr  Zr6  1  0.07842000  0.06806000  0.95903000  1.0
  Zr  Zr7  1  0.98232000  0.86155000  0.07776000  1.0
  Zr  Zr8  1  0.97410000  0.89502000  0.93176000  1.0
  Zr  Zr9  1  0.08469000  0.03300000  0.10542000  1.0
  Zr  Zr10  1  0.86781000  0.03212000  0.02775000  1.0
  Zr  Zr11  1  0.19471000  0.89942000  0.00890000  1.0
  H  H12  1  0.57842000  0.30036000  0.55390000  1.0
  H  H13  1  0.73781000  0.56484000  0.51533000  1.0
  H  H14  1  0.38358000  0.56540000  0.61600000  1.0
  H  H15  1  0.37555000  0.48831000  0.38808000  1.0
  H  H16  1  0.84933000  0.44326000  0.49632000  1.0
  H  H17  1  0.50206000  0.60832000  0.33246000  1.0
  H  H18  1  0.33194000  0.67831000  0.43185000  1.0
  H  H19  1  0.77174000  0.32451000  0.60586000  1.0
  H  H20  1  0.51588000  0.34688000  0.69738000  1.0
  H  H21  1  0.32528000  0.44616000  0.67521000  1.0
  H  H22  1  0.19346000  0.51210000  0.54668000  1.0
  H  H23  1  0.83490000  0.44649000  0.59761000  1.0
  H  H24  1  0.68371000  0.68481000  0.60977000  1.0
  H  H25  1  0.35481000  0.27930000  0.41559000  1.0
  H  H26  1  0.20778000  0.55038000  0.42884000  1.0
  H  H27  1  0.46912000  0.28460000  0.66167000  1.0
  H  H28  1  0.65195000  0.62656000  0.65832000  1.0
  H  H29  1  0.77614000  0.51402000  0.40922000  1.0
  H  H30  1  0.82881000  0.38431000  0.44862000  1.0
  H  H31  1  0.26696000  0.48020000  0.59623000  1.0
  H  H32  1  0.41217000  0.62751000  0.39677000  1.0
  H  H33  1  0.39727000  0.32490000  0.36331000  1.0
  H  H34  1  0.98916000  0.15140000  0.04603000  1.0
  H  H35  1  0.81710000  0.88019000  0.00943000  1.0
  H  H36  1  0.15416000  0.88480000  0.12932000  1.0
  H  H37  1  0.17680000  0.94759000  0.90206000  1.0
  H  H38  1  0.70661000  0.99866000  0.97873000  1.0
  H  H39  1  0.06802000  0.84073000  0.84278000  1.0
  H  H40  1  0.21178000  0.75555000  0.95655000  1.0
  H  H41  1  0.79261000  0.09286000  0.11776000  1.0
  H  H42  1  0.02112000  0.15713000  0.16301000  1.0
  H  H43  1  0.25418000  0.06401000  0.14014000  1.0
  H  H44  1  0.33818000  0.88408000  0.09591000  1.0
  H  H45  1  0.74250000  0.95494000  0.08917000  1.0
  H  H46  1  0.82580000  0.78493000  0.11033000  1.0
  H  H47  1  0.23161000  0.14847000  0.92346000  1.0
  H  H48  1  0.35589000  0.94925000  0.98168000  1.0
  H  H49  1  0.90149000  0.11715000  0.12467000  1.0
  H  H50  1  0.85511000  0.83342000  0.16139000  1.0
  H  H51  1  0.83101000  0.91635000  0.86294000  1.0
  H  H52  1  0.78519000  0.97006000  0.93240000  1.0
  H  H53  1  0.27600000  0.96483000  0.10505000  1.0
  H  H54  1  0.14596000  0.80723000  0.91470000  1.0
  H  H55  1  0.18846000  0.11334000  0.86927000  1.0
  H  H56  1  0.19556000  0.65820000  0.17694000  1.0
  H  H57  1  0.29170000  0.51761000  0.00778000  1.0
  H  H58  1  0.14644000  0.27603000  0.13254000  1.0
  H  H59  1  0.39191000  0.36309000  0.00205000  1.0
  H  H60  1  0.65358000  0.36134000  0.01357000  1.0
  H  H61  1  0.42603000  0.57876000  0.03089000  1.0
  H  H62  1  0.80115000  0.72473000  0.90614000  1.0
  H  H63  1  0.79063000  0.49636000  0.02860000  1.0
  H  H64  1  0.88523000  0.44886000  0.95045000  1.0
  H  H65  1  0.72016000  0.21534000  0.92259000  1.0
  H  H66  1  0.46978000  0.31887000  0.26931000  1.0
  H  H67  1  0.46705000  0.55364000  0.15351000  1.0
  H  H68  1  0.72083000  0.50922000  0.73795000  1.0
  H  H69  1  0.50008000  0.48129000  0.89813000  1.0
  H  H70  1  0.66823000  0.97170000  0.45880000  1.0
  H  H71  1  0.82442000  0.71550000  0.45031000  1.0
  H  H72  1  0.69546000  0.16615000  0.52957000  1.0
  H  H73  1  0.82254000  0.08509000  0.34500000  1.0
  H  H74  1  0.04742000  0.95264000  0.39514000  1.0
  H  H75  1  0.82363000  0.92661000  0.23993000  1.0
  H  H76  1  0.88635000  0.89861000  0.53329000  1.0
  H  H77  1  0.12563000  0.08424000  0.50108000  1.0
  H  H78  1  0.10848000  0.85515000  0.56940000  1.0
  H  H79  1  0.45082000  0.83894000  0.58983000  1.0
  H  H80  1  0.28887000  0.01728000  0.51197000  1.0
  H  H81  1  0.25818000  0.24437000  0.62693000  1.0
  H  H82  1  0.98869000  0.04068000  0.63878000  1.0
  H  H83  1  0.20726000  0.97688000  0.79515000  1.0
  C  C84  1  0.16530000  0.99551000  0.59856000  1.0
  C  C85  1  0.85997000  0.97559000  0.43090000  1.0
  C  C86  1  0.66368000  0.27232000  0.44932000  1.0
  C  C87  1  0.38029000  0.26233000  0.54406000  1.0
  C  C88  1  0.53547000  0.43424000  0.32688000  1.0
  C  C89  1  0.64261000  0.71137000  0.47971000  1.0
  C  C90  1  0.37924000  0.70382000  0.56134000  1.0
  C  C91  1  0.53688000  0.51379000  0.70391000  1.0
  C  C92  1  0.68908000  0.47878000  0.93361000  1.0
  C  C93  1  0.37558000  0.45069000  0.09957000  1.0
  C  C94  1  0.89863000  0.18469000  0.95196000  1.0
  C  C95  1  0.17216000  0.18425000  0.04521000  1.0
  C  C96  1  0.03132000  0.01526000  0.83251000  1.0
  C  C97  1  0.90162000  0.73938000  0.99612000  1.0
  C  C98  1  0.16064000  0.74109000  0.07849000  1.0
  C  C99  1  0.00671000  0.91999000  0.20433000  1.0
  C  C100  1  0.21796000  0.62894000  0.13913000  1.0
  C  C101  1  0.19857000  0.66091000  0.08613000  1.0
  C  C102  1  0.22393000  0.61710000  0.04017000  1.0
  C  C103  1  0.27380000  0.54846000  0.04561000  1.0
  C  C104  1  0.30537000  0.52043000  0.09842000  1.0
  C  C105  1  0.26927000  0.56015000  0.14471000  1.0
  C  C106  1  0.19836000  0.29604000  0.10285000  1.0
  C  C107  1  0.21919000  0.25605000  0.05400000  1.0
  C  C108  1  0.28674000  0.28478000  0.01794000  1.0
  C  C109  1  0.33683000  0.34667000  0.03098000  1.0
  C  C110  1  0.31947000  0.38432000  0.08108000  1.0
  C  C111  1  0.24555000  0.35929000  0.11445000  1.0
  C  C112  1  0.60388000  0.40993000  0.01527000  1.0
  C  C113  1  0.61267000  0.47326000  0.97973000  1.0
  C  C114  1  0.54712000  0.53308000  0.98941000  1.0
  C  C115  1  0.47327000  0.52897000  0.02746000  1.0
  C  C116  1  0.45910000  0.46278000  0.05894000  1.0
  C  C117  1  0.52982000  0.40559000  0.05294000  1.0
  C  C118  1  0.79922000  0.67441000  0.93322000  1.0
  C  C119  1  0.84853000  0.67148000  0.98367000  1.0
  C  C120  1  0.84181000  0.60614000  0.01735000  1.0
  C  C121  1  0.79227000  0.54573000  0.00045000  1.0
  C  C122  1  0.74472000  0.54746000  0.94888000  1.0
  C  C123  1  0.74723000  0.61535000  0.91750000  1.0
  C  C124  1  0.84712000  0.39879000  0.94340000  1.0
  C  C125  1  0.75073000  0.40432000  0.93321000  1.0
  C  C126  1  0.70968000  0.33612000  0.92243000  1.0
  C  C127  1  0.75747000  0.26653000  0.92698000  1.0
  C  C128  1  0.85314000  0.26131000  0.93946000  1.0
  C  C129  1  0.89655000  0.32896000  0.94570000  1.0
  C  C130  1  0.46897000  0.37118000  0.24434000  1.0
  C  C131  1  0.50689000  0.43470000  0.26648000  1.0
  C  C132  1  0.50711000  0.49890000  0.23080000  1.0
  C  C133  1  0.46718000  0.50090000  0.17805000  1.0
  C  C134  1  0.42298000  0.43913000  0.15751000  1.0
  C  C135  1  0.42965000  0.37330000  0.19130000  1.0
  C  C136  1  0.67128000  0.50279000  0.77254000  1.0
  C  C137  1  0.57474000  0.50490000  0.76274000  1.0
  C  C138  1  0.51649000  0.49547000  0.80941000  1.0
  C  C139  1  0.55016000  0.48736000  0.86388000  1.0
  C  C140  1  0.64619000  0.48675000  0.87417000  1.0
  C  C141  1  0.70456000  0.49225000  0.82682000  1.0
  C  C142  1  0.70496000  0.91640000  0.45890000  1.0
  C  C143  1  0.80046000  0.90843000  0.44592000  1.0
  C  C144  1  0.84078000  0.83472000  0.44458000  1.0
  C  C145  1  0.79038000  0.77151000  0.45445000  1.0
  C  C146  1  0.69569000  0.78057000  0.46914000  1.0
  C  C147  1  0.65514000  0.85334000  0.47138000  1.0
  C  C148  1  0.72011000  0.14798000  0.48843000  1.0
  C  C149  1  0.70939000  0.19561000  0.44105000  1.0
  C  C150  1  0.74512000  0.17014000  0.39020000  1.0
  C  C151  1  0.79219000  0.10019000  0.38546000  1.0
  C  C152  1  0.80258000  0.05132000  0.43234000  1.0
  C  C153  1  0.76459000  0.07744000  0.48318000  1.0
  C  C154  1  0.99680000  0.94953000  0.36161000  1.0
  C  C155  1  0.90062000  0.95976000  0.37215000  1.0
  C  C156  1  0.84119000  0.94897000  0.32693000  1.0
  C  C157  1  0.87384000  0.93182000  0.27357000  1.0
  C  C158  1  0.97021000  0.92529000  0.26313000  1.0
  C  C159  1  0.02989000  0.93372000  0.30824000  1.0
  C  C160  1  0.93912000  0.93915000  0.52455000  1.0
  C  C161  1  0.93714000  0.98233000  0.47476000  1.0
  C  C162  1  0.00432000  0.03631000  0.47045000  1.0
  C  C163  1  0.07467000  0.04221000  0.50959000  1.0
  C  C164  1  0.08050000  0.99569000  0.55807000  1.0
  C  C165  1  0.00648000  0.94736000  0.56480000  1.0
  C  C166  1  0.18331000  0.85586000  0.57462000  1.0
  C  C167  1  0.22729000  0.92112000  0.58854000  1.0
  C  C168  1  0.32557000  0.91093000  0.59367000  1.0
  C  C169  1  0.37486000  0.84219000  0.58576000  1.0
  C  C170  1  0.32875000  0.77789000  0.57208000  1.0
  C  C171  1  0.23136000  0.78724000  0.56721000  1.0
  C  C172  1  0.27965000  0.06701000  0.53758000  1.0
  C  C173  1  0.22020000  0.06613000  0.58485000  1.0
  C  C174  1  0.21270000  0.13329000  0.61464000  1.0
  C  C175  1  0.26490000  0.19461000  0.60122000  1.0
  C  C176  1  0.32523000  0.19424000  0.55484000  1.0
  C  C177  1  0.32939000  0.12936000  0.52276000  1.0
  C  C178  1  0.03722000  0.02329000  0.67225000  1.0
  C  C179  1  0.12950000  0.99760000  0.65998000  1.0
  C  C180  1  0.18754000  0.98175000  0.70627000  1.0
  C  C181  1  0.15725000  0.98977000  0.76142000  1.0
  C  C182  1  0.06443000  0.01343000  0.77268000  1.0
  C  C183  1  0.00594000  0.02947000  0.72705000  1.0
  O  O184  1  0.36136000  0.32945000  0.39846000  1.0
  O  O185  1  0.57731000  0.28177000  0.43711000  1.0
  O  O186  1  0.50840000  0.37983000  0.35828000  1.0
  O  O187  1  0.39687000  0.29983000  0.58711000  1.0
  O  O188  1  0.57937000  0.48887000  0.34313000  1.0
  O  O189  1  0.40485000  0.27823000  0.49389000  1.0
  O  O190  1  0.71453000  0.31878000  0.47175000  1.0
  O  O191  1  0.59068000  0.44368000  0.45867000  1.0
  O  O192  1  0.55404000  0.34919000  0.53914000  1.0
  O  O193  1  0.40997000  0.48284000  0.42294000  1.0
  O  O194  1  0.40561000  0.43424000  0.52016000  1.0
  O  O195  1  0.32848000  0.42372000  0.63847000  1.0
  O  O196  1  0.81661000  0.43623000  0.45990000  1.0
  O  O197  1  0.58406000  0.47369000  0.58387000  1.0
  O  O198  1  0.67547000  0.54712000  0.50993000  1.0
  O  O199  1  0.49902000  0.57830000  0.49188000  1.0
  O  O200  1  0.42242000  0.54103000  0.58746000  1.0
  O  O201  1  0.72752000  0.54992000  0.39436000  1.0
  O  O202  1  0.63101000  0.67249000  0.43753000  1.0
  O  O203  1  0.61837000  0.69637000  0.53041000  1.0
  O  O204  1  0.22505000  0.53160000  0.46615000  1.0
  O  O205  1  0.45764000  0.68772000  0.58531000  1.0
  O  O206  1  0.50137000  0.61979000  0.37209000  1.0
  O  O207  1  0.34637000  0.62746000  0.41911000  1.0
  O  O208  1  0.24731000  0.52364000  0.56929000  1.0
  O  O209  1  0.33834000  0.66179000  0.52805000  1.0
  O  O210  1  0.68053000  0.63163000  0.62059000  1.0
  O  O211  1  0.51821000  0.32070000  0.66171000  1.0
  O  O212  1  0.55263000  0.57263000  0.67505000  1.0
  O  O213  1  0.49140000  0.45887000  0.68749000  1.0
  O  O214  1  0.71190000  0.33210000  0.58721000  1.0
  O  O215  1  0.80819000  0.46029000  0.56132000  1.0
  O  O216  1  0.21268000  0.10183000  0.90703000  1.0
  O  O217  1  0.98305000  0.16999000  0.93674000  1.0
  O  O218  1  0.06074000  0.06684000  0.86261000  1.0
  O  O219  1  0.15271000  0.14675000  0.08963000  1.0
  O  O220  1  0.98201000  0.96170000  0.84839000  1.0
  O  O221  1  0.15417000  0.16690000  0.99506000  1.0
  O  O222  1  0.84629000  0.14057000  0.97900000  1.0
  O  O223  1  0.96369000  0.00644000  0.96143000  1.0
  O  O224  1  0.00013000  0.09864000  0.03744000  1.0
  O  O225  1  0.12724000  0.95229000  0.93024000  1.0
  O  O226  1  0.14571000  0.01119000  0.02454000  1.0
  O  O227  1  0.22201000  0.01743000  0.13845000  1.0
  O  O228  1  0.76095000  0.01448000  0.95742000  1.0
  O  O229  1  0.96117000  0.97584000  0.08537000  1.0
  O  O230  1  0.87566000  0.90420000  0.01405000  1.0
  O  O231  1  0.05228000  0.86564000  0.00460000  1.0
  O  O232  1  0.12228000  0.90634000  0.09632000  1.0
  O  O233  1  0.83472000  0.90515000  0.90312000  1.0
  O  O234  1  0.92520000  0.77778000  0.95353000  1.0
  O  O235  1  0.91549000  0.75549000  0.04747000  1.0
  O  O236  1  0.30825000  0.92280000  0.96271000  1.0
  O  O237  1  0.08145000  0.75970000  0.09972000  1.0
  O  O238  1  0.05401000  0.82331000  0.88075000  1.0
  O  O239  1  0.20371000  0.80624000  0.94013000  1.0
  O  O240  1  0.30620000  0.92594000  0.07556000  1.0
  O  O241  1  0.21536000  0.78334000  0.05118000  1.0
  O  O242  1  0.83154000  0.83660000  0.12269000  1.0
  O  O243  1  0.99810000  0.10986000  0.15129000  1.0
  O  O244  1  0.97933000  0.86694000  0.17393000  1.0
  O  O245  1  0.05944000  0.97103000  0.18906000  1.0
  O  O246  1  0.84357000  0.11777000  0.09846000  1.0
  O  O247  1  0.74890000  0.00417000  0.07135000  1.0
  F  F248  1  0.28311000  0.53405000  0.19840000  1.0
  F  F249  1  0.20022000  0.64313000  0.98720000  1.0
  F  F250  1  0.22220000  0.39616000  0.16241000  1.0
  F  F251  1  0.31035000  0.24946000  0.96921000  1.0
  F  F252  1  0.52607000  0.34047000  0.08428000  1.0
  F  F253  1  0.55266000  0.59908000  0.95935000  1.0
  F  F254  1  0.69645000  0.62831000  0.86975000  1.0
  F  F255  1  0.88606000  0.59914000  0.06770000  1.0
  F  F256  1  0.98940000  0.32816000  0.95788000  1.0
  F  F257  1  0.61646000  0.33652000  0.90983000  1.0
  F  F258  1  0.39671000  0.30757000  0.17377000  1.0
  F  F259  1  0.54257000  0.56410000  0.24737000  1.0
  F  F260  1  0.79931000  0.49126000  0.83410000  1.0
  F  F261  1  0.42185000  0.49571000  0.80201000  1.0
  F  F262  1  0.56226000  0.86334000  0.48466000  1.0
  F  F263  1  0.93425000  0.82333000  0.43295000  1.0
  F  F264  1  0.77186000  0.03290000  0.53093000  1.0
  F  F265  1  0.73635000  0.21629000  0.34359000  1.0
  F  F266  1  0.12414000  0.92493000  0.30030000  1.0
  F  F267  1  0.74636000  0.95623000  0.33451000  1.0
  F  F268  1  0.99775000  0.90296000  0.61246000  1.0
  F  F269  1  0.00319000  0.08599000  0.42564000  1.0
  F  F270  1  0.17825000  0.72869000  0.55613000  1.0
  F  F271  1  0.37871000  0.96903000  0.60700000  1.0
  F  F272  1  0.38557000  0.12469000  0.47644000  1.0
  F  F273  1  0.15320000  0.14301000  0.65926000  1.0
  F  F274  1  0.91507000  0.05354000  0.73659000  1.0
  F  F275  1  0.27952000  0.95975000  0.69894000  1.0
