# generated using pymatgen
data_CdH18C26N3O4
_symmetry_space_group_name_H-M   'P 1'
_cell_length_a   9.08050000
_cell_length_b   11.28150000
_cell_length_c   11.97720000
_cell_angle_alpha   77.52920000
_cell_angle_beta   82.43160000
_cell_angle_gamma   78.51250000
_symmetry_Int_Tables_number   1
_chemical_formula_structural   CdH18C26N3O4
_chemical_formula_sum   'Cd2 H36 C52 N6 O8'
_cell_volume   1168.96135678
_cell_formula_units_Z   2
loop_
 _symmetry_equiv_pos_site_id
 _symmetry_equiv_pos_as_xyz
  1  'x, y, z'
loop_
 _atom_site_type_symbol
 _atom_site_label
 _atom_site_symmetry_multiplicity
 _atom_site_fract_x
 _atom_site_fract_y
 _atom_site_fract_z
 _atom_site_occupancy
  Cd  Cd0  1  0.06092000  0.82651000  0.52063000  1.0
  Cd  Cd1  1  0.93908000  0.17349000  0.47937000  1.0
  H  H2  1  0.13785000  0.12120000  0.95610000  1.0
  H  H3  1  0.86215000  0.87880000  0.04390000  1.0
  H  H4  1  0.99117000  0.12689000  0.14664000  1.0
  H  H5  1  0.00883000  0.87311000  0.85336000  1.0
  H  H6  1  0.71709000  0.19736000  0.16032000  1.0
  H  H7  1  0.28291000  0.80264000  0.83968000  1.0
  H  H8  1  0.72559000  0.25265000  0.79122000  1.0
  H  H9  1  0.27441000  0.74735000  0.20878000  1.0
  H  H10  1  0.00341000  0.18864000  0.77740000  1.0
  H  H11  1  0.99659000  0.81136000  0.22260000  1.0
  H  H12  1  0.61053000  0.02080000  0.07554000  1.0
  H  H13  1  0.38947000  0.97920000  0.92446000  1.0
  H  H14  1  0.45282000  0.90144000  0.22516000  1.0
  H  H15  1  0.54718000  0.09856000  0.77484000  1.0
  H  H16  1  0.12552000  0.23197000  0.24485000  1.0
  H  H17  1  0.87448000  0.76802000  0.75515000  1.0
  H  H18  1  0.27949000  0.35015000  0.09307000  1.0
  H  H19  1  0.72051000  0.64985000  0.90693000  1.0
  H  H20  1  0.61968000  0.48181000  0.89373000  1.0
  H  H21  1  0.38032000  0.51819000  0.10627000  1.0
  H  H22  1  0.29591000  0.25005000  0.89399000  1.0
  H  H23  1  0.70409000  0.74995000  0.10601000  1.0
  H  H24  1  0.47280000  0.65025000  0.75878000  1.0
  H  H25  1  0.52720000  0.34975000  0.24122000  1.0
  H  H26  1  0.15087000  0.41804000  0.75930000  1.0
  H  H27  1  0.84913000  0.58196000  0.24070000  1.0
  H  H28  1  0.88062000  0.59976000  0.51190000  1.0
  H  H29  1  0.11938000  0.40025000  0.48810000  1.0
  H  H30  1  0.47715000  0.85366000  0.43725000  1.0
  H  H31  1  0.52285000  0.14635000  0.56275000  1.0
  H  H32  1  0.71504000  0.98139000  0.42062000  1.0
  H  H33  1  0.28496000  0.01861000  0.57938000  1.0
  H  H34  1  0.40980000  0.70231000  0.37719000  1.0
  H  H35  1  0.59020000  0.29769000  0.62281000  1.0
  H  H36  1  0.27552000  0.52948000  0.39202000  1.0
  H  H37  1  0.72448000  0.47052000  0.60798000  1.0
  C  C38  1  0.01640000  0.15461000  0.96105000  1.0
  C  C39  1  0.98360000  0.84539000  0.03895000  1.0
  C  C40  1  0.93450000  0.15663000  0.06808000  1.0
  C  C41  1  0.06550000  0.84337000  0.93192000  1.0
  C  C42  1  0.77874000  0.19532000  0.07610000  1.0
  C  C43  1  0.22126000  0.80468000  0.92390000  1.0
  C  C44  1  0.78445000  0.22852000  0.86878000  1.0
  C  C45  1  0.21555000  0.77148000  0.13122000  1.0
  C  C46  1  0.94108000  0.19181000  0.86144000  1.0
  C  C47  1  0.05892000  0.80819000  0.13856000  1.0
  C  C48  1  0.70230000  0.22977000  0.97638000  1.0
  C  C49  1  0.29770000  0.77023000  0.02362000  1.0
  C  C50  1  0.45603000  0.19376000  0.07356000  1.0
  C  C51  1  0.54397000  0.80624000  0.92644000  1.0
  C  C52  1  0.50465000  0.06672000  0.11320000  1.0
  C  C53  1  0.49535000  0.93328000  0.88680000  1.0
  C  C54  1  0.41658000  0.00031000  0.19730000  1.0
  C  C55  1  0.58342000  0.99968000  0.80270000  1.0
  C  C56  1  0.27830000  0.05782000  0.24555000  1.0
  C  C57  1  0.72170000  0.94218000  0.75445000  1.0
  C  C58  1  0.23122000  0.18506000  0.20752000  1.0
  C  C59  1  0.76878000  0.81494000  0.79248000  1.0
  C  C60  1  0.31832000  0.25197000  0.12281000  1.0
  C  C61  1  0.68168000  0.74803000  0.87719000  1.0
  C  C62  1  0.46628000  0.35552000  0.90380000  1.0
  C  C63  1  0.53372000  0.64448000  0.09620000  1.0
  C  C64  1  0.51719000  0.46824000  0.86379000  1.0
  C  C65  1  0.48281000  0.53176000  0.13621000  1.0
  C  C66  1  0.33494000  0.33769000  0.86394000  1.0
  C  C67  1  0.66506000  0.66231000  0.13606000  1.0
  C  C68  1  0.43489000  0.56202000  0.78893000  1.0
  C  C69  1  0.56511000  0.43798000  0.21107000  1.0
  C  C70  1  0.30141000  0.54559000  0.75163000  1.0
  C  C71  1  0.69859000  0.45441000  0.24837000  1.0
  C  C72  1  0.25331000  0.43169000  0.78936000  1.0
  C  C73  1  0.74669000  0.56831000  0.21064000  1.0
  C  C74  1  0.21362000  0.64600000  0.67146000  1.0
  C  C75  1  0.78637000  0.35400000  0.32854000  1.0
  C  C76  1  0.80482000  0.68663000  0.48969000  1.0
  C  C77  1  0.19518000  0.31337000  0.51031000  1.0
  C  C78  1  0.59600000  0.82182000  0.44872000  1.0
  C  C79  1  0.40400000  0.17818000  0.55128000  1.0
  C  C80  1  0.71403000  0.88305000  0.44242000  1.0
  C  C81  1  0.28598000  0.11695000  0.55757000  1.0
  C  C82  1  0.57648000  0.59732000  0.49029000  1.0
  C  C83  1  0.42352000  0.40268000  0.50970000  1.0
  C  C84  1  0.44906000  0.61384000  0.43124000  1.0
  C  C85  1  0.55094000  0.38616000  0.56876000  1.0
  C  C86  1  0.37252000  0.51656000  0.44079000  1.0
  C  C87  1  0.62749000  0.48344000  0.55921000  1.0
  C  C88  1  0.18601000  0.98443000  0.33417000  1.0
  C  C89  1  0.81399000  0.01557000  0.66583000  1.0
  N  N90  1  0.65523000  0.69697000  0.47852000  1.0
  N  N91  1  0.34477000  0.30303000  0.52147000  1.0
  N  N92  1  0.84323000  0.79760000  0.46835000  1.0
  N  N93  1  0.15677000  0.20240000  0.53165000  1.0
  N  N94  1  0.54204000  0.26125000  0.98554000  1.0
  N  N95  1  0.45796000  0.73875000  0.01446000  1.0
  O  O96  1  0.25259000  0.75231000  0.64552000  1.0
  O  O97  1  0.74741000  0.24769000  0.35448000  1.0
  O  O98  1  0.10149000  0.62311000  0.62949000  1.0
  O  O99  1  0.89851000  0.37689000  0.37051000  1.0
  O  O100  1  0.05146000  0.03097000  0.36925000  1.0
  O  O101  1  0.94854000  0.96903000  0.63075000  1.0
  O  O102  1  0.24288000  0.87232000  0.37526000  1.0
  O  O103  1  0.75712000  0.12768000  0.62474000  1.0
