# generated using pymatgen
data_ZnH44C36NO18
_symmetry_space_group_name_H-M   'P 1'
_cell_length_a   10.75520000
_cell_length_b   18.53360000
_cell_length_c   19.00320000
_cell_angle_alpha   90.89230000
_cell_angle_beta   90.77270000
_cell_angle_gamma   90.95060000
_symmetry_Int_Tables_number   1
_chemical_formula_structural   ZnH44C36NO18
_chemical_formula_sum   'Zn2 H88 C72 N2 O36'
_cell_volume   3786.61828174
_cell_formula_units_Z   2
loop_
 _symmetry_equiv_pos_site_id
 _symmetry_equiv_pos_as_xyz
  1  'x, y, z'
loop_
 _atom_site_type_symbol
 _atom_site_label
 _atom_site_symmetry_multiplicity
 _atom_site_fract_x
 _atom_site_fract_y
 _atom_site_fract_z
 _atom_site_occupancy
  Zn  Zn0  1  0.48694000  0.57466000  0.50661000  1.0
  Zn  Zn1  1  0.49411000  0.41263000  0.50451000  1.0
  H  H2  1  0.02614000  0.33316000  0.51503000  1.0
  H  H3  1  0.73461000  0.78711000  0.20966000  1.0
  H  H4  1  0.80895000  0.79739000  0.29303000  1.0
  H  H5  1  0.31624000  0.86582000  0.59408000  1.0
  H  H6  1  0.30273000  0.94345000  0.65046000  1.0
  H  H7  1  0.41637000  0.79905000  0.69269000  1.0
  H  H8  1  0.40359000  0.87602000  0.74838000  1.0
  H  H9  1  0.16723000  0.86836000  0.73379000  1.0
  H  H10  1  0.22857000  0.78969000  0.77172000  1.0
  H  H11  1  0.18338000  0.78856000  0.68168000  1.0
  H  H12  1  0.44566000  0.12981000  0.30323000  1.0
  H  H13  1  0.77807000  0.37836000  0.53340000  1.0
  H  H14  1  0.36678000  0.12505000  0.38511000  1.0
  H  H15  1  0.37792000  0.00317000  0.27378000  1.0
  H  H16  1  0.30463000  0.99564000  0.35580000  1.0
  H  H17  1  0.15753000  0.09566000  0.32374000  1.0
  H  H18  1  0.14776000  0.02345000  0.26144000  1.0
  H  H19  1  0.23029000  0.10392000  0.24087000  1.0
  H  H20  1  0.56672000  0.12936000  0.70302000  1.0
  H  H21  1  0.64440000  0.12736000  0.62064000  1.0
  H  H22  1  0.63568000  0.00410000  0.72709000  1.0
  H  H23  1  0.70647000  0.99856000  0.64408000  1.0
  H  H24  1  0.75981000  0.79534000  0.57665000  1.0
  H  H25  1  0.85516000  0.10063000  0.67830000  1.0
  H  H26  1  0.86610000  0.02848000  0.73821000  1.0
  H  H27  1  0.78497000  0.10756000  0.76210000  1.0
  H  H28  1  0.36694000  0.11795000  0.61087000  1.0
  H  H29  1  0.64471000  0.12202000  0.39517000  1.0
  H  H30  1  0.28729000  0.26412000  0.60547000  1.0
  H  H31  1  0.71857000  0.26952000  0.40447000  1.0
  H  H32  1  0.14719000  0.58686000  0.46231000  1.0
  H  H33  1  0.98137000  0.57135000  0.52879000  1.0
  H  H34  1  0.54529000  0.40943000  0.66074000  1.0
  H  H35  1  0.25435000  0.79387000  0.41783000  1.0
  H  H36  1  0.67061000  0.39689000  0.35286000  1.0
  H  H37  1  0.80662000  0.51999000  0.83403000  1.0
  H  H38  1  0.82274000  0.45056000  0.76821000  1.0
  H  H39  1  0.86678000  0.43100000  0.92659000  1.0
  H  H40  1  0.89869000  0.36676000  0.85957000  1.0
  H  H41  1  0.05744000  0.45557000  0.80830000  1.0
  H  H42  1  0.09651000  0.43306000  0.89631000  1.0
  H  H43  1  0.02637000  0.51683000  0.87829000  1.0
  H  H44  1  0.74570000  0.31120000  0.09139000  1.0
  H  H45  1  0.59377000  0.34803000  0.09570000  1.0
  H  H46  1  0.69442000  0.87062000  0.39242000  1.0
  H  H47  1  0.71952000  0.26079000  0.21194000  1.0
  H  H48  1  0.56891000  0.29684000  0.21620000  1.0
  H  H49  1  0.49993000  0.21993000  0.11108000  1.0
  H  H50  1  0.55756000  0.16512000  0.17964000  1.0
  H  H51  1  0.65118000  0.18353000  0.10573000  1.0
  H  H52  1  0.47313000  0.72631000  0.91531000  1.0
  H  H53  1  0.39476000  0.74563000  0.83508000  1.0
  H  H54  1  0.64960000  0.67439000  0.84580000  1.0
  H  H55  1  0.57256000  0.69675000  0.76664000  1.0
  H  H56  1  0.58194000  0.82888000  0.80094000  1.0
  H  H57  1  0.69629000  0.94642000  0.33508000  1.0
  H  H58  1  0.73238000  0.79150000  0.80127000  1.0
  H  H59  1  0.65572000  0.80750000  0.88198000  1.0
  H  H60  1  0.54294000  0.67410000  0.14055000  1.0
  H  H61  1  0.39977000  0.68533000  0.18576000  1.0
  H  H62  1  0.42961000  0.65444000  0.02730000  1.0
  H  H63  1  0.28588000  0.65474000  0.07065000  1.0
  H  H64  1  0.31791000  0.78559000  0.10561000  1.0
  H  H65  1  0.32530000  0.77409000  0.01289000  1.0
  H  H66  1  0.46425000  0.78700000  0.06338000  1.0
  H  H67  1  0.30411000  0.64679000  0.76987000  1.0
  H  H68  1  0.57321000  0.79833000  0.30288000  1.0
  H  H69  1  0.47220000  0.60585000  0.34014000  1.0
  H  H70  1  0.84089000  0.69478000  0.92285000  1.0
  H  H71  1  0.87874000  0.64922000  0.00196000  1.0
  H  H72  1  0.63495000  0.72794000  0.97394000  1.0
  H  H73  1  0.67526000  0.68346000  0.05236000  1.0
  H  H74  1  0.85861000  0.76861000  0.07116000  1.0
  H  H75  1  0.71718000  0.81620000  0.06580000  1.0
  H  H76  1  0.81835000  0.81429000  0.99278000  1.0
  H  H77  1  0.93392000  0.53918000  0.02972000  1.0
  H  H78  1  0.86368000  0.47187000  0.08415000  1.0
  H  H79  1  0.56784000  0.87331000  0.24670000  1.0
  H  H80  1  0.92316000  0.54007000  0.19120000  1.0
  H  H81  1  0.05493000  0.52083000  0.14012000  1.0
  H  H82  1  0.05382000  0.64860000  0.09334000  1.0
  H  H83  1  0.07021000  0.64747000  0.18633000  1.0
  H  H84  1  0.92391000  0.66760000  0.14720000  1.0
  H  H85  1  0.34237000  0.40873000  0.03167000  1.0
  H  H86  1  0.38133000  0.46041000  0.88063000  1.0
  H  H87  1  0.69469000  0.63502000  0.55721000  1.0
  H  H88  1  0.31138000  0.63397000  0.44094000  1.0
  H  H89  1  0.80187000  0.87174000  0.23525000  1.0
  C  C90  1  0.56815000  0.50327000  0.37661000  1.0
  C  C91  1  0.47829000  0.48159000  0.96462000  1.0
  C  C92  1  0.59771000  0.72187000  0.53042000  1.0
  C  C93  1  0.40858000  0.72156000  0.46921000  1.0
  C  C94  1  0.60411000  0.79760000  0.52973000  1.0
  C  C95  1  0.40815000  0.79683000  0.46744000  1.0
  C  C96  1  0.50748000  0.83586000  0.49854000  1.0
  C  C97  1  0.51817000  0.95362000  0.43639000  1.0
  C  C98  1  0.49557000  0.95306000  0.56333000  1.0
  C  C99  1  0.51626000  0.02927000  0.43803000  1.0
  C  C100  1  0.49627000  0.02866000  0.56447000  1.0
  C  C101  1  0.43411000  0.50891000  0.63531000  1.0
  C  C102  1  0.50592000  0.06847000  0.50197000  1.0
  C  C103  1  0.72300000  0.49179000  0.54837000  1.0
  C  C104  1  0.26027000  0.48621000  0.46818000  1.0
  C  C105  1  0.50826000  0.91543000  0.49929000  1.0
  C  C106  1  0.41761000  0.18725000  0.54325000  1.0
  C  C107  1  0.58960000  0.18966000  0.46432000  1.0
  C  C108  1  0.41964000  0.26291000  0.54260000  1.0
  C  C109  1  0.58415000  0.26503000  0.46649000  1.0
  C  C110  1  0.50426000  0.14831000  0.50327000  1.0
  C  C111  1  0.05313000  0.43165000  0.50156000  1.0
  C  C112  1  0.46097000  0.51578000  0.71159000  1.0
  C  C113  1  0.92368000  0.43668000  0.52294000  1.0
  C  C114  1  0.12627000  0.48757000  0.47844000  1.0
  C  C115  1  0.85845000  0.49710000  0.54425000  1.0
  C  C116  1  0.54753000  0.46761000  0.74226000  1.0
  C  C117  1  0.64500000  0.44424000  0.26639000  1.0
  C  C118  1  0.59017000  0.47917000  0.81191000  1.0
  C  C119  1  0.65399000  0.44299000  0.19265000  1.0
  C  C120  1  0.54059000  0.53428000  0.85427000  1.0
  C  C121  1  0.58673000  0.49287000  0.15324000  1.0
  C  C122  1  0.45563000  0.58196000  0.82395000  1.0
  C  C123  1  0.57918000  0.50070000  0.30009000  1.0
  C  C124  1  0.51111000  0.54412000  0.18622000  1.0
  C  C125  1  0.41635000  0.57295000  0.75350000  1.0
  C  C126  1  0.51420000  0.55205000  0.25949000  1.0
  C  C127  1  0.64380000  0.89712000  0.34928000  1.0
  C  C128  1  0.62587000  0.84645000  0.28632000  1.0
  C  C129  1  0.74966000  0.82459000  0.25440000  1.0
  C  C130  1  0.35741000  0.89450000  0.64034000  1.0
  C  C131  1  0.35871000  0.84625000  0.70406000  1.0
  C  C132  1  0.22730000  0.82195000  0.72370000  1.0
  C  C133  1  0.41367000  0.09302000  0.34428000  1.0
  C  C134  1  0.66179000  0.55927000  0.97075000  1.0
  C  C135  1  0.32816000  0.03397000  0.31417000  1.0
  C  C136  1  0.20952000  0.06612000  0.28336000  1.0
  C  C137  1  0.59821000  0.09382000  0.66028000  1.0
  C  C138  1  0.68435000  0.03611000  0.68740000  1.0
  C  C139  1  0.80410000  0.07015000  0.71821000  1.0
  C  C140  1  0.80343000  0.46117000  0.82433000  1.0
  C  C141  1  0.89728000  0.42500000  0.87177000  1.0
  C  C142  1  0.02655000  0.45927000  0.86322000  1.0
  C  C143  1  0.67493000  0.33194000  0.12743000  1.0
  C  C144  1  0.63751000  0.27434000  0.17982000  1.0
  C  C145  1  0.67694000  0.54121000  0.04199000  1.0
  C  C146  1  0.58358000  0.20713000  0.14208000  1.0
  C  C147  1  0.46178000  0.70911000  0.85990000  1.0
  C  C148  1  0.58544000  0.71305000  0.82225000  1.0
  C  C149  1  0.64156000  0.78946000  0.82699000  1.0
  C  C150  1  0.44318000  0.65890000  0.14007000  1.0
  C  C151  1  0.37980000  0.67937000  0.07144000  1.0
  C  C152  1  0.37153000  0.76091000  0.06288000  1.0
  C  C153  1  0.80150000  0.66546000  0.96754000  1.0
  C  C154  1  0.71365000  0.71361000  0.00817000  1.0
  C  C155  1  0.78068000  0.78188000  0.03588000  1.0
  C  C156  1  0.58868000  0.49666000  0.07522000  1.0
  C  C157  1  0.88755000  0.52965000  0.08052000  1.0
  C  C158  1  0.97054000  0.55369000  0.14203000  1.0
  C  C159  1  0.00646000  0.63386000  0.14223000  1.0
  C  C160  1  0.56115000  0.52883000  0.93166000  1.0
  C  C161  1  0.49015000  0.46631000  0.03611000  1.0
  N  N162  1  0.50027000  0.68512000  0.50122000  1.0
  N  N163  1  0.50075000  0.30144000  0.50454000  1.0
  O  O164  1  0.54437000  0.56458000  0.40605000  1.0
  O  O165  1  0.86897000  0.36980000  0.52077000  1.0
  O  O166  1  0.70568000  0.83290000  0.55832000  1.0
  O  O167  1  0.30997000  0.83151000  0.43758000  1.0
  O  O168  1  0.52159000  0.91721000  0.37325000  1.0
  O  O169  1  0.48443000  0.91601000  0.62500000  1.0
  O  O170  1  0.52884000  0.06476000  0.37456000  1.0
  O  O171  1  0.48280000  0.06355000  0.62915000  1.0
  O  O172  1  0.32618000  0.15714000  0.58374000  1.0
  O  O173  1  0.68333000  0.16223000  0.42404000  1.0
  O  O174  1  0.33856000  0.30023000  0.58148000  1.0
  O  O175  1  0.40722000  0.56480000  0.60050000  1.0
  O  O176  1  0.66649000  0.30423000  0.42963000  1.0
  O  O177  1  0.07413000  0.55445000  0.46666000  1.0
  O  O178  1  0.90674000  0.56376000  0.55892000  1.0
  O  O179  1  0.59314000  0.41076000  0.70657000  1.0
  O  O180  1  0.70217000  0.39244000  0.30397000  1.0
  O  O181  1  0.67888000  0.43455000  0.83957000  1.0
  O  O182  1  0.73307000  0.39486000  0.16055000  1.0
  O  O183  1  0.40107000  0.63745000  0.86187000  1.0
  O  O184  1  0.42964000  0.58179000  0.14503000  1.0
  O  O185  1  0.33046000  0.61949000  0.72801000  1.0
  O  O186  1  0.58049000  0.44532000  0.41185000  1.0
  O  O187  1  0.44935000  0.60661000  0.28911000  1.0
  O  O188  1  0.74335000  0.60248000  0.93403000  1.0
  O  O189  1  0.77369000  0.57058000  0.08253000  1.0
  O  O190  1  0.40426000  0.42236000  0.06781000  1.0
  O  O191  1  0.37916000  0.44775000  0.93039000  1.0
  O  O192  1  0.69436000  0.68955000  0.56185000  1.0
  O  O193  1  0.31055000  0.68772000  0.43662000  1.0
  O  O194  1  0.44809000  0.44595000  0.60684000  1.0
  O  O195  1  0.65962000  0.54985000  0.55030000  1.0
  O  O196  1  0.31095000  0.54964000  0.45914000  1.0
  O  O197  1  0.67196000  0.42824000  0.54745000  1.0
  O  O198  1  0.31956000  0.42801000  0.47045000  1.0
  O  O199  1  0.09810000  0.36371000  0.50242000  1.0
