# generated using pymatgen
data_NiH60Pt2C56(N4Cl)2
_symmetry_space_group_name_H-M   'P 1'
_cell_length_a   9.12511000
_cell_length_b   9.99923000
_cell_length_c   15.58340000
_cell_angle_alpha   72.45720000
_cell_angle_beta   89.86920000
_cell_angle_gamma   89.57710000
_symmetry_Int_Tables_number   1
_chemical_formula_structural   NiH60Pt2C56(N4Cl)2
_chemical_formula_sum   'Ni1 H60 Pt2 C56 N8 Cl2'
_cell_volume   1355.72665121
_cell_formula_units_Z   1
loop_
 _symmetry_equiv_pos_site_id
 _symmetry_equiv_pos_as_xyz
  1  'x, y, z'
loop_
 _atom_site_type_symbol
 _atom_site_label
 _atom_site_symmetry_multiplicity
 _atom_site_fract_x
 _atom_site_fract_y
 _atom_site_fract_z
 _atom_site_occupancy
  Ni  Ni0  1  0.50000000  0.50001000  0.00001000  1.0
  H  H1  1  0.34638000  0.41247000  0.87407000  1.0
  H  H2  1  0.66067000  0.71176000  0.87563000  1.0
  H  H3  1  0.65360000  0.58752000  0.12593000  1.0
  H  H4  1  0.33933000  0.28825000  0.12436000  1.0
  H  H5  1  0.66895000  0.24349000  0.72929000  1.0
  H  H6  1  0.33816000  0.02170000  0.73673000  1.0
  H  H7  1  0.33105000  0.75651000  0.27072000  1.0
  H  H8  1  0.66185000  0.97831000  0.26327000  1.0
  H  H9  1  0.86150000  0.30973000  0.82421000  1.0
  H  H10  1  0.14521000  0.86254000  0.82839000  1.0
  H  H11  1  0.13850000  0.69027000  0.17579000  1.0
  H  H12  1  0.85481000  0.13748000  0.17161000  1.0
  H  H13  1  0.78682000  0.43730000  0.93288000  1.0
  H  H14  1  0.22021000  0.62904000  0.93257000  1.0
  H  H15  1  0.21318000  0.56270000  0.06712000  1.0
  H  H16  1  0.77979000  0.37097000  0.06743000  1.0
  H  H17  1  0.50957000  0.34267000  0.61164000  1.0
  H  H18  1  0.49127000  0.03584000  0.61699000  1.0
  H  H19  1  0.49043000  0.65732000  0.38836000  1.0
  H  H20  1  0.50873000  0.96417000  0.38301000  1.0
  H  H21  1  0.00776000  0.24064000  0.73500000  1.0
  H  H22  1  0.99611000  0.02784000  0.73489000  1.0
  H  H23  1  0.99225000  0.75934000  0.26500000  1.0
  H  H24  1  0.00388000  0.97216000  0.26510000  1.0
  H  H25  1  0.20311000  0.28154000  0.83143000  1.0
  H  H26  1  0.80513000  0.89034000  0.83260000  1.0
  H  H27  1  0.79689000  0.71844000  0.16858000  1.0
  H  H28  1  0.19487000  0.10966000  0.16740000  1.0
  H  H29  1  0.40364000  0.36151000  0.45713000  1.0
  H  H30  1  0.58979000  0.16976000  0.46235000  1.0
  H  H31  1  0.59636000  0.63850000  0.54288000  1.0
  H  H32  1  0.41021000  0.83025000  0.53765000  1.0
  H  H33  1  0.33951000  0.18618000  0.48725000  1.0
  H  H34  1  0.65177000  0.31485000  0.49529000  1.0
  H  H35  1  0.66049000  0.81382000  0.51275000  1.0
  H  H36  1  0.34824000  0.68516000  0.50472000  1.0
  H  H37  1  0.09887000  0.33798000  0.30765000  1.0
  H  H38  1  0.88655000  0.35065000  0.31067000  1.0
  H  H39  1  0.90113000  0.66202000  0.69235000  1.0
  H  H40  1  0.11346000  0.64935000  0.68933000  1.0
  H  H41  1  0.19442000  0.18178000  0.36911000  1.0
  H  H42  1  0.79026000  0.44076000  0.37695000  1.0
  H  H43  1  0.80559000  0.81822000  0.63088000  1.0
  H  H44  1  0.20974000  0.55924000  0.62305000  1.0
  H  H45  1  0.29259000  0.34002000  0.31671000  1.0
  H  H46  1  0.69340000  0.33465000  0.32182000  1.0
  H  H47  1  0.70741000  0.65999000  0.68330000  1.0
  H  H48  1  0.30660000  0.66535000  0.67819000  1.0
  H  H49  1  0.14797000  0.52161000  0.47411000  1.0
  H  H50  1  0.84972000  0.00210000  0.46929000  1.0
  H  H51  1  0.85203000  0.47839000  0.52589000  1.0
  H  H52  1  0.15028000  0.99791000  0.53071000  1.0
  H  H53  1  0.05905000  0.52349000  0.37291000  1.0
  H  H54  1  0.93212000  0.10371000  0.36817000  1.0
  H  H55  1  0.94095000  0.47650000  0.62709000  1.0
  H  H56  1  0.06788000  0.89629000  0.63183000  1.0
  H  H57  1  0.25366000  0.54315000  0.37335000  1.0
  H  H58  1  0.73821000  0.07872000  0.37145000  1.0
  H  H59  1  0.74634000  0.45685000  0.62665000  1.0
  H  H60  1  0.26178000  0.92128000  0.62855000  1.0
  Pt  Pt61  1  0.99762000  0.23253000  0.53123000  1.0
  Pt  Pt62  1  0.00238000  0.76747000  0.46877000  1.0
  C  C63  1  0.45905000  0.39237000  0.85660000  1.0
  C  C64  1  0.54807000  0.74883000  0.85861000  1.0
  C  C65  1  0.54094000  0.60763000  0.14340000  1.0
  C  C66  1  0.45193000  0.25118000  0.14139000  1.0
  C  C67  1  0.49162000  0.33333333  0.78769000  1.0
  C  C68  1  0.51522000  0.87498000  0.79155000  1.0
  C  C69  1  0.50838000  0.66666667  0.21232000  1.0
  C  C70  1  0.48478000  0.12502000  0.20845000  1.0
  C  C71  1  0.63900000  0.29871000  0.77750000  1.0
  C  C72  1  0.36785000  0.91928000  0.78279000  1.0
  C  C73  1  0.36101000  0.70129000  0.22250000  1.0
  C  C74  1  0.63215000  0.08072000  0.21720000  1.0
  C  C75  1  0.74601000  0.33343000  0.83058000  1.0
  C  C76  1  0.26066000  0.83273000  0.83423000  1.0
  C  C77  1  0.25398000  0.66657000  0.16942000  1.0
  C  C78  1  0.73934000  0.16727000  0.16576000  1.0
  C  C79  1  0.70622000  0.39962000  0.89403000  1.0
  C  C80  1  0.30068000  0.70483000  0.89521000  1.0
  C  C81  1  0.29378000  0.60038000  0.10597000  1.0
  C  C82  1  0.69932000  0.29517000  0.10479000  1.0
  C  C83  1  0.37306000  0.31000000  0.72981000  1.0
  C  C84  1  0.63194000  0.95594000  0.73331000  1.0
  C  C85  1  0.62694000  0.69000000  0.27019000  1.0
  C  C86  1  0.36806000  0.04405000  0.26669000  1.0
  C  C87  1  0.39994000  0.31646000  0.63967000  1.0
  C  C88  1  0.60170000  0.03625000  0.64390000  1.0
  C  C89  1  0.60005000  0.68356000  0.36033000  1.0
  C  C90  1  0.39830000  0.96374000  0.35610000  1.0
  C  C91  1  0.28858000  0.29055000  0.58565000  1.0
  C  C92  1  0.71036000  0.11639000  0.58910000  1.0
  C  C93  1  0.71142000  0.70946000  0.41435000  1.0
  C  C94  1  0.28964000  0.88361000  0.41089000  1.0
  C  C95  1  0.14436000  0.25746000  0.61884000  1.0
  C  C96  1  0.85557000  0.11989000  0.62043000  1.0
  C  C97  1  0.85564000  0.74253000  0.38116000  1.0
  C  C98  1  0.14443000  0.88011000  0.37957000  1.0
  C  C99  1  0.11801000  0.26010000  0.70752000  1.0
  C  C100  1  0.88524000  0.03256000  0.70843000  1.0
  C  C101  1  0.88199000  0.73988000  0.29248000  1.0
  C  C102  1  0.11476000  0.96744000  0.29157000  1.0
  C  C103  1  0.22878000  0.28423000  0.76233000  1.0
  C  C104  1  0.77704000  0.95355000  0.76410000  1.0
  C  C105  1  0.77123000  0.71574000  0.23768000  1.0
  C  C106  1  0.22297000  0.04644000  0.23590000  1.0
  C  C107  1  0.31280000  0.29246000  0.49011000  1.0
  C  C108  1  0.68104000  0.20787000  0.49495000  1.0
  C  C109  1  0.68719000  0.70754000  0.50989000  1.0
  C  C110  1  0.31895000  0.79214000  0.50505000  1.0
  C  C111  1  0.19112000  0.29621000  0.35273000  1.0
  C  C112  1  0.79540000  0.34433000  0.35743000  1.0
  C  C113  1  0.80889000  0.70379000  0.64727000  1.0
  C  C114  1  0.20461000  0.65567000  0.64257000  1.0
  C  C115  1  0.15873000  0.49023000  0.41282000  1.0
  C  C116  1  0.83424000  0.09399000  0.41020000  1.0
  C  C117  1  0.84128000  0.50977000  0.58718000  1.0
  C  C118  1  0.16575000  0.90601000  0.58979000  1.0
  N  N119  1  0.56358000  0.42347000  0.90818000  1.0
  N  N120  1  0.44332000  0.66737000  0.90902000  1.0
  N  N121  1  0.43642000  0.57653000  0.09181000  1.0
  N  N122  1  0.55669000  0.33262000  0.09098000  1.0
  N  N123  1  0.17604000  0.33646000  0.43620000  1.0
  N  N124  1  0.81533000  0.22162000  0.43814000  1.0
  N  N125  1  0.82396000  0.66354000  0.56380000  1.0
  N  N126  1  0.18467000  0.77838000  0.56186000  1.0
  Cl  Cl127  1  0.82678000  0.63973000  0.00323000  1.0
  Cl  Cl128  1  0.17321000  0.36027000  0.99678000  1.0
