# generated using pymatgen
data_CuH24C25(NO)4
_symmetry_space_group_name_H-M   'P 1'
_cell_length_a   9.42927000
_cell_length_b   9.42969000
_cell_length_c   22.97990000
_cell_angle_alpha   90.00120000
_cell_angle_beta   89.99830000
_cell_angle_gamma   89.94580000
_symmetry_Int_Tables_number   1
_chemical_formula_structural   CuH24C25(NO)4
_chemical_formula_sum   'Cu2 H48 C50 N8 O8'
_cell_volume   2043.25903067
_cell_formula_units_Z   2
loop_
 _symmetry_equiv_pos_site_id
 _symmetry_equiv_pos_as_xyz
  1  'x, y, z'
loop_
 _atom_site_type_symbol
 _atom_site_label
 _atom_site_symmetry_multiplicity
 _atom_site_fract_x
 _atom_site_fract_y
 _atom_site_fract_z
 _atom_site_occupancy
  Cu  Cu0  1  0.99993000  0.49993000  0.75001000  1.0
  Cu  Cu1  1  0.49996000  0.00003000  0.24999000  1.0
  H  H2  1  0.16931000  0.01259000  0.93624000  1.0
  H  H3  1  0.19425000  0.87968000  0.99118000  1.0
  H  H4  1  0.34402000  0.83105000  0.91665000  1.0
  H  H5  1  0.47092000  0.67620000  0.84430000  1.0
  H  H6  1  0.33203000  0.51816000  0.77890000  1.0
  H  H7  1  0.95131000  0.65296000  0.85240000  1.0
  H  H8  1  0.83072000  0.98746000  0.93622000  1.0
  H  H9  1  0.80567000  0.12025000  0.99121000  1.0
  H  H10  1  0.65594000  0.16880000  0.91662000  1.0
  H  H11  1  0.52901000  0.32363000  0.84429000  1.0
  H  H12  1  0.66789000  0.48179000  0.77892000  1.0
  H  H13  1  0.04862000  0.34725000  0.85249000  1.0
  H  H14  1  0.01326000  0.82993000  0.06363000  1.0
  H  H15  1  0.87889000  0.80635000  0.00925000  1.0
  H  H16  1  0.83153000  0.65622000  0.08336000  1.0
  H  H17  1  0.67506000  0.52893000  0.15490000  1.0
  H  H18  1  0.51684000  0.66758000  0.22043000  1.0
  H  H19  1  0.65448000  0.04882000  0.14850000  1.0
  H  H20  1  0.98674000  0.16999000  0.06366000  1.0
  H  H21  1  0.12106000  0.19364000  0.00926000  1.0
  H  H22  1  0.16840000  0.34370000  0.08337000  1.0
  H  H23  1  0.32491000  0.47103000  0.15488000  1.0
  H  H24  1  0.48319000  0.33240000  0.22039000  1.0
  H  H25  1  0.34565000  0.95115000  0.14845000  1.0
  H  H26  1  0.33001000  0.51329000  0.43635000  1.0
  H  H27  1  0.30641000  0.37892000  0.49074000  1.0
  H  H28  1  0.15631000  0.33161000  0.41663000  1.0
  H  H29  1  0.02898000  0.17509000  0.34512000  1.0
  H  H30  1  0.16761000  0.01683000  0.27959000  1.0
  H  H31  1  0.54887000  0.15443000  0.35151000  1.0
  H  H32  1  0.67010000  0.48680000  0.43637000  1.0
  H  H33  1  0.69365000  0.62118000  0.49075000  1.0
  H  H34  1  0.84375000  0.66852000  0.41665000  1.0
  H  H35  1  0.97106000  0.82495000  0.34510000  1.0
  H  H36  1  0.83241000  0.98312000  0.27955000  1.0
  H  H37  1  0.45116000  0.84553000  0.35148000  1.0
  H  H38  1  0.48748000  0.33075000  0.56378000  1.0
  H  H39  1  0.62029000  0.30573000  0.50880000  1.0
  H  H40  1  0.66880000  0.15599000  0.58339000  1.0
  H  H41  1  0.82361000  0.02906000  0.65573000  1.0
  H  H42  1  0.98174000  0.16792000  0.72110000  1.0
  H  H43  1  0.84723000  0.54866000  0.64753000  1.0
  H  H44  1  0.51257000  0.66937000  0.56376000  1.0
  H  H45  1  0.37967000  0.69428000  0.50881000  1.0
  H  H46  1  0.33102000  0.84404000  0.58335000  1.0
  H  H47  1  0.17620000  0.97093000  0.65570000  1.0
  H  H48  1  0.01820000  0.83202000  0.72112000  1.0
  H  H49  1  0.15299000  0.45131000  0.64762000  1.0
  C  C50  1  0.11560000  0.93120000  0.96267000  1.0
  C  C51  1  0.13649000  0.75337000  0.88888000  1.0
  C  C52  1  0.28505000  0.76149000  0.88772000  1.0
  C  C53  1  0.35548000  0.67507000  0.84697000  1.0
  C  C54  1  0.27912000  0.58579000  0.81074000  1.0
  C  C55  1  0.06663000  0.66150000  0.85106000  1.0
  C  C56  1  0.88437000  0.06882000  0.96268000  1.0
  C  C57  1  0.86345000  0.24670000  0.88893000  1.0
  C  C58  1  0.71489000  0.23845000  0.88772000  1.0
  C  C59  1  0.64445000  0.32484000  0.84698000  1.0
  C  C60  1  0.72080000  0.41418000  0.81076000  1.0
  C  C61  1  0.93330000  0.33863000  0.85113000  1.0
  C  C62  1  0.93145000  0.88445000  0.03764000  1.0
  C  C63  1  0.75436000  0.86366000  0.11166000  1.0
  C  C64  1  0.76178000  0.71503000  0.11231000  1.0
  C  C65  1  0.67457000  0.64443000  0.15266000  1.0
  C  C66  1  0.58517000  0.72067000  0.18894000  1.0
  C  C67  1  0.66242000  0.93341000  0.14952000  1.0
  C  C68  1  0.06853000  0.11551000  0.03765000  1.0
  C  C69  1  0.24568000  0.13629000  0.11163000  1.0
  C  C70  1  0.23821000  0.28491000  0.11230000  1.0
  C  C71  1  0.32542000  0.35554000  0.15263000  1.0
  C  C72  1  0.41486000  0.27931000  0.18890000  1.0
  C  C73  1  0.33767000  0.06656000  0.14947000  1.0
  C  C74  1  0.38452000  0.43148000  0.46234000  1.0
  C  C75  1  0.36373000  0.25437000  0.38834000  1.0
  C  C76  1  0.21510000  0.26182000  0.38769000  1.0
  C  C77  1  0.14448000  0.17460000  0.34735000  1.0
  C  C78  1  0.22070000  0.08517000  0.31107000  1.0
  C  C79  1  0.43346000  0.16240000  0.35049000  1.0
  C  C80  1  0.61556000  0.56859000  0.46235000  1.0
  C  C81  1  0.63632000  0.74566000  0.38834000  1.0
  C  C82  1  0.78495000  0.73826000  0.38769000  1.0
  C  C83  1  0.85556000  0.82543000  0.34733000  1.0
  C  C84  1  0.77932000  0.91482000  0.31104000  1.0
  C  C85  1  0.56658000  0.83758000  0.35047000  1.0
  C  C86  1  0.56884000  0.38442000  0.53732000  1.0
  C  C87  1  0.74668000  0.36350000  0.61109000  1.0
  C  C88  1  0.73843000  0.21495000  0.61230000  1.0
  C  C89  1  0.82481000  0.14450000  0.65304000  1.0
  C  C90  1  0.91415000  0.22084000  0.68926000  1.0
  C  C91  1  0.83860000  0.43335000  0.64889000  1.0
  C  C92  1  0.43120000  0.61564000  0.53733000  1.0
  C  C93  1  0.25338000  0.63651000  0.61113000  1.0
  C  C94  1  0.26149000  0.78506000  0.61229000  1.0
  C  C95  1  0.17508000  0.85549000  0.65304000  1.0
  C  C96  1  0.08582000  0.77912000  0.68928000  1.0
  C  C97  1  0.16153000  0.56663000  0.64895000  1.0
  C  C98  1  0.99999000  0.99999000  0.00014000  1.0
  C  C99  1  0.50003000  0.50003000  0.49985000  1.0
  N  N100  1  0.13544000  0.57613000  0.81279000  1.0
  N  N101  1  0.86448000  0.42392000  0.81283000  1.0
  N  N102  1  0.57617000  0.86445000  0.18734000  1.0
  N  N103  1  0.42389000  0.13554000  0.18730000  1.0
  N  N104  1  0.36448000  0.07616000  0.31266000  1.0
  N  N105  1  0.63554000  0.92382000  0.31264000  1.0
  N  N106  1  0.92389000  0.36452000  0.68720000  1.0
  N  N107  1  0.07617000  0.63545000  0.68723000  1.0
  O  O108  1  0.05002000  0.82882000  0.92551000  1.0
  O  O109  1  0.94992000  0.17132000  0.92558000  1.0
  O  O110  1  0.83027000  0.95027000  0.07533000  1.0
  O  O111  1  0.16976000  0.04967000  0.07531000  1.0
  O  O112  1  0.45034000  0.33029000  0.42466000  1.0
  O  O113  1  0.54972000  0.66976000  0.42467000  1.0
  O  O114  1  0.67132000  0.44997000  0.57444000  1.0
  O  O115  1  0.32881000  0.55004000  0.57448000  1.0
