# generated using pymatgen
data_ZnH7C20Br2NO7
_symmetry_space_group_name_H-M   'P 1'
_cell_length_a   12.25340000
_cell_length_b   12.99070000
_cell_length_c   15.95060000
_cell_angle_alpha   87.66500000
_cell_angle_beta   85.21810000
_cell_angle_gamma   86.93420000
_symmetry_Int_Tables_number   1
_chemical_formula_structural   ZnH7C20Br2NO7
_chemical_formula_sum   'Zn2 H14 C40 Br4 N2 O14'
_cell_volume   2524.88129472
_cell_formula_units_Z   2
loop_
 _symmetry_equiv_pos_site_id
 _symmetry_equiv_pos_as_xyz
  1  'x, y, z'
loop_
 _atom_site_type_symbol
 _atom_site_label
 _atom_site_symmetry_multiplicity
 _atom_site_fract_x
 _atom_site_fract_y
 _atom_site_fract_z
 _atom_site_occupancy
  Zn  Zn0  1  0.62124000  0.50567000  0.49720000  1.0
  Zn  Zn1  1  0.37876000  0.49432000  0.50280000  1.0
  H  H2  1  0.49430000  0.68146000  0.95558000  1.0
  H  H3  1  0.50571000  0.31855000  0.04441000  1.0
  H  H4  1  0.36057000  0.17544000  0.52305000  1.0
  H  H5  1  0.63941000  0.82454000  0.47697000  1.0
  H  H6  1  0.71152000  0.18146000  0.51192000  1.0
  H  H7  1  0.28847000  0.81854000  0.48809000  1.0
  H  H8  1  0.00881000  0.36361000  0.63917000  1.0
  H  H9  1  0.99118000  0.63637000  0.36083000  1.0
  H  H10  1  0.25566000  0.63745000  0.03493000  1.0
  H  H11  1  0.74435000  0.36256000  0.96507000  1.0
  H  H12  1  0.25083000  0.38854000  0.02421000  1.0
  H  H13  1  0.74917000  0.61148000  0.97577000  1.0
  H  H14  1  0.69525000  0.62238000  0.35711000  1.0
  H  H15  1  0.30474000  0.37763000  0.64290000  1.0
  C  C16  1  0.47549000  0.69674000  0.47546000  1.0
  C  C17  1  0.52448000  0.30325000  0.52455000  1.0
  C  C18  1  0.35265000  0.96759000  0.50108000  1.0
  C  C19  1  0.64733000  0.03240000  0.49893000  1.0
  C  C20  1  0.36095000  0.86302000  0.48993000  1.0
  C  C21  1  0.63904000  0.13697000  0.51009000  1.0
  C  C22  1  0.55973000  0.86576000  0.48361000  1.0
  C  C23  1  0.44025000  0.13422000  0.51640000  1.0
  C  C24  1  0.55315000  0.97301000  0.49524000  1.0
  C  C25  1  0.44684000  0.02698000  0.50477000  1.0
  C  C26  1  0.04239000  0.41256000  0.58736000  1.0
  C  C27  1  0.95761000  0.58743000  0.41263000  1.0
  C  C28  1  0.15481000  0.41638000  0.57422000  1.0
  C  C29  1  0.84519000  0.58361000  0.42577000  1.0
  C  C30  1  0.14308000  0.52404000  0.45492000  1.0
  C  C31  1  0.85692000  0.47596000  0.54507000  1.0
  C  C32  1  0.02535000  0.52862000  0.46533000  1.0
  C  C33  1  0.97465000  0.47137000  0.53466000  1.0
  C  C34  1  0.52438000  0.46508000  0.34044000  1.0
  C  C35  1  0.47564000  0.53493000  0.65956000  1.0
  C  C36  1  0.49668000  0.59976000  0.97504000  1.0
  C  C37  1  0.50334000  0.40025000  0.02496000  1.0
  C  C38  1  0.41230000  0.54949000  0.04264000  1.0
  C  C39  1  0.58771000  0.45052000  0.95735000  1.0
  C  C40  1  0.52429000  0.46464000  0.24984000  1.0
  C  C41  1  0.47572000  0.53538000  0.75015000  1.0
  C  C42  1  0.59385000  0.54222000  0.01973000  1.0
  C  C43  1  0.40616000  0.45779000  0.98026000  1.0
  C  C44  1  0.50945000  0.49083000  0.08677000  1.0
  C  C45  1  0.49056000  0.50919000  0.91323000  1.0
  C  C46  1  0.51838000  0.47727000  0.17439000  1.0
  C  C47  1  0.48163000  0.52274000  0.82561000  1.0
  C  C48  1  0.53409000  0.18841000  0.51837000  1.0
  C  C49  1  0.46589000  0.81157000  0.48164000  1.0
  C  C50  1  0.31476000  0.60769000  0.08134000  1.0
  C  C51  1  0.68525000  0.39231000  0.91866000  1.0
  C  C52  1  0.30422000  0.40675000  0.96543000  1.0
  C  C53  1  0.69580000  0.59327000  0.03455000  1.0
  C  C54  1  0.77811000  0.64716000  0.36537000  1.0
  C  C55  1  0.22188000  0.35282000  0.63462000  1.0
  Br  Br56  1  0.20946000  0.03341000  0.51300000  1.0
  Br  Br57  1  0.79053000  0.96659000  0.48701000  1.0
  Br  Br58  1  0.79031000  0.41142000  0.64254000  1.0
  Br  Br59  1  0.20968000  0.58857000  0.35745000  1.0
  N  N60  1  0.79460000  0.52543000  0.49061000  1.0
  N  N61  1  0.20539000  0.47456000  0.50939000  1.0
  O  O62  1  0.57212000  0.65494000  0.46748000  1.0
  O  O63  1  0.42785000  0.34505000  0.53251000  1.0
  O  O64  1  0.38678000  0.64917000  0.48050000  1.0
  O  O65  1  0.61319000  0.35082000  0.51952000  1.0
  O  O66  1  0.61639000  0.47408000  0.37027000  1.0
  O  O67  1  0.38363000  0.52590000  0.62973000  1.0
  O  O68  1  0.43095000  0.45922000  0.38090000  1.0
  O  O69  1  0.56906000  0.54080000  0.61910000  1.0
  O  O70  1  0.29775000  0.62467000  0.15612000  1.0
  O  O71  1  0.70225000  0.37534000  0.84388000  1.0
  O  O72  1  0.27916000  0.38398000  0.89643000  1.0
  O  O73  1  0.72088000  0.61603000  0.10355000  1.0
  O  O74  1  0.81760000  0.72139000  0.32682000  1.0
  O  O75  1  0.18241000  0.27859000  0.67316000  1.0
