# generated using pymatgen
data_ErH43C49N2Cl3O10
_symmetry_space_group_name_H-M   'P 1'
_cell_length_a   12.37490000
_cell_length_b   18.24006111
_cell_length_c   24.76620000
_cell_angle_alpha   89.99973968
_cell_angle_beta   89.99770000
_cell_angle_gamma   70.17753415
_symmetry_Int_Tables_number   1
_chemical_formula_structural   ErH43C49N2Cl3O10
_chemical_formula_sum   'Er4 H172 C196 N8 Cl12 O40'
_cell_volume   5258.96898066
_cell_formula_units_Z   4
loop_
 _symmetry_equiv_pos_site_id
 _symmetry_equiv_pos_as_xyz
  1  'x, y, z'
loop_
 _atom_site_type_symbol
 _atom_site_label
 _atom_site_symmetry_multiplicity
 _atom_site_fract_x
 _atom_site_fract_y
 _atom_site_fract_z
 _atom_site_occupancy
  Er  Er0  1  0.45398000  0.77107000  0.78595000  1.0
  Er  Er1  1  0.54603000  0.22888000  0.28595000  1.0
  Er  Er2  1  0.77494000  0.77108000  0.71404000  1.0
  Er  Er3  1  0.22507000  0.22888000  0.21404000  1.0
  H  H4  1  0.17759000  0.88934000  0.75898000  1.0
  H  H5  1  0.01200000  0.99803000  0.79865000  1.0
  H  H6  1  0.04361000  0.06099000  0.88443000  1.0
  H  H7  1  0.24180000  0.01528000  0.92531000  1.0
  H  H8  1  0.39650000  0.90804000  0.87971000  1.0
  H  H9  1  0.52884000  0.54585000  0.89722000  1.0
  H  H10  1  0.26647000  0.80263000  0.93103000  1.0
  H  H11  1  0.12760000  0.78930000  0.08870000  1.0
  H  H12  1  0.24972000  0.65103000  0.09625000  1.0
  H  H13  1  0.55975000  0.42425000  0.90281000  1.0
  H  H14  1  0.68180000  0.43355000  0.93681000  1.0
  H  H15  1  0.70129000  0.29291000  0.92228000  1.0
  H  H16  1  0.69723000  0.31463000  0.99236000  1.0
  H  H17  1  0.57318000  0.30701000  0.95957000  1.0
  H  H18  1  0.31063000  0.35631000  0.09024000  1.0
  H  H19  1  0.47466000  0.43502000  0.24625000  1.0
  H  H20  1  0.55700000  0.63446000  0.19273000  1.0
  H  H21  1  0.47908000  0.62445000  0.10209000  1.0
  H  H22  1  0.38839000  0.33366000  0.00323000  1.0
  H  H23  1  0.23569000  0.36479000  0.99622000  1.0
  H  H24  1  0.32870000  0.32736000  0.90597000  1.0
  H  H25  1  0.25300000  0.42926000  0.90740000  1.0
  H  H26  1  0.40497000  0.39354000  0.91423000  1.0
  H  H27  1  0.56556000  0.83180000  0.90850000  1.0
  H  H28  1  0.72854000  0.98024000  0.79364000  1.0
  H  H29  1  0.77590000  0.15469000  0.89946000  1.0
  H  H30  1  0.70149000  0.09974000  0.97667000  1.0
  H  H31  1  0.42511000  0.84564000  0.97551000  1.0
  H  H32  1  0.56391000  0.77759000  0.98798000  1.0
  H  H33  1  0.42726000  0.76345000  0.05790000  1.0
  H  H34  1  0.53047000  0.79899000  0.08867000  1.0
  H  H35  1  0.38918000  0.86338000  0.07555000  1.0
  H  H36  1  0.32423000  0.64281000  0.74252000  1.0
  H  H37  1  0.08362000  0.76625000  0.63200000  1.0
  H  H38  1  0.11163000  0.81735000  0.68782000  1.0
  H  H39  1  0.17383000  0.86493000  0.60345000  1.0
  H  H40  1  0.29500000  0.81839000  0.64498000  1.0
  H  H41  1  0.26667000  0.76936000  0.58715000  1.0
  H  H42  1  0.25934000  0.58130000  0.68563000  1.0
  H  H43  1  0.11912000  0.63194000  0.66121000  1.0
  H  H44  1  0.24164000  0.56038000  0.58594000  1.0
  H  H45  1  0.20453000  0.66109000  0.57409000  1.0
  H  H46  1  0.34474000  0.60681000  0.59829000  1.0
  H  H47  1  0.82245000  0.11063000  0.25898000  1.0
  H  H48  1  0.98805000  0.00197000  0.29866000  1.0
  H  H49  1  0.95643000  0.93903000  0.38445000  1.0
  H  H50  1  0.75822000  0.98475000  0.42534000  1.0
  H  H51  1  0.60353000  0.09194000  0.37970000  1.0
  H  H52  1  0.47115000  0.45412000  0.39720000  1.0
  H  H53  1  0.73354000  0.19735000  0.43103000  1.0
  H  H54  1  0.87239000  0.21072000  0.58870000  1.0
  H  H55  1  0.75025000  0.34900000  0.59623000  1.0
  H  H56  1  0.44024000  0.57576000  0.40278000  1.0
  H  H57  1  0.31820000  0.56646000  0.43680000  1.0
  H  H58  1  0.29871000  0.70709000  0.42227000  1.0
  H  H59  1  0.30278000  0.68536000  0.49236000  1.0
  H  H60  1  0.42681000  0.69300000  0.45956000  1.0
  H  H61  1  0.68937000  0.64368000  0.59024000  1.0
  H  H62  1  0.52534000  0.56496000  0.74622000  1.0
  H  H63  1  0.44300000  0.36551000  0.69271000  1.0
  H  H64  1  0.52093000  0.37552000  0.60207000  1.0
  H  H65  1  0.61162000  0.66635000  0.50322000  1.0
  H  H66  1  0.76431000  0.63523000  0.49621000  1.0
  H  H67  1  0.67130000  0.67267000  0.40596000  1.0
  H  H68  1  0.74700000  0.57077000  0.40738000  1.0
  H  H69  1  0.59503000  0.60648000  0.41421000  1.0
  H  H70  1  0.43443000  0.16820000  0.40850000  1.0
  H  H71  1  0.27144000  0.01975000  0.29366000  1.0
  H  H72  1  0.22410000  0.84530000  0.39949000  1.0
  H  H73  1  0.29849000  0.90026000  0.47669000  1.0
  H  H74  1  0.57489000  0.15436000  0.47551000  1.0
  H  H75  1  0.43610000  0.22242000  0.48798000  1.0
  H  H76  1  0.57276000  0.23655000  0.55789000  1.0
  H  H77  1  0.46955000  0.20102000  0.58868000  1.0
  H  H78  1  0.61083000  0.13662000  0.57556000  1.0
  H  H79  1  0.67575000  0.35717000  0.24253000  1.0
  H  H80  1  0.91639000  0.23376000  0.13200000  1.0
  H  H81  1  0.88837000  0.18265000  0.18781000  1.0
  H  H82  1  0.82617000  0.13508000  0.10344000  1.0
  H  H83  1  0.70499000  0.18162000  0.14497000  1.0
  H  H84  1  0.73334000  0.23066000  0.08715000  1.0
  H  H85  1  0.74064000  0.41871000  0.18563000  1.0
  H  H86  1  0.88086000  0.36807000  0.16121000  1.0
  H  H87  1  0.75835000  0.43965000  0.08596000  1.0
  H  H88  1  0.79547000  0.33893000  0.07409000  1.0
  H  H89  1  0.65525000  0.39322000  0.09828000  1.0
  H  H90  1  0.93322000  0.88931000  0.74110000  1.0
  H  H91  1  0.99023000  0.99798000  0.70142000  1.0
  H  H92  1  0.89581000  0.06091000  0.61561000  1.0
  H  H93  1  0.74319000  0.01528000  0.57475000  1.0
  H  H94  1  0.69553000  0.90814000  0.62039000  1.0
  H  H95  1  0.92487000  0.54590000  0.60253000  1.0
  H  H96  1  0.93079000  0.80268000  0.56899000  1.0
  H  H97  1  0.08330000  0.78954000  0.41142000  1.0
  H  H98  1  0.09969000  0.65121000  0.40380000  1.0
  H  H99  1  0.01585000  0.42446000  0.59694000  1.0
  H  H100  1  0.88457000  0.43357000  0.56294000  1.0
  H  H101  1  0.00593000  0.29303000  0.57758000  1.0
  H  H102  1  0.98839000  0.31458000  0.50746000  1.0
  H  H103  1  0.11993000  0.30719000  0.54031000  1.0
  H  H104  1  0.33319000  0.35642000  0.40960000  1.0
  H  H105  1  0.09037000  0.43514000  0.25364000  1.0
  H  H106  1  0.80901000  0.63483000  0.30714000  1.0
  H  H107  1  0.89679000  0.62456000  0.39784000  1.0
  H  H108  1  0.27841000  0.33377000  0.49649000  1.0
  H  H109  1  0.39989000  0.36501000  0.50347000  1.0
  H  H110  1  0.34447000  0.32743000  0.59376000  1.0
  H  H111  1  0.31819000  0.42934000  0.59233000  1.0
  H  H112  1  0.20200000  0.39358000  0.58550000  1.0
  H  H113  1  0.60266000  0.83201000  0.59164000  1.0
  H  H114  1  0.29138000  0.98043000  0.70653000  1.0
  H  H115  1  0.06929000  0.15476000  0.60075000  1.0
  H  H116  1  0.19853000  0.09982000  0.52351000  1.0
  H  H117  1  0.72933000  0.84589000  0.52466000  1.0
  H  H118  1  0.65844000  0.77791000  0.51218000  1.0
  H  H119  1  0.80933000  0.76364000  0.44234000  1.0
  H  H120  1  0.67070000  0.79917000  0.41150000  1.0
  H  H121  1  0.74766000  0.86353000  0.42459000  1.0
  H  H122  1  0.03263000  0.64276000  0.75778000  1.0
  H  H123  1  0.15046000  0.76644000  0.86788000  1.0
  H  H124  1  0.07139000  0.81738000  0.81200000  1.0
  H  H125  1  0.96183000  0.86544000  0.89639000  1.0
  H  H126  1  0.88689000  0.81894000  0.85498000  1.0
  H  H127  1  0.96416000  0.76999000  0.91285000  1.0
  H  H128  1  0.15895000  0.58143000  0.81468000  1.0
  H  H129  1  0.24871000  0.63198000  0.83901000  1.0
  H  H130  1  0.19735000  0.56075000  0.91437000  1.0
  H  H131  1  0.13405000  0.66152000  0.92609000  1.0
  H  H132  1  0.04791000  0.60733000  0.90196000  1.0
  H  H133  1  0.06676000  0.11065000  0.24109000  1.0
  H  H134  1  0.00974000  0.00199000  0.20141000  1.0
  H  H135  1  0.10415000  0.93908000  0.11558000  1.0
  H  H136  1  0.25678000  0.98472000  0.07472000  1.0
  H  H137  1  0.30444000  0.09184000  0.12039000  1.0
  H  H138  1  0.07515000  0.45408000  0.10255000  1.0
  H  H139  1  0.06922000  0.19730000  0.06899000  1.0
  H  H140  1  0.91668000  0.21047000  0.91143000  1.0
  H  H141  1  0.90032000  0.34880000  0.90382000  1.0
  H  H142  1  0.98415000  0.57554000  0.09696000  1.0
  H  H143  1  0.11545000  0.56643000  0.06296000  1.0
  H  H144  1  0.99407000  0.70696000  0.07759000  1.0
  H  H145  1  0.01163000  0.68541000  0.00748000  1.0
  H  H146  1  0.88008000  0.69280000  0.04032000  1.0
  H  H147  1  0.66683000  0.64357000  0.90961000  1.0
  H  H148  1  0.90965000  0.56482000  0.75365000  1.0
  H  H149  1  0.19103000  0.36515000  0.80716000  1.0
  H  H150  1  0.10325000  0.37543000  0.89785000  1.0
  H  H151  1  0.72158000  0.66625000  0.99650000  1.0
  H  H152  1  0.60012000  0.63498000  0.00347000  1.0
  H  H153  1  0.65548000  0.67260000  0.09375000  1.0
  H  H154  1  0.68179000  0.57069000  0.09234000  1.0
  H  H155  1  0.79796000  0.60647000  0.08552000  1.0
  H  H156  1  0.39734000  0.16799000  0.09164000  1.0
  H  H157  1  0.70861000  0.01956000  0.20651000  1.0
  H  H158  1  0.93071000  0.84524000  0.10071000  1.0
  H  H159  1  0.80148000  0.90018000  0.02348000  1.0
  H  H160  1  0.27066000  0.15415000  0.02466000  1.0
  H  H161  1  0.34156000  0.22213000  0.01218000  1.0
  H  H162  1  0.19068000  0.23640000  0.94235000  1.0
  H  H163  1  0.32930000  0.20087000  0.91149000  1.0
  H  H164  1  0.25233000  0.13652000  0.92459000  1.0
  H  H165  1  0.96736000  0.35721000  0.25775000  1.0
  H  H166  1  0.84953000  0.23358000  0.36788000  1.0
  H  H167  1  0.92859000  0.18262000  0.31201000  1.0
  H  H168  1  0.03817000  0.13458000  0.39639000  1.0
  H  H169  1  0.11310000  0.18108000  0.35497000  1.0
  H  H170  1  0.03582000  0.23004000  0.41284000  1.0
  H  H171  1  0.84107000  0.41858000  0.31467000  1.0
  H  H172  1  0.75130000  0.36803000  0.33900000  1.0
  H  H173  1  0.80265000  0.43926000  0.41436000  1.0
  H  H174  1  0.86595000  0.33849000  0.42608000  1.0
  H  H175  1  0.95210000  0.39267000  0.40196000  1.0
  C  C176  1  0.18724000  0.91934000  0.79578000  1.0
  C  C177  1  0.09589000  0.97935000  0.81807000  1.0
  C  C178  1  0.11373000  0.01481000  0.86546000  1.0
  C  C179  1  0.22324000  0.98957000  0.88827000  1.0
  C  C180  1  0.30978000  0.92928000  0.86335000  1.0
  C  C181  1  0.39974000  0.56549000  0.02166000  1.0
  C  C182  1  0.47196000  0.53034000  0.97847000  1.0
  C  C183  1  0.47462000  0.57316000  0.93132000  1.0
  C  C184  1  0.40921000  0.65130000  0.92737000  1.0
  C  C185  1  0.26262000  0.76893000  0.96676000  1.0
  C  C186  1  0.18884000  0.80270000  0.00839000  1.0
  C  C187  1  0.18516000  0.76073000  0.05590000  1.0
  C  C188  1  0.25392000  0.68379000  0.06000000  1.0
  C  C189  1  0.33072000  0.64554000  0.01787000  1.0
  C  C190  1  0.33558000  0.68994000  0.97047000  1.0
  C  C191  1  0.41926000  0.69339000  0.87678000  1.0
  C  C192  1  0.60841000  0.41267000  0.94101000  1.0
  C  C193  1  0.64709000  0.32683000  0.95487000  1.0
  C  C194  1  0.39137000  0.51580000  0.06784000  1.0
  C  C195  1  0.34689000  0.45630000  0.05772000  1.0
  C  C196  1  0.34590000  0.40242000  0.09831000  1.0
  C  C197  1  0.39074000  0.40599000  0.14901000  1.0
  C  C198  1  0.47550000  0.47587000  0.21437000  1.0
  C  C199  1  0.51840000  0.53512000  0.22434000  1.0
  C  C200  1  0.52121000  0.58887000  0.18377000  1.0
  C  C201  1  0.47824000  0.58269000  0.13335000  1.0
  C  C202  1  0.43288000  0.52287000  0.12062000  1.0
  C  C203  1  0.43368000  0.46729000  0.16208000  1.0
  C  C204  1  0.39564000  0.34099000  0.18729000  1.0
  C  C205  1  0.31318000  0.37838000  0.98530000  1.0
  C  C206  1  0.32580000  0.38255000  0.92469000  1.0
  C  C207  1  0.62231000  0.98003000  0.97357000  1.0
  C  C208  1  0.58660000  0.91597000  0.96625000  1.0
  C  C209  1  0.59551000  0.88082000  0.91504000  1.0
  C  C210  1  0.63984000  0.90875000  0.87124000  1.0
  C  C211  1  0.72180000  0.00631000  0.83353000  1.0
  C  C212  1  0.75385000  0.07069000  0.84221000  1.0
  C  C213  1  0.74821000  0.10456000  0.89393000  1.0
  C  C214  1  0.70680000  0.07389000  0.93662000  1.0
  C  C215  1  0.66974000  0.00873000  0.92967000  1.0
  C  C216  1  0.67927000  0.97332000  0.87719000  1.0
  C  C217  1  0.64104000  0.86787000  0.81860000  1.0
  C  C218  1  0.49681000  0.82922000  0.00452000  1.0
  C  C219  1  0.45878000  0.81284000  0.05992000  1.0
  C  C220  1  0.27809000  0.70098000  0.72577000  1.0
  C  C221  1  0.15254000  0.77600000  0.65559000  1.0
  C  C222  1  0.22705000  0.80874000  0.62064000  1.0
  C  C223  1  0.20940000  0.62890000  0.65898000  1.0
  C  C224  1  0.25330000  0.61373000  0.60113000  1.0
  C  C225  1  0.81278000  0.08065000  0.29578000  1.0
  C  C226  1  0.90414000  0.02065000  0.31808000  1.0
  C  C227  1  0.88631000  0.98521000  0.36547000  1.0
  C  C228  1  0.77678000  0.01045000  0.38829000  1.0
  C  C229  1  0.69024000  0.07072000  0.36335000  1.0
  C  C230  1  0.60026000  0.43451000  0.52163000  1.0
  C  C231  1  0.52802000  0.46966000  0.47845000  1.0
  C  C232  1  0.52538000  0.42683000  0.43130000  1.0
  C  C233  1  0.59079000  0.34869000  0.42736000  1.0
  C  C234  1  0.73740000  0.23106000  0.46676000  1.0
  C  C235  1  0.81116000  0.19730000  0.50839000  1.0
  C  C236  1  0.81482000  0.23928000  0.55590000  1.0
  C  C237  1  0.74607000  0.31623000  0.55998000  1.0
  C  C238  1  0.66927000  0.35446000  0.51785000  1.0
  C  C239  1  0.66440000  0.31005000  0.47047000  1.0
  C  C240  1  0.58074000  0.30658000  0.37677000  1.0
  C  C241  1  0.39159000  0.58734000  0.44099000  1.0
  C  C242  1  0.35292000  0.67317000  0.45486000  1.0
  C  C243  1  0.60861000  0.48420000  0.56782000  1.0
  C  C244  1  0.65312000  0.54369000  0.55771000  1.0
  C  C245  1  0.65410000  0.59757000  0.59830000  1.0
  C  C246  1  0.60925000  0.59400000  0.64900000  1.0
  C  C247  1  0.52451000  0.52411000  0.71434000  1.0
  C  C248  1  0.48159000  0.46487000  0.72432000  1.0
  C  C249  1  0.47879000  0.41111000  0.68375000  1.0
  C  C250  1  0.52175000  0.41730000  0.63332000  1.0
  C  C251  1  0.56712000  0.47712000  0.62060000  1.0
  C  C252  1  0.56633000  0.53269000  0.66206000  1.0
  C  C253  1  0.60437000  0.65900000  0.68728000  1.0
  C  C254  1  0.68683000  0.62163000  0.48529000  1.0
  C  C255  1  0.67420000  0.61747000  0.42468000  1.0
  C  C256  1  0.37767000  0.01998000  0.47359000  1.0
  C  C257  1  0.41338000  0.08404000  0.46626000  1.0
  C  C258  1  0.40447000  0.11919000  0.41504000  1.0
  C  C259  1  0.36017000  0.09124000  0.37125000  1.0
  C  C260  1  0.27817000  0.99370000  0.33355000  1.0
  C  C261  1  0.24613000  0.92931000  0.34224000  1.0
  C  C262  1  0.25178000  0.89544000  0.39395000  1.0
  C  C263  1  0.29318000  0.92612000  0.43664000  1.0
  C  C264  1  0.33024000  0.99129000  0.42968000  1.0
  C  C265  1  0.32070000  0.02669000  0.37721000  1.0
  C  C266  1  0.35898000  0.13211000  0.31861000  1.0
  C  C267  1  0.50320000  0.17077000  0.50453000  1.0
  C  C268  1  0.54123000  0.18716000  0.55993000  1.0
  C  C269  1  0.72187000  0.29902000  0.22575000  1.0
  C  C270  1  0.84746000  0.22400000  0.15558000  1.0
  C  C271  1  0.77295000  0.19127000  0.12063000  1.0
  C  C272  1  0.79058000  0.37111000  0.15898000  1.0
  C  C273  1  0.74668000  0.38630000  0.10113000  1.0
  C  C274  1  0.89359000  0.91932000  0.70430000  1.0
  C  C275  1  0.92500000  0.97931000  0.68201000  1.0
  C  C276  1  0.87180000  0.01476000  0.63460000  1.0
  C  C277  1  0.78747000  0.98956000  0.61178000  1.0
  C  C278  1  0.76107000  0.92934000  0.63671000  1.0
  C  C279  1  0.03495000  0.56561000  0.47824000  1.0
  C  C280  1  0.99755000  0.53046000  0.52133000  1.0
  C  C281  1  0.95196000  0.57323000  0.56850000  1.0
  C  C282  1  0.93923000  0.65136000  0.57253000  1.0
  C  C283  1  0.96842000  0.76903000  0.53326000  1.0
  C  C284  1  0.00847000  0.80287000  0.49168000  1.0
  C  C285  1  0.05427000  0.76092000  0.44418000  1.0
  C  C286  1  0.06257000  0.68395000  0.44005000  1.0
  C  C287  1  0.02388000  0.64566000  0.48211000  1.0
  C  C288  1  0.97443000  0.69002000  0.52950000  1.0
  C  C289  1  0.88722000  0.69339000  0.62317000  1.0
  C  C290  1  0.97883000  0.41277000  0.55876000  1.0
  C  C291  1  0.02620000  0.32691000  0.54495000  1.0
  C  C292  1  0.09313000  0.51597000  0.43204000  1.0
  C  C293  1  0.19708000  0.45646000  0.44212000  1.0
  C  C294  1  0.25186000  0.40255000  0.40154000  1.0
  C  C295  1  0.20341000  0.40608000  0.35085000  1.0
  C  C296  1  0.04880000  0.47603000  0.28551000  1.0
  C  C297  1  0.94681000  0.53539000  0.27553000  1.0
  C  C298  1  0.89033000  0.58918000  0.31609000  1.0
  C  C299  1  0.93937000  0.58284000  0.36655000  1.0
  C  C300  1  0.04450000  0.52297000  0.37927000  1.0
  C  C301  1  0.09920000  0.46740000  0.33780000  1.0
  C  C302  1  0.26342000  0.34106000  0.31257000  1.0
  C  C303  1  0.30885000  0.37852000  0.51443000  1.0
  C  C304  1  0.29215000  0.38261000  0.57503000  1.0
  C  C305  1  0.39757000  0.98016000  0.52658000  1.0
  C  C306  1  0.49742000  0.91618000  0.53391000  1.0
  C  C307  1  0.52367000  0.88100000  0.58511000  1.0
  C  C308  1  0.45138000  0.90891000  0.62889000  1.0
  C  C309  1  0.27191000  0.00646000  0.66666667  1.0
  C  C310  1  0.17548000  0.07082000  0.65798000  1.0
  C  C311  1  0.14712000  0.10463000  0.60626000  1.0
  C  C312  1  0.21917000  0.07399000  0.56356000  1.0
  C  C313  1  0.32142000  0.00886000  0.57048000  1.0
  C  C314  1  0.34736000  0.97346000  0.62295000  1.0
  C  C315  1  0.49103000  0.86804000  0.68153000  1.0
  C  C316  1  0.67400000  0.82953000  0.49565000  1.0
  C  C317  1  0.72847000  0.81305000  0.44026000  1.0
  C  C318  1  0.02076000  0.70101000  0.77438000  1.0
  C  C319  1  0.07171000  0.77622000  0.84434000  1.0
  C  C320  1  0.96455000  0.80924000  0.87930000  1.0
  C  C321  1  0.16138000  0.62909000  0.84125000  1.0
  C  C322  1  0.13251000  0.61412000  0.89911000  1.0
  C  C323  1  0.10641000  0.08066000  0.20429000  1.0
  C  C324  1  0.07498000  0.02067000  0.18200000  1.0
  C  C325  1  0.12816000  0.98523000  0.13458000  1.0
  C  C326  1  0.21252000  0.01042000  0.11177000  1.0
  C  C327  1  0.23889000  0.07065000  0.13671000  1.0
  C  C328  1  0.96507000  0.43439000  0.97826000  1.0
  C  C329  1  0.00248000  0.46953000  0.02134000  1.0
  C  C330  1  0.04808000  0.42675000  0.06851000  1.0
  C  C331  1  0.06078000  0.34862000  0.07254000  1.0
  C  C332  1  0.03158000  0.23096000  0.03326000  1.0
  C  C333  1  0.99152000  0.19713000  0.99169000  1.0
  C  C334  1  0.94573000  0.23909000  0.94418000  1.0
  C  C335  1  0.93742000  0.31606000  0.94006000  1.0
  C  C336  1  0.97613000  0.35434000  0.98213000  1.0
  C  C337  1  0.02559000  0.30996000  0.02950000  1.0
  C  C338  1  0.11278000  0.30658000  0.12318000  1.0
  C  C339  1  0.02119000  0.58722000  0.05877000  1.0
  C  C340  1  0.97381000  0.67308000  0.04496000  1.0
  C  C341  1  0.90690000  0.48403000  0.93205000  1.0
  C  C342  1  0.80298000  0.54354000  0.94214000  1.0
  C  C343  1  0.74817000  0.59743000  0.90156000  1.0
  C  C344  1  0.79661000  0.59388000  0.85086000  1.0
  C  C345  1  0.95122000  0.52394000  0.78553000  1.0
  C  C346  1  0.05321000  0.46458000  0.77554000  1.0
  C  C347  1  0.10970000  0.41080000  0.81611000  1.0
  C  C348  1  0.06066000  0.41715000  0.86657000  1.0
  C  C349  1  0.95552000  0.47702000  0.87928000  1.0
  C  C350  1  0.90083000  0.53257000  0.83781000  1.0
  C  C351  1  0.73657000  0.65889000  0.81257000  1.0
  C  C352  1  0.69116000  0.62148000  0.01443000  1.0
  C  C353  1  0.70783000  0.61741000  0.07503000  1.0
  C  C354  1  0.60242000  0.01985000  0.02657000  1.0
  C  C355  1  0.50256000  0.08384000  0.03389000  1.0
  C  C356  1  0.47632000  0.11901000  0.08510000  1.0
  C  C357  1  0.54861000  0.09107000  0.12888000  1.0
  C  C358  1  0.72808000  0.99354000  0.16661000  1.0
  C  C359  1  0.82452000  0.92917000  0.15795000  1.0
  C  C360  1  0.85288000  0.89537000  0.10623000  1.0
  C  C361  1  0.78083000  0.92602000  0.06352000  1.0
  C  C362  1  0.67856000  0.99115000  0.07046000  1.0
  C  C363  1  0.65264000  0.02654000  0.12293000  1.0
  C  C364  1  0.50896000  0.13195000  0.18151000  1.0
  C  C365  1  0.32599000  0.17051000  0.99564000  1.0
  C  C366  1  0.27153000  0.18699000  0.94026000  1.0
  C  C367  1  0.97923000  0.29898000  0.27438000  1.0
  C  C368  1  0.92827000  0.22379000  0.34435000  1.0
  C  C369  1  0.03544000  0.19078000  0.37929000  1.0
  C  C370  1  0.83862000  0.37092000  0.34124000  1.0
  C  C371  1  0.86750000  0.38589000  0.39911000  1.0
  N  N372  1  0.29249000  0.89344000  0.81824000  1.0
  N  N373  1  0.21692000  0.70148000  0.68149000  1.0
  N  N374  1  0.70753000  0.10656000  0.31824000  1.0
  N  N375  1  0.78310000  0.29851000  0.18149000  1.0
  N  N376  1  0.81419000  0.89347000  0.68182000  1.0
  N  N377  1  0.08154000  0.70165000  0.81860000  1.0
  N  N378  1  0.18580000  0.10653000  0.18183000  1.0
  N  N379  1  0.91845000  0.29835000  0.31860000  1.0
  Cl  Cl380  1  0.09797000  0.89875000  0.00272000  1.0
  Cl  Cl381  1  0.57257000  0.54410000  0.28798000  1.0
  Cl  Cl382  1  0.80185000  0.11354000  0.78867000  1.0
  Cl  Cl383  1  0.90202000  0.10125000  0.50273000  1.0
  Cl  Cl384  1  0.42740000  0.45589000  0.78795000  1.0
  Cl  Cl385  1  0.19814000  0.88645000  0.28869000  1.0
  Cl  Cl386  1  0.00319000  0.89894000  0.49741000  1.0
  Cl  Cl387  1  0.88365000  0.54446000  0.21189000  1.0
  Cl  Cl388  1  0.08485000  0.11367000  0.71158000  1.0
  Cl  Cl389  1  0.99680000  0.10106000  0.99740000  1.0
  Cl  Cl390  1  0.11636000  0.45552000  0.71190000  1.0
  Cl  Cl391  1  0.91517000  0.88632000  0.21155000  1.0
  O  O392  1  0.43235000  0.75997000  0.88077000  1.0
  O  O393  1  0.41614000  0.66225000  0.83117000  1.0
  O  O394  1  0.53624000  0.45387000  0.98467000  1.0
  O  O395  1  0.31117000  0.31698000  0.18700000  1.0
  O  O396  1  0.48636000  0.31306000  0.21548000  1.0
  O  O397  1  0.30449000  0.45355000  0.00711000  1.0
  O  O398  1  0.55626000  0.84501000  0.80997000  1.0
  O  O399  1  0.72574000  0.85648000  0.78689000  1.0
  O  O400  1  0.54148000  0.89216000  0.01045000  1.0
  O  O401  1  0.28383000  0.76176000  0.74788000  1.0
  O  O402  1  0.56766000  0.24000000  0.38078000  1.0
  O  O403  1  0.58379000  0.33776000  0.33117000  1.0
  O  O404  1  0.46378000  0.54614000  0.48465000  1.0
  O  O405  1  0.68884000  0.68301000  0.68699000  1.0
  O  O406  1  0.51362000  0.68697000  0.71545000  1.0
  O  O407  1  0.69550000  0.54646000  0.50709000  1.0
  O  O408  1  0.44379000  0.15494000  0.30998000  1.0
  O  O409  1  0.27430000  0.14356000  0.28690000  1.0
  O  O410  1  0.45851000  0.10785000  0.51045000  1.0
  O  O411  1  0.71609000  0.23824000  0.24786000  1.0
  O  O412  1  0.80780000  0.76008000  0.61926000  1.0
  O  O413  1  0.92151000  0.66214000  0.66875000  1.0
  O  O414  1  0.00976000  0.45399000  0.51508000  1.0
  O  O415  1  0.37190000  0.31703000  0.31287000  1.0
  O  O416  1  0.20054000  0.31324000  0.28435000  1.0
  O  O417  1  0.24219000  0.45370000  0.49273000  1.0
  O  O418  1  0.59868000  0.84513000  0.69017000  1.0
  O  O419  1  0.41771000  0.85668000  0.71324000  1.0
  O  O420  1  0.56646000  0.89251000  0.48973000  1.0
  O  O421  1  0.95447000  0.76174000  0.75212000  1.0
  O  O422  1  0.19224000  0.23991000  0.11925000  1.0
  O  O423  1  0.07851000  0.33786000  0.16875000  1.0
  O  O424  1  0.99029000  0.54600000  0.01509000  1.0
  O  O425  1  0.62811000  0.68290000  0.81287000  1.0
  O  O426  1  0.79938000  0.68679000  0.78436000  1.0
  O  O427  1  0.75784000  0.54631000  0.99274000  1.0
  O  O428  1  0.40132000  0.15490000  0.19013000  1.0
  O  O429  1  0.58220000  0.14335000  0.21324000  1.0
  O  O430  1  0.43352000  0.10752000  0.98972000  1.0
  O  O431  1  0.04558000  0.23826000  0.25214000  1.0
