# generated using pymatgen
data_CuH2C3N7
_symmetry_space_group_name_H-M   'P 1'
_cell_length_a   6.67427000
_cell_length_b   8.58311000
_cell_length_c   9.75409000
_cell_angle_alpha   90.00010000
_cell_angle_beta   90.00000000
_cell_angle_gamma   107.13300000
_symmetry_Int_Tables_number   1
_chemical_formula_structural   CuH2C3N7
_chemical_formula_sum   'Cu4 H8 C12 N28'
_cell_volume   533.97635942
_cell_formula_units_Z   4
loop_
 _symmetry_equiv_pos_site_id
 _symmetry_equiv_pos_as_xyz
  1  'x, y, z'
loop_
 _atom_site_type_symbol
 _atom_site_label
 _atom_site_symmetry_multiplicity
 _atom_site_fract_x
 _atom_site_fract_y
 _atom_site_fract_z
 _atom_site_occupancy
  Cu  Cu0  1  0.56747000  0.59202000  0.16716000  1.0
  Cu  Cu1  1  0.93254000  0.40798000  0.66716000  1.0
  Cu  Cu2  1  0.43254000  0.40798000  0.83284000  1.0
  Cu  Cu3  1  0.06746000  0.59202000  0.33284000  1.0
  H  H4  1  0.25178000  0.02278000  0.88084000  1.0
  H  H5  1  0.24821000  0.97722000  0.38085000  1.0
  H  H6  1  0.74821000  0.97722000  0.11916000  1.0
  H  H7  1  0.75179000  0.02278000  0.61916000  1.0
  H  H8  1  0.10092000  0.82598000  0.67527000  1.0
  H  H9  1  0.39909000  0.17402000  0.17528000  1.0
  H  H10  1  0.89908000  0.17402000  0.32472000  1.0
  H  H11  1  0.60092000  0.82599000  0.82472000  1.0
  C  C12  1  0.52526000  0.29807000  0.49840000  1.0
  C  C13  1  0.97473000  0.70193000  0.99840000  1.0
  C  C14  1  0.47473000  0.70192000  0.50160000  1.0
  C  C15  1  0.02526000  0.29807000  0.00160000  1.0
  C  C16  1  0.40180000  0.17705000  0.59330000  1.0
  C  C17  1  0.09820000  0.82296000  0.09330000  1.0
  C  C18  1  0.59820000  0.82296000  0.40670000  1.0
  C  C19  1  0.90181000  0.17705000  0.90670000  1.0
  C  C20  1  0.20271000  0.94997000  0.66605000  1.0
  C  C21  1  0.29726000  0.05000000  0.16605000  1.0
  C  C22  1  0.79728000  0.05001000  0.33395000  1.0
  C  C23  1  0.70271000  0.94997000  0.83395000  1.0
  N  N24  1  0.60769000  0.44562000  0.32037000  1.0
  N  N25  1  0.89231000  0.55438000  0.82037000  1.0
  N  N26  1  0.39232000  0.55438000  0.67963000  1.0
  N  N27  1  0.10769000  0.44562000  0.17963000  1.0
  N  N28  1  0.77760000  0.47612000  0.39968000  1.0
  N  N29  1  0.72240000  0.52388000  0.89968000  1.0
  N  N30  1  0.22241000  0.52388000  0.60032000  1.0
  N  N31  1  0.27760000  0.47612000  0.10032000  1.0
  N  N32  1  0.72932000  0.38424000  0.51384000  1.0
  N  N33  1  0.77068000  0.61576000  0.01384000  1.0
  N  N34  1  0.27068000  0.61576000  0.48615000  1.0
  N  N35  1  0.22932000  0.38424000  0.98615000  1.0
  N  N36  1  0.44807000  0.33317000  0.37915000  1.0
  N  N37  1  0.05193000  0.66683000  0.87915000  1.0
  N  N38  1  0.55193000  0.66683000  0.62085000  1.0
  N  N39  1  0.94807000  0.33317000  0.12085000  1.0
  N  N40  1  0.39835000  0.19505000  0.73003000  1.0
  N  N41  1  0.10164000  0.80495000  0.23003000  1.0
  N  N42  1  0.60165000  0.80495000  0.26997000  1.0
  N  N43  1  0.89836000  0.19505000  0.76997000  1.0
  N  N44  1  0.27350000  0.04784000  0.77393000  1.0
  N  N45  1  0.22650000  0.95217000  0.27392000  1.0
  N  N46  1  0.72650000  0.95217000  0.22607000  1.0
  N  N47  1  0.77350000  0.04784000  0.72606000  1.0
  N  N48  1  0.27950000  0.02795000  0.55025000  1.0
  N  N49  1  0.22050000  0.97205000  0.05025000  1.0
  N  N50  1  0.72050000  0.97205000  0.44975000  1.0
  N  N51  1  0.77950000  0.02796000  0.94975000  1.0
