# generated using pymatgen
data_GdH6(C3O4)2
_symmetry_space_group_name_H-M   'P 1'
_cell_length_a   6.14719000
_cell_length_b   10.03503499
_cell_length_c   15.35770000
_cell_angle_alpha   103.90987761
_cell_angle_beta   90.01750000
_cell_angle_gamma   107.81535521
_symmetry_Int_Tables_number   1
_chemical_formula_structural   GdH6(C3O4)2
_chemical_formula_sum   'Gd4 H24 C24 O32'
_cell_volume   872.69566570
_cell_formula_units_Z   4
loop_
 _symmetry_equiv_pos_site_id
 _symmetry_equiv_pos_as_xyz
  1  'x, y, z'
loop_
 _atom_site_type_symbol
 _atom_site_label
 _atom_site_symmetry_multiplicity
 _atom_site_fract_x
 _atom_site_fract_y
 _atom_site_fract_z
 _atom_site_occupancy
  Gd  Gd0  1  0.34123000  0.80778000  0.29373000  1.0
  Gd  Gd1  1  0.53398000  0.19221000  0.20631000  1.0
  Gd  Gd2  1  0.65878000  0.19222000  0.70627000  1.0
  Gd  Gd3  1  0.46602000  0.80779000  0.79369000  1.0
  H  H4  1  0.35640000  0.28598000  0.49868000  1.0
  H  H5  1  0.06961000  0.71422000  0.00134000  1.0
  H  H6  1  0.64359000  0.71401000  0.50132000  1.0
  H  H7  1  0.93040000  0.28578000  0.99867000  1.0
  H  H8  1  0.06779000  0.19324000  0.45927000  1.0
  H  H9  1  0.87384000  0.80706000  0.04084000  1.0
  H  H10  1  0.93221000  0.80676000  0.54073000  1.0
  H  H11  1  0.12617000  0.19294000  0.95916000  1.0
  H  H12  1  0.02086000  0.42737000  0.44123000  1.0
  H  H13  1  0.59298000  0.57247000  0.05879000  1.0
  H  H14  1  0.97914000  0.57263000  0.55877000  1.0
  H  H15  1  0.40702000  0.42753000  0.94121000  1.0
  H  H16  1  0.30549000  0.50457000  0.49113000  1.0
  H  H17  1  0.80072000  0.49558000  0.00881000  1.0
  H  H18  1  0.69451000  0.49543000  0.50887000  1.0
  H  H19  1  0.19928000  0.50442000  0.99119000  1.0
  H  H20  1  0.71654000  0.95179000  0.45318000  1.0
  H  H21  1  0.76474000  0.04806000  0.04681000  1.0
  H  H22  1  0.28345000  0.04820000  0.54682000  1.0
  H  H23  1  0.23526000  0.95194000  0.95319000  1.0
  H  H24  1  0.81144000  0.87582000  0.36017000  1.0
  H  H25  1  0.93574000  0.12384000  0.13983000  1.0
  H  H26  1  0.18856000  0.12418000  0.63983000  1.0
  H  H27  1  0.06426000  0.87616000  0.86017000  1.0
  C  C28  1  0.31004000  0.08960000  0.39898000  1.0
  C  C29  1  0.21988000  0.91052000  0.10105000  1.0
  C  C30  1  0.68995000  0.91040000  0.60102000  1.0
  C  C31  1  0.78012000  0.08948000  0.89895000  1.0
  C  C32  1  0.24282000  0.22347000  0.43758000  1.0
  C  C33  1  0.01869000  0.77673000  0.06247000  1.0
  C  C34  1  0.75717000  0.77653000  0.56242000  1.0
  C  C35  1  0.98132000  0.22327000  0.93753000  1.0
  C  C36  1  0.07383000  0.24155000  0.29178000  1.0
  C  C37  1  0.83151000  0.75841000  0.20819000  1.0
  C  C38  1  0.92617000  0.75845000  0.70822000  1.0
  C  C39  1  0.16849000  0.24159000  0.79181000  1.0
  C  C40  1  0.25665000  0.32464000  0.37280000  1.0
  C  C41  1  0.93139000  0.67543000  0.12718000  1.0
  C  C42  1  0.74335000  0.67537000  0.62720000  1.0
  C  C43  1  0.06862000  0.32457000  0.87282000  1.0
  C  C44  1  0.24673000  0.57244000  0.37440000  1.0
  C  C45  1  0.67462000  0.42740000  0.12547000  1.0
  C  C46  1  0.75326000  0.42755000  0.62560000  1.0
  C  C47  1  0.32538000  0.57260000  0.87453000  1.0
  C  C48  1  0.20086000  0.45756000  0.42637000  1.0
  C  C49  1  0.74305000  0.54242000  0.07358000  1.0
  C  C50  1  0.79913000  0.54244000  0.57363000  1.0
  C  C51  1  0.25695000  0.45758000  0.92641000  1.0
  O  O52  1  0.47393000  0.36192000  0.34377000  1.0
  O  O53  1  0.11149000  0.63819000  0.15626000  1.0
  O  O54  1  0.52607000  0.63808000  0.65624000  1.0
  O  O55  1  0.88852000  0.36181000  0.84374000  1.0
  O  O56  1  0.41851000  0.07835000  0.32811000  1.0
  O  O57  1  0.33917000  0.92189000  0.17206000  1.0
  O  O58  1  0.58149000  0.92165000  0.67189000  1.0
  O  O59  1  0.66083000  0.07810000  0.82794000  1.0
  O  O60  1  0.25539000  0.98594000  0.43693000  1.0
  O  O61  1  0.26948000  0.01397000  0.06291000  1.0
  O  O62  1  0.74460000  0.01406000  0.56307000  1.0
  O  O63  1  0.73052000  0.98603000  0.93709000  1.0
  O  O64  1  0.14738000  0.18238000  0.21971000  1.0
  O  O65  1  0.96430000  0.81755000  0.28026000  1.0
  O  O66  1  0.85262000  0.81762000  0.78029000  1.0
  O  O67  1  0.03570000  0.18245000  0.71974000  1.0
  O  O68  1  0.86898000  0.23729000  0.30158000  1.0
  O  O69  1  0.63091000  0.76266000  0.19839000  1.0
  O  O70  1  0.13103000  0.76272000  0.69842000  1.0
  O  O71  1  0.36909000  0.23734000  0.80161000  1.0
  O  O72  1  0.36946000  0.56508000  0.30743000  1.0
  O  O73  1  0.80473000  0.43483000  0.19248000  1.0
  O  O74  1  0.63053000  0.43492000  0.69257000  1.0
  O  O75  1  0.19525000  0.56516000  0.80751000  1.0
  O  O76  1  0.67602000  0.89789000  0.38859000  1.0
  O  O77  1  0.77806000  0.10155000  0.11150000  1.0
  O  O78  1  0.32399000  0.10211000  0.61141000  1.0
  O  O79  1  0.22193000  0.89845000  0.88850000  1.0
  O  O80  1  0.16560000  0.67711000  0.39982000  1.0
  O  O81  1  0.48911000  0.32257000  0.09998000  1.0
  O  O82  1  0.83440000  0.32289000  0.60018000  1.0
  O  O83  1  0.51089000  0.67744000  0.90002000  1.0
