# generated using pymatgen
data_NdCoH16C16(N5O3)2
_symmetry_space_group_name_H-M   'P 1'
_cell_length_a   10.26870000
_cell_length_b   10.67680000
_cell_length_c   12.35160000
_cell_angle_alpha   73.49750000
_cell_angle_beta   74.76160000
_cell_angle_gamma   70.57370000
_symmetry_Int_Tables_number   1
_chemical_formula_structural   NdCoH16C16(N5O3)2
_chemical_formula_sum   'Nd2 Co2 H32 C32 N20 O12'
_cell_volume   1203.07715560
_cell_formula_units_Z   2
loop_
 _symmetry_equiv_pos_site_id
 _symmetry_equiv_pos_as_xyz
  1  'x, y, z'
loop_
 _atom_site_type_symbol
 _atom_site_label
 _atom_site_symmetry_multiplicity
 _atom_site_fract_x
 _atom_site_fract_y
 _atom_site_fract_z
 _atom_site_occupancy
  Nd  Nd0  1  0.41591000  0.30775000  0.28208000  1.0
  Nd  Nd1  1  0.58409000  0.69224000  0.71792000  1.0
  Co  Co2  1  0.32221000  0.30426000  0.74111000  1.0
  Co  Co3  1  0.67778000  0.69574000  0.25889000  1.0
  H  H4  1  0.29055000  0.76313000  0.53564000  1.0
  H  H5  1  0.70944000  0.23687000  0.46436000  1.0
  H  H6  1  0.31548000  0.90475000  0.04783000  1.0
  H  H7  1  0.68453000  0.09525000  0.95217000  1.0
  H  H8  1  0.14409000  0.51922000  0.06200000  1.0
  H  H9  1  0.85591000  0.48079000  0.93799000  1.0
  H  H10  1  0.46551000  0.65933000  0.08198000  1.0
  H  H11  1  0.53450000  0.34067000  0.91802000  1.0
  H  H12  1  0.02512000  0.68103000  0.29576000  1.0
  H  H13  1  0.97488000  0.31897000  0.70423000  1.0
  H  H14  1  0.37354000  0.55490000  0.44936000  1.0
  H  H15  1  0.62646000  0.44510000  0.55064000  1.0
  H  H16  1  0.98131000  0.75936000  0.02143000  1.0
  H  H17  1  0.01870000  0.24065000  0.97856000  1.0
  H  H18  1  0.92663000  0.89468000  0.37382000  1.0
  H  H19  1  0.07336000  0.10532000  0.62618000  1.0
  H  H20  1  0.41432000  0.08301000  0.16854000  1.0
  H  H21  1  0.58568000  0.91699000  0.83145000  1.0
  H  H22  1  0.34973000  0.22715000  0.09204000  1.0
  H  H23  1  0.65027000  0.77285000  0.90796000  1.0
  H  H24  1  0.73664000  0.24503000  0.23653000  1.0
  H  H25  1  0.26336000  0.75497000  0.76347000  1.0
  H  H26  1  0.72180000  0.09659000  0.24293000  1.0
  H  H27  1  0.27820000  0.90341000  0.75707000  1.0
  H  H28  1  0.42332000  0.99498000  0.35684000  1.0
  H  H29  1  0.57667000  0.00502000  0.64317000  1.0
  H  H30  1  0.39440000  0.04352000  0.47263000  1.0
  H  H31  1  0.60568000  0.95645000  0.52738000  1.0
  H  H32  1  0.16862000  0.20203000  0.29947000  1.0
  H  H33  1  0.83137000  0.79796000  0.70054000  1.0
  H  H34  1  0.09054000  0.35106000  0.32230000  1.0
  H  H35  1  0.90946000  0.64894000  0.67769000  1.0
  C  C36  1  0.37693000  0.30110000  0.58605000  1.0
  C  C37  1  0.62307000  0.69890000  0.41395000  1.0
  C  C38  1  0.60281000  0.55514000  0.27164000  1.0
  C  C39  1  0.39718000  0.44486000  0.72836000  1.0
  C  C40  1  0.26797000  0.29759000  0.89865000  1.0
  C  C41  1  0.73203000  0.70241000  0.10135000  1.0
  C  C42  1  0.35789000  0.68986000  0.06903000  1.0
  C  C43  1  0.64212000  0.31014000  0.93097000  1.0
  C  C44  1  0.49205000  0.17291000  0.76006000  1.0
  C  C45  1  0.50795000  0.82708000  0.23994000  1.0
  C  C46  1  0.27663000  0.63413000  0.43738000  1.0
  C  C47  1  0.72336000  0.36587000  0.56262000  1.0
  C  C48  1  0.24951000  0.15955000  0.75817000  1.0
  C  C49  1  0.75048000  0.84045000  0.24183000  1.0
  C  C50  1  0.15456000  0.43752000  0.71474000  1.0
  C  C51  1  0.84544000  0.56248000  0.28526000  1.0
  C  C52  1  0.22851000  0.74858000  0.48331000  1.0
  C  C53  1  0.77148000  0.25143000  0.51670000  1.0
  C  C54  1  0.13684000  0.85084000  0.03211000  1.0
  C  C55  1  0.86317000  0.14916000  0.96789000  1.0
  C  C56  1  0.10147000  0.84487000  0.46189000  1.0
  C  C57  1  0.89852000  0.15513000  0.53811000  1.0
  C  C58  1  0.17324000  0.61036000  0.05614000  1.0
  C  C59  1  0.82676000  0.38964000  0.94386000  1.0
  C  C60  1  0.27424000  0.82252000  0.04940000  1.0
  C  C61  1  0.72577000  0.17748000  0.95060000  1.0
  C  C62  1  0.08760000  0.74157000  0.03411000  1.0
  C  C63  1  0.91240000  0.25844000  0.96589000  1.0
  C  C64  1  0.07652000  0.70796000  0.34871000  1.0
  C  C65  1  0.92348000  0.29204000  0.65129000  1.0
  C  C66  1  0.02525000  0.82238000  0.39317000  1.0
  C  C67  1  0.97474000  0.17762000  0.60683000  1.0
  N  N68  1  0.30622000  0.58574000  0.07437000  1.0
  N  N69  1  0.69379000  0.41426000  0.92563000  1.0
  N  N70  1  0.20097000  0.61522000  0.37076000  1.0
  N  N71  1  0.79902000  0.38478000  0.62924000  1.0
  N  N72  1  0.41320000  0.28945000  0.49029000  1.0
  N  N73  1  0.58680000  0.71056000  0.50971000  1.0
  N  N74  1  0.55774000  0.46619000  0.27538000  1.0
  N  N75  1  0.44226000  0.53381000  0.72462000  1.0
  N  N76  1  0.05879000  0.95879000  0.51056000  1.0
  N  N77  1  0.94120000  0.04121000  0.48944000  1.0
  N  N78  1  0.05291000  0.52504000  0.69620000  1.0
  N  N79  1  0.94709000  0.47497000  0.30380000  1.0
  N  N80  1  0.59706000  0.08417000  0.76428000  1.0
  N  N81  1  0.40293000  0.91584000  0.23572000  1.0
  N  N82  1  0.21513000  0.06300000  0.76477000  1.0
  N  N83  1  0.78486000  0.93700000  0.23523000  1.0
  N  N84  1  0.23606000  0.29380000  0.99777000  1.0
  N  N85  1  0.76393000  0.70620000  0.00223000  1.0
  N  N86  1  0.05636000  0.98784000  0.01793000  1.0
  N  N87  1  0.94365000  0.01216000  0.98207000  1.0
  O  O88  1  0.41913000  0.17866000  0.14495000  1.0
  O  O89  1  0.58087000  0.82133000  0.85504000  1.0
  O  O90  1  0.38362000  0.45896000  0.09909000  1.0
  O  O91  1  0.61638000  0.54104000  0.90091000  1.0
  O  O92  1  0.24395000  0.50870000  0.32535000  1.0
  O  O93  1  0.75604000  0.49130000  0.67465000  1.0
  O  O94  1  0.66924000  0.19355000  0.25167000  1.0
  O  O95  1  0.33076000  0.80645000  0.74833000  1.0
  O  O96  1  0.17873000  0.27178000  0.33037000  1.0
  O  O97  1  0.82127000  0.72823000  0.66963000  1.0
  O  O98  1  0.43962000  0.05936000  0.39196000  1.0
  O  O99  1  0.56038000  0.94065000  0.60803000  1.0
