# generated using pymatgen
data_LaH13C15N(Cl3O5)2
_symmetry_space_group_name_H-M   'P 1'
_cell_length_a   10.51200000
_cell_length_b   10.93240000
_cell_length_c   11.13300000
_cell_angle_alpha   67.28680000
_cell_angle_beta   83.11560000
_cell_angle_gamma   76.07260000
_symmetry_Int_Tables_number   1
_chemical_formula_structural   LaH13C15N(Cl3O5)2
_chemical_formula_sum   'La2 H26 C30 N2 Cl12 O20'
_cell_volume   1144.98530449
_cell_formula_units_Z   2
loop_
 _symmetry_equiv_pos_site_id
 _symmetry_equiv_pos_as_xyz
  1  'x, y, z'
loop_
 _atom_site_type_symbol
 _atom_site_label
 _atom_site_symmetry_multiplicity
 _atom_site_fract_x
 _atom_site_fract_y
 _atom_site_fract_z
 _atom_site_occupancy
  La  La0  1  0.07912000  0.35356000  0.39527000  1.0
  La  La1  1  0.92088000  0.64644000  0.60473000  1.0
  H  H2  1  0.42163000  0.29108000  0.32211000  1.0
  H  H3  1  0.57837000  0.70891000  0.67789000  1.0
  H  H4  1  0.63150000  0.23270000  0.30470000  1.0
  H  H5  1  0.36850000  0.76730000  0.69530000  1.0
  H  H6  1  0.68818000  0.05841000  0.40359000  1.0
  H  H7  1  0.31182000  0.94159000  0.59642000  1.0
  H  H8  1  0.72427000  0.18945000  0.44404000  1.0
  H  H9  1  0.27573000  0.81055000  0.55596000  1.0
  H  H10  1  0.60805000  0.98919000  0.63774000  1.0
  H  H11  1  0.39195000  0.01081000  0.36226000  1.0
  H  H12  1  0.43945000  0.06515000  0.66081000  1.0
  H  H13  1  0.56055000  0.93485000  0.33919000  1.0
  H  H14  1  0.56861000  0.14002000  0.67297000  1.0
  H  H15  1  0.43139000  0.85998000  0.32703000  1.0
  H  H16  1  0.04843000  0.09135000  0.36559000  1.0
  H  H17  1  0.95157000  0.90865000  0.63441000  1.0
  H  H18  1  0.09170000  0.05922000  0.51028000  1.0
  H  H19  1  0.90830000  0.94078000  0.48972000  1.0
  H  H20  1  0.04095000  0.37522000  0.11836000  1.0
  H  H21  1  0.95905000  0.62478000  0.88164000  1.0
  H  H22  1  0.89254000  0.41354000  0.15634000  1.0
  H  H23  1  0.10746000  0.58646000  0.84366000  1.0
  H  H24  1  0.98010000  0.67532000  0.27726000  1.0
  H  H25  1  0.01990000  0.32468000  0.72274000  1.0
  H  H26  1  0.93416000  0.62272000  0.17741000  1.0
  H  H27  1  0.06584000  0.37728000  0.82258000  1.0
  C  C28  1  0.25135000  0.41376000  0.08731000  1.0
  C  C29  1  0.74865000  0.58625000  0.91269000  1.0
  C  C30  1  0.37937000  0.45907000  0.03614000  1.0
  C  C31  1  0.62063000  0.54094000  0.96386000  1.0
  C  C32  1  0.38244000  0.59707000  0.98421000  1.0
  C  C33  1  0.61756000  0.40294000  0.01579000  1.0
  C  C34  1  0.50299000  0.63752000  0.95017000  1.0
  C  C35  1  0.49702000  0.36249000  0.04982000  1.0
  C  C36  1  0.04286000  0.08731000  0.71552000  1.0
  C  C37  1  0.95714000  0.91268000  0.28448000  1.0
  C  C38  1  0.01960000  0.04343000  0.86243000  1.0
  C  C39  1  0.98041000  0.95657000  0.13757000  1.0
  C  C40  1  0.90962000  0.99002000  0.92365000  1.0
  C  C41  1  0.09038000  0.00997000  0.07635000  1.0
  C  C42  1  0.11005000  0.05195000  0.94036000  1.0
  C  C43  1  0.88995000  0.94804000  0.05964000  1.0
  C  C44  1  0.78697000  0.43096000  0.48264000  1.0
  C  C45  1  0.21303000  0.56904000  0.51736000  1.0
  C  C46  1  0.63861000  0.46828000  0.49244000  1.0
  C  C47  1  0.36139000  0.53173000  0.50756000  1.0
  C  C48  1  0.56618000  0.54209000  0.37945000  1.0
  C  C49  1  0.43382000  0.45792000  0.62054000  1.0
  C  C50  1  0.57168000  0.42587000  0.61288000  1.0
  C  C51  1  0.42832000  0.57414000  0.38712000  1.0
  C  C52  1  0.41459000  0.23411000  0.42779000  1.0
  C  C53  1  0.58541000  0.76588000  0.57221000  1.0
  C  C54  1  0.65026000  0.16071000  0.40470000  1.0
  C  C55  1  0.34974000  0.83929000  0.59530000  1.0
  C  C56  1  0.53632000  0.08487000  0.62201000  1.0
  C  C57  1  0.46368000  0.91513000  0.37799000  1.0
  N  N58  1  0.52876000  0.16430000  0.48293000  1.0
  N  N59  1  0.47124000  0.83570000  0.51707000  1.0
  Cl  Cl60  1  0.23771000  0.71635000  0.96249000  1.0
  Cl  Cl61  1  0.76229000  0.28365000  0.03750000  1.0
  Cl  Cl62  1  0.50815000  0.80647000  0.89770000  1.0
  Cl  Cl63  1  0.49185000  0.19354000  0.10229000  1.0
  Cl  Cl64  1  0.79762000  0.97562000  0.83233000  1.0
  Cl  Cl65  1  0.20238000  0.02437000  0.16767000  1.0
  Cl  Cl66  1  0.24828000  0.11265000  0.86910000  1.0
  Cl  Cl67  1  0.75172000  0.88735000  0.13090000  1.0
  Cl  Cl68  1  0.64726000  0.59303000  0.23113000  1.0
  Cl  Cl69  1  0.35274000  0.40697000  0.76886000  1.0
  Cl  Cl70  1  0.66029000  0.33114000  0.75071000  1.0
  Cl  Cl71  1  0.33971000  0.66886000  0.24928000  1.0
  O  O72  1  0.23587000  0.37732000  0.21052000  1.0
  O  O73  1  0.76413000  0.62269000  0.78948000  1.0
  O  O74  1  0.17252000  0.41520000  0.00987000  1.0
  O  O75  1  0.82748000  0.58480000  0.99013000  1.0
  O  O76  1  0.04109000  0.21262000  0.65010000  1.0
  O  O77  1  0.95891000  0.78738000  0.34989000  1.0
  O  O78  1  0.06420000  0.99541000  0.66905000  1.0
  O  O79  1  0.93581000  0.00458000  0.33095000  1.0
  O  O80  1  0.83679000  0.33993000  0.43745000  1.0
  O  O81  1  0.16321000  0.66007000  0.56255000  1.0
  O  O82  1  0.85506000  0.49324000  0.51695000  1.0
  O  O83  1  0.14494000  0.50676000  0.48306000  1.0
  O  O84  1  0.30502000  0.23678000  0.48759000  1.0
  O  O85  1  0.69498000  0.76322000  0.51241000  1.0
  O  O86  1  0.10410000  0.11488000  0.41520000  1.0
  O  O87  1  0.89589000  0.88512000  0.58480000  1.0
  O  O88  1  0.97665000  0.35812000  0.19359000  1.0
  O  O89  1  0.02335000  0.64188000  0.80641000  1.0
  O  O90  1  0.99635000  0.59865000  0.24507000  1.0
  O  O91  1  0.00364000  0.40135000  0.75493000  1.0
