# generated using pymatgen
data_AlH3C8(SO3)2
_symmetry_space_group_name_H-M   'P 1'
_cell_length_a   6.64642000
_cell_length_b   14.33300000
_cell_length_c   19.92820000
_cell_angle_alpha   90.29020000
_cell_angle_beta   92.40300000
_cell_angle_gamma   92.08410000
_symmetry_Int_Tables_number   1
_chemical_formula_structural   AlH3C8(SO3)2
_chemical_formula_sum   'Al4 H12 C32 S8 O24'
_cell_volume   1895.45752026
_cell_formula_units_Z   4
loop_
 _symmetry_equiv_pos_site_id
 _symmetry_equiv_pos_as_xyz
  1  'x, y, z'
loop_
 _atom_site_type_symbol
 _atom_site_label
 _atom_site_symmetry_multiplicity
 _atom_site_fract_x
 _atom_site_fract_y
 _atom_site_fract_z
 _atom_site_occupancy
  Al  Al0  1  0.97136000  0.00343000  0.50008000  1.0
  Al  Al1  1  0.47049000  0.99682000  0.50131000  1.0
  Al  Al2  1  0.02863000  0.50025000  0.00248000  1.0
  Al  Al3  1  0.52857000  0.50136000  0.00214000  1.0
  H  H4  1  0.19739000  0.88411000  0.47356000  1.0
  H  H5  1  0.71178000  0.11236000  0.46710000  1.0
  H  H6  1  0.28124000  0.61514000  0.97339000  1.0
  H  H7  1  0.76492000  0.38403000  0.97723000  1.0
  H  H8  1  0.46129000  0.70559000  0.84043000  1.0
  H  H9  1  0.96445000  0.29828000  0.15414000  1.0
  H  H10  1  0.55658000  0.28561000  0.84686000  1.0
  H  H11  1  0.47428000  0.69429000  0.15107000  1.0
  H  H12  1  0.19423000  0.76848000  0.67701000  1.0
  H  H13  1  0.69492000  0.22974000  0.32886000  1.0
  H  H14  1  0.80187000  0.23775000  0.67335000  1.0
  H  H15  1  0.18231000  0.77206000  0.33674000  1.0
  C  C16  1  0.70184000  0.88589000  0.41121000  1.0
  C  C17  1  0.73732000  0.89987000  0.59571000  1.0
  C  C18  1  0.24807000  0.10959000  0.59059000  1.0
  C  C19  1  0.21467000  0.10470000  0.40594000  1.0
  C  C20  1  0.80153000  0.60741000  0.09502000  1.0
  C  C21  1  0.77111000  0.60666000  0.90736000  1.0
  C  C22  1  0.25412000  0.38982000  0.90982000  1.0
  C  C23  1  0.28947000  0.39760000  0.09623000  1.0
  C  C24  1  0.90864000  0.79352000  0.68210000  1.0
  C  C25  1  0.60847000  0.70900000  0.81851000  1.0
  C  C26  1  0.74346000  0.84035000  0.65560000  1.0
  C  C27  1  0.77152000  0.66350000  0.84628000  1.0
  C  C28  1  0.66041000  0.75795000  0.76025000  1.0
  C  C29  1  0.86131000  0.74709000  0.74290000  1.0
  C  C30  1  0.40421000  0.20860000  0.32292000  1.0
  C  C31  1  0.11124000  0.29450000  0.18004000  1.0
  C  C32  1  0.23185000  0.16280000  0.34617000  1.0
  C  C33  1  0.28122000  0.34019000  0.15684000  1.0
  C  C34  1  0.15669000  0.24585000  0.23971000  1.0
  C  C35  1  0.36029000  0.25611000  0.26168000  1.0
  C  C36  1  0.08844000  0.21465000  0.67738000  1.0
  C  C37  1  0.40770000  0.28627000  0.82208000  1.0
  C  C38  1  0.24776000  0.16693000  0.65152000  1.0
  C  C39  1  0.25078000  0.33392000  0.84796000  1.0
  C  C40  1  0.34759000  0.24143000  0.76097000  1.0
  C  C41  1  0.14642000  0.25694000  0.74048000  1.0
  C  C42  1  0.89460000  0.78911000  0.32851000  1.0
  C  C43  1  0.61760000  0.70113000  0.17936000  1.0
  C  C44  1  0.72052000  0.82931000  0.35067000  1.0
  C  C45  1  0.79036000  0.66184000  0.15725000  1.0
  C  C46  1  0.65550000  0.74787000  0.24120000  1.0
  C  C47  1  0.85633000  0.74269000  0.26568000  1.0
  S  S48  1  0.53191000  0.82687000  0.70372000  1.0
  S  S49  1  0.98840000  0.67880000  0.80063000  1.0
  S  S50  1  0.01969000  0.17637000  0.29294000  1.0
  S  S51  1  0.49682000  0.32515000  0.20785000  1.0
  S  S52  1  0.46486000  0.17292000  0.70408000  1.0
  S  S53  1  0.02994000  0.32549000  0.79753000  1.0
  S  S54  1  0.51425000  0.81197000  0.29422000  1.0
  S  S55  1  0.99925000  0.68059000  0.21191000  1.0
  O  O56  1  0.86427000  0.90091000  0.44632000  1.0
  O  O57  1  0.56610000  0.90781000  0.56502000  1.0
  O  O58  1  0.41387000  0.07207000  0.57814000  1.0
  O  O59  1  0.03821000  0.07278000  0.41911000  1.0
  O  O60  1  0.08479000  0.10146000  0.55498000  1.0
  O  O61  1  0.37741000  0.09128000  0.43989000  1.0
  O  O62  1  0.52823000  0.91547000  0.42431000  1.0
  O  O63  1  0.90309000  0.93852000  0.57982000  1.0
  O  O64  1  0.21445000  0.94167000  0.49946000  1.0
  O  O65  1  0.72164000  0.05792000  0.49574000  1.0
  O  O66  1  0.97085000  0.57654000  0.07908000  1.0
  O  O67  1  0.59851000  0.57796000  0.92618000  1.0
  O  O68  1  0.42435000  0.40367000  0.94126000  1.0
  O  O69  1  0.12254000  0.40897000  0.06401000  1.0
  O  O70  1  0.08529000  0.42019000  0.92711000  1.0
  O  O71  1  0.46132000  0.43077000  0.08017000  1.0
  O  O72  1  0.63576000  0.59596000  0.06110000  1.0
  O  O73  1  0.94155000  0.59123000  0.93668000  1.0
  O  O74  1  0.28189000  0.55858000  0.99988000  1.0
  O  O75  1  0.77358000  0.44299000  0.00141000  1.0
  O  O76  1  0.08177000  0.79166000  0.64942000  1.0
  O  O77  1  0.58477000  0.20752000  0.35657000  1.0
  O  O78  1  0.90870000  0.21969000  0.64404000  1.0
  O  O79  1  0.07288000  0.79392000  0.36366000  1.0
