# generated using pymatgen
data_Zn4H20(C8O5)5
_symmetry_space_group_name_H-M   'P 1'
_cell_length_a   23.84326151
_cell_length_b   23.84340000
_cell_length_c   23.84170000
_cell_angle_alpha   66.45350000
_cell_angle_beta   72.52459669
_cell_angle_gamma   107.47259740
_symmetry_Int_Tables_number   1
_chemical_formula_structural   Zn4H20(C8O5)5
_chemical_formula_sum   'Zn8 H40 C80 O50'
_cell_volume   10393.78343740
_cell_formula_units_Z   2
loop_
 _symmetry_equiv_pos_site_id
 _symmetry_equiv_pos_as_xyz
  1  'x, y, z'
loop_
 _atom_site_type_symbol
 _atom_site_label
 _atom_site_symmetry_multiplicity
 _atom_site_fract_x
 _atom_site_fract_y
 _atom_site_fract_z
 _atom_site_occupancy
  Zn  Zn0  1  0.05664000  0.09931000  0.45732000  1.0
  Zn  Zn1  1  0.05664000  0.95733000  0.48603000  1.0
  Zn  Zn2  1  0.94336000  0.95732000  0.59932000  1.0
  Zn  Zn3  1  0.94337000  0.98604000  0.45732000  1.0
  Zn  Zn4  1  0.94336000  0.40069000  0.04268000  1.0
  Zn  Zn5  1  0.05665000  0.54269000  0.90068000  1.0
  Zn  Zn6  1  0.94336000  0.54267000  0.01397000  1.0
  Zn  Zn7  1  0.05662000  0.51395000  0.04269000  1.0
  H  H8  1  0.92279000  0.20766000  0.90204000  1.0
  H  H9  1  0.07719000  0.40203000  0.70763000  1.0
  H  H10  1  0.92280000  0.09797000  0.79237000  1.0
  H  H11  1  0.07714000  0.29235000  0.59795000  1.0
  H  H12  1  0.07721000  0.67520000  0.21512000  1.0
  H  H13  1  0.92281000  0.71517000  0.17515000  1.0
  H  H14  1  0.07715000  0.78480000  0.32488000  1.0
  H  H15  1  0.92280000  0.82483000  0.28484000  1.0
  H  H16  1  0.60968000  0.20765000  0.21518000  1.0
  H  H17  1  0.60967000  0.40203000  0.17515000  1.0
  H  H18  1  0.39033000  0.09797000  0.32486000  1.0
  H  H19  1  0.39032000  0.29233000  0.28490000  1.0
  H  H20  1  0.39033000  0.71521000  0.70765000  1.0
  H  H21  1  0.39031000  0.67514000  0.90206000  1.0
  H  H22  1  0.60969000  0.82487000  0.59794000  1.0
  H  H23  1  0.60967000  0.78486000  0.79234000  1.0
  H  H24  1  0.91923000  0.08228000  0.33696000  1.0
  H  H25  1  0.08077000  0.41772000  0.16304000  1.0
  H  H26  1  0.91923000  0.25619000  0.16305000  1.0
  H  H27  1  0.08077000  0.24381000  0.33695000  1.0
  H  H28  1  0.91923000  0.83695000  0.74383000  1.0
  H  H29  1  0.08077000  0.66305000  0.75617000  1.0
  H  H30  1  0.91923000  0.66304000  0.91774000  1.0
  H  H31  1  0.08077000  0.83696000  0.58226000  1.0
  H  H32  1  0.91968000  0.29143000  0.99410000  1.0
  H  H33  1  0.08031000  0.49410000  0.79140000  1.0
  H  H34  1  0.91969000  0.00591000  0.70859000  1.0
  H  H35  1  0.08026000  0.20858000  0.50589000  1.0
  H  H36  1  0.08033000  0.58626000  0.12822000  1.0
  H  H37  1  0.91970000  0.62830000  0.08619000  1.0
  H  H38  1  0.08026000  0.87168000  0.41384000  1.0
  H  H39  1  0.91969000  0.91379000  0.37173000  1.0
  H  H40  1  0.78552000  0.29143000  0.12829000  1.0
  H  H41  1  0.78551000  0.49410000  0.08620000  1.0
  H  H42  1  0.21449000  0.00590000  0.41381000  1.0
  H  H43  1  0.21448000  0.20855000  0.37178000  1.0
  H  H44  1  0.21449000  0.62832000  0.79143000  1.0
  H  H45  1  0.21448000  0.58620000  0.99412000  1.0
  H  H46  1  0.78553000  0.91382000  0.50587000  1.0
  H  H47  1  0.78551000  0.87175000  0.70856000  1.0
  C  C48  1  0.18409000  0.09204000  0.40796000  1.0
  C  C49  1  0.00000000  0.86009000  0.63991000  1.0
  C  C50  1  0.99999000  0.09204000  0.59204000  1.0
  C  C51  1  0.81592000  0.90798000  0.59202000  1.0
  C  C52  1  0.00001000  0.13992000  0.36008000  1.0
  C  C53  1  0.99999000  0.90795000  0.40796000  1.0
  C  C54  1  1.00000000  0.40797000  0.90795000  1.0
  C  C55  1  0.00001000  0.63992000  0.86008000  1.0
  C  C56  1  0.81591000  0.40796000  0.09205000  1.0
  C  C57  1  1.00000000  0.59206000  0.09203000  1.0
  C  C58  1  0.99999000  0.36008000  0.13992000  1.0
  C  C59  1  0.18408000  0.59205000  0.90798000  1.0
  C  C60  1  0.00000000  0.19583000  0.30417000  1.0
  C  C61  1  1.00000000  0.30417000  0.19583000  1.0
  C  C62  1  0.95613000  0.17927000  0.27686000  1.0
  C  C63  1  0.04387000  0.32073000  0.22314000  1.0
  C  C64  1  0.95613000  0.23299000  0.22314000  1.0
  C  C65  1  0.04387000  0.26701000  0.27686000  1.0
  C  C66  1  0.00000000  0.80417000  0.69583000  1.0
  C  C67  1  1.00000000  0.69583000  0.80417000  1.0
  C  C68  1  0.95613000  0.77685000  0.76702000  1.0
  C  C69  1  0.04387000  0.72315000  0.73298000  1.0
  C  C70  1  0.95613000  0.72313000  0.82074000  1.0
  C  C71  1  0.04387000  0.77686000  0.67926000  1.0
  C  C72  1  0.99999000  0.37168000  0.87166000  1.0
  C  C73  1  0.95620000  0.29796000  0.90820000  1.0
  C  C74  1  0.95650000  0.26347000  0.87295000  1.0
  C  C75  1  0.99999000  0.30078000  0.80077000  1.0
  C  C76  1  0.04349000  0.37296000  0.76345000  1.0
  C  C77  1  0.04379000  0.40821000  0.79793000  1.0
  C  C78  1  0.00000000  0.26531000  0.76528000  1.0
  C  C79  1  0.99999000  0.23471000  0.73470000  1.0
  C  C80  1  0.99997000  0.19922000  0.69923000  1.0
  C  C81  1  0.95649000  0.12705000  0.73655000  1.0
  C  C82  1  0.95619000  0.09180000  0.70206000  1.0
  C  C83  1  0.99997000  0.12833000  0.62833000  1.0
  C  C84  1  0.04375000  0.20206000  0.59178000  1.0
  C  C85  1  0.04345000  0.23654000  0.62704000  1.0
  C  C86  1  0.00002000  0.62837000  0.12829000  1.0
  C  C87  1  0.04382000  0.63563000  0.15821000  1.0
  C  C88  1  0.04351000  0.67057000  0.19302000  1.0
  C  C89  1  0.00001000  0.69925000  0.19920000  1.0
  C  C90  1  0.95651000  0.69306000  0.17053000  1.0
  C  C91  1  0.95622000  0.65829000  0.13556000  1.0
  C  C92  1  1.00000000  0.73472000  0.23469000  1.0
  C  C93  1  0.99999000  0.76529000  0.26530000  1.0
  C  C94  1  0.99998000  0.80076000  0.30079000  1.0
  C  C95  1  0.04345000  0.80691000  0.32950000  1.0
  C  C96  1  0.04375000  0.84169000  0.36446000  1.0
  C  C97  1  0.99997000  0.87164000  0.37170000  1.0
  C  C98  1  0.95618000  0.86439000  0.34177000  1.0
  C  C99  1  0.95649000  0.82944000  0.30697000  1.0
  C  C100  1  0.74334000  0.37168000  0.12833000  1.0
  C  C101  1  0.70615000  0.29795000  0.15828000  1.0
  C  C102  1  0.63641000  0.26346000  0.19307000  1.0
  C  C103  1  0.60155000  0.30078000  0.19923000  1.0
  C  C104  1  0.63641000  0.37296000  0.17053000  1.0
  C  C105  1  0.70615000  0.40821000  0.13558000  1.0
  C  C106  1  0.53059000  0.26529000  0.23471000  1.0
  C  C107  1  0.46941000  0.23469000  0.26531000  1.0
  C  C108  1  0.39845000  0.19921000  0.30081000  1.0
  C  C109  1  0.36359000  0.12704000  0.32949000  1.0
  C  C110  1  0.29385000  0.09178000  0.36445000  1.0
  C  C111  1  0.25666000  0.12831000  0.37171000  1.0
  C  C112  1  0.29385000  0.20204000  0.34179000  1.0
  C  C113  1  0.36359000  0.23653000  0.30699000  1.0
  C  C114  1  0.25666000  0.62835000  0.87169000  1.0
  C  C115  1  0.29385000  0.65830000  0.79796000  1.0
  C  C116  1  0.36359000  0.69308000  0.76347000  1.0
  C  C117  1  0.39845000  0.69924000  0.80079000  1.0
  C  C118  1  0.36359000  0.67055000  0.87297000  1.0
  C  C119  1  0.29385000  0.63559000  0.90822000  1.0
  C  C120  1  0.46941000  0.73472000  0.76530000  1.0
  C  C121  1  0.53059000  0.76531000  0.73469000  1.0
  C  C122  1  0.60155000  0.80080000  0.69921000  1.0
  C  C123  1  0.63642000  0.82949000  0.62702000  1.0
  C  C124  1  0.70616000  0.86444000  0.59177000  1.0
  C  C125  1  0.74334000  0.87170000  0.62831000  1.0
  C  C126  1  0.70615000  0.84176000  0.70204000  1.0
  C  C127  1  0.63641000  0.80697000  0.73653000  1.0
  O  O128  1  0.00000000  0.00000000  0.50000000  1.0
  O  O129  1  0.15237000  0.12705000  0.41304000  1.0
  O  O130  1  0.04014000  0.88405000  0.57581000  1.0
  O  O131  1  0.95991000  0.02531000  0.62706000  1.0
  O  O132  1  0.15238000  0.02531000  0.43458000  1.0
  O  O133  1  0.04008000  0.12705000  0.52531000  1.0
  O  O134  1  0.95985000  0.88404000  0.65610000  1.0
  O  O135  1  0.84762000  0.91303000  0.62705000  1.0
  O  O136  1  0.95986000  0.07581000  0.38405000  1.0
  O  O137  1  0.84763000  0.93460000  0.52529000  1.0
  O  O138  1  0.04015000  0.15609000  0.38404000  1.0
  O  O139  1  0.04008000  0.91302000  0.43460000  1.0
  O  O140  1  0.95991000  0.93460000  0.41302000  1.0
  O  O141  1  1.00000000  0.50000000  0.00000000  1.0
  O  O142  1  0.95991000  0.37295000  0.97468000  1.0
  O  O143  1  0.04015000  0.61596000  0.84390000  1.0
  O  O144  1  0.84762000  0.47468000  0.06541000  1.0
  O  O145  1  0.04010000  0.47469000  0.87293000  1.0
  O  O146  1  0.84763000  0.37295000  0.08698000  1.0
  O  O147  1  0.95986000  0.61595000  0.92419000  1.0
  O  O148  1  0.95989000  0.58696000  0.06541000  1.0
  O  O149  1  0.04013000  0.42419000  0.11596000  1.0
  O  O150  1  0.04008000  0.56541000  0.08697000  1.0
  O  O151  1  0.95986000  0.34391000  0.11595000  1.0
  O  O152  1  0.15238000  0.58698000  0.87295000  1.0
  O  O153  1  0.15236000  0.56539000  0.97471000  1.0
  O  O154  1  0.91310000  0.11345000  0.29965000  1.0
  O  O155  1  0.08691000  0.38655000  0.20034000  1.0
  O  O156  1  0.91310000  0.21275000  0.20035000  1.0
  O  O157  1  0.08691000  0.28726000  0.29964000  1.0
  O  O158  1  0.91310000  0.79965000  0.78726000  1.0
  O  O159  1  0.08690000  0.70035000  0.71274000  1.0
  O  O160  1  0.91310000  0.70034000  0.88657000  1.0
  O  O161  1  0.08690000  0.79966000  0.61343000  1.0
  O  O162  1  0.91336000  0.25921000  0.97732000  1.0
  O  O163  1  0.08663000  0.47732000  0.75917000  1.0
  O  O164  1  0.91336000  0.02268000  0.74083000  1.0
  O  O165  1  0.08658000  0.24082000  0.52266000  1.0
  O  O166  1  0.08666000  0.60937000  0.15412000  1.0
  O  O167  1  0.91338000  0.65421000  0.10929000  1.0
  O  O168  1  0.08657000  0.84576000  0.39075000  1.0
  O  O169  1  0.91336000  0.89068000  0.34583000  1.0
  O  O170  1  0.73651000  0.25920000  0.15420000  1.0
  O  O171  1  0.73650000  0.47732000  0.10930000  1.0
  O  O172  1  0.26350000  0.02268000  0.39071000  1.0
  O  O173  1  0.26349000  0.24078000  0.34590000  1.0
  O  O174  1  0.26350000  0.65423000  0.75919000  1.0
  O  O175  1  0.26348000  0.60929000  0.97735000  1.0
  O  O176  1  0.73652000  0.89072000  0.52265000  1.0
  O  O177  1  0.73650000  0.84585000  0.74079000  1.0
