# generated using pymatgen
data_ZnH19C16NO4
_symmetry_space_group_name_H-M   'P 1'
_cell_length_a   7.91913000
_cell_length_b   8.93035000
_cell_length_c   17.20290000
_cell_angle_alpha   86.12180000
_cell_angle_beta   82.82250000
_cell_angle_gamma   83.55750000
_symmetry_Int_Tables_number   1
_chemical_formula_structural   ZnH19C16NO4
_chemical_formula_sum   'Zn2 H38 C32 N2 O8'
_cell_volume   1197.66831612
_cell_formula_units_Z   2
loop_
 _symmetry_equiv_pos_site_id
 _symmetry_equiv_pos_as_xyz
  1  'x, y, z'
loop_
 _atom_site_type_symbol
 _atom_site_label
 _atom_site_symmetry_multiplicity
 _atom_site_fract_x
 _atom_site_fract_y
 _atom_site_fract_z
 _atom_site_occupancy
  Zn  Zn0  1  0.68181000  0.50410000  0.47943000  1.0
  Zn  Zn1  1  0.31773000  0.51802000  0.51629000  1.0
  H  H2  1  0.63226000  0.31935000  0.00427000  1.0
  H  H3  1  0.76756000  0.62446000  0.69266000  1.0
  H  H4  1  0.14033000  0.38724000  0.73371000  1.0
  H  H5  1  0.29150000  0.28800000  0.66715000  1.0
  H  H6  1  0.20621000  0.19471000  0.75505000  1.0
  H  H7  1  0.54258000  0.72535000  0.28671000  1.0
  H  H8  1  0.72353000  0.64942000  0.22611000  1.0
  H  H9  1  0.57107000  0.78213000  0.18550000  1.0
  H  H10  1  0.53714000  0.60731000  0.00782000  1.0
  H  H11  1  0.50873000  0.75390000  0.07422000  1.0
  H  H12  1  0.69888000  0.62985000  0.06748000  1.0
  H  H13  1  0.24803000  0.41189000  0.00927000  1.0
  H  H14  1  0.29973000  0.16233000  0.95002000  1.0
  H  H15  1  0.13812000  0.29536000  0.91745000  1.0
  H  H16  1  0.21399000  0.13800000  0.86186000  1.0
  H  H17  1  0.74358000  0.13868000  0.92381000  1.0
  H  H18  1  0.91129000  0.13288000  0.84594000  1.0
  H  H19  1  0.95537000  0.15004000  0.94370000  1.0
  H  H20  1  0.94324000  0.39887000  0.84909000  1.0
  H  H21  1  0.82958000  0.41502000  0.94305000  1.0
  H  H22  1  0.42976000  0.06385000  0.09044000  1.0
  H  H23  1  0.38813000  0.00872000  0.19145000  1.0
  H  H24  1  0.95139000  0.51133000  0.58135000  1.0
  H  H25  1  0.25412000  0.95835000  0.12409000  1.0
  H  H26  1  0.10482000  0.17652000  0.19743000  1.0
  H  H27  1  0.15304000  0.23080000  0.09759000  1.0
  H  H28  1  0.35055000  0.89681000  0.62737000  1.0
  H  H29  1  0.40362000  0.08695000  0.61815000  1.0
  H  H30  1  0.22994000  0.03670000  0.57340000  1.0
  H  H31  1  0.67100000  0.11158000  0.34896000  1.0
  H  H32  1  0.82271000  0.01643000  0.40687000  1.0
  H  H33  1  0.66841000  0.91372000  0.37355000  1.0
  H  H34  1  0.05019000  0.50969000  0.42194000  1.0
  H  H35  1  0.26265000  0.12421000  0.29970000  1.0
  H  H36  1  0.29520000  0.24630000  0.37188000  1.0
  H  H37  1  0.10241000  0.26992000  0.32853000  1.0
  H  H38  1  0.87852000  0.58024000  0.77586000  1.0
  H  H39  1  0.90984000  0.45701000  0.69762000  1.0
  C  C40  1  0.49136000  0.79852000  0.49605000  1.0
  C  C41  1  0.66781000  0.44773000  0.77166000  1.0
  C  C42  1  0.30618000  0.32265000  0.17324000  1.0
  C  C43  1  0.67112000  0.39348000  0.84995000  1.0
  C  C44  1  0.38707000  0.41383000  0.11272000  1.0
  C  C45  1  0.52083000  0.34593000  0.89319000  1.0
  C  C46  1  0.47823000  0.53258000  0.13003000  1.0
  C  C47  1  0.38841000  0.30927000  0.85302000  1.0
  C  C48  1  0.48988000  0.55846000  0.20901000  1.0
  C  C49  1  0.39092000  0.34684000  0.77202000  1.0
  C  C50  1  0.37393000  0.38579000  0.02981000  1.0
  C  C51  1  0.56004000  0.22140000  0.48764000  1.0
  C  C52  1  0.51142000  0.34125000  0.97917000  1.0
  C  C53  1  0.24205000  0.24189000  0.31645000  1.0
  C  C54  1  0.81347000  0.53177000  0.73235000  1.0
  C  C55  1  0.25107000  0.30112000  0.72958000  1.0
  C  C56  1  0.58555000  0.68577000  0.22795000  1.0
  C  C57  1  0.55956000  0.63540000  0.06628000  1.0
  C  C58  1  0.25336000  0.22172000  0.89766000  1.0
  C  C59  1  0.83465000  0.35909000  0.88761000  1.0
  C  C60  1  0.86375000  0.18529000  0.90160000  1.0
  C  C61  1  0.21130000  0.19620000  0.15175000  1.0
  C  C62  1  0.47884000  0.96104000  0.51439000  1.0
  C  C63  1  0.32732000  0.04808000  0.13870000  1.0
  C  C64  1  0.35988000  0.99775000  0.58757000  1.0
  C  C65  1  0.68861000  0.02193000  0.39523000  1.0
  C  C66  1  0.56961000  0.05970000  0.46823000  1.0
  C  C67  1  0.42655000  0.49347000  0.35249000  1.0
  C  C68  1  0.51844000  0.48017000  0.64869000  1.0
  C  C69  1  0.41117000  0.46506000  0.26888000  1.0
  C  C70  1  0.52466000  0.42706000  0.73303000  1.0
  C  C71  1  0.31997000  0.34615000  0.25220000  1.0
  N  N72  1  0.03743000  0.51226000  0.53027000  1.0
  N  N73  1  0.95956000  0.50976000  0.47210000  1.0
  O  O74  1  0.64103000  0.72791000  0.48227000  1.0
  O  O75  1  0.41542000  0.29122000  0.51221000  1.0
  O  O76  1  0.35041000  0.74157000  0.49918000  1.0
  O  O77  1  0.70187000  0.27958000  0.47519000  1.0
  O  O78  1  0.57467000  0.49942000  0.37207000  1.0
  O  O79  1  0.37054000  0.52499000  0.62769000  1.0
  O  O80  1  0.28734000  0.50999000  0.39972000  1.0
  O  O81  1  0.65802000  0.47617000  0.60230000  1.0
