# generated using pymatgen
data_CuH4C5Br2N
_symmetry_space_group_name_H-M   'P 1'
_cell_length_a   3.85927000
_cell_length_b   8.66619000
_cell_length_c   21.01300000
_cell_angle_alpha   100.86600000
_cell_angle_beta   89.99950000
_cell_angle_gamma   89.99860000
_symmetry_Int_Tables_number   1
_chemical_formula_structural   CuH4C5Br2N
_chemical_formula_sum   'Cu4 H16 C20 Br8 N4'
_cell_volume   690.18291911
_cell_formula_units_Z   4
loop_
 _symmetry_equiv_pos_site_id
 _symmetry_equiv_pos_as_xyz
  1  'x, y, z'
loop_
 _atom_site_type_symbol
 _atom_site_label
 _atom_site_symmetry_multiplicity
 _atom_site_fract_x
 _atom_site_fract_y
 _atom_site_fract_z
 _atom_site_occupancy
  Cu  Cu0  1  0.11420000  0.18673000  0.20911000  1.0
  Cu  Cu1  1  0.61419000  0.31328000  0.29089000  1.0
  Cu  Cu2  1  0.88583000  0.81327000  0.79090000  1.0
  Cu  Cu3  1  0.38583000  0.68673000  0.70911000  1.0
  H  H4  1  0.19006000  0.59120000  0.17814000  1.0
  H  H5  1  0.69004000  0.90881000  0.32186000  1.0
  H  H6  1  0.80996000  0.40879000  0.82186000  1.0
  H  H7  1  0.30991000  0.09121000  0.67814000  1.0
  H  H8  1  0.82364000  0.04031000  0.08153000  1.0
  H  H9  1  0.32360000  0.45969000  0.41846000  1.0
  H  H10  1  0.17640000  0.95969000  0.91847000  1.0
  H  H11  1  0.67640000  0.54031000  0.58154000  1.0
  H  H12  1  0.91864000  0.53714000  0.06821000  1.0
  H  H13  1  0.41863000  0.96285000  0.43180000  1.0
  H  H14  1  0.08134000  0.46285000  0.93179000  1.0
  H  H15  1  0.58132000  0.03715000  0.56820000  1.0
  H  H16  1  0.25918000  0.87197000  0.23557000  1.0
  H  H17  1  0.75913000  0.62804000  0.26443000  1.0
  H  H18  1  0.74087000  0.12802000  0.76443000  1.0
  H  H19  1  0.24083000  0.37197000  0.73557000  1.0
  C  C20  1  0.10309000  0.68813000  0.15569000  1.0
  C  C21  1  0.60307000  0.81188000  0.34431000  1.0
  C  C22  1  0.89693000  0.31186000  0.84431000  1.0
  C  C23  1  0.39689000  0.18813000  0.65569000  1.0
  C  C24  1  0.90172000  0.93820000  0.10145000  1.0
  C  C25  1  0.40169000  0.56180000  0.39854000  1.0
  C  C26  1  0.09831000  0.06179000  0.89855000  1.0
  C  C27  1  0.59830000  0.43821000  0.60146000  1.0
  C  C28  1  0.85482000  0.78557000  0.06709000  1.0
  C  C29  1  0.35481000  0.71442000  0.43291000  1.0
  C  C30  1  0.14519000  0.21442000  0.93292000  1.0
  C  C31  1  0.64517000  0.28558000  0.56708000  1.0
  C  C32  1  0.95394000  0.65736000  0.09411000  1.0
  C  C33  1  0.45392000  0.84264000  0.40590000  1.0
  C  C34  1  0.04607000  0.34264000  0.90589000  1.0
  C  C35  1  0.54604000  0.15737000  0.59410000  1.0
  C  C36  1  0.14473000  0.84285000  0.18738000  1.0
  C  C37  1  0.64470000  0.65716000  0.31261000  1.0
  C  C38  1  0.85531000  0.15714000  0.81262000  1.0
  C  C39  1  0.35527000  0.34285000  0.68738000  1.0
  Br  Br40  1  0.60352000  0.33333333  0.17347000  1.0
  Br  Br41  1  0.10353000  0.16668000  0.32652000  1.0
  Br  Br42  1  0.39650000  0.66666667  0.82653000  1.0
  Br  Br43  1  0.89649000  0.83332000  0.67348000  1.0
  Br  Br44  1  0.66496000  0.75399000  0.98198000  1.0
  Br  Br45  1  0.16496000  0.74599000  0.51802000  1.0
  Br  Br46  1  0.33504000  0.24601000  0.01802000  1.0
  Br  Br47  1  0.83501000  0.25401000  0.48198000  1.0
  N  N48  1  0.04545000  0.96650000  0.16102000  1.0
  N  N49  1  0.54541000  0.53351000  0.33897000  1.0
  N  N50  1  0.95459000  0.03350000  0.83898000  1.0
  N  N51  1  0.45458000  0.46650000  0.66102000  1.0
