# generated using pymatgen
data_Co5H6C18(N9Cl2)2
_symmetry_space_group_name_H-M   'P 1'
_cell_length_a   15.27490000
_cell_length_b   15.29252278
_cell_length_c   15.29199058
_cell_angle_alpha   60.32712677
_cell_angle_beta   60.05085969
_cell_angle_gamma   60.05490056
_symmetry_Int_Tables_number   1
_chemical_formula_structural   Co5H6C18(N9Cl2)2
_chemical_formula_sum   'Co10 H12 C36 N36 Cl8'
_cell_volume   2534.06131314
_cell_formula_units_Z   2
loop_
 _symmetry_equiv_pos_site_id
 _symmetry_equiv_pos_as_xyz
  1  'x, y, z'
loop_
 _atom_site_type_symbol
 _atom_site_label
 _atom_site_symmetry_multiplicity
 _atom_site_fract_x
 _atom_site_fract_y
 _atom_site_fract_z
 _atom_site_occupancy
  Co  Co0  1  0.24920000  0.24876000  0.24878000  1.0
  Co  Co1  1  0.75080000  0.75124000  0.75122000  1.0
  Co  Co2  1  0.34261000  0.97306000  0.34177000  1.0
  Co  Co3  1  0.34311000  0.34205000  0.34204000  1.0
  Co  Co4  1  0.97295000  0.34204000  0.34197000  1.0
  Co  Co5  1  0.34260000  0.34182000  0.97298000  1.0
  Co  Co6  1  0.65689000  0.65795000  0.65796000  1.0
  Co  Co7  1  0.65738000  0.02695000  0.65823000  1.0
  Co  Co8  1  0.02705000  0.65796000  0.65803000  1.0
  Co  Co9  1  0.65741000  0.65817000  0.02702000  1.0
  H  H10  1  0.49957000  0.83185000  0.49957000  1.0
  H  H11  1  0.50043000  0.16815000  0.50043000  1.0
  H  H12  1  0.83111000  0.50034000  0.16820000  1.0
  H  H13  1  0.16889000  0.49966000  0.83180000  1.0
  H  H14  1  0.49994000  0.83224000  0.16790000  1.0
  H  H15  1  0.50006000  0.16776000  0.83210000  1.0
  H  H16  1  0.16877000  0.50000000  0.50003000  1.0
  H  H17  1  0.83124000  0.49999000  0.49997000  1.0
  H  H18  1  0.16896000  0.83187000  0.49960000  1.0
  H  H19  1  0.83104000  0.16813000  0.50040000  1.0
  H  H20  1  0.49962000  0.49965000  0.83183000  1.0
  H  H21  1  0.50038000  0.50035000  0.16817000  1.0
  C  C22  1  0.44623000  0.00686000  0.44616000  1.0
  C  C23  1  0.44639000  0.10064000  0.44625000  1.0
  C  C24  1  0.00670000  0.44629000  0.10060000  1.0
  C  C25  1  0.10083000  0.44613000  0.00687000  1.0
  C  C26  1  0.44616000  0.00717000  0.10061000  1.0
  C  C27  1  0.44615000  0.10068000  0.00709000  1.0
  C  C28  1  0.10094000  0.44601000  0.44609000  1.0
  C  C29  1  0.00685000  0.44611000  0.44615000  1.0
  C  C30  1  0.10078000  0.00690000  0.44618000  1.0
  C  C31  1  0.00665000  0.10062000  0.44633000  1.0
  C  C32  1  0.44625000  0.44613000  0.00684000  1.0
  C  C33  1  0.44642000  0.44621000  0.10060000  1.0
  C  C34  1  0.55362000  0.89936000  0.55374000  1.0
  C  C35  1  0.55377000  0.99314000  0.55384000  1.0
  C  C36  1  0.99331000  0.55370000  0.89940000  1.0
  C  C37  1  0.89918000  0.55387000  0.99313000  1.0
  C  C38  1  0.55358000  0.55379000  0.89939000  1.0
  C  C39  1  0.55374000  0.55387000  0.99316000  1.0
  C  C40  1  0.89922000  0.99310000  0.55382000  1.0
  C  C41  1  0.99335000  0.89938000  0.55367000  1.0
  C  C42  1  0.89906000  0.55399000  0.55391000  1.0
  C  C43  1  0.99315000  0.55389000  0.55385000  1.0
  C  C44  1  0.55384000  0.89932000  0.99292000  1.0
  C  C45  1  0.55384000  0.99284000  0.89939000  1.0
  C  C46  1  0.49978000  0.90294000  0.49980000  1.0
  C  C47  1  0.50023000  0.09706000  0.50019000  1.0
  C  C48  1  0.90253000  0.50021000  0.09703000  1.0
  C  C49  1  0.09748000  0.49979000  0.90297000  1.0
  C  C50  1  0.49999000  0.90315000  0.09690000  1.0
  C  C51  1  0.50002000  0.09685000  0.90310000  1.0
  C  C52  1  0.09743000  0.49995000  0.49998000  1.0
  C  C53  1  0.90257000  0.50005000  0.50002000  1.0
  C  C54  1  0.09752000  0.90297000  0.49978000  1.0
  C  C55  1  0.90248000  0.09703000  0.50022000  1.0
  C  C56  1  0.49978000  0.49983000  0.90294000  1.0
  C  C57  1  0.50022000  0.50016000  0.09706000  1.0
  N  N58  1  0.38537000  0.04275000  0.38519000  1.0
  N  N59  1  0.38566000  0.18628000  0.38526000  1.0
  N  N60  1  0.04257000  0.38521000  0.18630000  1.0
  N  N61  1  0.18668000  0.38504000  0.04278000  1.0
  N  N62  1  0.38504000  0.04330000  0.18646000  1.0
  N  N63  1  0.38502000  0.18652000  0.04322000  1.0
  N  N64  1  0.18693000  0.38487000  0.38500000  1.0
  N  N65  1  0.04285000  0.38503000  0.38510000  1.0
  N  N66  1  0.18664000  0.04285000  0.38509000  1.0
  N  N67  1  0.04256000  0.18631000  0.38525000  1.0
  N  N68  1  0.38540000  0.38514000  0.04272000  1.0
  N  N69  1  0.38572000  0.38517000  0.18627000  1.0
  N  N70  1  0.61433000  0.81372000  0.61474000  1.0
  N  N71  1  0.61463000  0.95725000  0.61481000  1.0
  N  N72  1  0.95743000  0.61479000  0.81370000  1.0
  N  N73  1  0.81332000  0.61496000  0.95722000  1.0
  N  N74  1  0.61429000  0.61482000  0.81372000  1.0
  N  N75  1  0.61459000  0.61486000  0.95728000  1.0
  N  N76  1  0.81336000  0.95715000  0.61491000  1.0
  N  N77  1  0.95743000  0.81369000  0.61476000  1.0
  N  N78  1  0.81307000  0.61513000  0.61500000  1.0
  N  N79  1  0.95715000  0.61497000  0.61490000  1.0
  N  N80  1  0.61498000  0.81348000  0.95678000  1.0
  N  N81  1  0.61496000  0.95670000  0.81354000  1.0
  N  N82  1  0.35062000  0.14921000  0.35035000  1.0
  N  N83  1  0.14957000  0.35012000  0.14936000  1.0
  N  N84  1  0.34985000  0.14994000  0.14989000  1.0
  N  N85  1  0.14977000  0.34994000  0.35008000  1.0
  N  N86  1  0.14956000  0.14940000  0.35017000  1.0
  N  N87  1  0.35067000  0.35026000  0.14921000  1.0
  N  N88  1  0.64936000  0.85080000  0.64965000  1.0
  N  N89  1  0.85043000  0.64988000  0.85064000  1.0
  N  N90  1  0.64933000  0.64974000  0.85079000  1.0
  N  N91  1  0.85044000  0.85060000  0.64983000  1.0
  N  N92  1  0.85023000  0.65006000  0.64992000  1.0
  N  N93  1  0.65015000  0.85006000  0.85011000  1.0
  Cl  Cl94  1  0.39934000  0.80201000  0.39888000  1.0
  Cl  Cl95  1  0.39978000  0.39953000  0.39962000  1.0
  Cl  Cl96  1  0.80126000  0.39927000  0.39948000  1.0
  Cl  Cl97  1  0.39947000  0.39882000  0.80192000  1.0
  Cl  Cl98  1  0.60022000  0.60047000  0.60038000  1.0
  Cl  Cl99  1  0.60066000  0.19800000  0.60111000  1.0
  Cl  Cl100  1  0.19875000  0.60072000  0.60052000  1.0
  Cl  Cl101  1  0.60052000  0.60118000  0.19809000  1.0
