# generated using pymatgen
data_PrH17C25(NO4)2
_symmetry_space_group_name_H-M   'P 1'
_cell_length_a   9.47461000
_cell_length_b   12.61950000
_cell_length_c   16.83760000
_cell_angle_alpha   96.24930000
_cell_angle_beta   102.91190000
_cell_angle_gamma   94.24130000
_symmetry_Int_Tables_number   1
_chemical_formula_structural   PrH17C25(NO4)2
_chemical_formula_sum   'Pr2 H34 C50 N4 O16'
_cell_volume   1940.56005159
_cell_formula_units_Z   2
loop_
 _symmetry_equiv_pos_site_id
 _symmetry_equiv_pos_as_xyz
  1  'x, y, z'
loop_
 _atom_site_type_symbol
 _atom_site_label
 _atom_site_symmetry_multiplicity
 _atom_site_fract_x
 _atom_site_fract_y
 _atom_site_fract_z
 _atom_site_occupancy
  Pr  Pr0  1  0.70558000  0.06270000  0.54586000  1.0
  Pr  Pr1  1  0.29442000  0.93730000  0.45414000  1.0
  H  H2  1  0.66512000  0.80506000  0.04636000  1.0
  H  H3  1  0.33490000  0.19495000  0.95364000  1.0
  H  H4  1  0.66020000  0.79106000  0.88514000  1.0
  H  H5  1  0.33980000  0.20894000  0.11486000  1.0
  H  H6  1  0.90398000  0.54250000  0.68206000  1.0
  H  H7  1  0.09601000  0.45748000  0.31794000  1.0
  H  H8  1  0.09880000  0.39753000  0.70659000  1.0
  H  H9  1  0.90121000  0.60246000  0.29341000  1.0
  H  H10  1  0.99603000  0.49936000  0.93434000  1.0
  H  H11  1  0.00395000  0.50063000  0.06566000  1.0
  H  H12  1  0.96444000  0.81458000  0.24015000  1.0
  H  H13  1  0.03558000  0.18542000  0.75986000  1.0
  H  H14  1  0.85477000  0.92860000  0.33514000  1.0
  H  H15  1  0.14525000  0.07140000  0.66487000  1.0
  H  H16  1  0.43764000  0.74970000  0.23412000  1.0
  H  H17  1  0.56236000  0.25033000  0.76587000  1.0
  H  H18  1  0.54513000  0.63747000  0.13571000  1.0
  H  H19  1  0.45488000  0.36256000  0.86427000  1.0
  H  H20  1  0.53180000  0.61468000  0.78106000  1.0
  H  H21  1  0.46818000  0.38531000  0.21894000  1.0
  H  H22  1  0.39077000  0.69503000  0.66258000  1.0
  H  H23  1  0.60922000  0.30497000  0.33742000  1.0
  H  H24  1  0.79186000  0.81538000  0.60900000  1.0
  H  H25  1  0.20813000  0.18462000  0.39099000  1.0
  H  H26  1  0.93192000  0.73819000  0.72810000  1.0
  H  H27  1  0.06807000  0.26179000  0.27189000  1.0
  H  H28  1  0.80447000  0.95454000  0.70651000  1.0
  H  H29  1  0.19555000  0.04546000  0.29348000  1.0
  H  H30  1  0.72174000  0.05708000  0.71495000  1.0
  H  H31  1  0.27828000  0.94291000  0.28506000  1.0
  H  H32  1  0.91019000  0.24605000  0.59506000  1.0
  H  H33  1  0.08980000  0.75395000  0.40494000  1.0
  H  H34  1  0.77348000  0.29929000  0.60902000  1.0
  H  H35  1  0.22650000  0.70072000  0.39097000  1.0
  C  C36  1  0.80131000  0.66483000  0.04271000  1.0
  C  C37  1  0.19870000  0.33516000  0.95729000  1.0
  C  C38  1  0.71433000  0.74806000  0.01064000  1.0
  C  C39  1  0.28568000  0.25194000  0.98935000  1.0
  C  C40  1  0.71157000  0.74069000  0.92914000  1.0
  C  C41  1  0.28844000  0.25931000  0.07086000  1.0
  C  C42  1  0.79717000  0.65297000  0.91209000  1.0
  C  C43  1  0.20282000  0.34701000  0.08791000  1.0
  C  C44  1  0.82309000  0.62264000  0.83369000  1.0
  C  C45  1  0.17690000  0.37735000  0.16631000  1.0
  C  C46  1  0.91916000  0.54796000  0.81708000  1.0
  C  C47  1  0.08082000  0.45202000  0.18292000  1.0
  C  C48  1  0.95128000  0.51368000  0.73951000  1.0
  C  C49  1  0.04871000  0.48631000  0.26049000  1.0
  C  C50  1  0.05045000  0.43947000  0.75185000  1.0
  C  C51  1  0.94955000  0.56052000  0.24815000  1.0
  C  C52  1  0.07996000  0.42394000  0.83683000  1.0
  C  C53  1  0.92003000  0.57606000  0.16317000  1.0
  C  C54  1  0.82958000  0.64884000  0.12605000  1.0
  C  C55  1  0.17042000  0.35116000  0.87395000  1.0
  C  C56  1  0.76210000  0.71772000  0.18203000  1.0
  C  C57  1  0.23792000  0.28229000  0.81798000  1.0
  C  C58  1  0.84877000  0.80038000  0.23833000  1.0
  C  C59  1  0.15125000  0.19963000  0.76168000  1.0
  C  C60  1  0.78783000  0.86402000  0.29187000  1.0
  C  C61  1  0.21218000  0.13598000  0.70814000  1.0
  C  C62  1  0.63976000  0.84553000  0.29127000  1.0
  C  C63  1  0.36025000  0.15448000  0.70873000  1.0
  C  C64  1  0.55263000  0.76392000  0.23436000  1.0
  C  C65  1  0.44738000  0.23610000  0.76563000  1.0
  C  C66  1  0.61304000  0.70109000  0.17982000  1.0
  C  C67  1  0.38697000  0.29894000  0.82017000  1.0
  C  C68  1  0.57851000  0.90968000  0.35339000  1.0
  C  C69  1  0.42149000  0.09033000  0.64662000  1.0
  C  C70  1  0.74154000  0.67129000  0.76317000  1.0
  C  C71  1  0.25845000  0.32869000  0.23682000  1.0
  C  C72  1  0.58845000  0.65971000  0.74374000  1.0
  C  C73  1  0.41155000  0.34028000  0.25626000  1.0
  C  C74  1  0.50940000  0.70412000  0.67771000  1.0
  C  C75  1  0.49060000  0.29588000  0.32229000  1.0
  C  C76  1  0.58187000  0.76241000  0.62986000  1.0
  C  C77  1  0.41813000  0.23759000  0.37014000  1.0
  C  C78  1  0.73469000  0.77355000  0.64793000  1.0
  C  C79  1  0.26530000  0.22645000  0.35207000  1.0
  C  C80  1  0.81321000  0.72844000  0.71391000  1.0
  C  C81  1  0.18678000  0.27155000  0.28609000  1.0
  C  C82  1  0.49524000  0.81371000  0.56217000  1.0
  C  C83  1  0.50476000  0.18629000  0.43782000  1.0
  C  C84  1  0.01641000  0.05826000  0.49040000  1.0
  C  C85  1  0.98359000  0.94175000  0.50961000  1.0
  N  N86  1  0.85174000  0.60883000  0.98202000  1.0
  N  N87  1  0.14826000  0.39116000  0.01798000  1.0
  N  N88  1  0.99972000  0.49203000  0.87385000  1.0
  N  N89  1  0.00025000  0.50796000  0.12615000  1.0
  O  O90  1  0.66434000  0.98088000  0.40406000  1.0
  O  O91  1  0.33567000  0.01912000  0.59594000  1.0
  O  O92  1  0.44356000  0.88816000  0.35266000  1.0
  O  O93  1  0.55644000  0.11184000  0.64734000  1.0
  O  O94  1  0.55438000  0.89627000  0.53822000  1.0
  O  O95  1  0.44561000  0.10374000  0.46179000  1.0
  O  O96  1  0.36364000  0.77861000  0.53013000  1.0
  O  O97  1  0.63635000  0.22139000  0.46987000  1.0
  O  O98  1  0.93924000  0.12805000  0.51346000  1.0
  O  O99  1  0.06077000  0.87195000  0.48656000  1.0
  O  O100  1  0.11660000  0.07322000  0.45330000  1.0
  O  O101  1  0.88339000  0.92678000  0.54670000  1.0
  O  O102  1  0.80737000  0.03018000  0.69864000  1.0
  O  O103  1  0.19264000  0.96982000  0.30135000  1.0
  O  O104  1  0.83575000  0.24433000  0.62732000  1.0
  O  O105  1  0.16423000  0.75568000  0.37268000  1.0
