# generated using pymatgen
data_CdH14C20S2(NO)4
_symmetry_space_group_name_H-M   'P 1'
_cell_length_a   8.93877000
_cell_length_b   16.75880000
_cell_length_c   19.32330000
_cell_angle_alpha   89.99970000
_cell_angle_beta   89.99970000
_cell_angle_gamma   78.59600000
_symmetry_Int_Tables_number   1
_chemical_formula_structural   CdH14C20S2(NO)4
_chemical_formula_sum   'Cd4 H56 C80 S8 N16 O16'
_cell_volume   2837.54067011
_cell_formula_units_Z   4
loop_
 _symmetry_equiv_pos_site_id
 _symmetry_equiv_pos_as_xyz
  1  'x, y, z'
loop_
 _atom_site_type_symbol
 _atom_site_label
 _atom_site_symmetry_multiplicity
 _atom_site_fract_x
 _atom_site_fract_y
 _atom_site_fract_z
 _atom_site_occupancy
  Cd  Cd0  1  0.18611000  0.98531000  0.44185000  1.0
  Cd  Cd1  1  0.81388000  0.51468000  0.94185000  1.0
  Cd  Cd2  1  0.81389000  0.01468000  0.55815000  1.0
  Cd  Cd3  1  0.18612000  0.48532000  0.05815000  1.0
  H  H4  1  0.19618000  0.66506000  0.10861000  1.0
  H  H5  1  0.80381000  0.83493000  0.60861000  1.0
  H  H6  1  0.80381000  0.33494000  0.89139000  1.0
  H  H7  1  0.19618000  0.16507000  0.39139000  1.0
  H  H8  1  0.10170000  0.76111000  0.20563000  1.0
  H  H9  1  0.89829000  0.73888000  0.70563000  1.0
  H  H10  1  0.89829000  0.23889000  0.79437000  1.0
  H  H11  1  0.10171000  0.26112000  0.29437000  1.0
  H  H12  1  0.81114000  0.59644000  0.26714000  1.0
  H  H13  1  0.18886000  0.90356000  0.76714000  1.0
  H  H14  1  0.18886000  0.40356000  0.73286000  1.0
  H  H15  1  0.81114000  0.09644000  0.23286000  1.0
  H  H16  1  0.91856000  0.50686000  0.16657000  1.0
  H  H17  1  0.08143000  0.99313000  0.66657000  1.0
  H  H18  1  0.08144000  0.49314000  0.83343000  1.0
  H  H19  1  0.91856000  0.00687000  0.33343000  1.0
  H  H20  1  0.64249000  0.75432000  0.49317000  1.0
  H  H21  1  0.35750000  0.74568000  0.99316000  1.0
  H  H22  1  0.35750000  0.24567000  0.50684000  1.0
  H  H23  1  0.64250000  0.25432000  0.00684000  1.0
  H  H24  1  0.52994000  0.83237000  0.44473000  1.0
  H  H25  1  0.47005000  0.66763000  0.94473000  1.0
  H  H26  1  0.47005000  0.16763000  0.55527000  1.0
  H  H27  1  0.52995000  0.33237000  0.05527000  1.0
  H  H28  1  0.54047000  0.72849000  0.41939000  1.0
  H  H29  1  0.45953000  0.77151000  0.91939000  1.0
  H  H30  1  0.45953000  0.27151000  0.58061000  1.0
  H  H31  1  0.54048000  0.22849000  0.08061000  1.0
  H  H32  1  0.56886000  0.54237000  0.06689000  1.0
  H  H33  1  0.43114000  0.95763000  0.56689000  1.0
  H  H34  1  0.43114000  0.45763000  0.93311000  1.0
  H  H35  1  0.56886000  0.04236000  0.43311000  1.0
  H  H36  1  0.47639000  0.64131000  0.15939000  1.0
  H  H37  1  0.52360000  0.85869000  0.65939000  1.0
  H  H38  1  0.52361000  0.35870000  0.84061000  1.0
  H  H39  1  0.47640000  0.14130000  0.34061000  1.0
  H  H40  1  0.77253000  0.79409000  0.07796000  1.0
  H  H41  1  0.22747000  0.70592000  0.57796000  1.0
  H  H42  1  0.22747000  0.20592000  0.92204000  1.0
  H  H43  1  0.77252000  0.29408000  0.42204000  1.0
  H  H44  1  0.85400000  0.68713000  0.98668000  1.0
  H  H45  1  0.14600000  0.81287000  0.48667000  1.0
  H  H46  1  0.14600000  0.31288000  0.01333000  1.0
  H  H47  1  0.85400000  0.18712000  0.51333000  1.0
  H  H48  1  0.59457000  0.02629000  0.22761000  1.0
  H  H49  1  0.40543000  0.47371000  0.72761000  1.0
  H  H50  1  0.40543000  0.97371000  0.77239000  1.0
  H  H51  1  0.59458000  0.52629000  0.27239000  1.0
  H  H52  1  0.77470000  0.96010000  0.23905000  1.0
  H  H53  1  0.22530000  0.53990000  0.73905000  1.0
  H  H54  1  0.22530000  0.03990000  0.76095000  1.0
  H  H55  1  0.77471000  0.46010000  0.26094000  1.0
  H  H56  1  0.64640000  0.98722000  0.31118000  1.0
  H  H57  1  0.35360000  0.51278000  0.81118000  1.0
  H  H58  1  0.35360000  0.01278000  0.68882000  1.0
  H  H59  1  0.64641000  0.48722000  0.18882000  1.0
  C  C60  1  0.11122000  0.65239000  0.14541000  1.0
  C  C61  1  0.88877000  0.84761000  0.64540000  1.0
  C  C62  1  0.88877000  0.34761000  0.85460000  1.0
  C  C63  1  0.11122000  0.15239000  0.35460000  1.0
  C  C64  1  0.05819000  0.70518000  0.19940000  1.0
  C  C65  1  0.94180000  0.79481000  0.69940000  1.0
  C  C66  1  0.94180000  0.29482000  0.80060000  1.0
  C  C67  1  0.05820000  0.20518000  0.30060000  1.0
  C  C68  1  0.94884000  0.68535000  0.24513000  1.0
  C  C69  1  0.05116000  0.81464000  0.74513000  1.0
  C  C70  1  0.05115000  0.31465000  0.75487000  1.0
  C  C71  1  0.94884000  0.18536000  0.25487000  1.0
  C  C72  1  0.89639000  0.61301000  0.23282000  1.0
  C  C73  1  0.10360000  0.88698000  0.73282000  1.0
  C  C74  1  0.10361000  0.38699000  0.76718000  1.0
  C  C75  1  0.89639000  0.11302000  0.26718000  1.0
  C  C76  1  0.95543000  0.56375000  0.17772000  1.0
  C  C77  1  0.04456000  0.93625000  0.67772000  1.0
  C  C78  1  0.04457000  0.43625000  0.82228000  1.0
  C  C79  1  0.95543000  0.06375000  0.32228000  1.0
  C  C80  1  0.88872000  0.73560000  0.30437000  1.0
  C  C81  1  0.11127000  0.76440000  0.80437000  1.0
  C  C82  1  0.11127000  0.26440000  0.69563000  1.0
  C  C83  1  0.88873000  0.23560000  0.19563000  1.0
  C  C84  1  0.83564000  0.83097000  0.39970000  1.0
  C  C85  1  0.16437000  0.66903000  0.89970000  1.0
  C  C86  1  0.16436000  0.16903000  0.60030000  1.0
  C  C87  1  0.83564000  0.33098000  0.10030000  1.0
  C  C88  1  0.73704000  0.77610000  0.39427000  1.0
  C  C89  1  0.26296000  0.72391000  0.89427000  1.0
  C  C90  1  0.26296000  0.22390000  0.60573000  1.0
  C  C91  1  0.73704000  0.27610000  0.10573000  1.0
  C  C92  1  0.83689000  0.89570000  0.45143000  1.0
  C  C93  1  0.16312000  0.60429000  0.95143000  1.0
  C  C94  1  0.16311000  0.10429000  0.54857000  1.0
  C  C95  1  0.83688000  0.39571000  0.04857000  1.0
  C  C96  1  0.60462000  0.77235000  0.44031000  1.0
  C  C97  1  0.39537000  0.72765000  0.94031000  1.0
  C  C98  1  0.39537000  0.22765000  0.55969000  1.0
  C  C99  1  0.60463000  0.27235000  0.05969000  1.0
  C  C100  1  0.61181000  0.59876000  0.07061000  1.0
  C  C101  1  0.38819000  0.90124000  0.57061000  1.0
  C  C102  1  0.38819000  0.40125000  0.92939000  1.0
  C  C103  1  0.61181000  0.09875000  0.42939000  1.0
  C  C104  1  0.55949000  0.65515000  0.12224000  1.0
  C  C105  1  0.44051000  0.84485000  0.62224000  1.0
  C  C106  1  0.44051000  0.34485000  0.87775000  1.0
  C  C107  1  0.55950000  0.15514000  0.37776000  1.0
  C  C108  1  0.61756000  0.72694000  0.12629000  1.0
  C  C109  1  0.38243000  0.77306000  0.62630000  1.0
  C  C110  1  0.38243000  0.27306000  0.87370000  1.0
  C  C111  1  0.61756000  0.22694000  0.37370000  1.0
  C  C112  1  0.72555000  0.73896000  0.07632000  1.0
  C  C113  1  0.27446000  0.76104000  0.57632000  1.0
  C  C114  1  0.27445000  0.26104000  0.92368000  1.0
  C  C115  1  0.72554000  0.23896000  0.42368000  1.0
  C  C116  1  0.77085000  0.68002000  0.02634000  1.0
  C  C117  1  0.22915000  0.81998000  0.52634000  1.0
  C  C118  1  0.22915000  0.31999000  0.97366000  1.0
  C  C119  1  0.77084000  0.18002000  0.47366000  1.0
  C  C120  1  0.57382000  0.78882000  0.17961000  1.0
  C  C121  1  0.42617000  0.71118000  0.67961000  1.0
  C  C122  1  0.42617000  0.21118000  0.82039000  1.0
  C  C123  1  0.57383000  0.28882000  0.32039000  1.0
  C  C124  1  0.46570000  0.87700000  0.27474000  1.0
  C  C125  1  0.53430000  0.62300000  0.77473000  1.0
  C  C126  1  0.53430000  0.12300000  0.72527000  1.0
  C  C127  1  0.46571000  0.37700000  0.22526000  1.0
  C  C128  1  0.58739000  0.90010000  0.24038000  1.0
  C  C129  1  0.41261000  0.59989000  0.74038000  1.0
  C  C130  1  0.41261000  0.09990000  0.75962000  1.0
  C  C131  1  0.58740000  0.40010000  0.25962000  1.0
  C  C132  1  0.37282000  0.91596000  0.33374000  1.0
  C  C133  1  0.62717000  0.58403000  0.83374000  1.0
  C  C134  1  0.62718000  0.08403000  0.66626000  1.0
  C  C135  1  0.37284000  0.41598000  0.16626000  1.0
  C  C136  1  0.65529000  0.97253000  0.25599000  1.0
  C  C137  1  0.34471000  0.52747000  0.75599000  1.0
  C  C138  1  0.34471000  0.02747000  0.74401000  1.0
  C  C139  1  0.65531000  0.47253000  0.24401000  1.0
  S  S140  1  0.97032000  0.81391000  0.33489000  1.0
  S  S141  1  0.02968000  0.68609000  0.83489000  1.0
  S  S142  1  0.02968000  0.18609000  0.66511000  1.0
  S  S143  1  0.97033000  0.31392000  0.16510000  1.0
  S  S144  1  0.42746000  0.78939000  0.23838000  1.0
  S  S145  1  0.57253000  0.71061000  0.73838000  1.0
  S  S146  1  0.57253000  0.21061000  0.76162000  1.0
  S  S147  1  0.42747000  0.28940000  0.26162000  1.0
  N  N148  1  0.06141000  0.58263000  0.13466000  1.0
  N  N149  1  0.93858000  0.91737000  0.63466000  1.0
  N  N150  1  0.93859000  0.41737000  0.86534000  1.0
  N  N151  1  0.06141000  0.08263000  0.36534000  1.0
  N  N152  1  0.76985000  0.72255000  0.34068000  1.0
  N  N153  1  0.23015000  0.77746000  0.84067000  1.0
  N  N154  1  0.23015000  0.27746000  0.65932000  1.0
  N  N155  1  0.76985000  0.22255000  0.15933000  1.0
  N  N156  1  0.71644000  0.61065000  0.02363000  1.0
  N  N157  1  0.28356000  0.88936000  0.52363000  1.0
  N  N158  1  0.28356000  0.38935000  0.97637000  1.0
  N  N159  1  0.71644000  0.11064000  0.47637000  1.0
  N  N160  1  0.64593000  0.85014000  0.18712000  1.0
  N  N161  1  0.35406000  0.64986000  0.68712000  1.0
  N  N162  1  0.35406000  0.14986000  0.81289000  1.0
  N  N163  1  0.64595000  0.35014000  0.31288000  1.0
  O  O164  1  0.94130000  0.93809000  0.44788000  1.0
  O  O165  1  0.05871000  0.56191000  0.94788000  1.0
  O  O166  1  0.05870000  0.06191000  0.55212000  1.0
  O  O167  1  0.94130000  0.43809000  0.05212000  1.0
  O  O168  1  0.73328000  0.90669000  0.49768000  1.0
  O  O169  1  0.26672000  0.59332000  0.99767000  1.0
  O  O170  1  0.26672000  0.09331000  0.50233000  1.0
  O  O171  1  0.73328000  0.40669000  0.00232000  1.0
  O  O172  1  0.25909000  0.88512000  0.35205000  1.0
  O  O173  1  0.74091000  0.61487000  0.85205000  1.0
  O  O174  1  0.74091000  0.11488000  0.64795000  1.0
  O  O175  1  0.25910000  0.38514000  0.14795000  1.0
  O  O176  1  0.40980000  0.97724000  0.36318000  1.0
  O  O177  1  0.59020000  0.52276000  0.86318000  1.0
  O  O178  1  0.59020000  0.02276000  0.63682000  1.0
  O  O179  1  0.40982000  0.47725000  0.13682000  1.0
