# generated using pymatgen
data_Cu2H9C14S2N5
_symmetry_space_group_name_H-M   'P 1'
_cell_length_a   8.74460000
_cell_length_b   8.81357000
_cell_length_c   9.16840000
_cell_angle_alpha   81.41460000
_cell_angle_beta   88.73220000
_cell_angle_gamma   83.38810000
_symmetry_Int_Tables_number   1
_chemical_formula_structural   Cu2H9C14S2N5
_chemical_formula_sum   'Cu4 H18 C28 S4 N10'
_cell_volume   694.04511025
_cell_formula_units_Z   2
loop_
 _symmetry_equiv_pos_site_id
 _symmetry_equiv_pos_as_xyz
  1  'x, y, z'
loop_
 _atom_site_type_symbol
 _atom_site_label
 _atom_site_symmetry_multiplicity
 _atom_site_fract_x
 _atom_site_fract_y
 _atom_site_fract_z
 _atom_site_occupancy
  Cu  Cu0  1  0.34916000  0.31728000  0.67656000  1.0
  Cu  Cu1  1  0.65084000  0.68272000  0.32343000  1.0
  Cu  Cu2  1  0.95410000  0.63260000  0.71759000  1.0
  Cu  Cu3  1  0.04590000  0.36739000  0.28241000  1.0
  H  H4  1  0.52958000  0.63399000  0.00781000  1.0
  H  H5  1  0.47042000  0.36601000  0.99219000  1.0
  H  H6  1  0.25605000  0.63177000  0.09180000  1.0
  H  H7  1  0.74395000  0.36823000  0.90820000  1.0
  H  H8  1  0.06058000  0.84990000  0.00879000  1.0
  H  H9  1  0.93942000  0.15010000  0.99121000  1.0
  H  H10  1  0.12969000  0.08246000  0.83894000  1.0
  H  H11  1  0.87031000  0.91753000  0.16107000  1.0
  H  H12  1  0.52974000  0.20762000  0.44801000  1.0
  H  H13  1  0.47026000  0.79238000  0.55199000  1.0
  H  H14  1  0.72392000  0.32852000  0.28150000  1.0
  H  H15  1  0.27608000  0.67148000  0.71850000  1.0
  H  H16  1  0.07793000  0.14850000  0.57376000  1.0
  H  H17  1  0.92207000  0.85150000  0.42624000  1.0
  H  H18  1  0.89831000  0.02154000  0.75223000  1.0
  H  H19  1  0.10170000  0.97847000  0.24777000  1.0
  H  H20  1  0.71599000  0.82599000  0.81201000  1.0
  H  H21  1  0.28401000  0.17401000  0.18800000  1.0
  C  C22  1  0.58344000  0.03572000  0.71489000  1.0
  C  C23  1  0.41656000  0.96428000  0.28511000  1.0
  C  C24  1  0.47914000  0.85962000  0.87412000  1.0
  C  C25  1  0.52086000  0.14038000  0.12587000  1.0
  C  C26  1  0.44293000  0.72994000  0.97035000  1.0
  C  C27  1  0.55707000  0.27006000  0.02965000  1.0
  C  C28  1  0.29027000  0.73023000  0.01698000  1.0
  C  C29  1  0.70973000  0.26977000  0.98302000  1.0
  C  C30  1  0.17861000  0.85579000  0.97033000  1.0
  C  C31  1  0.82139000  0.14421000  0.02967000  1.0
  C  C32  1  0.21505000  0.98489000  0.87524000  1.0
  C  C33  1  0.78495000  0.01511000  0.12476000  1.0
  C  C34  1  0.36741000  0.98590000  0.82560000  1.0
  C  C35  1  0.63259000  0.01409000  0.17440000  1.0
  C  C36  1  0.69687000  0.10556000  0.61581000  1.0
  C  C37  1  0.30313000  0.89444000  0.38419000  1.0
  C  C38  1  0.65014000  0.19287000  0.48028000  1.0
  C  C39  1  0.34985000  0.80713000  0.51973000  1.0
  C  C40  1  0.75820000  0.25982000  0.38678000  1.0
  C  C41  1  0.24179000  0.74018000  0.61323000  1.0
  C  C42  1  0.95529000  0.15961000  0.54945000  1.0
  C  C43  1  0.04471000  0.84039000  0.45055000  1.0
  C  C44  1  0.85429000  0.08817000  0.64906000  1.0
  C  C45  1  0.14571000  0.91183000  0.35094000  1.0
  C  C46  1  0.12181000  0.36257000  0.95794000  1.0
  C  C47  1  0.87820000  0.63744000  0.04206000  1.0
  C  C48  1  0.38566000  0.48441000  0.35824000  1.0
  C  C49  1  0.61434000  0.51559000  0.64176000  1.0
  S  S50  1  0.11275000  0.39160000  0.77760000  1.0
  S  S51  1  0.88725000  0.60839000  0.22239000  1.0
  S  S52  1  0.24754000  0.38832000  0.43547000  1.0
  S  S53  1  0.75246000  0.61167000  0.56453000  1.0
  N  N54  1  0.43545000  0.09414000  0.72711000  1.0
  N  N55  1  0.56455000  0.90586000  0.27290000  1.0
  N  N56  1  0.61379000  0.89656000  0.80365000  1.0
  N  N57  1  0.38621000  0.10344000  0.19635000  1.0
  N  N58  1  0.90984000  0.24516000  0.41966000  1.0
  N  N59  1  0.09015000  0.75484000  0.58034000  1.0
  N  N60  1  0.12297000  0.33871000  0.08879000  1.0
  N  N61  1  0.87703000  0.66130000  0.91120000  1.0
  N  N62  1  0.49015000  0.55108000  0.31087000  1.0
  N  N63  1  0.50985000  0.44892000  0.68913000  1.0
