# generated using pymatgen
data_CdH12C10(NO)4
_symmetry_space_group_name_H-M   'P 1'
_cell_length_a   5.10584000
_cell_length_b   6.89382000
_cell_length_c   10.39130000
_cell_angle_alpha   73.94700000
_cell_angle_beta   83.79330000
_cell_angle_gamma   68.80570000
_symmetry_Int_Tables_number   1
_chemical_formula_structural   CdH12C10(NO)4
_chemical_formula_sum   'Cd1 H12 C10 N4 O4'
_cell_volume   327.70936957
_cell_formula_units_Z   1
loop_
 _symmetry_equiv_pos_site_id
 _symmetry_equiv_pos_as_xyz
  1  'x, y, z'
loop_
 _atom_site_type_symbol
 _atom_site_label
 _atom_site_symmetry_multiplicity
 _atom_site_fract_x
 _atom_site_fract_y
 _atom_site_fract_z
 _atom_site_occupancy
  Cd  Cd0  1  0.00001000  0.00001000  0.99998000  1.0
  H  H1  1  0.33615000  0.20436000  0.39481000  1.0
  H  H2  1  0.66383000  0.79564000  0.60520000  1.0
  H  H3  1  0.81746000  0.85468000  0.33817000  1.0
  H  H4  1  0.18259000  0.14534000  0.66181000  1.0
  H  H5  1  0.34871000  0.17175000  0.14795000  1.0
  H  H6  1  0.65129000  0.82825000  0.85206000  1.0
  H  H7  1  0.66800000  0.46596000  0.80768000  1.0
  H  H8  1  0.33197000  0.53405000  0.19230000  1.0
  H  H9  1  0.48744000  0.39951000  0.69668000  1.0
  H  H10  1  0.51258000  0.60049000  0.30334000  1.0
  H  H11  1  0.30708000  0.62178000  0.76460000  1.0
  H  H12  1  0.69298000  0.37821000  0.23538000  1.0
  C  C13  1  0.04047000  0.01556000  0.42976000  1.0
  C  C14  1  0.95948000  0.98440000  0.57019000  1.0
  C  C15  1  0.22012000  0.12375000  0.36095000  1.0
  C  C16  1  0.77990000  0.87625000  0.63904000  1.0
  C  C17  1  0.95475000  0.94620000  0.33078000  1.0
  C  C18  1  0.04522000  0.05377000  0.66922000  1.0
  C  C19  1  0.46651000  0.45989000  0.78608000  1.0
  C  C20  1  0.53352000  0.54015000  0.21390000  1.0
  C  C21  1  0.36495000  0.31671000  0.90306000  1.0
  C  C22  1  0.63507000  0.68334000  0.09691000  1.0
  N  N23  1  0.23200000  0.11618000  0.23212000  1.0
  N  N24  1  0.76799000  0.88383000  0.76789000  1.0
  N  N25  1  0.07189000  0.00934000  0.21225000  1.0
  N  N26  1  0.92805000  0.99063000  0.78783000  1.0
  O  O27  1  0.51391000  0.22750000  0.00986000  1.0
  O  O28  1  0.48606000  0.77249000  0.99014000  1.0
  O  O29  1  0.13538000  0.29289000  0.88929000  1.0
  O  O30  1  0.86463000  0.70714000  0.11073000  1.0
