# generated using pymatgen
data_ZnH11C14SNO8
_symmetry_space_group_name_H-M   'P 1'
_cell_length_a   9.63792000
_cell_length_b   13.46580000
_cell_length_c   13.79480000
_cell_angle_alpha   119.12900000
_cell_angle_beta   89.99940000
_cell_angle_gamma   89.99910000
_symmetry_Int_Tables_number   1
_chemical_formula_structural   ZnH11C14SNO8
_chemical_formula_sum   'Zn4 H44 C56 S4 N4 O32'
_cell_volume   1563.89178617
_cell_formula_units_Z   4
loop_
 _symmetry_equiv_pos_site_id
 _symmetry_equiv_pos_as_xyz
  1  'x, y, z'
loop_
 _atom_site_type_symbol
 _atom_site_label
 _atom_site_symmetry_multiplicity
 _atom_site_fract_x
 _atom_site_fract_y
 _atom_site_fract_z
 _atom_site_occupancy
  Zn  Zn0  1  0.07665000  0.85764000  0.46414000  1.0
  Zn  Zn1  1  0.57664000  0.64235000  0.53586000  1.0
  Zn  Zn2  1  0.92335000  0.14236000  0.53585000  1.0
  Zn  Zn3  1  0.42336000  0.35764000  0.46414000  1.0
  H  H4  1  0.44682000  0.08676000  0.10586000  1.0
  H  H5  1  0.94685000  0.41323000  0.89415000  1.0
  H  H6  1  0.55317000  0.91325000  0.89415000  1.0
  H  H7  1  0.05320000  0.58675000  0.10585000  1.0
  H  H8  1  0.84380000  0.01046000  0.84084000  1.0
  H  H9  1  0.34380000  0.48954000  0.15916000  1.0
  H  H10  1  0.15620000  0.98953000  0.15915000  1.0
  H  H11  1  0.65621000  0.51045000  0.84084000  1.0
  H  H12  1  0.25686000  0.87384000  0.81813000  1.0
  H  H13  1  0.75684000  0.62618000  0.18187000  1.0
  H  H14  1  0.74314000  0.12618000  0.18188000  1.0
  H  H15  1  0.24315000  0.37382000  0.81812000  1.0
  H  H16  1  0.32557000  0.88971000  0.23769000  1.0
  H  H17  1  0.82556000  0.61029000  0.76232000  1.0
  H  H18  1  0.67442000  0.11032000  0.76233000  1.0
  H  H19  1  0.17444000  0.38969000  0.23767000  1.0
  H  H20  1  0.26281000  0.83350000  0.62095000  1.0
  H  H21  1  0.76280000  0.66651000  0.37905000  1.0
  H  H22  1  0.73719000  0.16652000  0.37906000  1.0
  H  H23  1  0.23720000  0.33351000  0.62094000  1.0
  H  H24  1  0.86680000  0.96251000  0.64339000  1.0
  H  H25  1  0.36680000  0.53749000  0.35660000  1.0
  H  H26  1  0.13319000  0.03748000  0.35659000  1.0
  H  H27  1  0.63321000  0.46252000  0.64340000  1.0
  H  H28  1  0.14111000  0.94022000  0.98715000  1.0
  H  H29  1  0.64113000  0.55977000  0.01285000  1.0
  H  H30  1  0.85887000  0.05978000  0.01286000  1.0
  H  H31  1  0.35890000  0.44019000  0.98713000  1.0
  H  H32  1  0.64173000  0.87280000  0.44907000  1.0
  H  H33  1  0.14173000  0.62720000  0.55094000  1.0
  H  H34  1  0.35826000  0.12719000  0.55093000  1.0
  H  H35  1  0.85826000  0.37281000  0.44905000  1.0
  H  H36  1  0.75908000  0.86990000  0.14681000  1.0
  H  H37  1  0.25908000  0.63010000  0.85320000  1.0
  H  H38  1  0.24091000  0.13009000  0.85320000  1.0
  H  H39  1  0.74093000  0.36989000  0.14679000  1.0
  H  H40  1  0.01074000  0.65931000  0.43215000  1.0
  H  H41  1  0.51075000  0.84069000  0.56785000  1.0
  H  H42  1  0.98925000  0.34069000  0.56784000  1.0
  H  H43  1  0.48926000  0.15932000  0.43216000  1.0
  H  H44  1  0.06178000  0.64296000  0.31384000  1.0
  H  H45  1  0.56178000  0.85704000  0.68616000  1.0
  H  H46  1  0.93822000  0.35705000  0.68616000  1.0
  H  H47  1  0.43822000  0.14295000  0.31384000  1.0
  C  C48  1  0.86353000  0.85122000  0.32240000  1.0
  C  C49  1  0.36353000  0.64877000  0.67760000  1.0
  C  C50  1  0.13646000  0.14876000  0.67759000  1.0
  C  C51  1  0.63648000  0.35124000  0.32241000  1.0
  C  C52  1  0.93865000  0.97045000  0.79573000  1.0
  C  C53  1  0.43866000  0.52953000  0.20426000  1.0
  C  C54  1  0.06134000  0.02953000  0.20426000  1.0
  C  C55  1  0.56136000  0.47045000  0.79573000  1.0
  C  C56  1  0.04984000  0.94636000  0.84756000  1.0
  C  C57  1  0.54983000  0.55364000  0.15243000  1.0
  C  C58  1  0.95016000  0.05364000  0.15244000  1.0
  C  C59  1  0.45018000  0.44634000  0.84755000  1.0
  C  C60  1  0.53912000  0.88851000  0.18721000  1.0
  C  C61  1  0.03912000  0.61149000  0.81280000  1.0
  C  C62  1  0.46087000  0.11151000  0.81281000  1.0
  C  C63  1  0.96088000  0.38850000  0.18719000  1.0
  C  C64  1  0.16814000  0.89536000  0.78289000  1.0
  C  C65  1  0.66813000  0.60464000  0.21711000  1.0
  C  C66  1  0.83186000  0.10464000  0.21711000  1.0
  C  C67  1  0.33187000  0.39536000  0.78289000  1.0
  C  C68  1  0.47139000  0.87759000  0.34953000  1.0
  C  C69  1  0.97138000  0.62242000  0.65048000  1.0
  C  C70  1  0.52860000  0.12241000  0.65047000  1.0
  C  C71  1  0.02862000  0.37760000  0.34952000  1.0
  C  C72  1  0.35797000  0.87021000  0.41988000  1.0
  C  C73  1  0.85795000  0.62979000  0.58013000  1.0
  C  C74  1  0.64203000  0.12980000  0.58013000  1.0
  C  C75  1  0.14204000  0.37020000  0.41987000  1.0
  C  C76  1  0.43471000  0.88597000  0.25589000  1.0
  C  C77  1  0.93471000  0.61404000  0.74412000  1.0
  C  C78  1  0.56528000  0.11405000  0.74413000  1.0
  C  C79  1  0.06529000  0.38596000  0.25587000  1.0
  C  C80  1  0.17236000  0.87163000  0.67332000  1.0
  C  C81  1  0.67234000  0.62838000  0.32669000  1.0
  C  C82  1  0.82765000  0.12837000  0.32669000  1.0
  C  C83  1  0.32767000  0.37163000  0.67331000  1.0
  C  C84  1  0.95015000  0.94405000  0.68568000  1.0
  C  C85  1  0.45015000  0.55594000  0.31431000  1.0
  C  C86  1  0.04984000  0.05594000  0.31431000  1.0
  C  C87  1  0.54986000  0.44406000  0.68568000  1.0
  C  C88  1  0.05023000  0.97128000  0.96259000  1.0
  C  C89  1  0.55024000  0.52871000  0.03740000  1.0
  C  C90  1  0.94976000  0.02872000  0.03741000  1.0
  C  C91  1  0.44978000  0.47127000  0.96259000  1.0
  C  C92  1  0.61147000  0.87483000  0.37400000  1.0
  C  C93  1  0.11146000  0.62518000  0.62601000  1.0
  C  C94  1  0.38852000  0.12517000  0.62601000  1.0
  C  C95  1  0.88853000  0.37483000  0.37398000  1.0
  C  C96  1  0.67926000  0.87585000  0.20525000  1.0
  C  C97  1  0.17926000  0.62415000  0.79475000  1.0
  C  C98  1  0.32073000  0.12415000  0.79475000  1.0
  C  C99  1  0.82074000  0.37584000  0.20524000  1.0
  C  C100  1  0.71506000  0.87039000  0.30091000  1.0
  C  C101  1  0.21506000  0.62961000  0.69910000  1.0
  C  C102  1  0.28493000  0.12960000  0.69910000  1.0
  C  C103  1  0.78494000  0.37039000  0.30089000  1.0
  S  S104  1  0.48356000  0.91674000  0.08132000  1.0
  S  S105  1  0.98357000  0.58326000  0.91868000  1.0
  S  S106  1  0.51643000  0.08328000  0.91868000  1.0
  S  S107  1  0.01646000  0.41673000  0.08131000  1.0
  N  N108  1  0.06564000  0.89560000  0.62490000  1.0
  N  N109  1  0.56563000  0.60440000  0.37511000  1.0
  N  N110  1  0.93436000  0.10440000  0.37511000  1.0
  N  N111  1  0.43437000  0.39561000  0.62489000  1.0
  O  O112  1  0.59434000  0.89219000  0.00072000  1.0
  O  O113  1  0.09435000  0.60783000  0.99929000  1.0
  O  O114  1  0.40566000  0.10783000  0.99928000  1.0
  O  O115  1  0.90568000  0.39218000  0.00072000  1.0
  O  O116  1  0.46923000  0.05209000  0.15505000  1.0
  O  O117  1  0.96929000  0.44790000  0.84495000  1.0
  O  O118  1  0.53076000  0.94794000  0.84497000  1.0
  O  O119  1  0.03078000  0.55207000  0.15504000  1.0
  O  O120  1  0.34846000  0.86833000  0.04087000  1.0
  O  O121  1  0.84844000  0.63163000  0.95912000  1.0
  O  O122  1  0.65152000  0.13169000  0.95914000  1.0
  O  O123  1  0.15156000  0.36832000  0.04086000  1.0
  O  O124  1  0.94171000  0.79236000  0.24343000  1.0
  O  O125  1  0.44171000  0.70764000  0.75658000  1.0
  O  O126  1  0.05828000  0.20763000  0.75659000  1.0
  O  O127  1  0.55827000  0.29236000  0.24341000  1.0
  O  O128  1  0.89547000  0.89762000  0.42758000  1.0
  O  O129  1  0.39545000  0.60238000  0.57242000  1.0
  O  O130  1  0.10452000  0.10236000  0.57243000  1.0
  O  O131  1  0.60455000  0.39762000  0.42757000  1.0
  O  O132  1  0.38470000  0.85326000  0.49996000  1.0
  O  O133  1  0.88468000  0.64675000  0.50004000  1.0
  O  O134  1  0.61531000  0.14675000  0.50004000  1.0
  O  O135  1  0.11531000  0.35325000  0.49995000  1.0
  O  O136  1  0.08310000  0.68179000  0.39340000  1.0
  O  O137  1  0.58310000  0.81821000  0.60660000  1.0
  O  O138  1  0.91690000  0.31821000  0.60660000  1.0
  O  O139  1  0.41690000  0.18180000  0.39340000  1.0
  O  O140  1  0.23494000  0.88127000  0.39053000  1.0
  O  O141  1  0.73493000  0.61872000  0.60948000  1.0
  O  O142  1  0.76505000  0.11872000  0.60947000  1.0
  O  O143  1  0.26506000  0.38129000  0.39054000  1.0
