# generated using pymatgen
data_CuH8C6BrN2
_symmetry_space_group_name_H-M   'P 1'
_cell_length_a   6.59988000
_cell_length_b   8.19972000
_cell_length_c   8.51217000
_cell_angle_alpha   69.97400000
_cell_angle_beta   70.10050000
_cell_angle_gamma   73.29090000
_symmetry_Int_Tables_number   1
_chemical_formula_structural   CuH8C6BrN2
_chemical_formula_sum   'Cu2 H16 C12 Br2 N4'
_cell_volume   399.26780139
_cell_formula_units_Z   2
loop_
 _symmetry_equiv_pos_site_id
 _symmetry_equiv_pos_as_xyz
  1  'x, y, z'
loop_
 _atom_site_type_symbol
 _atom_site_label
 _atom_site_symmetry_multiplicity
 _atom_site_fract_x
 _atom_site_fract_y
 _atom_site_fract_z
 _atom_site_occupancy
  Cu  Cu0  1  0.33617000  0.35428000  0.65863000  1.0
  Cu  Cu1  1  0.66383000  0.64570000  0.34135000  1.0
  H  H2  1  0.92397000  0.60363000  0.71869000  1.0
  H  H3  1  0.07604000  0.39638000  0.28129000  1.0
  H  H4  1  0.69109000  0.24482000  0.39160000  1.0
  H  H5  1  0.30889000  0.75517000  0.60840000  1.0
  H  H6  1  0.13370000  0.06901000  0.87402000  1.0
  H  H7  1  0.86628000  0.93104000  0.12596000  1.0
  H  H8  1  0.07788000  0.87845000  0.84988000  1.0
  H  H9  1  0.92214000  0.12154000  0.15020000  1.0
  H  H10  1  0.97159000  0.09770000  0.73576000  1.0
  H  H11  1  0.02839000  0.90223000  0.26426000  1.0
  H  H12  1  0.39548000  0.13084000  0.98256000  1.0
  H  H13  1  0.60449000  0.86914000  0.01750000  1.0
  H  H14  1  0.37970000  0.17804000  0.17766000  1.0
  H  H15  1  0.62038000  0.82206000  0.82230000  1.0
  H  H16  1  0.53241000  0.29187000  0.96969000  1.0
  H  H17  1  0.46761000  0.70813000  0.03021000  1.0
  C  C18  1  0.18349000  0.37379000  0.01840000  1.0
  C  C19  1  0.81657000  0.62620000  0.98160000  1.0
  C  C20  1  0.95771000  0.55804000  0.84522000  1.0
  C  C21  1  0.04229000  0.44200000  0.15476000  1.0
  C  C22  1  0.60639000  0.13393000  0.43945000  1.0
  C  C23  1  0.39358000  0.86605000  0.56056000  1.0
  C  C24  1  0.31554000  0.00668000  0.63546000  1.0
  C  C25  1  0.68443000  0.99329000  0.36457000  1.0
  C  C26  1  0.11367000  0.01148000  0.78256000  1.0
  C  C27  1  0.88632000  0.98848000  0.21746000  1.0
  C  C28  1  0.38318000  0.23564000  0.04037000  1.0
  C  C29  1  0.61686000  0.76439000  0.95960000  1.0
  Br  Br30  1  0.27450000  0.59235000  0.38629000  1.0
  Br  Br31  1  0.72546000  0.40766000  0.61373000  1.0
  N  N32  1  0.14068000  0.43273000  0.86015000  1.0
  N  N33  1  0.85933000  0.56730000  0.13982000  1.0
  N  N34  1  0.42528000  0.14257000  0.57375000  1.0
  N  N35  1  0.57469000  0.85739000  0.42627000  1.0
