# generated using pymatgen
data_NiH17C25N3O5
_symmetry_space_group_name_H-M   'P 1'
_cell_length_a   9.37284000
_cell_length_b   10.16640000
_cell_length_c   11.85020000
_cell_angle_alpha   75.63080000
_cell_angle_beta   89.63950000
_cell_angle_gamma   66.72590000
_symmetry_Int_Tables_number   1
_chemical_formula_structural   NiH17C25N3O5
_chemical_formula_sum   'Ni2 H34 C50 N6 O10'
_cell_volume   999.48806447
_cell_formula_units_Z   2
loop_
 _symmetry_equiv_pos_site_id
 _symmetry_equiv_pos_as_xyz
  1  'x, y, z'
loop_
 _atom_site_type_symbol
 _atom_site_label
 _atom_site_symmetry_multiplicity
 _atom_site_fract_x
 _atom_site_fract_y
 _atom_site_fract_z
 _atom_site_occupancy
  Ni  Ni0  1  0.77064000  0.93708000  0.73068000  1.0
  Ni  Ni1  1  0.22937000  0.06302000  0.26932000  1.0
  H  H2  1  0.62085000  0.98494000  0.49454000  1.0
  H  H3  1  0.37916000  0.01504000  0.50547000  1.0
  H  H4  1  0.60979000  0.39113000  0.26648000  1.0
  H  H5  1  0.39020000  0.60889000  0.73350000  1.0
  H  H6  1  0.85270000  0.20410000  0.61384000  1.0
  H  H7  1  0.14727000  0.79589000  0.38615000  1.0
  H  H8  1  0.62484000  0.52117000  0.54879000  1.0
  H  H9  1  0.37517000  0.47882000  0.45121000  1.0
  H  H10  1  0.68878000  0.73875000  0.53952000  1.0
  H  H11  1  0.31124000  0.26124000  0.46049000  1.0
  H  H12  1  0.88244000  0.78291000  0.40935000  1.0
  H  H13  1  0.11757000  0.21707000  0.59066000  1.0
  H  H14  1  0.01248000  0.60786000  0.28793000  1.0
  H  H15  1  0.98753000  0.39214000  0.71207000  1.0
  H  H16  1  0.13722000  0.82018000  0.77387000  1.0
  H  H17  1  0.86279000  0.17982000  0.22614000  1.0
  H  H18  1  0.31785000  0.89711000  0.86822000  1.0
  H  H19  1  0.68217000  0.10289000  0.13178000  1.0
  H  H20  1  0.20366000  0.12815000  0.94153000  1.0
  H  H21  1  0.79636000  0.87186000  0.05846000  1.0
  H  H22  1  0.96105000  0.35166000  0.95547000  1.0
  H  H23  1  0.03894000  0.64838000  0.04452000  1.0
  H  H24  1  0.67290000  0.47300000  0.94143000  1.0
  H  H25  1  0.32710000  0.52702000  0.05856000  1.0
  H  H26  1  0.41138000  0.45404000  0.91469000  1.0
  H  H27  1  0.58861000  0.54598000  0.08531000  1.0
  H  H28  1  0.26601000  0.32669000  0.84536000  1.0
  H  H29  1  0.73398000  0.67333000  0.15463000  1.0
  H  H30  1  0.41182000  0.11195000  0.75952000  1.0
  H  H31  1  0.58818000  0.88805000  0.24049000  1.0
  H  H32  1  0.88016000  0.69604000  0.87936000  1.0
  H  H33  1  0.11982000  0.30397000  0.12065000  1.0
  H  H34  1  0.69380000  0.75751000  0.87739000  1.0
  H  H35  1  0.30621000  0.24248000  0.12261000  1.0
  C  C36  1  0.65434000  0.07818000  0.47555000  1.0
  C  C37  1  0.34566000  0.92182000  0.52445000  1.0
  C  C38  1  0.60210000  0.18727000  0.36874000  1.0
  C  C39  1  0.39787000  0.81274000  0.63127000  1.0
  C  C40  1  0.64981000  0.30421000  0.34874000  1.0
  C  C41  1  0.35017000  0.69579000  0.65124000  1.0
  C  C42  1  0.74275000  0.31171000  0.43685000  1.0
  C  C43  1  0.25724000  0.68828000  0.56315000  1.0
  C  C44  1  0.78368000  0.19987000  0.54231000  1.0
  C  C45  1  0.21632000  0.80013000  0.45768000  1.0
  C  C46  1  0.78541000  0.43989000  0.42601000  1.0
  C  C47  1  0.21458000  0.56011000  0.57398000  1.0
  C  C48  1  0.71061000  0.54056000  0.49198000  1.0
  C  C49  1  0.28939000  0.45943000  0.50801000  1.0
  C  C50  1  0.74449000  0.66362000  0.48578000  1.0
  C  C51  1  0.25551000  0.33638000  0.51422000  1.0
  C  C52  1  0.85352000  0.68834000  0.41226000  1.0
  C  C53  1  0.14647000  0.31166000  0.58774000  1.0
  C  C54  1  0.92676000  0.59039000  0.34537000  1.0
  C  C55  1  0.07324000  0.40961000  0.65463000  1.0
  C  C56  1  0.89479000  0.46523000  0.35182000  1.0
  C  C57  1  0.10524000  0.53474000  0.64818000  1.0
  C  C58  1  0.48497000  0.18376000  0.28341000  1.0
  C  C59  1  0.51496000  0.81624000  0.71656000  1.0
  C  C60  1  0.98483000  0.36210000  0.27958000  1.0
  C  C61  1  0.01522000  0.63785000  0.72041000  1.0
  C  C62  1  0.09212000  0.91750000  0.80772000  1.0
  C  C63  1  0.90787000  0.08250000  0.19228000  1.0
  C  C64  1  0.19260000  0.96376000  0.85917000  1.0
  C  C65  1  0.80741000  0.03623000  0.14084000  1.0
  C  C66  1  0.13041000  0.09012000  0.89869000  1.0
  C  C67  1  0.86961000  0.90988000  0.10131000  1.0
  C  C68  1  0.96652000  0.16943000  0.88777000  1.0
  C  C69  1  0.03347000  0.83057000  0.11223000  1.0
  C  C70  1  0.87468000  0.11077000  0.83936000  1.0
  C  C71  1  0.12532000  0.88923000  0.16063000  1.0
  C  C72  1  0.88994000  0.30317000  0.92353000  1.0
  C  C73  1  0.11007000  0.69683000  0.07648000  1.0
  C  C74  1  0.73062000  0.36925000  0.91718000  1.0
  C  C75  1  0.26937000  0.63075000  0.08283000  1.0
  C  C76  1  0.63565000  0.30536000  0.87755000  1.0
  C  C77  1  0.36435000  0.69464000  0.12246000  1.0
  C  C78  1  0.70808000  0.17819000  0.83520000  1.0
  C  C79  1  0.29193000  0.82181000  0.16480000  1.0
  C  C80  1  0.47243000  0.35831000  0.88083000  1.0
  C  C81  1  0.52756000  0.64170000  0.11918000  1.0
  C  C82  1  0.39153000  0.28741000  0.84198000  1.0
  C  C83  1  0.60847000  0.71259000  0.15802000  1.0
  C  C84  1  0.47257000  0.16631000  0.79594000  1.0
  C  C85  1  0.52744000  0.83369000  0.20406000  1.0
  N  N86  1  0.74137000  0.08498000  0.56181000  1.0
  N  N87  1  0.25864000  0.91502000  0.43816000  1.0
  N  N88  1  0.93742000  0.98842000  0.79812000  1.0
  N  N89  1  0.06261000  0.01161000  0.20189000  1.0
  N  N90  1  0.62683000  0.11256000  0.79298000  1.0
  N  N91  1  0.37316000  0.88747000  0.20703000  1.0
  O  O92  1  0.45995000  0.26484000  0.17943000  1.0
  O  O93  1  0.54002000  0.73516000  0.82056000  1.0
  O  O94  1  0.41802000  0.09758000  0.32745000  1.0
  O  O95  1  0.58195000  0.90243000  0.67252000  1.0
  O  O96  1  0.06717000  0.22721000  0.33595000  1.0
  O  O97  1  0.93285000  0.77277000  0.66403000  1.0
  O  O98  1  0.97560000  0.41835000  0.17019000  1.0
  O  O99  1  0.02444000  0.58162000  0.82983000  1.0
  O  O100  1  0.78470000  0.78184000  0.89225000  1.0
  O  O101  1  0.21530000  0.21810000  0.10789000  1.0
