# generated using pymatgen
data_CuH4C3N4
_symmetry_space_group_name_H-M   'P 1'
_cell_length_a   8.22347000
_cell_length_b   9.72444683
_cell_length_c   14.57906051
_cell_angle_alpha   70.60584980
_cell_angle_beta   73.62904463
_cell_angle_gamma   65.00074421
_symmetry_Int_Tables_number   1
_chemical_formula_structural   CuH4C3N4
_chemical_formula_sum   'Cu8 H32 C24 N32'
_cell_volume   982.93250172
_cell_formula_units_Z   8
loop_
 _symmetry_equiv_pos_site_id
 _symmetry_equiv_pos_as_xyz
  1  'x, y, z'
loop_
 _atom_site_type_symbol
 _atom_site_label
 _atom_site_symmetry_multiplicity
 _atom_site_fract_x
 _atom_site_fract_y
 _atom_site_fract_z
 _atom_site_occupancy
  Cu  Cu0  1  0.92984000  0.43282000  0.25176000  1.0
  Cu  Cu1  1  0.61431000  0.06714000  0.24825000  1.0
  Cu  Cu2  1  0.07016000  0.56718000  0.74824000  1.0
  Cu  Cu3  1  0.38569000  0.93286000  0.75175000  1.0
  Cu  Cu4  1  0.95118000  0.17847000  0.48273000  1.0
  Cu  Cu5  1  0.61251000  0.32152000  0.01713000  1.0
  Cu  Cu6  1  0.04882000  0.82153000  0.51727000  1.0
  Cu  Cu7  1  0.38748000  0.67849000  0.98287000  1.0
  H  H8  1  0.25161000  0.48563000  0.27591000  1.0
  H  H9  1  0.01308000  0.01469000  0.22405000  1.0
  H  H10  1  0.74840000  0.51436000  0.72409000  1.0
  H  H11  1  0.98692000  0.98531000  0.77595000  1.0
  H  H12  1  0.69308000  0.65038000  0.37360000  1.0
  H  H13  1  0.71697000  0.84986000  0.12634000  1.0
  H  H14  1  0.30693000  0.34962000  0.62639000  1.0
  H  H15  1  0.28302000  0.15014000  0.87366000  1.0
  H  H16  1  0.37191000  0.71910000  0.34321000  1.0
  H  H17  1  0.43401000  0.78110000  0.15685000  1.0
  H  H18  1  0.62810000  0.28090000  0.65679000  1.0
  H  H19  1  0.56599000  0.21890000  0.84315000  1.0
  H  H20  1  0.45279000  0.51517000  0.35462000  1.0
  H  H21  1  0.32252000  0.98503000  0.14546000  1.0
  H  H22  1  0.54721000  0.48483000  0.64539000  1.0
  H  H23  1  0.67748000  0.01497000  0.85454000  1.0
  H  H24  1  0.36051000  0.59217000  0.46245000  1.0
  H  H25  1  0.41502000  0.90804000  0.03762000  1.0
  H  H26  1  0.63950000  0.40782000  0.53755000  1.0
  H  H27  1  0.58498000  0.09196000  0.96238000  1.0
  H  H28  1  0.71186000  0.76858000  0.57678000  1.0
  H  H29  1  0.05691000  0.73137000  0.92326000  1.0
  H  H30  1  0.28815000  0.23141000  0.42322000  1.0
  H  H31  1  0.94308000  0.26864000  0.07674000  1.0
  H  H32  1  0.56611000  0.78590000  0.50004000  1.0
  H  H33  1  0.85182000  0.71412000  0.00006000  1.0
  H  H34  1  0.43389000  0.21410000  0.49996000  1.0
  H  H35  1  0.14818000  0.28588000  0.99994000  1.0
  H  H36  1  0.66334000  0.92995000  0.47321000  1.0
  H  H37  1  0.06622000  0.57011000  0.02690000  1.0
  H  H38  1  0.33666000  0.07005000  0.52679000  1.0
  H  H39  1  0.93378000  0.42989000  0.97310000  1.0
  C  C40  1  0.16123000  0.62429000  0.38232000  1.0
  C  C41  1  0.16771000  0.87596000  0.11768000  1.0
  C  C42  1  0.83876000  0.37571000  0.61769000  1.0
  C  C43  1  0.83229000  0.12404000  0.88232000  1.0
  C  C44  1  0.13561000  0.55240000  0.32215000  1.0
  C  C45  1  0.01008000  0.94788000  0.17782000  1.0
  C  C46  1  0.86439000  0.44760000  0.67785000  1.0
  C  C47  1  0.98992000  0.05212000  0.82218000  1.0
  C  C48  1  0.82791000  0.64205000  0.37650000  1.0
  C  C49  1  0.84637000  0.85818000  0.12345000  1.0
  C  C50  1  0.17209000  0.35795000  0.62350000  1.0
  C  C51  1  0.15363000  0.14182000  0.87655000  1.0
  C  C52  1  0.84840000  0.71566000  0.43739000  1.0
  C  C53  1  0.00131000  0.78454000  0.06260000  1.0
  C  C54  1  0.15160000  0.28434000  0.56261000  1.0
  C  C55  1  0.99868000  0.21547000  0.93740000  1.0
  C  C56  1  0.34724000  0.61087000  0.38580000  1.0
  C  C57  1  0.34377000  0.88935000  0.11425000  1.0
  C  C58  1  0.65276000  0.38913000  0.61420000  1.0
  C  C59  1  0.65623000  0.11065000  0.88575000  1.0
  C  C60  1  0.68825000  0.80418000  0.50046000  1.0
  C  C61  1  0.99267000  0.69588000  0.99961000  1.0
  C  C62  1  0.31175000  0.19582000  0.49954000  1.0
  C  C63  1  0.00734000  0.30412000  0.00038000  1.0
  N  N64  1  0.01624000  0.70807000  0.44014000  1.0
  N  N65  1  0.16431000  0.79211000  0.05988000  1.0
  N  N66  1  0.98377000  0.29193000  0.55986000  1.0
  N  N67  1  0.83569000  0.20789000  0.94012000  1.0
  N  N68  1  0.96968000  0.56003000  0.31860000  1.0
  N  N69  1  0.84822000  0.94026000  0.18134000  1.0
  N  N70  1  0.03033000  0.43997000  0.68140000  1.0
  N  N71  1  0.15178000  0.05974000  0.81866000  1.0
  N  N72  1  0.82365000  0.28285000  0.36641000  1.0
  N  N73  1  0.47299000  0.21720000  0.13351000  1.0
  N  N74  1  0.17635000  0.71715000  0.63359000  1.0
  N  N75  1  0.52702000  0.78280000  0.86648000  1.0
  N  N76  1  0.73518000  0.23129000  0.34365000  1.0
  N  N77  1  0.31023000  0.26883000  0.15631000  1.0
  N  N78  1  0.26482000  0.76871000  0.65635000  1.0
  N  N79  1  0.68976000  0.73117000  0.84369000  1.0
  N  N80  1  0.64101000  0.18906000  0.32091000  1.0
  N  N81  1  0.15115000  0.31112000  0.17908000  1.0
  N  N82  1  0.35898000  0.81095000  0.67909000  1.0
  N  N83  1  0.84885000  0.68888000  0.82092000  1.0
  N  N84  1  0.71738000  0.53974000  0.18197000  1.0
  N  N85  1  0.43903000  0.96028000  0.31805000  1.0
  N  N86  1  0.28261000  0.46027000  0.81803000  1.0
  N  N87  1  0.56097000  0.03972000  0.68195000  1.0
  N  N88  1  0.65421000  0.52238000  0.12499000  1.0
  N  N89  1  0.30153000  0.97766000  0.37499000  1.0
  N  N90  1  0.34578000  0.47763000  0.87501000  1.0
  N  N91  1  0.69847000  0.02234000  0.62501000  1.0
  N  N92  1  0.58571000  0.51180000  0.06684000  1.0
  N  N93  1  0.16429000  0.98825000  0.43311000  1.0
  N  N94  1  0.41428000  0.48821000  0.93316000  1.0
  N  N95  1  0.83570000  0.01176000  0.56689000  1.0
