# generated using pymatgen
data_CuH21C20SBr2N7O
_symmetry_space_group_name_H-M   'P 1'
_cell_length_a   8.53080000
_cell_length_b   14.78890000
_cell_length_c   21.14190000
_cell_angle_alpha   90.00030000
_cell_angle_beta   90.00160000
_cell_angle_gamma   89.99990000
_symmetry_Int_Tables_number   1
_chemical_formula_structural   CuH21C20SBr2N7O
_chemical_formula_sum   'Cu4 H84 C80 S4 Br8 N28 O4'
_cell_volume   2667.28637636
_cell_formula_units_Z   4
loop_
 _symmetry_equiv_pos_site_id
 _symmetry_equiv_pos_as_xyz
  1  'x, y, z'
loop_
 _atom_site_type_symbol
 _atom_site_label
 _atom_site_symmetry_multiplicity
 _atom_site_fract_x
 _atom_site_fract_y
 _atom_site_fract_z
 _atom_site_occupancy
  Cu  Cu0  1  0.82827000  0.00159000  0.37291000  1.0
  Cu  Cu1  1  0.17173000  0.99841000  0.87291000  1.0
  Cu  Cu2  1  0.67173000  0.50159000  0.87291000  1.0
  Cu  Cu3  1  0.32828000  0.49841000  0.37290000  1.0
  H  H4  1  0.95999000  0.17064000  0.42035000  1.0
  H  H5  1  0.04002000  0.82936000  0.92035000  1.0
  H  H6  1  0.54002000  0.67064000  0.92035000  1.0
  H  H7  1  0.45999000  0.32936000  0.42035000  1.0
  H  H8  1  0.91695000  0.33658000  0.40386000  1.0
  H  H9  1  0.08305000  0.66343000  0.90386000  1.0
  H  H10  1  0.58305000  0.83658000  0.90387000  1.0
  H  H11  1  0.41695000  0.16342000  0.40387000  1.0
  H  H12  1  0.72329000  0.38636000  0.32081000  1.0
  H  H13  1  0.27670000  0.61364000  0.82081000  1.0
  H  H14  1  0.77669000  0.88637000  0.82081000  1.0
  H  H15  1  0.22329000  0.11364000  0.32081000  1.0
  H  H16  1  0.65324000  0.01814000  0.27585000  1.0
  H  H17  1  0.34673000  0.98186000  0.77585000  1.0
  H  H18  1  0.84675000  0.51815000  0.77585000  1.0
  H  H19  1  0.15327000  0.48185000  0.27585000  1.0
  H  H20  1  0.46716000  0.06305000  0.19079000  1.0
  H  H21  1  0.53280000  0.93695000  0.69078000  1.0
  H  H22  1  0.03282000  0.56306000  0.69079000  1.0
  H  H23  1  0.96719000  0.43695000  0.19078000  1.0
  H  H24  1  0.54519000  0.34443000  0.23636000  1.0
  H  H25  1  0.45480000  0.65557000  0.73636000  1.0
  H  H26  1  0.95479000  0.84444000  0.73636000  1.0
  H  H27  1  0.04519000  0.15556000  0.23636000  1.0
  H  H28  1  0.96764000  0.26110000  0.01890000  1.0
  H  H29  1  0.03237000  0.73890000  0.51890000  1.0
  H  H30  1  0.53235000  0.76109000  0.51889000  1.0
  H  H31  1  0.46764000  0.23890000  0.01889000  1.0
  H  H32  1  0.94548000  0.36093000  0.97209000  1.0
  H  H33  1  0.05451000  0.63906000  0.47210000  1.0
  H  H34  1  0.55451000  0.86093000  0.47210000  1.0
  H  H35  1  0.44548000  0.13906000  0.97209000  1.0
  H  H36  1  0.21645000  0.39138000  0.89885000  1.0
  H  H37  1  0.78355000  0.60862000  0.39885000  1.0
  H  H38  1  0.28355000  0.89139000  0.39884000  1.0
  H  H39  1  0.71644000  0.10862000  0.89884000  1.0
  H  H40  1  0.35449000  0.31093000  0.81113000  1.0
  H  H41  1  0.64551000  0.68906000  0.31113000  1.0
  H  H42  1  0.14552000  0.81095000  0.31112000  1.0
  H  H43  1  0.85449000  0.18907000  0.81113000  1.0
  H  H44  1  0.32975000  0.14175000  0.80356000  1.0
  H  H45  1  0.67026000  0.85823000  0.30356000  1.0
  H  H46  1  0.17026000  0.64177000  0.30356000  1.0
  H  H47  1  0.82975000  0.35824000  0.80357000  1.0
  H  H48  1  0.04791000  0.13177000  0.96302000  1.0
  H  H49  1  0.95209000  0.86823000  0.46302000  1.0
  H  H50  1  0.45207000  0.63178000  0.46302000  1.0
  H  H51  1  0.54791000  0.36822000  0.96302000  1.0
  H  H52  1  0.87070000  0.02170000  0.52793000  1.0
  H  H53  1  0.12931000  0.97829000  0.02793000  1.0
  H  H54  1  0.62931000  0.52171000  0.02793000  1.0
  H  H55  1  0.37071000  0.47830000  0.52793000  1.0
  H  H56  1  0.26055000  0.08857000  0.48179000  1.0
  H  H57  1  0.73945000  0.91143000  0.98178000  1.0
  H  H58  1  0.23946000  0.58857000  0.98179000  1.0
  H  H59  1  0.76055000  0.41143000  0.48179000  1.0
  H  H60  1  0.31707000  0.10129000  0.56259000  1.0
  H  H61  1  0.68294000  0.89871000  0.06258000  1.0
  H  H62  1  0.18294000  0.60128000  0.06259000  1.0
  H  H63  1  0.81708000  0.39871000  0.56259000  1.0
  H  H64  1  0.23242000  0.19485000  0.52096000  1.0
  H  H65  1  0.76758000  0.80516000  0.02096000  1.0
  H  H66  1  0.26758000  0.69484000  0.02096000  1.0
  H  H67  1  0.73243000  0.30515000  0.52096000  1.0
  H  H68  1  0.90905000  0.08280000  0.61871000  1.0
  H  H69  1  0.09096000  0.91719000  0.11871000  1.0
  H  H70  1  0.59096000  0.58281000  0.11872000  1.0
  H  H71  1  0.40905000  0.41719000  0.61871000  1.0
  H  H72  1  0.01895000  0.18581000  0.61647000  1.0
  H  H73  1  0.98104000  0.81419000  0.11647000  1.0
  H  H74  1  0.48105000  0.68581000  0.11647000  1.0
  H  H75  1  0.51896000  0.31419000  0.61647000  1.0
  H  H76  1  0.10733000  0.08396000  0.64482000  1.0
  H  H77  1  0.89267000  0.91604000  0.14481000  1.0
  H  H78  1  0.39267000  0.58396000  0.14482000  1.0
  H  H79  1  0.60733000  0.41604000  0.64482000  1.0
  H  H80  1  0.39603000  0.41890000  0.18280000  1.0
  H  H81  1  0.60395000  0.58110000  0.68280000  1.0
  H  H82  1  0.10395000  0.91890000  0.68280000  1.0
  H  H83  1  0.89604000  0.08110000  0.18280000  1.0
  H  H84  1  0.52959000  0.38892000  0.12823000  1.0
  H  H85  1  0.47042000  0.61108000  0.62822000  1.0
  H  H86  1  0.97041000  0.88892000  0.62822000  1.0
  H  H87  1  0.02959000  0.11108000  0.12823000  1.0
  C  C88  1  0.87834000  0.19473000  0.38456000  1.0
  C  C89  1  0.12167000  0.80527000  0.88456000  1.0
  C  C90  1  0.62166000  0.69473000  0.88456000  1.0
  C  C91  1  0.37834000  0.30527000  0.38456000  1.0
  C  C92  1  0.85234000  0.28770000  0.37531000  1.0
  C  C93  1  0.14766000  0.71230000  0.87531000  1.0
  C  C94  1  0.64766000  0.78770000  0.87532000  1.0
  C  C95  1  0.35235000  0.21230000  0.37531000  1.0
  C  C96  1  0.74883000  0.31501000  0.32915000  1.0
  C  C97  1  0.25117000  0.68499000  0.82915000  1.0
  C  C98  1  0.75116000  0.81501000  0.82915000  1.0
  C  C99  1  0.24883000  0.18499000  0.32915000  1.0
  C  C100  1  0.67322000  0.24881000  0.29151000  1.0
  C  C101  1  0.32678000  0.75119000  0.79151000  1.0
  C  C102  1  0.82677000  0.74882000  0.79151000  1.0
  C  C103  1  0.17323000  0.25118000  0.29151000  1.0
  C  C104  1  0.70541000  0.15565000  0.30357000  1.0
  C  C105  1  0.29459000  0.84434000  0.80357000  1.0
  C  C106  1  0.79459000  0.65566000  0.80357000  1.0
  C  C107  1  0.20542000  0.34435000  0.30357000  1.0
  C  C108  1  0.62860000  0.08919000  0.26653000  1.0
  C  C109  1  0.37139000  0.91081000  0.76653000  1.0
  C  C110  1  0.87139000  0.58919000  0.76653000  1.0
  C  C111  1  0.12861000  0.41081000  0.26652000  1.0
  C  C112  1  0.52623000  0.11387000  0.21947000  1.0
  C  C113  1  0.47376000  0.88614000  0.71947000  1.0
  C  C114  1  0.97376000  0.61387000  0.71947000  1.0
  C  C115  1  0.02624000  0.38613000  0.21947000  1.0
  C  C116  1  0.49358000  0.20679000  0.20678000  1.0
  C  C117  1  0.50640000  0.79322000  0.70679000  1.0
  C  C118  1  0.00640000  0.70679000  0.70679000  1.0
  C  C119  1  0.99359000  0.29321000  0.20678000  1.0
  C  C120  1  0.56718000  0.27261000  0.24287000  1.0
  C  C121  1  0.43281000  0.72739000  0.74287000  1.0
  C  C122  1  0.93280000  0.77262000  0.74287000  1.0
  C  C123  1  0.06719000  0.22738000  0.24287000  1.0
  C  C124  1  0.38038000  0.22615000  0.15721000  1.0
  C  C125  1  0.61961000  0.77386000  0.65721000  1.0
  C  C126  1  0.11961000  0.72615000  0.65721000  1.0
  C  C127  1  0.88039000  0.27385000  0.15720000  1.0
  C  C128  1  0.23066000  0.29308000  0.08661000  1.0
  C  C129  1  0.76933000  0.70693000  0.58661000  1.0
  C  C130  1  0.26932000  0.79307000  0.58661000  1.0
  C  C131  1  0.73067000  0.20692000  0.08661000  1.0
  C  C132  1  0.03001000  0.31134000  0.99050000  1.0
  C  C133  1  0.96999000  0.68866000  0.49050000  1.0
  C  C134  1  0.46998000  0.81134000  0.49050000  1.0
  C  C135  1  0.53001000  0.18867000  0.99050000  1.0
  C  C136  1  0.12005000  0.26782000  0.93790000  1.0
  C  C137  1  0.87995000  0.73218000  0.43790000  1.0
  C  C138  1  0.37994000  0.76782000  0.43790000  1.0
  C  C139  1  0.62005000  0.23218000  0.93790000  1.0
  C  C140  1  0.20764000  0.31802000  0.89431000  1.0
  C  C141  1  0.79236000  0.68198000  0.39431000  1.0
  C  C142  1  0.29236000  0.81802000  0.39431000  1.0
  C  C143  1  0.70764000  0.18198000  0.89431000  1.0
  C  C144  1  0.28449000  0.27317000  0.84532000  1.0
  C  C145  1  0.71551000  0.72682000  0.34531000  1.0
  C  C146  1  0.21551000  0.77318000  0.34531000  1.0
  C  C147  1  0.78449000  0.22683000  0.84532000  1.0
  C  C148  1  0.27201000  0.17966000  0.84110000  1.0
  C  C149  1  0.72800000  0.82034000  0.34110000  1.0
  C  C150  1  0.22799000  0.67967000  0.34110000  1.0
  C  C151  1  0.77201000  0.32034000  0.84111000  1.0
  C  C152  1  0.11445000  0.17404000  0.93055000  1.0
  C  C153  1  0.88554000  0.82596000  0.43055000  1.0
  C  C154  1  0.38554000  0.67405000  0.43054000  1.0
  C  C155  1  0.61446000  0.32595000  0.93055000  1.0
  C  C156  1  0.98414000  0.04213000  0.50698000  1.0
  C  C157  1  0.01587000  0.95786000  0.00698000  1.0
  C  C158  1  0.51587000  0.54213000  0.00698000  1.0
  C  C159  1  0.48414000  0.45787000  0.50698000  1.0
  C  C160  1  0.23019000  0.12082000  0.52672000  1.0
  C  C161  1  0.76981000  0.87918000  0.02672000  1.0
  C  C162  1  0.26982000  0.62081000  0.02672000  1.0
  C  C163  1  0.73019000  0.37919000  0.52672000  1.0
  C  C164  1  0.02517000  0.11201000  0.60994000  1.0
  C  C165  1  0.97483000  0.88798000  0.10994000  1.0
  C  C166  1  0.47483000  0.61202000  0.10994000  1.0
  C  C167  1  0.52517000  0.38799000  0.60994000  1.0
  S  S168  1  0.15179000  0.38010000  0.04226000  1.0
  S  S169  1  0.84821000  0.61990000  0.54227000  1.0
  S  S170  1  0.34821000  0.88010000  0.54227000  1.0
  S  S171  1  0.65179000  0.11990000  0.04226000  1.0
  Br  Br172  1  0.59921000  0.02737000  0.44562000  1.0
  Br  Br173  1  0.40082000  0.97263000  0.94562000  1.0
  Br  Br174  1  0.90082000  0.52737000  0.94563000  1.0
  Br  Br175  1  0.09921000  0.47264000  0.44561000  1.0
  Br  Br176  1  0.00319000  0.97697000  0.27840000  1.0
  Br  Br177  1  0.99679000  0.02303000  0.77840000  1.0
  Br  Br178  1  0.49680000  0.47698000  0.77840000  1.0
  Br  Br179  1  0.50320000  0.52304000  0.27839000  1.0
  N  N180  1  0.80734000  0.13103000  0.35064000  1.0
  N  N181  1  0.19266000  0.86897000  0.85064000  1.0
  N  N182  1  0.69266000  0.63103000  0.85064000  1.0
  N  N183  1  0.30735000  0.36897000  0.35064000  1.0
  N  N184  1  0.29071000  0.16369000  0.13003000  1.0
  N  N185  1  0.70928000  0.83631000  0.63004000  1.0
  N  N186  1  0.20928000  0.66369000  0.63004000  1.0
  N  N187  1  0.79072000  0.33631000  0.13003000  1.0
  N  N188  1  0.19622000  0.20529000  0.08558000  1.0
  N  N189  1  0.80377000  0.79472000  0.58559000  1.0
  N  N190  1  0.30377000  0.70529000  0.58560000  1.0
  N  N191  1  0.69623000  0.29471000  0.08559000  1.0
  N  N192  1  0.34453000  0.30960000  0.13090000  1.0
  N  N193  1  0.65548000  0.69040000  0.63090000  1.0
  N  N194  1  0.15548000  0.80961000  0.63090000  1.0
  N  N195  1  0.84453000  0.19040000  0.13089000  1.0
  N  N196  1  0.41194000  0.39515000  0.13764000  1.0
  N  N197  1  0.58807000  0.60486000  0.63763000  1.0
  N  N198  1  0.08807000  0.89515000  0.63763000  1.0
  N  N199  1  0.91194000  0.10485000  0.13764000  1.0
  N  N200  1  0.18822000  0.13101000  0.88311000  1.0
  N  N201  1  0.81177000  0.86898000  0.38311000  1.0
  N  N202  1  0.31177000  0.63102000  0.38310000  1.0
  N  N203  1  0.68822000  0.36898000  0.88311000  1.0
  N  N204  1  0.07543000  0.09048000  0.54609000  1.0
  N  N205  1  0.92458000  0.90952000  0.04609000  1.0
  N  N206  1  0.42458000  0.59048000  0.04609000  1.0
  N  N207  1  0.57544000  0.40953000  0.54609000  1.0
  O  O208  1  0.01946000  0.02249000  0.45113000  1.0
  O  O209  1  0.98055000  0.97751000  0.95113000  1.0
  O  O210  1  0.48056000  0.52248000  0.95113000  1.0
  O  O211  1  0.51946000  0.47752000  0.45113000  1.0
