# generated using pymatgen
data_AlH8C15O5F
_symmetry_space_group_name_H-M   'P 1'
_cell_length_a   6.64271000
_cell_length_b   15.29407952
_cell_length_c   17.75180000
_cell_angle_alpha   88.05277603
_cell_angle_beta   79.67430000
_cell_angle_gamma   78.89985590
_symmetry_Int_Tables_number   1
_chemical_formula_structural   AlH8C15O5F
_chemical_formula_sum   'Al2 H16 C30 O10 F2'
_cell_volume   1741.07794801
_cell_formula_units_Z   2
loop_
 _symmetry_equiv_pos_site_id
 _symmetry_equiv_pos_as_xyz
  1  'x, y, z'
loop_
 _atom_site_type_symbol
 _atom_site_label
 _atom_site_symmetry_multiplicity
 _atom_site_fract_x
 _atom_site_fract_y
 _atom_site_fract_z
 _atom_site_occupancy
  Al  Al0  1  0.00004000  0.49997000  0.49999000  1.0
  Al  Al1  1  0.50004000  0.49998000  0.50001000  1.0
  H  H2  1  0.32112000  0.39851000  0.45012000  1.0
  H  H3  1  0.67899000  0.60144000  0.54988000  1.0
  H  H4  1  0.81939000  0.50606000  0.72895000  1.0
  H  H5  1  0.74069000  0.50934000  0.87252000  1.0
  H  H6  1  0.39880000  0.46669000  0.87763000  1.0
  H  H7  1  0.47411000  0.46431000  0.73403000  1.0
  H  H8  1  0.60084000  0.53358000  0.12245000  1.0
  H  H9  1  0.52577000  0.53584000  0.26605000  1.0
  H  H10  1  0.18057000  0.49391000  0.27098000  1.0
  H  H11  1  0.25904000  0.49076000  0.12741000  1.0
  H  H12  1  0.33060000  0.93949000  0.53313000  1.0
  H  H13  1  0.66948000  0.06046000  0.46688000  1.0
  H  H14  1  0.16397000  0.23247000  0.53966000  1.0
  H  H15  1  0.25623000  0.06941000  0.53830000  1.0
  H  H16  1  0.83611000  0.76747000  0.46034000  1.0
  H  H17  1  0.74385000  0.93054000  0.46169000  1.0
  C  C18  1  0.82457000  0.33909000  0.50580000  1.0
  C  C19  1  0.80495000  0.50939000  0.36174000  1.0
  C  C20  1  0.17552000  0.66085000  0.49420000  1.0
  C  C21  1  0.19512000  0.49058000  0.63827000  1.0
  C  C22  1  0.15094000  0.48602000  0.72351000  1.0
  C  C23  1  0.94416000  0.49737000  0.76247000  1.0
  C  C24  1  0.90094000  0.49921000  0.84189000  1.0
  C  C25  1  0.06449000  0.48969000  0.88441000  1.0
  C  C26  1  0.27253000  0.47547000  0.84481000  1.0
  C  C27  1  0.31458000  0.47392000  0.76533000  1.0
  C  C28  1  0.01992000  0.49616000  0.96519000  1.0
  C  C29  1  0.97963000  0.50409000  0.03481000  1.0
  C  C30  1  0.93518000  0.51050000  0.11559000  1.0
  C  C31  1  0.72717000  0.52473000  0.15524000  1.0
  C  C32  1  0.68527000  0.52620000  0.23473000  1.0
  C  C33  1  0.84901000  0.51401000  0.27650000  1.0
  C  C34  1  0.05575000  0.50266000  0.23749000  1.0
  C  C35  1  0.09881000  0.50089000  0.15807000  1.0
  C  C36  1  0.13263000  0.76019000  0.49395000  1.0
  C  C37  1  0.86744000  0.23975000  0.50605000  1.0
  C  C38  1  0.26729000  0.81268000  0.51339000  1.0
  C  C39  1  0.21752000  0.90495000  0.51593000  1.0
  C  C40  1  0.73277000  0.18726000  0.48660000  1.0
  C  C41  1  0.78256000  0.09500000  0.48406000  1.0
  C  C42  1  0.05638000  0.19331000  0.52452000  1.0
  C  C43  1  0.10775000  0.10104000  0.52302000  1.0
  C  C44  1  0.94370000  0.80664000  0.47547000  1.0
  C  C45  1  0.89232000  0.89892000  0.47696000  1.0
  C  C46  1  0.02735000  0.95070000  0.49810000  1.0
  C  C47  1  0.97274000  0.04925000  0.50189000  1.0
  O  O48  1  0.97279000  0.37695000  0.51563000  1.0
  O  O49  1  0.61471000  0.51885000  0.39420000  1.0
  O  O50  1  0.35411000  0.62092000  0.50524000  1.0
  O  O51  1  0.03788000  0.50612000  0.60440000  1.0
  O  O52  1  0.02728000  0.62300000  0.48436000  1.0
  O  O53  1  0.38539000  0.48109000  0.60583000  1.0
  O  O54  1  0.64597000  0.37902000  0.49477000  1.0
  O  O55  1  0.96225000  0.49383000  0.39558000  1.0
  O  O56  1  0.28352000  0.46012000  0.46683000  1.0
  O  O57  1  0.71660000  0.53982000  0.53316000  1.0
  F  F58  1  0.45464000  0.77492000  0.53224000  1.0
  F  F59  1  0.54542000  0.22501000  0.46777000  1.0
