# generated using pymatgen
data_CdH10(C9N5)2
_symmetry_space_group_name_H-M   'P 1'
_cell_length_a   9.64425000
_cell_length_b   9.78614000
_cell_length_c   9.76164000
_cell_angle_alpha   107.51600000
_cell_angle_beta   90.01060000
_cell_angle_gamma   89.99100000
_symmetry_Int_Tables_number   1
_chemical_formula_structural   CdH10(C9N5)2
_chemical_formula_sum   'Cd2 H20 C36 N20'
_cell_volume   878.58524558
_cell_formula_units_Z   2
loop_
 _symmetry_equiv_pos_site_id
 _symmetry_equiv_pos_as_xyz
  1  'x, y, z'
loop_
 _atom_site_type_symbol
 _atom_site_label
 _atom_site_symmetry_multiplicity
 _atom_site_fract_x
 _atom_site_fract_y
 _atom_site_fract_z
 _atom_site_occupancy
  Cd  Cd0  1  0.49999000  0.50001000  0.50002000  1.0
  Cd  Cd1  1  0.00003000  1.00000000  1.00000000  1.0
  H  H2  1  0.62852000  0.35897000  0.75632000  1.0
  H  H3  1  0.12870000  0.14109000  0.74383000  1.0
  H  H4  1  0.37134000  0.64111000  0.24378000  1.0
  H  H5  1  0.87150000  0.85905000  0.25629000  1.0
  H  H6  1  0.27158000  0.20089000  0.36733000  1.0
  H  H7  1  0.77144000  0.29904000  0.13242000  1.0
  H  H8  1  0.72852000  0.79898000  0.63254000  1.0
  H  H9  1  0.22843000  0.70081000  0.86740000  1.0
  H  H10  1  0.16001000  0.96504000  0.32981000  1.0
  H  H11  1  0.65985000  0.53489000  0.16990000  1.0
  H  H12  1  0.84015000  0.03481000  0.67007000  1.0
  H  H13  1  0.33996000  0.46493000  0.82993000  1.0
  H  H14  1  0.19939000  0.81955000  0.49423000  1.0
  H  H15  1  0.69947000  0.68054000  0.00569000  1.0
  H  H16  1  0.80060000  0.18043000  0.50580000  1.0
  H  H17  1  0.30051000  0.31944000  0.99433000  1.0
  H  H18  1  0.36891000  0.90064000  0.69790000  1.0
  H  H19  1  0.86916000  0.59952000  0.80222000  1.0
  H  H20  1  0.63095000  0.09945000  0.30225000  1.0
  H  H21  1  0.13097000  0.40059000  0.19792000  1.0
  C  C22  1  0.55227000  0.28156000  0.69711000  1.0
  C  C23  1  0.05241000  0.21848000  0.80298000  1.0
  C  C24  1  0.44762000  0.71850000  0.30297000  1.0
  C  C25  1  0.94773000  0.78162000  0.19711000  1.0
  C  C26  1  0.42708000  0.09063000  0.63703000  1.0
  C  C27  1  0.92717000  0.40942000  0.86301000  1.0
  C  C28  1  0.57286000  0.90940000  0.36305000  1.0
  C  C29  1  0.07289000  0.59064000  0.13705000  1.0
  C  C30  1  0.39855000  0.17608000  0.54147000  1.0
  C  C31  1  0.89855000  0.32392000  0.95847000  1.0
  C  C32  1  0.60144000  0.82391000  0.45853000  1.0
  C  C33  1  0.10144000  0.67607000  0.04151000  1.0
  C  C34  1  0.29989000  0.13527000  0.43520000  1.0
  C  C35  1  0.79982000  0.36467000  0.06463000  1.0
  C  C36  1  0.70017000  0.86464000  0.56473000  1.0
  C  C37  1  0.20010000  0.63522000  0.93527000  1.0
  C  C38  1  0.23522000  0.00094000  0.41653000  1.0
  C  C39  1  0.73513000  0.49903000  0.08327000  1.0
  C  C40  1  0.76487000  0.99896000  0.58340000  1.0
  C  C41  1  0.26475000  0.50086000  0.91662000  1.0
  C  C42  1  0.25754000  0.91864000  0.51152000  1.0
  C  C43  1  0.75757000  0.58141000  0.98840000  1.0
  C  C44  1  0.74247000  0.08135000  0.48850000  1.0
  C  C45  1  0.24240000  0.41857000  0.01161000  1.0
  C  C46  1  0.35292000  0.96057000  0.62188000  1.0
  C  C47  1  0.85306000  0.53951000  0.87815000  1.0
  C  C48  1  0.64701000  0.03947000  0.37821000  1.0
  C  C49  1  0.14700000  0.46053000  0.12193000  1.0
  C  C50  1  0.47358000  0.24560000  0.18934000  1.0
  C  C51  1  0.97324000  0.25449000  0.31070000  1.0
  C  C52  1  0.52646000  0.75442000  0.81064000  1.0
  C  C53  1  0.02672000  0.74552000  0.68923000  1.0
  C  C54  1  0.33102000  0.06809000  0.04106000  1.0
  C  C55  1  0.83080000  0.43202000  0.45915000  1.0
  C  C56  1  0.66906000  0.93193000  0.95891000  1.0
  C  C57  1  0.16912000  0.56796000  0.54079000  1.0
  N  N58  1  0.48170000  0.29974000  0.58799000  1.0
  N  N59  1  0.98173000  0.20024000  0.91198000  1.0
  N  N60  1  0.51827000  0.70025000  0.41203000  1.0
  N  N61  1  0.01832000  0.79977000  0.08801000  1.0
  N  N62  1  0.52227000  0.15678000  0.73457000  1.0
  N  N63  1  0.02245000  0.34331000  0.76555000  1.0
  N  N64  1  0.47760000  0.84331000  0.26555000  1.0
  N  N65  1  0.97770000  0.65682000  0.23457000  1.0
  N  N66  1  0.43736000  0.11816000  0.11862000  1.0
  N  N67  1  0.93695000  0.38193000  0.38132000  1.0
  N  N68  1  0.56276000  0.88187000  0.88128000  1.0
  N  N69  1  0.06290000  0.61807000  0.61849000  1.0
  N  N70  1  0.52105000  0.35595000  0.26015000  1.0
  N  N71  1  0.02075000  0.14414000  0.23992000  1.0
  N  N72  1  0.47893000  0.64409000  0.73989000  1.0
  N  N73  1  0.97930000  0.85588000  0.76008000  1.0
  N  N74  1  0.23891000  0.00931000  0.96624000  1.0
  N  N75  1  0.73883000  0.49083000  0.53418000  1.0
  N  N76  1  0.76114000  0.99071000  0.03377000  1.0
  N  N77  1  0.26114000  0.50913000  0.46586000  1.0
