# generated using pymatgen
data_CoH27C20(NO)4
_symmetry_space_group_name_H-M   'P 1'
_cell_length_a   7.28546000
_cell_length_b   8.63315000
_cell_length_c   18.29250000
_cell_angle_alpha   91.86350000
_cell_angle_beta   89.99980000
_cell_angle_gamma   89.99940000
_symmetry_Int_Tables_number   1
_chemical_formula_structural   CoH27C20(NO)4
_chemical_formula_sum   'Co2 H54 C40 N8 O8'
_cell_volume   1149.92518152
_cell_formula_units_Z   2
loop_
 _symmetry_equiv_pos_site_id
 _symmetry_equiv_pos_as_xyz
  1  'x, y, z'
loop_
 _atom_site_type_symbol
 _atom_site_label
 _atom_site_symmetry_multiplicity
 _atom_site_fract_x
 _atom_site_fract_y
 _atom_site_fract_z
 _atom_site_occupancy
  Co  Co0  1  0.64382000  0.00000000  0.00000000  1.0
  Co  Co1  1  0.62485000  0.00000000  0.50000000  1.0
  H  H2  1  0.58835000  0.29887000  0.91406000  1.0
  H  H3  1  0.58836000  0.70111000  0.08595000  1.0
  H  H4  1  0.08268000  0.12445000  0.99940000  1.0
  H  H5  1  0.08266000  0.87556000  0.00059000  1.0
  H  H6  1  0.28088000  0.79484000  0.83075000  1.0
  H  H7  1  0.28088000  0.20516000  0.16925000  1.0
  H  H8  1  0.15703000  0.40058000  0.93410000  1.0
  H  H9  1  0.15706000  0.59942000  0.06587000  1.0
  H  H10  1  0.01551000  0.92345000  0.79961000  1.0
  H  H11  1  0.01552000  0.07656000  0.20040000  1.0
  H  H12  1  0.10738000  0.10044000  0.83448000  1.0
  H  H13  1  0.10738000  0.89956000  0.16551000  1.0
  H  H14  1  0.88732000  0.63599000  0.90773000  1.0
  H  H15  1  0.88739000  0.36400000  0.09227000  1.0
  H  H16  1  0.68795000  0.55167000  0.86775000  1.0
  H  H17  1  0.68801000  0.44832000  0.13225000  1.0
  H  H18  1  0.67260000  0.04560000  0.70706000  1.0
  H  H19  1  0.67260000  0.95440000  0.29295000  1.0
  H  H20  1  0.67043000  0.04038000  0.80378000  1.0
  H  H21  1  0.67045000  0.95962000  0.19622000  1.0
  H  H22  1  0.51535000  0.16376000  0.75831000  1.0
  H  H23  1  0.51537000  0.83624000  0.24169000  1.0
  H  H24  1  0.63321000  0.75932000  0.69350000  1.0
  H  H25  1  0.63321000  0.24069000  0.30650000  1.0
  H  H26  1  0.46820000  0.66154000  0.74727000  1.0
  H  H27  1  0.46818000  0.33845000  0.25273000  1.0
  H  H28  1  0.65274000  0.76197000  0.79092000  1.0
  H  H29  1  0.65273000  0.23803000  0.20908000  1.0
  H  H30  1  0.22515000  0.16956000  0.71722000  1.0
  H  H31  1  0.22517000  0.83044000  0.28277000  1.0
  H  H32  1  0.03952000  0.05507000  0.68515000  1.0
  H  H33  1  0.03954000  0.94491000  0.31484000  1.0
  H  H34  1  0.05918000  0.59284000  0.79520000  1.0
  H  H35  1  0.05927000  0.40722000  0.20480000  1.0
  H  H36  1  0.09487000  0.80186000  0.62787000  1.0
  H  H37  1  0.09488000  0.19813000  0.37214000  1.0
  H  H38  1  0.15234000  0.73198000  0.71448000  1.0
  H  H39  1  0.15230000  0.26801000  0.28553000  1.0
  H  H40  1  0.30430000  0.70030000  0.63869000  1.0
  H  H41  1  0.30429000  0.29970000  0.36131000  1.0
  H  H42  1  0.92911000  0.30177000  0.75079000  1.0
  H  H43  1  0.92913000  0.69824000  0.24921000  1.0
  H  H44  1  0.72154000  0.40379000  0.74329000  1.0
  H  H45  1  0.72157000  0.59622000  0.25670000  1.0
  H  H46  1  0.85958000  0.57608000  0.65148000  1.0
  H  H47  1  0.85959000  0.42393000  0.34852000  1.0
  H  H48  1  0.08081000  0.50110000  0.66869000  1.0
  H  H49  1  0.08083000  0.49891000  0.33131000  1.0
  H  H50  1  0.63280000  0.27601000  0.62196000  1.0
  H  H51  1  0.63281000  0.72399000  0.37803000  1.0
  H  H52  1  0.18959000  0.35182000  0.56351000  1.0
  H  H53  1  0.18959000  0.64818000  0.43650000  1.0
  H  H54  1  0.04291000  0.11784000  0.47543000  1.0
  H  H55  1  0.04288000  0.88214000  0.52458000  1.0
  C  C56  1  0.40501000  0.98467000  0.88694000  1.0
  C  C57  1  0.40503000  0.01533000  0.11306000  1.0
  C  C58  1  0.73158000  0.29043000  0.92973000  1.0
  C  C59  1  0.73159000  0.70956000  0.07027000  1.0
  C  C60  1  0.98881000  0.20231000  0.97311000  1.0
  C  C61  1  0.98882000  0.79770000  0.02688000  1.0
  C  C62  1  0.31102000  0.91644000  0.81893000  1.0
  C  C63  1  0.31102000  0.08356000  0.18107000  1.0
  C  C64  1  0.02843000  0.34049000  0.94148000  1.0
  C  C65  1  0.02844000  0.65951000  0.05851000  1.0
  C  C66  1  0.44449000  0.91531000  0.75084000  1.0
  C  C67  1  0.44449000  0.08468000  0.24916000  1.0
  C  C68  1  0.13411000  0.00180000  0.79668000  1.0
  C  C69  1  0.13411000  0.99820000  0.20332000  1.0
  C  C70  1  0.83743000  0.53775000  0.87368000  1.0
  C  C71  1  0.83749000  0.46225000  0.12632000  1.0
  C  C72  1  0.30559000  0.93643000  0.68546000  1.0
  C  C73  1  0.30559000  0.06356000  0.31454000  1.0
  C  C74  1  0.58262000  0.05004000  0.75533000  1.0
  C  C75  1  0.58263000  0.94996000  0.24468000  1.0
  C  C76  1  0.55568000  0.76505000  0.74506000  1.0
  C  C77  1  0.55567000  0.23495000  0.25494000  1.0
  C  C78  1  0.16586000  0.05265000  0.71803000  1.0
  C  C79  1  0.16587000  0.94733000  0.28197000  1.0
  C  C80  1  0.93103000  0.52931000  0.80139000  1.0
  C  C81  1  0.93109000  0.47072000  0.19861000  1.0
  C  C82  1  0.40349000  0.99816000  0.61818000  1.0
  C  C83  1  0.40350000  0.00185000  0.38182000  1.0
  C  C84  1  0.20970000  0.78311000  0.66536000  1.0
  C  C85  1  0.20969000  0.21688000  0.33465000  1.0
  C  C86  1  0.87189000  0.41870000  0.74195000  1.0
  C  C87  1  0.87192000  0.58132000  0.25804000  1.0
  C  C88  1  0.93466000  0.47143000  0.66666667  1.0
  C  C89  1  0.93468000  0.52858000  0.33329000  1.0
  C  C90  1  0.76368000  0.26538000  0.59408000  1.0
  C  C91  1  0.76368000  0.73463000  0.40592000  1.0
  C  C92  1  0.05193000  0.30518000  0.56081000  1.0
  C  C93  1  0.05194000  0.69481000  0.43920000  1.0
  C  C94  1  0.97769000  0.18799000  0.51801000  1.0
  C  C95  1  0.97767000  0.81199000  0.48200000  1.0
  N  N96  1  0.80314000  0.17182000  0.96530000  1.0
  N  N97  1  0.80313000  0.82817000  0.03470000  1.0
  N  N98  1  0.86387000  0.39503000  0.91487000  1.0
  N  N99  1  0.86390000  0.60496000  0.08512000  1.0
  N  N100  1  0.91527000  0.35230000  0.60886000  1.0
  N  N101  1  0.91528000  0.64770000  0.39114000  1.0
  N  N102  1  0.79799000  0.16341000  0.53930000  1.0
  N  N103  1  0.79799000  0.83657000  0.46070000  1.0
  O  O104  1  0.51897000  0.89199000  0.91865000  1.0
  O  O105  1  0.51894000  0.10803000  0.08134000  1.0
  O  O106  1  0.37782000  0.12159000  0.90909000  1.0
  O  O107  1  0.37788000  0.87839000  0.09093000  1.0
  O  O108  1  0.39446000  0.13833000  0.60284000  1.0
  O  O109  1  0.39447000  0.86167000  0.39716000  1.0
  O  O110  1  0.49773000  0.89732000  0.57944000  1.0
  O  O111  1  0.49774000  0.10268000  0.42056000  1.0
