# generated using pymatgen
data_Ag2H8C9N3O5
_symmetry_space_group_name_H-M   'P 1'
_cell_length_a   7.45582000
_cell_length_b   8.58454000
_cell_length_c   10.75740000
_cell_angle_alpha   105.18300000
_cell_angle_beta   100.94600000
_cell_angle_gamma   99.70830000
_symmetry_Int_Tables_number   1
_chemical_formula_structural   Ag2H8C9N3O5
_chemical_formula_sum   'Ag4 H16 C18 N6 O10'
_cell_volume   634.84167425
_cell_formula_units_Z   2
loop_
 _symmetry_equiv_pos_site_id
 _symmetry_equiv_pos_as_xyz
  1  'x, y, z'
loop_
 _atom_site_type_symbol
 _atom_site_label
 _atom_site_symmetry_multiplicity
 _atom_site_fract_x
 _atom_site_fract_y
 _atom_site_fract_z
 _atom_site_occupancy
  Ag  Ag0  1  0.89326000  0.93351000  0.27393000  1.0
  Ag  Ag1  1  0.10671000  0.06649000  0.72607000  1.0
  Ag  Ag2  1  0.31946000  0.81810000  0.62724000  1.0
  Ag  Ag3  1  0.68054000  0.18192000  0.37276000  1.0
  H  H4  1  0.39249000  0.60158000  0.82313000  1.0
  H  H5  1  0.60752000  0.39841000  0.17687000  1.0
  H  H6  1  0.64804000  0.06998000  0.81835000  1.0
  H  H7  1  0.35196000  0.93001000  0.18165000  1.0
  H  H8  1  0.73151000  0.50067000  0.69841000  1.0
  H  H9  1  0.26849000  0.49932000  0.30158000  1.0
  H  H10  1  0.60190000  0.65886000  0.05478000  1.0
  H  H11  1  0.39812000  0.34114000  0.94522000  1.0
  H  H12  1  0.93082000  0.19639000  0.16222000  1.0
  H  H13  1  0.06918000  0.80361000  0.83777000  1.0
  H  H14  1  0.88389000  0.24246000  0.01319000  1.0
  H  H15  1  0.11610000  0.75754000  0.98680000  1.0
  H  H16  1  0.22728000  0.96693000  0.44446000  1.0
  H  H17  1  0.77272000  0.03308000  0.55553000  1.0
  H  H18  1  0.34289000  0.83399000  0.38731000  1.0
  H  H19  1  0.65711000  0.16602000  0.61268000  1.0
  C  C20  1  0.49806000  0.71697000  0.87354000  1.0
  C  C21  1  0.50195000  0.28303000  0.12646000  1.0
  C  C22  1  0.39869000  0.29362000  0.66382000  1.0
  C  C23  1  0.60133000  0.70640000  0.33616000  1.0
  C  C24  1  0.64214000  0.97589000  0.86976000  1.0
  C  C25  1  0.35786000  0.02411000  0.13023000  1.0
  C  C26  1  0.62896000  0.49886000  0.61081000  1.0
  C  C27  1  0.37102000  0.50110000  0.38920000  1.0
  C  C28  1  0.75863000  0.00810000  0.99881000  1.0
  C  C29  1  0.24138000  0.99191000  0.00119000  1.0
  C  C30  1  0.31968000  0.39410000  0.46128000  1.0
  C  C31  1  0.68033000  0.60588000  0.53874000  1.0
  C  C32  1  0.61253000  0.74808000  0.99895000  1.0
  C  C33  1  0.38748000  0.25191000  0.00104000  1.0
  C  C34  1  0.13397000  0.27145000  0.40458000  1.0
  C  C35  1  0.86606000  0.72857000  0.59543000  1.0
  C  C36  1  0.45004000  0.39430000  0.57485000  1.0
  C  C37  1  0.54995000  0.60568000  0.42516000  1.0
  N  N38  1  0.88531000  0.15384000  0.05949000  1.0
  N  N39  1  0.11469000  0.84617000  0.94051000  1.0
  N  N40  1  0.51413000  0.83422000  0.81011000  1.0
  N  N41  1  0.48588000  0.16579000  0.18989000  1.0
  N  N42  1  0.74133000  0.89127000  0.06197000  1.0
  N  N43  1  0.25870000  0.10875000  0.93803000  1.0
  O  O44  1  0.12525000  0.12827000  0.42234000  1.0
  O  O45  1  0.87471000  0.87176000  0.57767000  1.0
  O  O46  1  0.00106000  0.31032000  0.33583000  1.0
  O  O47  1  0.99894000  0.68968000  0.66417000  1.0
  O  O48  1  0.23495000  0.85004000  0.43158000  1.0
  O  O49  1  0.76504000  0.14998000  0.56842000  1.0
  O  O50  1  0.26367000  0.32294000  0.71538000  1.0
  O  O51  1  0.73637000  0.67703000  0.28462000  1.0
  O  O52  1  0.49663000  0.19051000  0.68528000  1.0
  O  O53  1  0.50331000  0.80949000  0.31473000  1.0
