# generated using pymatgen
data_CdH7C12NO4
_symmetry_space_group_name_H-M   'P 1'
_cell_length_a   7.07209000
_cell_length_b   14.28530000
_cell_length_c   15.30910000
_cell_angle_alpha   89.99990000
_cell_angle_beta   96.14240000
_cell_angle_gamma   89.99880000
_symmetry_Int_Tables_number   1
_chemical_formula_structural   CdH7C12NO4
_chemical_formula_sum   'Cd4 H28 C48 N4 O16'
_cell_volume   1537.75217472
_cell_formula_units_Z   4
loop_
 _symmetry_equiv_pos_site_id
 _symmetry_equiv_pos_as_xyz
  1  'x, y, z'
loop_
 _atom_site_type_symbol
 _atom_site_label
 _atom_site_symmetry_multiplicity
 _atom_site_fract_x
 _atom_site_fract_y
 _atom_site_fract_z
 _atom_site_occupancy
  Cd  Cd0  1  0.47208000  0.80200000  0.68705000  1.0
  Cd  Cd1  1  0.02790000  0.30201000  0.31294000  1.0
  Cd  Cd2  1  0.52791000  0.19799000  0.31295000  1.0
  Cd  Cd3  1  0.97208000  0.69799000  0.68706000  1.0
  H  H4  1  0.17373000  0.14539000  0.60275000  1.0
  H  H5  1  0.32623000  0.64539000  0.39724000  1.0
  H  H6  1  0.82624000  0.85460000  0.39725000  1.0
  H  H7  1  0.67379000  0.35460000  0.60276000  1.0
  H  H8  1  0.29816000  0.01132000  0.70006000  1.0
  H  H9  1  0.20182000  0.51133000  0.29993000  1.0
  H  H10  1  0.70182000  0.98867000  0.29994000  1.0
  H  H11  1  0.79820000  0.48867000  0.70007000  1.0
  H  H12  1  0.36180000  0.84299000  0.48555000  1.0
  H  H13  1  0.13820000  0.34299000  0.51445000  1.0
  H  H14  1  0.63821000  0.15701000  0.51445000  1.0
  H  H15  1  0.86180000  0.65702000  0.48555000  1.0
  H  H16  1  0.25718000  0.97329000  0.37934000  1.0
  H  H17  1  0.24281000  0.47328000  0.62066000  1.0
  H  H18  1  0.74282000  0.02672000  0.62066000  1.0
  H  H19  1  0.75719000  0.52672000  0.37935000  1.0
  H  H20  1  0.35890000  0.99030000  0.94059000  1.0
  H  H21  1  0.14110000  0.49029000  0.05941000  1.0
  H  H22  1  0.64111000  0.00970000  0.05941000  1.0
  H  H23  1  0.85891000  0.50970000  0.94060000  1.0
  H  H24  1  0.32746000  0.09487000  0.07005000  1.0
  H  H25  1  0.17252000  0.59486000  0.92994000  1.0
  H  H26  1  0.67251000  0.90514000  0.92994000  1.0
  H  H27  1  0.82748000  0.40513000  0.07007000  1.0
  H  H28  1  0.87417000  0.83339000  0.82681000  1.0
  H  H29  1  0.62582000  0.33338000  0.17318000  1.0
  H  H30  1  0.12582000  0.16662000  0.17318000  1.0
  H  H31  1  0.37418000  0.66666667  0.82682000  1.0
  C  C32  1  0.15156000  0.14895000  0.42262000  1.0
  C  C33  1  0.34844000  0.64895000  0.57738000  1.0
  C  C34  1  0.84843000  0.85105000  0.57738000  1.0
  C  C35  1  0.65158000  0.35106000  0.42262000  1.0
  C  C36  1  0.20960000  0.06928000  0.48365000  1.0
  C  C37  1  0.29040000  0.56929000  0.51634000  1.0
  C  C38  1  0.79040000  0.93072000  0.51635000  1.0
  C  C39  1  0.70961000  0.43072000  0.48366000  1.0
  C  C40  1  0.21665000  0.07962000  0.57476000  1.0
  C  C41  1  0.28333000  0.57963000  0.42524000  1.0
  C  C42  1  0.78334000  0.92037000  0.42524000  1.0
  C  C43  1  0.71668000  0.42037000  0.57476000  1.0
  C  C44  1  0.28316000  0.00551000  0.62858000  1.0
  C  C45  1  0.21682000  0.50552000  0.37141000  1.0
  C  C46  1  0.71682000  0.99449000  0.37142000  1.0
  C  C47  1  0.78318000  0.49448000  0.62859000  1.0
  C  C48  1  0.32071000  0.91164000  0.50818000  1.0
  C  C49  1  0.17929000  0.41164000  0.49182000  1.0
  C  C50  1  0.67929000  0.08836000  0.49182000  1.0
  C  C51  1  0.82072000  0.58837000  0.50819000  1.0
  C  C52  1  0.26136000  0.98316000  0.45006000  1.0
  C  C53  1  0.23864000  0.48316000  0.54993000  1.0
  C  C54  1  0.73864000  0.01684000  0.54994000  1.0
  C  C55  1  0.76137000  0.51685000  0.45007000  1.0
  C  C56  1  0.25085000  0.86560000  0.81463000  1.0
  C  C57  1  0.24914000  0.36559000  0.18537000  1.0
  C  C58  1  0.74913000  0.13441000  0.18537000  1.0
  C  C59  1  0.75086000  0.63441000  0.81463000  1.0
  C  C60  1  0.13070000  0.90698000  0.87879000  1.0
  C  C61  1  0.36931000  0.40697000  0.12120000  1.0
  C  C62  1  0.86931000  0.09302000  0.12119000  1.0
  C  C63  1  0.63070000  0.59302000  0.87880000  1.0
  C  C64  1  0.20955000  0.97121000  0.94016000  1.0
  C  C65  1  0.29044000  0.47121000  0.05983000  1.0
  C  C66  1  0.79044000  0.02879000  0.05983000  1.0
  C  C67  1  0.70956000  0.52879000  0.94018000  1.0
  C  C68  1  0.09878000  0.01249000  0.00147000  1.0
  C  C69  1  0.40122000  0.51248000  0.99853000  1.0
  C  C70  1  0.90121000  0.98752000  0.99853000  1.0
  C  C71  1  0.59879000  0.48751000  0.00148000  1.0
  C  C72  1  0.17653000  0.07760000  0.06570000  1.0
  C  C73  1  0.32347000  0.57759000  0.93429000  1.0
  C  C74  1  0.82348000  0.92241000  0.93429000  1.0
  C  C75  1  0.67653000  0.42240000  0.06571000  1.0
  C  C76  1  0.93537000  0.88270000  0.87610000  1.0
  C  C77  1  0.56463000  0.38269000  0.12389000  1.0
  C  C78  1  0.06463000  0.11731000  0.12389000  1.0
  C  C79  1  0.43537000  0.61730000  0.87611000  1.0
  N  N80  1  0.33504000  0.92307000  0.59589000  1.0
  N  N81  1  0.16496000  0.42307000  0.40411000  1.0
  N  N82  1  0.66496000  0.07693000  0.40411000  1.0
  N  N83  1  0.83505000  0.57693000  0.59590000  1.0
  O  O84  1  0.21907000  0.15070000  0.34846000  1.0
  O  O85  1  0.28094000  0.65070000  0.65153000  1.0
  O  O86  1  0.78093000  0.84930000  0.65154000  1.0
  O  O87  1  0.71908000  0.34932000  0.34846000  1.0
  O  O88  1  0.03744000  0.20992000  0.44654000  1.0
  O  O89  1  0.46255000  0.70992000  0.55346000  1.0
  O  O90  1  0.96255000  0.79007000  0.55346000  1.0
  O  O91  1  0.53747000  0.29008000  0.44653000  1.0
  O  O92  1  0.18429000  0.79986000  0.76260000  1.0
  O  O93  1  0.31573000  0.29985000  0.23741000  1.0
  O  O94  1  0.81571000  0.20015000  0.23740000  1.0
  O  O95  1  0.68427000  0.70015000  0.76261000  1.0
  O  O96  1  0.41865000  0.89637000  0.81021000  1.0
  O  O97  1  0.08133000  0.39637000  0.18979000  1.0
  O  O98  1  0.58133000  0.10362000  0.18979000  1.0
  O  O99  1  0.91866000  0.60363000  0.81021000  1.0
