# generated using pymatgen
data_Zn2H11C36I5N2(O2F)4
_symmetry_space_group_name_H-M   'P 1'
_cell_length_a   9.68478000
_cell_length_b   10.76870000
_cell_length_c   12.95709715
_cell_angle_alpha   84.76345548
_cell_angle_beta   70.30503682
_cell_angle_gamma   88.45890000
_symmetry_Int_Tables_number   1
_chemical_formula_structural   Zn2H11C36I5N2(O2F)4
_chemical_formula_sum   'Zn2 H11 C36 I5 N2 O8 F4'
_cell_volume   1266.95473677
_cell_formula_units_Z   1
loop_
 _symmetry_equiv_pos_site_id
 _symmetry_equiv_pos_as_xyz
  1  'x, y, z'
loop_
 _atom_site_type_symbol
 _atom_site_label
 _atom_site_symmetry_multiplicity
 _atom_site_fract_x
 _atom_site_fract_y
 _atom_site_fract_z
 _atom_site_occupancy
  Zn  Zn0  1  0.87571000  0.49310000  0.45440000  1.0
  Zn  Zn1  1  0.13850000  0.47765000  0.51379000  1.0
  H  H2  1  0.04005000  0.69104000  0.81133000  1.0
  H  H3  1  0.16503000  0.56524000  0.92327000  1.0
  H  H4  1  0.15992000  0.08541000  0.54707000  1.0
  H  H5  1  0.68665000  0.79912000  0.47796000  1.0
  H  H6  1  0.15855000  0.85965000  0.51536000  1.0
  H  H7  1  0.33692000  0.59388000  0.60385000  1.0
  H  H8  1  0.27460000  0.25721000  0.42644000  1.0
  H  H9  1  0.44350000  0.11694000  0.29912000  1.0
  H  H10  1  0.61082000  0.60473000  0.56783000  1.0
  H  H11  1  0.64018000  0.53975000  0.80767000  1.0
  H  H12  1  0.06177000  0.49418000  0.12156000  1.0
  C  C13  1  0.96020000  0.25230000  0.54344000  1.0
  C  C14  1  0.24664000  0.55089000  0.16063000  1.0
  C  C15  1  0.65986000  0.11447000  0.60835000  1.0
  C  C16  1  0.15774000  0.51515000  0.27949000  1.0
  C  C17  1  0.53949000  0.06493000  0.59230000  1.0
  C  C18  1  0.55339000  0.95428000  0.53963000  1.0
  C  C19  1  0.68109000  0.88797000  0.51231000  1.0
  C  C20  1  0.80765000  0.93435000  0.52859000  1.0
  C  C21  1  0.80097000  0.05712000  0.56674000  1.0
  C  C22  1  0.93535000  0.11388000  0.56203000  1.0
  C  C23  1  0.05987000  0.04144000  0.54711000  1.0
  C  C24  1  0.46475000  0.61323000  0.99968000  1.0
  C  C25  1  0.06073000  0.91622000  0.52563000  1.0
  C  C26  1  0.94131000  0.86375000  0.50939000  1.0
  C  C27  1  0.39264000  0.27000000  0.39996000  1.0
  C  C28  1  0.95965000  0.73088000  0.47872000  1.0
  C  C29  1  0.48663000  0.19319000  0.32918000  1.0
  C  C30  1  0.64042000  0.21299000  0.29207000  1.0
  C  C31  1  0.69733000  0.30756000  0.33109000  1.0
  C  C32  1  0.60484000  0.38338000  0.41043000  1.0
  C  C33  1  0.44927000  0.36734000  0.44028000  1.0
  C  C34  1  0.41308000  0.53154000  0.55036000  1.0
  C  C35  1  0.39401000  0.59797000  0.11658000  1.0
  C  C36  1  0.56519000  0.53950000  0.52826000  1.0
  C  C37  1  0.92655000  0.54645000  0.69589000  1.0
  C  C38  1  0.85282000  0.71082000  0.95724000  1.0
  C  C39  1  0.84932000  0.59924000  0.80352000  1.0
  C  C40  1  0.17303000  0.53131000  0.08771000  1.0
  C  C41  1  0.23255000  0.56792000  0.97532000  1.0
  C  C42  1  0.37504000  0.61266000  0.93279000  1.0
  C  C43  1  0.62262000  0.63048000  0.95415000  1.0
  C  C44  1  0.70267000  0.67825000  0.01739000  1.0
  C  C45  1  0.62388000  0.68076000  0.13340000  1.0
  C  C46  1  0.48002000  0.64034000  0.17785000  1.0
  C  C47  1  0.69860000  0.58798000  0.85067000  1.0
  C  C48  1  0.92486000  0.66838000  0.85488000  1.0
  I  I49  1  0.61502333  0.25402000  0.71831000  1.0
  I  I50  1  0.77650000  0.09696000  0.17948000  1.0
  I  I51  1  0.72534000  0.71052000  0.24925000  1.0
  I  I52  1  0.97830000  0.84594000  0.99753000  1.0
  I  I53  1  0.43304000  0.71676000  0.77725000  1.0
  N  N54  1  0.35716000  0.44785000  0.50674000  1.0
  N  N55  1  0.65922000  0.47002000  0.45743000  1.0
  O  O56  1  0.88296000  0.31171000  0.49293000  1.0
  O  O57  1  0.06482000  0.29802000  0.56626000  1.0
  O  O58  1  0.02000000  0.52848000  0.30246000  1.0
  O  O59  1  0.21958000  0.46867000  0.34639000  1.0
  O  O60  1  0.85081000  0.67827000  0.46375000  1.0
  O  O61  1  0.07949000  0.67692000  0.47214000  1.0
  O  O62  1  0.84938000  0.51337000  0.64125000  1.0
  O  O63  1  0.06715000  0.53970000  0.66571000  1.0
  F  F64  1  0.40442000  0.11583000  0.63100000  1.0
  F  F65  1  0.43281000  0.91028000  0.52251000  1.0
  F  F66  1  0.84278000  0.33016000  0.29308000  1.0
  F  F67  1  0.41222000  0.64555000  0.28735000  1.0
