# generated using pymatgen
data_NaH6C8N3O2
_symmetry_space_group_name_H-M   'P 1'
_cell_length_a   3.68806000
_cell_length_b   8.08484000
_cell_length_c   25.92500000
_cell_angle_alpha   97.27830000
_cell_angle_beta   89.99910000
_cell_angle_gamma   89.99990000
_symmetry_Int_Tables_number   1
_chemical_formula_structural   NaH6C8N3O2
_chemical_formula_sum   'Na4 H24 C32 N12 O8'
_cell_volume   766.78687156
_cell_formula_units_Z   4
loop_
 _symmetry_equiv_pos_site_id
 _symmetry_equiv_pos_as_xyz
  1  'x, y, z'
loop_
 _atom_site_type_symbol
 _atom_site_label
 _atom_site_symmetry_multiplicity
 _atom_site_fract_x
 _atom_site_fract_y
 _atom_site_fract_z
 _atom_site_occupancy
  Na  Na0  1  0.75638000  0.88132000  0.95279000  1.0
  Na  Na1  1  0.25639000  0.11869000  0.54721000  1.0
  Na  Na2  1  0.24361000  0.11866000  0.04721000  1.0
  Na  Na3  1  0.74361000  0.88135000  0.45280000  1.0
  H  H4  1  0.14952000  0.58479000  0.97581000  1.0
  H  H5  1  0.64951000  0.41521000  0.52419000  1.0
  H  H6  1  0.85045000  0.41518000  0.02419000  1.0
  H  H7  1  0.35047000  0.58482000  0.47581000  1.0
  H  H8  1  0.71315000  0.63572000  0.83312000  1.0
  H  H9  1  0.21313000  0.36427000  0.66688000  1.0
  H  H10  1  0.28683000  0.36425000  0.16688000  1.0
  H  H11  1  0.78686000  0.63574000  0.33312000  1.0
  H  H12  1  0.94297000  0.54081000  0.77842000  1.0
  H  H13  1  0.44295000  0.45918000  0.72157000  1.0
  H  H14  1  0.05704000  0.45916000  0.22158000  1.0
  H  H15  1  0.55705000  0.54084000  0.27843000  1.0
  H  H16  1  0.89632000  0.24686000  0.75193000  1.0
  H  H17  1  0.39635000  0.75314000  0.74807000  1.0
  H  H18  1  0.10368000  0.75312000  0.24808000  1.0
  H  H19  1  0.60367000  0.24688000  0.25193000  1.0
  H  H20  1  0.77163000  0.96992000  0.77887000  1.0
  H  H21  1  0.27168000  0.03008000  0.72112000  1.0
  H  H22  1  0.22836000  0.03006000  0.22113000  1.0
  H  H23  1  0.72838000  0.96994000  0.27888000  1.0
  H  H24  1  0.46262000  0.94593000  0.86369000  1.0
  H  H25  1  0.96263000  0.05407000  0.63631000  1.0
  H  H26  1  0.53739000  0.05404000  0.13631000  1.0
  H  H27  1  0.03739000  0.94596000  0.36370000  1.0
  C  C28  1  0.27873000  0.19877000  0.93624000  1.0
  C  C29  1  0.77872000  0.80124000  0.56376000  1.0
  C  C30  1  0.72128000  0.80122000  0.06377000  1.0
  C  C31  1  0.22128000  0.19879000  0.43624000  1.0
  C  C32  1  0.40997000  0.51811000  0.90587000  1.0
  C  C33  1  0.90996000  0.48189000  0.59413000  1.0
  C  C34  1  0.58998000  0.48185000  0.09413000  1.0
  C  C35  1  0.09001000  0.51815000  0.40588000  1.0
  C  C36  1  0.50721000  0.37190000  0.87000000  1.0
  C  C37  1  0.00721000  0.62810000  0.63000000  1.0
  C  C38  1  0.49281000  0.62807000  0.13001000  1.0
  C  C39  1  0.99281000  0.37194000  0.37000000  1.0
  C  C40  1  0.67390000  0.38471000  0.82101000  1.0
  C  C41  1  0.17389000  0.61529000  0.67898000  1.0
  C  C42  1  0.32610000  0.61527000  0.17899000  1.0
  C  C43  1  0.82612000  0.38474000  0.32101000  1.0
  C  C44  1  0.76466000  0.23698000  0.78907000  1.0
  C  C45  1  0.26469000  0.76301000  0.71093000  1.0
  C  C46  1  0.23534000  0.76298000  0.21093000  1.0
  C  C47  1  0.73535000  0.23701000  0.28907000  1.0
  C  C48  1  0.69388000  0.08148000  0.80456000  1.0
  C  C49  1  0.19389000  0.91853000  0.69543000  1.0
  C  C50  1  0.30611000  0.91849000  0.19544000  1.0
  C  C51  1  0.80614000  0.08150000  0.30457000  1.0
  C  C52  1  0.52842000  0.06715000  0.85200000  1.0
  C  C53  1  0.02844000  0.93285000  0.64800000  1.0
  C  C54  1  0.47156000  0.93282000  0.14800000  1.0
  C  C55  1  0.97160000  0.06717000  0.35200000  1.0
  C  C56  1  0.43885000  0.21195000  0.88506000  1.0
  C  C57  1  0.93886000  0.78805000  0.61494000  1.0
  C  C58  1  0.56117000  0.78802000  0.11494000  1.0
  C  C59  1  0.06117000  0.21197000  0.38506000  1.0
  N  N60  1  0.17346000  0.33512000  0.96671000  1.0
  N  N61  1  0.67345000  0.66489000  0.53329000  1.0
  N  N62  1  0.82653000  0.66486000  0.03330000  1.0
  N  N63  1  0.32654000  0.33515000  0.46670000  1.0
  N  N64  1  0.24001000  0.48613000  0.94977000  1.0
  N  N65  1  0.74000000  0.51387000  0.55023000  1.0
  N  N66  1  0.75996000  0.51384000  0.05023000  1.0
  N  N67  1  0.25998000  0.48616000  0.44977000  1.0
  N  N68  1  0.73649000  0.53746000  0.80429000  1.0
  N  N69  1  0.23648000  0.46254000  0.69571000  1.0
  N  N70  1  0.26352000  0.46251000  0.19571000  1.0
  N  N71  1  0.76352000  0.53749000  0.30429000  1.0
  O  O72  1  0.24385000  0.05532000  0.95305000  1.0
  O  O73  1  0.74386000  0.94469000  0.54696000  1.0
  O  O74  1  0.75613000  0.94465000  0.04696000  1.0
  O  O75  1  0.25613000  0.05534000  0.45304000  1.0
  O  O76  1  0.47045000  0.66958000  0.89908000  1.0
  O  O77  1  0.97043000  0.33042000  0.60092000  1.0
  O  O78  1  0.52951000  0.33038000  0.10092000  1.0
  O  O79  1  0.02955000  0.66962000  0.39908000  1.0
