# generated using pymatgen
data_BiH16C15S2I2N3O
_symmetry_space_group_name_H-M   'P 1'
_cell_length_a   8.76935000
_cell_length_b   9.46641000
_cell_length_c   12.51900000
_cell_angle_alpha   84.33830000
_cell_angle_beta   87.95950000
_cell_angle_gamma   84.37960000
_symmetry_Int_Tables_number   1
_chemical_formula_structural   BiH16C15S2I2N3O
_chemical_formula_sum   'Bi2 H32 C30 S4 I4 N6 O2'
_cell_volume   1028.86081187
_cell_formula_units_Z   2
loop_
 _symmetry_equiv_pos_site_id
 _symmetry_equiv_pos_as_xyz
  1  'x, y, z'
loop_
 _atom_site_type_symbol
 _atom_site_label
 _atom_site_symmetry_multiplicity
 _atom_site_fract_x
 _atom_site_fract_y
 _atom_site_fract_z
 _atom_site_occupancy
  Bi  Bi0  1  0.52388000  0.53696000  0.81061000  1.0
  Bi  Bi1  1  0.47612000  0.46304000  0.18939000  1.0
  H  H2  1  0.80928000  0.01004000  0.56290000  1.0
  H  H3  1  0.19072000  0.98996000  0.43710000  1.0
  H  H4  1  0.62969000  0.95383000  0.52929000  1.0
  H  H5  1  0.37030000  0.04617000  0.47071000  1.0
  H  H6  1  0.72998000  0.89762000  0.35108000  1.0
  H  H7  1  0.27002000  0.10238000  0.64892000  1.0
  H  H8  1  0.77097000  0.07458000  0.37105000  1.0
  H  H9  1  0.22903000  0.92542000  0.62895000  1.0
  H  H10  1  0.11967000  0.75546000  0.39316000  1.0
  H  H11  1  0.88033000  0.24453000  0.60684000  1.0
  H  H12  1  0.93301000  0.71304000  0.36184000  1.0
  H  H13  1  0.06699000  0.28696000  0.63816000  1.0
  H  H14  1  0.98151000  0.62506000  0.54936000  1.0
  H  H15  1  0.01849000  0.37494000  0.45064000  1.0
  H  H16  1  0.04148000  0.79119000  0.57783000  1.0
  H  H17  1  0.95852000  0.20881000  0.42217000  1.0
  H  H18  1  0.42467000  0.85455000  0.90276000  1.0
  H  H19  1  0.57533000  0.14545000  0.09724000  1.0
  H  H20  1  0.22690000  0.05796000  0.90701000  1.0
  H  H21  1  0.77310000  0.94204000  0.09299000  1.0
  H  H22  1  0.90407000  0.78351000  0.80228000  1.0
  H  H23  1  0.09593000  0.21649000  0.19772000  1.0
  H  H24  1  0.11868000  0.59496000  0.79714000  1.0
  H  H25  1  0.88133000  0.40504000  0.20286000  1.0
  H  H26  1  0.86174000  0.40903000  0.90521000  1.0
  H  H27  1  0.13826000  0.59097000  0.09479000  1.0
  H  H28  1  0.06728000  0.21364000  0.90872000  1.0
  H  H29  1  0.93272000  0.78636000  0.09127000  1.0
  H  H30  1  0.73806000  0.94937000  0.79796000  1.0
  H  H31  1  0.26194000  0.05063000  0.20204000  1.0
  H  H32  1  0.54860000  0.16135000  0.79376000  1.0
  H  H33  1  0.45140000  0.83865000  0.20625000  1.0
  C  C34  1  0.72351000  0.71658000  0.63435000  1.0
  C  C35  1  0.27649000  0.28342000  0.36565000  1.0
  C  C36  1  0.75426000  0.93652000  0.51715000  1.0
  C  C37  1  0.24574000  0.06348000  0.48285000  1.0
  C  C38  1  0.79674000  0.96120000  0.39839000  1.0
  C  C39  1  0.20326000  0.03879000  0.60161000  1.0
  C  C40  1  0.99646000  0.77793000  0.41021000  1.0
  C  C41  1  0.00354000  0.22207000  0.58979000  1.0
  C  C42  1  0.96367000  0.74079000  0.52932000  1.0
  C  C43  1  0.03633000  0.25920000  0.47069000  1.0
  C  C44  1  0.30757000  0.84457000  0.87964000  1.0
  C  C45  1  0.69243000  0.15543000  0.12036000  1.0
  C  C46  1  0.19502000  0.95791000  0.88223000  1.0
  C  C47  1  0.80498000  0.04209000  0.11776000  1.0
  C  C48  1  0.04499000  0.94125000  0.85317000  1.0
  C  C49  1  0.95501000  0.05876000  0.14682000  1.0
  C  C50  1  0.01732000  0.80681000  0.82399000  1.0
  C  C51  1  0.98268000  0.19319000  0.17601000  1.0
  C  C52  1  0.13701000  0.69914000  0.82213000  1.0
  C  C53  1  0.86300000  0.30086000  0.17787000  1.0
  C  C54  1  0.83980000  0.30541000  0.88083000  1.0
  C  C55  1  0.16020000  0.69459000  0.11917000  1.0
  C  C56  1  0.95463000  0.19375000  0.88312000  1.0
  C  C57  1  0.04537000  0.80625000  0.11688000  1.0
  C  C58  1  0.92341000  0.06094000  0.85291000  1.0
  C  C59  1  0.07659000  0.93906000  0.14709000  1.0
  C  C60  1  0.77308000  0.04856000  0.82213000  1.0
  C  C61  1  0.22692000  0.95145000  0.17787000  1.0
  C  C62  1  0.66511000  0.16661000  0.82019000  1.0
  C  C63  1  0.33489000  0.83339000  0.17981000  1.0
  S  S64  1  0.79275000  0.54915000  0.68724000  1.0
  S  S65  1  0.20725000  0.45085000  0.31276000  1.0
  S  S66  1  0.54875000  0.78960000  0.68013000  1.0
  S  S67  1  0.45125000  0.21040000  0.31987000  1.0
  I  I68  1  0.68336000  0.65849000  0.00650000  1.0
  I  I69  1  0.31664000  0.34152000  0.99350000  1.0
  I  I70  1  0.36409000  0.42009000  0.64123000  1.0
  I  I71  1  0.63591000  0.57991000  0.35878000  1.0
  N  N72  1  0.80546000  0.79021000  0.55937000  1.0
  N  N73  1  0.19454000  0.20979000  0.44063000  1.0
  N  N74  1  0.28028000  0.71736000  0.84899000  1.0
  N  N75  1  0.71972000  0.28264000  0.15101000  1.0
  N  N76  1  0.69741000  0.29341000  0.84869000  1.0
  N  N77  1  0.30259000  0.70659000  0.15130000  1.0
  O  O78  1  0.95697000  0.92618000  0.37884000  1.0
  O  O79  1  0.04303000  0.07382000  0.62116000  1.0
