# generated using pymatgen
data_CoH7C7N5O2
_symmetry_space_group_name_H-M   'P 1'
_cell_length_a   15.14000000
_cell_length_b   15.13950000
_cell_length_c   15.37551382
_cell_angle_alpha   119.49226114
_cell_angle_beta   119.49377347
_cell_angle_gamma   90.00100000
_symmetry_Int_Tables_number   1
_chemical_formula_structural   CoH7C7N5O2
_chemical_formula_sum   'Co8 H56 C56 N40 O16'
_cell_volume   2529.71275316
_cell_formula_units_Z   8
loop_
 _symmetry_equiv_pos_site_id
 _symmetry_equiv_pos_as_xyz
  1  'x, y, z'
loop_
 _atom_site_type_symbol
 _atom_site_label
 _atom_site_symmetry_multiplicity
 _atom_site_fract_x
 _atom_site_fract_y
 _atom_site_fract_z
 _atom_site_occupancy
  Co  Co0  1  0.46620000  0.91058000  0.90364000  1.0
  Co  Co1  1  0.93741000  0.99306000  0.90361000  1.0
  Co  Co2  1  0.41045000  0.43738000  0.40356000  1.0
  Co  Co3  1  0.49312000  0.96620000  0.40360000  1.0
  Co  Co4  1  0.53383000  0.08961000  0.09650000  1.0
  Co  Co5  1  0.06264000  0.00688000  0.09648000  1.0
  Co  Co6  1  0.58942000  0.56259000  0.59635000  1.0
  Co  Co7  1  0.50694000  0.03380000  0.59640000  1.0
  H  H8  1  0.46388000  0.89746000  0.67732000  1.0
  H  H9  1  0.71345000  0.77982000  0.67730000  1.0
  H  H10  1  0.39747000  0.21337000  0.17730000  1.0
  H  H11  1  0.27981000  0.96393000  0.17727000  1.0
  H  H12  1  0.53608000  0.10251000  0.32269000  1.0
  H  H13  1  0.28659000  0.22018000  0.32268000  1.0
  H  H14  1  0.60252000  0.78661000  0.82272000  1.0
  H  H15  1  0.72018000  0.03611000  0.82270000  1.0
  H  H16  1  0.64508000  0.33446000  0.19536000  1.0
  H  H17  1  0.05024000  0.86090000  0.19537000  1.0
  H  H18  1  0.83442000  0.55030000  0.69534000  1.0
  H  H19  1  0.36095000  0.14501000  0.69533000  1.0
  H  H20  1  0.35496000  0.66559000  0.80462000  1.0
  H  H21  1  0.94965000  0.13903000  0.80462000  1.0
  H  H22  1  0.16553000  0.44977000  0.30467000  1.0
  H  H23  1  0.63916000  0.85487000  0.30466000  1.0
  H  H24  1  0.68094000  0.39268000  0.95836000  1.0
  H  H25  1  0.77739000  0.56567000  0.95835000  1.0
  H  H26  1  0.89269000  0.27745000  0.45838000  1.0
  H  H27  1  0.06568000  0.18091000  0.45837000  1.0
  H  H28  1  0.31910000  0.60732000  0.04165000  1.0
  H  H29  1  0.22254000  0.43432000  0.04163000  1.0
  H  H30  1  0.10730000  0.72263000  0.54168000  1.0
  H  H31  1  0.93437000  0.81903000  0.54166000  1.0
  H  H32  1  0.63314000  0.27085000  0.81669000  1.0
  H  H33  1  0.68355000  0.54584000  0.81668000  1.0
  H  H34  1  0.77085000  0.18357000  0.31670000  1.0
  H  H35  1  0.04584000  0.13311000  0.31669000  1.0
  H  H36  1  0.36692000  0.72917000  0.18329000  1.0
  H  H37  1  0.31637000  0.45412000  0.18328000  1.0
  H  H38  1  0.22913000  0.81649000  0.68336000  1.0
  H  H39  1  0.95423000  0.86683000  0.68334000  1.0
  H  H40  1  0.14650000  0.97544000  0.74163000  1.0
  H  H41  1  0.09508000  0.76621000  0.74163000  1.0
  H  H42  1  0.47536000  0.59507000  0.24157000  1.0
  H  H43  1  0.26621000  0.64651000  0.24157000  1.0
  H  H44  1  0.85344000  0.02465000  0.25839000  1.0
  H  H45  1  0.90493000  0.23374000  0.25841000  1.0
  H  H46  1  0.52460000  0.40491000  0.75843000  1.0
  H  H47  1  0.73384000  0.35350000  0.75841000  1.0
  H  H48  1  0.21558000  0.11656000  0.84714000  1.0
  H  H49  1  0.13153000  0.73057000  0.84711000  1.0
  H  H50  1  0.61648000  0.63150000  0.34706000  1.0
  H  H51  1  0.23058000  0.71559000  0.34706000  1.0
  H  H52  1  0.78437000  0.88355000  0.15291000  1.0
  H  H53  1  0.86853000  0.26936000  0.15291000  1.0
  H  H54  1  0.38346000  0.36845000  0.65290000  1.0
  H  H55  1  0.76945000  0.28447000  0.65288000  1.0
  H  H56  1  0.16584000  0.04662000  0.88612000  1.0
  H  H57  1  0.22023000  0.83950000  0.88610000  1.0
  H  H58  1  0.54658000  0.72025000  0.38604000  1.0
  H  H59  1  0.33946000  0.66581000  0.38604000  1.0
  H  H60  1  0.83413000  0.95342000  0.11393000  1.0
  H  H61  1  0.77978000  0.16050000  0.11392000  1.0
  H  H62  1  0.45341000  0.27976000  0.61389000  1.0
  H  H63  1  0.66049000  0.33412000  0.61387000  1.0
  C  C64  1  0.49993000  0.97875000  0.75727000  1.0
  C  C65  1  0.75734000  0.77850000  0.75726000  1.0
  C  C66  1  0.47874000  0.25733000  0.25727000  1.0
  C  C67  1  0.27853000  0.99995000  0.25726000  1.0
  C  C68  1  0.50006000  0.02123000  0.24274000  1.0
  C  C69  1  0.24267000  0.22150000  0.24274000  1.0
  C  C70  1  0.52122000  0.74269000  0.74275000  1.0
  C  C71  1  0.72153000  0.00007000  0.74275000  1.0
  C  C72  1  0.55782000  0.11341000  0.93586000  1.0
  C  C73  1  0.87803000  0.82245000  0.93587000  1.0
  C  C74  1  0.61336000  0.37803000  0.43586000  1.0
  C  C75  1  0.32252000  0.05784000  0.43585000  1.0
  C  C76  1  0.44219000  0.88664000  0.06414000  1.0
  C  C77  1  0.12195000  0.17749000  0.06413000  1.0
  C  C78  1  0.38658000  0.62199000  0.56415000  1.0
  C  C79  1  0.67759000  0.94216000  0.56415000  1.0
  C  C80  1  0.62494000  0.28075000  0.10356000  1.0
  C  C81  1  0.97859000  0.82281000  0.10357000  1.0
  C  C82  1  0.78070000  0.47865000  0.60353000  1.0
  C  C83  1  0.32284000  0.12487000  0.60352000  1.0
  C  C84  1  0.37511000  0.71929000  0.89643000  1.0
  C  C85  1  0.02132000  0.17713000  0.89642000  1.0
  C  C86  1  0.21926000  0.52141000  0.39646000  1.0
  C  C87  1  0.67721000  0.87503000  0.39645000  1.0
  C  C88  1  0.62010000  0.26290000  0.94148000  1.0
  C  C89  1  0.82137000  0.67858000  0.94150000  1.0
  C  C90  1  0.76290000  0.32143000  0.44151000  1.0
  C  C91  1  0.17861000  0.12009000  0.44151000  1.0
  C  C92  1  0.37993000  0.73710000  0.05849000  1.0
  C  C93  1  0.17856000  0.32139000  0.05848000  1.0
  C  C94  1  0.23708000  0.67864000  0.55855000  1.0
  C  C95  1  0.82148000  0.87989000  0.55855000  1.0
  C  C96  1  0.57205000  0.15106000  0.87482000  1.0
  C  C97  1  0.80276000  0.72375000  0.87482000  1.0
  C  C98  1  0.65104000  0.30279000  0.37484000  1.0
  C  C99  1  0.22381000  0.07206000  0.37484000  1.0
  C  C100  1  0.42797000  0.84895000  0.12516000  1.0
  C  C101  1  0.19719000  0.27620000  0.12515000  1.0
  C  C102  1  0.34893000  0.69726000  0.62522000  1.0
  C  C103  1  0.77630000  0.92796000  0.62522000  1.0
  C  C104  1  0.30782000  0.02127000  0.89406000  1.0
  C  C105  1  0.08621000  0.87278000  0.89405000  1.0
  C  C106  1  0.52118000  0.58620000  0.39401000  1.0
  C  C107  1  0.37283000  0.80781000  0.39399000  1.0
  C  C108  1  0.69215000  0.97880000  0.10595000  1.0
  C  C109  1  0.91380000  0.12715000  0.10595000  1.0
  C  C110  1  0.47874000  0.41381000  0.60595000  1.0
  C  C111  1  0.62723000  0.19214000  0.60593000  1.0
  C  C112  1  0.20226000  0.04010000  0.83754000  1.0
  C  C113  1  0.13524000  0.79743000  0.83751000  1.0
  C  C114  1  0.54003000  0.63525000  0.33748000  1.0
  C  C115  1  0.29746000  0.70224000  0.33748000  1.0
  C  C116  1  0.79770000  0.95999000  0.16250000  1.0
  C  C117  1  0.86478000  0.20251000  0.16249000  1.0
  C  C118  1  0.45995000  0.36477000  0.66253000  1.0
  C  C119  1  0.70260000  0.29774000  0.66250000  1.0
  N  N120  1  0.51334000  0.00487000  0.86196000  1.0
  N  N121  1  0.84861000  0.85708000  0.86195000  1.0
  N  N122  1  0.50481000  0.34859000  0.36195000  1.0
  N  N123  1  0.35715000  0.01337000  0.36194000  1.0
  N  N124  1  0.48666000  0.99518000  0.13807000  1.0
  N  N125  1  0.15141000  0.14288000  0.13806000  1.0
  N  N126  1  0.49512000  0.65142000  0.63805000  1.0
  N  N127  1  0.64294000  0.98664000  0.63804000  1.0
  N  N128  1  0.58247000  0.17559000  0.04972000  1.0
  N  N129  1  0.96725000  0.87413000  0.04972000  1.0
  N  N130  1  0.67552000  0.46726000  0.54971000  1.0
  N  N131  1  0.37419000  0.08244000  0.54969000  1.0
  N  N132  1  0.41756000  0.82447000  0.95029000  1.0
  N  N133  1  0.03273000  0.12581000  0.95028000  1.0
  N  N134  1  0.32442000  0.53278000  0.45029000  1.0
  N  N135  1  0.62588000  0.91751000  0.45028000  1.0
  N  N136  1  0.64495000  0.32531000  0.05638000  1.0
  N  N137  1  0.91141000  0.73107000  0.05640000  1.0
  N  N138  1  0.82529000  0.41150000  0.55637000  1.0
  N  N139  1  0.23109000  0.14487000  0.55637000  1.0
  N  N140  1  0.35512000  0.67471000  0.94360000  1.0
  N  N141  1  0.08848000  0.26888000  0.94360000  1.0
  N  N142  1  0.17468000  0.58857000  0.44364000  1.0
  N  N143  1  0.76896000  0.85504000  0.44363000  1.0
  N  N144  1  0.53324000  0.06253000  0.75899000  1.0
  N  N145  1  0.72574000  0.69645000  0.75898000  1.0
  N  N146  1  0.56251000  0.22576000  0.25900000  1.0
  N  N147  1  0.19649000  0.03324000  0.25899000  1.0
  N  N148  1  0.46679000  0.93746000  0.24103000  1.0
  N  N149  1  0.27424000  0.30355000  0.24101000  1.0
  N  N150  1  0.43745000  0.77427000  0.74102000  1.0
  N  N151  1  0.80357000  0.96675000  0.74102000  1.0
  N  N152  1  0.64280000  0.31272000  0.89927000  1.0
  N  N153  1  0.75647000  0.58654000  0.89926000  1.0
  N  N154  1  0.81273000  0.25651000  0.39929000  1.0
  N  N155  1  0.08657000  0.14277000  0.39929000  1.0
  N  N156  1  0.35725000  0.68728000  0.10071000  1.0
  N  N157  1  0.24346000  0.41342000  0.10069000  1.0
  N  N158  1  0.18725000  0.74355000  0.60078000  1.0
  N  N159  1  0.91353000  0.85720000  0.60077000  1.0
  O  O160  1  0.31937000  0.93315000  0.83082000  1.0
  O  O161  1  0.01141000  0.89767000  0.83082000  1.0
  O  O162  1  0.43309000  0.51140000  0.33080000  1.0
  O  O163  1  0.39769000  0.81940000  0.33076000  1.0
  O  O164  1  0.68059000  0.06689000  0.16919000  1.0
  O  O165  1  0.98859000  0.10230000  0.16921000  1.0
  O  O166  1  0.56684000  0.48860000  0.66916000  1.0
  O  O167  1  0.60233000  0.18056000  0.66913000  1.0
  O  O168  1  0.38138000  0.09394000  0.00330000  1.0
  O  O169  1  0.12192000  0.90939000  0.00330000  1.0
  O  O170  1  0.59383000  0.62188000  0.50326000  1.0
  O  O171  1  0.40946000  0.88138000  0.50324000  1.0
  O  O172  1  0.61861000  0.90615000  0.99670000  1.0
  O  O173  1  0.87811000  0.09054000  0.99670000  1.0
  O  O174  1  0.40608000  0.37813000  0.49670000  1.0
  O  O175  1  0.59066000  0.11855000  0.49668000  1.0
