# generated using pymatgen
data_AlH22C22N2O5
_symmetry_space_group_name_H-M   'P 1'
_cell_length_a   6.77503000
_cell_length_b   22.52700000
_cell_length_c   26.46110000
_cell_angle_alpha   78.94300000
_cell_angle_beta   89.99920000
_cell_angle_gamma   89.99980000
_symmetry_Int_Tables_number   1
_chemical_formula_structural   AlH22C22N2O5
_chemical_formula_sum   'Al4 H88 C88 N8 O20'
_cell_volume   3963.55461257
_cell_formula_units_Z   4
loop_
 _symmetry_equiv_pos_site_id
 _symmetry_equiv_pos_as_xyz
  1  'x, y, z'
loop_
 _atom_site_type_symbol
 _atom_site_label
 _atom_site_symmetry_multiplicity
 _atom_site_fract_x
 _atom_site_fract_y
 _atom_site_fract_z
 _atom_site_occupancy
  Al  Al0  1  0.20404000  0.24964000  0.74905000  1.0
  Al  Al1  1  0.79204000  0.75013000  0.25185000  1.0
  Al  Al2  1  0.70404000  0.25036000  0.75095000  1.0
  Al  Al3  1  0.29204000  0.74987000  0.24815000  1.0
  H  H4  1  0.71011000  0.44100000  0.48943000  1.0
  H  H5  1  0.30422000  0.55749000  0.51118000  1.0
  H  H6  1  0.21013000  0.05900000  0.01059000  1.0
  H  H7  1  0.80422000  0.94251000  0.98882000  1.0
  H  H8  1  0.04393000  0.45231000  0.42470000  1.0
  H  H9  1  0.96630000  0.54710000  0.57521000  1.0
  H  H10  1  0.54397000  0.04770000  0.07530000  1.0
  H  H11  1  0.46629000  0.95290000  0.92479000  1.0
  H  H12  1  0.74258000  0.54467000  0.10127000  1.0
  H  H13  1  0.24103000  0.38130000  0.95515000  1.0
  H  H14  1  0.24258000  0.95533000  0.39873000  1.0
  H  H15  1  0.74106000  0.11869000  0.54486000  1.0
  H  H16  1  0.31791000  0.67182000  0.12116000  1.0
  H  H17  1  0.67224000  0.37643000  0.84102000  1.0
  H  H18  1  0.81792000  0.82819000  0.37884000  1.0
  H  H19  1  0.17227000  0.12358000  0.65898000  1.0
  H  H20  1  0.39373000  0.66846000  0.44566000  1.0
  H  H21  1  0.62213000  0.69086000  0.41461000  1.0
  H  H22  1  0.42726000  0.66467000  0.37988000  1.0
  H  H23  1  0.68395000  0.58476000  0.40344000  1.0
  H  H24  1  0.46146000  0.56035000  0.43471000  1.0
  H  H25  1  0.58312000  0.57534000  0.51771000  1.0
  H  H26  1  0.76044000  0.62788000  0.48873000  1.0
  H  H27  1  0.59148000  0.32945000  0.49336000  1.0
  H  H28  1  0.55118000  0.31980000  0.56070000  1.0
  H  H29  1  0.44956000  0.26732000  0.52562000  1.0
  H  H30  1  0.18671000  0.33794000  0.54514000  1.0
  H  H31  1  0.22605000  0.34956000  0.47797000  1.0
  H  H32  1  0.44278000  0.43794000  0.48213000  1.0
  H  H33  1  0.41709000  0.42547000  0.54987000  1.0
  H  H34  1  0.89374000  0.83154000  0.05434000  1.0
  H  H35  1  0.12212000  0.80913000  0.08539000  1.0
  H  H36  1  0.92727000  0.83533000  0.12012000  1.0
  H  H37  1  0.18397000  0.91524000  0.09656000  1.0
  H  H38  1  0.96149000  0.93965000  0.06529000  1.0
  H  H39  1  0.08316000  0.92466000  0.98229000  1.0
  H  H40  1  0.26047000  0.87212000  0.01127000  1.0
  H  H41  1  0.09149000  0.17056000  0.00663000  1.0
  H  H42  1  0.05119000  0.18021000  0.93929000  1.0
  H  H43  1  0.94955000  0.23268000  0.97437000  1.0
  H  H44  1  0.68671000  0.16206000  0.95486000  1.0
  H  H45  1  0.72607000  0.15044000  0.02203000  1.0
  H  H46  1  0.94280000  0.06206000  0.01787000  1.0
  H  H47  1  0.91711000  0.07452000  0.95013000  1.0
  H  H48  1  0.57531000  0.57187000  0.16617000  1.0
  H  H49  1  0.71306000  0.59326000  0.21723000  1.0
  H  H50  1  0.60031000  0.64935000  0.17139000  1.0
  H  H51  1  0.40487000  0.30720000  0.92431000  1.0
  H  H52  1  0.26723000  0.25650000  0.89391000  1.0
  H  H53  1  0.39108000  0.31721000  0.85577000  1.0
  H  H54  1  0.07532000  0.92813000  0.33384000  1.0
  H  H55  1  0.21308000  0.90674000  0.28277000  1.0
  H  H56  1  0.10032000  0.85065000  0.32862000  1.0
  H  H57  1  0.90488000  0.19280000  0.57569000  1.0
  H  H58  1  0.76723000  0.24350000  0.60609000  1.0
  H  H59  1  0.89110000  0.18279000  0.64423000  1.0
  H  H60  1  0.64692000  0.67480000  0.97323000  1.0
  H  H61  1  0.58271000  0.60696000  0.95303000  1.0
  H  H62  1  0.49774000  0.67752000  0.91745000  1.0
  H  H63  1  0.22281000  0.62507000  0.97164000  1.0
  H  H64  1  0.28738000  0.69201000  0.99275000  1.0
  H  H65  1  0.50131000  0.63158000  0.06202000  1.0
  H  H66  1  0.42979000  0.56460000  0.04158000  1.0
  H  H67  1  0.26822000  0.51254000  0.85880000  1.0
  H  H68  1  0.34501000  0.54597000  0.91107000  1.0
  H  H69  1  0.37623000  0.58590000  0.84687000  1.0
  H  H70  1  0.69929000  0.54087000  0.88413000  1.0
  H  H71  1  0.62715000  0.50895000  0.83088000  1.0
  H  H72  1  0.47709000  0.42161000  0.89061000  1.0
  H  H73  1  0.55365000  0.45254000  0.94413000  1.0
  H  H74  1  0.14693000  0.82519000  0.52677000  1.0
  H  H75  1  0.08272000  0.89304000  0.54697000  1.0
  H  H76  1  0.99774000  0.82247000  0.58254000  1.0
  H  H77  1  0.72282000  0.87492000  0.52836000  1.0
  H  H78  1  0.78741000  0.80799000  0.50724000  1.0
  H  H79  1  0.00132000  0.86843000  0.43798000  1.0
  H  H80  1  0.92981000  0.93540000  0.45843000  1.0
  H  H81  1  0.76822000  0.98746000  0.64120000  1.0
  H  H82  1  0.84504000  0.95403000  0.58892000  1.0
  H  H83  1  0.87622000  0.91410000  0.65312000  1.0
  H  H84  1  0.19930000  0.95913000  0.61588000  1.0
  H  H85  1  0.12714000  0.99104000  0.66912000  1.0
  H  H86  1  0.97710000  0.07839000  0.60939000  1.0
  H  H87  1  0.05369000  0.04746000  0.55587000  1.0
  H  H88  1  0.45365000  0.32770000  0.72730000  1.0
  H  H89  1  0.54069000  0.67137000  0.26995000  1.0
  H  H90  1  0.95365000  0.17230000  0.77270000  1.0
  H  H91  1  0.04070000  0.82863000  0.23005000  1.0
  C  C92  1  0.45787000  0.19006000  0.68359000  1.0
  C  C93  1  0.53839000  0.81465000  0.31310000  1.0
  C  C94  1  0.95786000  0.30995000  0.81641000  1.0
  C  C95  1  0.03837000  0.68535000  0.18690000  1.0
  C  C96  1  0.45175000  0.16987000  0.82466000  1.0
  C  C97  1  0.54478000  0.83000000  0.17508000  1.0
  C  C98  1  0.95177000  0.33013000  0.67534000  1.0
  C  C99  1  0.04479000  0.67000000  0.32492000  1.0
  C  C100  1  0.02632000  0.47293000  0.45866000  1.0
  C  C101  1  0.98576000  0.52649000  0.54130000  1.0
  C  C102  1  0.52634000  0.02707000  0.04134000  1.0
  C  C103  1  0.48577000  0.97351000  0.95870000  1.0
  C  C104  1  0.84033000  0.46786000  0.49378000  1.0
  C  C105  1  0.17164000  0.53173000  0.50621000  1.0
  C  C106  1  0.34035000  0.03214000  0.00622000  1.0
  C  C107  1  0.67165000  0.96827000  0.99379000  1.0
  C  C108  1  0.95018000  0.37516000  0.62895000  1.0
  C  C109  1  0.05162000  0.62445000  0.37095000  1.0
  C  C110  1  0.45014000  0.12485000  0.87105000  1.0
  C  C111  1  0.55162000  0.87555000  0.12905000  1.0
  C  C112  1  0.16543000  0.46206000  0.50673000  1.0
  C  C113  1  0.84726000  0.53781000  0.49323000  1.0
  C  C114  1  0.66547000  0.03793000  0.99327000  1.0
  C  C115  1  0.34728000  0.96219000  0.00678000  1.0
  C  C116  1  0.97645000  0.45592000  0.54318000  1.0
  C  C117  1  0.03596000  0.54345000  0.45671000  1.0
  C  C118  1  0.47645000  0.04409000  0.95683000  1.0
  C  C119  1  0.53597000  0.95655000  0.04329000  1.0
  C  C120  1  0.95469000  0.41230000  0.58883000  1.0
  C  C121  1  0.05415000  0.58713000  0.41095000  1.0
  C  C122  1  0.45466000  0.08770000  0.91118000  1.0
  C  C123  1  0.55413000  0.91287000  0.08906000  1.0
  C  C124  1  0.85984000  0.60919000  0.14329000  1.0
  C  C125  1  0.12780000  0.34305000  0.89289000  1.0
  C  C126  1  0.35985000  0.89081000  0.35671000  1.0
  C  C127  1  0.62781000  0.15696000  0.60711000  1.0
  C  C128  1  0.86908000  0.57307000  0.10597000  1.0
  C  C129  1  0.11667000  0.38023000  0.92928000  1.0
  C  C130  1  0.36908000  0.92694000  0.39403000  1.0
  C  C131  1  0.61669000  0.11977000  0.57073000  1.0
  C  C132  1  0.03459000  0.57077000  0.07455000  1.0
  C  C133  1  0.95406000  0.41782000  0.93430000  1.0
  C  C134  1  0.53458000  0.92924000  0.42545000  1.0
  C  C135  1  0.45408000  0.08217000  0.56571000  1.0
  C  C136  1  0.20188000  0.60680000  0.07921000  1.0
  C  C137  1  0.78498000  0.41563000  0.90292000  1.0
  C  C138  1  0.70189000  0.89321000  0.42078000  1.0
  C  C139  1  0.28499000  0.08436000  0.59709000  1.0
  C  C140  1  0.19226000  0.64319000  0.11634000  1.0
  C  C141  1  0.79801000  0.37857000  0.86630000  1.0
  C  C142  1  0.69227000  0.85682000  0.38366000  1.0
  C  C143  1  0.29802000  0.12143000  0.63370000  1.0
  C  C144  1  0.02783000  0.64509000  0.14820000  1.0
  C  C145  1  0.96365000  0.34393000  0.85965000  1.0
  C  C146  1  0.52785000  0.85492000  0.35180000  1.0
  C  C147  1  0.46365000  0.15607000  0.64035000  1.0
  C  C148  1  0.97415000  0.45801000  0.97198000  1.0
  C  C149  1  0.01916000  0.53037000  0.03697000  1.0
  C  C150  1  0.47416000  0.04199000  0.52802000  1.0
  C  C151  1  0.51918000  0.96964000  0.46303000  1.0
  C  C152  1  0.68845000  0.58476000  0.48531000  1.0
  C  C153  1  0.58126000  0.59366000  0.43323000  1.0
  C  C154  1  0.50095000  0.65788000  0.41740000  1.0
  C  C155  1  0.34014000  0.42100000  0.51398000  1.0
  C  C156  1  0.29530000  0.35422000  0.51472000  1.0
  C  C157  1  0.48169000  0.31543000  0.52400000  1.0
  C  C158  1  0.18848000  0.91524000  0.01469000  1.0
  C  C159  1  0.08129000  0.90634000  0.06677000  1.0
  C  C160  1  0.00095000  0.84212000  0.08260000  1.0
  C  C161  1  0.84016000  0.07900000  0.98601000  1.0
  C  C162  1  0.79531000  0.14578000  0.98528000  1.0
  C  C163  1  0.98169000  0.18457000  0.97599000  1.0
  C  C164  1  0.67709000  0.60579000  0.17605000  1.0
  C  C165  1  0.30768000  0.30414000  0.89172000  1.0
  C  C166  1  0.17710000  0.89421000  0.32396000  1.0
  C  C167  1  0.80769000  0.19586000  0.60828000  1.0
  C  C168  1  0.37964000  0.61020000  0.04453000  1.0
  C  C169  1  0.34222000  0.64666000  0.98997000  1.0
  C  C170  1  0.52729000  0.65184000  0.95641000  1.0
  C  C171  1  0.59241000  0.44880000  0.90463000  1.0
  C  C172  1  0.58695000  0.51222000  0.87064000  1.0
  C  C173  1  0.38290000  0.54087000  0.87172000  1.0
  C  C174  1  0.87965000  0.88980000  0.45547000  1.0
  C  C175  1  0.84223000  0.85334000  0.51003000  1.0
  C  C176  1  0.02729000  0.84815000  0.54359000  1.0
  C  C177  1  0.09243000  0.05120000  0.59538000  1.0
  C  C178  1  0.08696000  0.98777000  0.62936000  1.0
  C  C179  1  0.88291000  0.95913000  0.62827000  1.0
  N  N180  1  0.17090000  0.49301000  0.03102000  1.0
  N  N181  1  0.82430000  0.49584000  0.97794000  1.0
  N  N182  1  0.67092000  0.00699000  0.46898000  1.0
  N  N183  1  0.32432000  0.00415000  0.52207000  1.0
  N  N184  1  0.14682000  0.45597000  0.99863000  1.0
  N  N185  1  0.84578000  0.53172000  0.01145000  1.0
  N  N186  1  0.64685000  0.04403000  0.50137000  1.0
  N  N187  1  0.34579000  0.96828000  0.48855000  1.0
  O  O188  1  0.62086000  0.18842000  0.80716000  1.0
  O  O189  1  0.37406000  0.81133000  0.19123000  1.0
  O  O190  1  0.12087000  0.31158000  0.69285000  1.0
  O  O191  1  0.87406000  0.68866000  0.30877000  1.0
  O  O192  1  0.28793000  0.20237000  0.69976000  1.0
  O  O193  1  0.70968000  0.79888000  0.30026000  1.0
  O  O194  1  0.78792000  0.29763000  0.80024000  1.0
  O  O195  1  0.20966000  0.70112000  0.19974000  1.0
  O  O196  1  0.28445000  0.18724000  0.80515000  1.0
  O  O197  1  0.71009000  0.81240000  0.19570000  1.0
  O  O198  1  0.78448000  0.31276000  0.69485000  1.0
  O  O199  1  0.21011000  0.68760000  0.30430000  1.0
  O  O200  1  0.12297000  0.29752000  0.79796000  1.0
  O  O201  1  0.87518000  0.70060000  0.20459000  1.0
  O  O202  1  0.62296000  0.20248000  0.70204000  1.0
  O  O203  1  0.37520000  0.79941000  0.29541000  1.0
  O  O204  1  0.45350000  0.28688000  0.74741000  1.0
  O  O205  1  0.54249000  0.71343000  0.25276000  1.0
  O  O206  1  0.95349000  0.21312000  0.75260000  1.0
  O  O207  1  0.04249000  0.78657000  0.24724000  1.0
