# generated using pymatgen
data_CuH5C7BrN2
_symmetry_space_group_name_H-M   'P 1'
_cell_length_a   9.21332000
_cell_length_b   9.93034000
_cell_length_c   9.93045000
_cell_angle_alpha   114.73900000
_cell_angle_beta   102.01800000
_cell_angle_gamma   102.01700000
_symmetry_Int_Tables_number   1
_chemical_formula_structural   CuH5C7BrN2
_chemical_formula_sum   'Cu4 H20 C28 Br4 N8'
_cell_volume   761.16972073
_cell_formula_units_Z   4
loop_
 _symmetry_equiv_pos_site_id
 _symmetry_equiv_pos_as_xyz
  1  'x, y, z'
loop_
 _atom_site_type_symbol
 _atom_site_label
 _atom_site_symmetry_multiplicity
 _atom_site_fract_x
 _atom_site_fract_y
 _atom_site_fract_z
 _atom_site_occupancy
  Cu  Cu0  1  0.87546000  0.81803000  0.13466000  1.0
  Cu  Cu1  1  0.37546000  0.13467000  0.81803000  1.0
  Cu  Cu2  1  0.12454000  0.18197000  0.86533000  1.0
  Cu  Cu3  1  0.62454000  0.86533000  0.18197000  1.0
  H  H4  1  0.69082000  0.55183000  0.18826000  1.0
  H  H5  1  0.19082000  0.18826000  0.55183000  1.0
  H  H6  1  0.30918000  0.44817000  0.81174000  1.0
  H  H7  1  0.80918000  0.81174000  0.44817000  1.0
  H  H8  1  0.75956000  0.34342000  0.24183000  1.0
  H  H9  1  0.25956000  0.24184000  0.34342000  1.0
  H  H10  1  0.24044000  0.65658000  0.75816000  1.0
  H  H11  1  0.74044000  0.75816000  0.65658000  1.0
  H  H12  1  0.02738000  0.32218000  0.25298000  1.0
  H  H13  1  0.52738000  0.25298000  0.32218000  1.0
  H  H14  1  0.97262000  0.67782000  0.74702000  1.0
  H  H15  1  0.47262000  0.74702000  0.67782000  1.0
  H  H16  1  0.21753000  0.51150000  0.21542000  1.0
  H  H17  1  0.71753000  0.21542000  0.51150000  1.0
  H  H18  1  0.78247000  0.48850000  0.78458000  1.0
  H  H19  1  0.28247000  0.78458000  0.48850000  1.0
  H  H20  1  0.11553000  0.98597000  0.01889000  1.0
  H  H21  1  0.61553000  0.01890000  0.98597000  1.0
  H  H22  1  0.88448000  0.01403000  0.98111000  1.0
  H  H23  1  0.38448000  0.98110000  0.01403000  1.0
  C  C24  1  0.80922000  0.54458000  0.20437000  1.0
  C  C25  1  0.30922000  0.20437000  0.54458000  1.0
  C  C26  1  0.19078000  0.45542000  0.79563000  1.0
  C  C27  1  0.69078000  0.79563000  0.45542000  1.0
  C  C28  1  0.84694000  0.42715000  0.23073000  1.0
  C  C29  1  0.34694000  0.23073000  0.42715000  1.0
  C  C30  1  0.15306000  0.57285000  0.76927000  1.0
  C  C31  1  0.65306000  0.76927000  0.57285000  1.0
  C  C32  1  0.99714000  0.41685000  0.23852000  1.0
  C  C33  1  0.49714000  0.23852000  0.41685000  1.0
  C  C34  1  0.00286000  0.58315000  0.76148000  1.0
  C  C35  1  0.50286000  0.76148000  0.58315000  1.0
  C  C36  1  0.10412000  0.52420000  0.22104000  1.0
  C  C37  1  0.60412000  0.22105000  0.52421000  1.0
  C  C38  1  0.89588000  0.47580000  0.77895000  1.0
  C  C39  1  0.39588000  0.77896000  0.47580000  1.0
  C  C40  1  0.06227000  0.64672000  0.20688000  1.0
  C  C41  1  0.56227000  0.20689000  0.64672000  1.0
  C  C42  1  0.93773000  0.35328000  0.79311000  1.0
  C  C43  1  0.43773000  0.79312000  0.35329000  1.0
  C  C44  1  0.16692000  0.76752000  0.18949000  1.0
  C  C45  1  0.66692000  0.18949000  0.76752000  1.0
  C  C46  1  0.83308000  0.23247000  0.81051000  1.0
  C  C47  1  0.33308000  0.81051000  0.23248000  1.0
  C  C48  1  0.17341000  0.92489000  0.06976000  1.0
  C  C49  1  0.67341000  0.06976000  0.92489000  1.0
  C  C50  1  0.82659000  0.07511000  0.93024000  1.0
  C  C51  1  0.32659000  0.93024000  0.07511000  1.0
  Br  Br52  1  0.87897000  0.08133000  0.30795000  1.0
  Br  Br53  1  0.37896000  0.30794000  0.08132000  1.0
  Br  Br54  1  0.12103000  0.91867000  0.69206000  1.0
  Br  Br55  1  0.62103000  0.69206000  0.91867000  1.0
  N  N56  1  0.91539000  0.65521000  0.19764000  1.0
  N  N57  1  0.41539000  0.19764000  0.65521000  1.0
  N  N58  1  0.08461000  0.34479000  0.80236000  1.0
  N  N59  1  0.58461000  0.80236000  0.34479000  1.0
  N  N60  1  0.09191000  0.83785000  0.11944000  1.0
  N  N61  1  0.59191000  0.11944000  0.83785000  1.0
  N  N62  1  0.90808000  0.16215000  0.88056000  1.0
  N  N63  1  0.40809000  0.88056000  0.16216000  1.0
