# generated using pymatgen
data_NaPH8(CO2)3
_symmetry_space_group_name_H-M   'P 1'
_cell_length_a   6.01619000
_cell_length_b   9.53465000
_cell_length_c   12.40530000
_cell_angle_alpha   89.99980000
_cell_angle_beta   92.28280000
_cell_angle_gamma   89.99990000
_symmetry_Int_Tables_number   1
_chemical_formula_structural   NaPH8(CO2)3
_chemical_formula_sum   'Na4 P4 H32 C12 O24'
_cell_volume   711.03139376
_cell_formula_units_Z   4
loop_
 _symmetry_equiv_pos_site_id
 _symmetry_equiv_pos_as_xyz
  1  'x, y, z'
loop_
 _atom_site_type_symbol
 _atom_site_label
 _atom_site_symmetry_multiplicity
 _atom_site_fract_x
 _atom_site_fract_y
 _atom_site_fract_z
 _atom_site_occupancy
  Na  Na0  1  0.96992000  0.98408000  0.64283000  1.0
  Na  Na1  1  0.53008000  0.48407000  0.85717000  1.0
  Na  Na2  1  0.03008000  0.01593000  0.35717000  1.0
  Na  Na3  1  0.46991000  0.51592000  0.14283000  1.0
  P  P4  1  0.57439000  0.72176000  0.64446000  1.0
  P  P5  1  0.92561000  0.22178000  0.85556000  1.0
  P  P6  1  0.42561000  0.27824000  0.35553000  1.0
  P  P7  1  0.07439000  0.77822000  0.14444000  1.0
  H  H8  1  0.68173000  0.62532000  0.57678000  1.0
  H  H9  1  0.81828000  0.12533000  0.92322000  1.0
  H  H10  1  0.31827000  0.37468000  0.42322000  1.0
  H  H11  1  0.18172000  0.87467000  0.07678000  1.0
  H  H12  1  0.33166000  0.46793000  0.56924000  1.0
  H  H13  1  0.16834000  0.96793000  0.93076000  1.0
  H  H14  1  0.66835000  0.53207000  0.43076000  1.0
  H  H15  1  0.83166000  0.03207000  0.06924000  1.0
  H  H16  1  0.24832000  0.48474000  0.70408000  1.0
  H  H17  1  0.25168000  0.98474000  0.79592000  1.0
  H  H18  1  0.75168000  0.51526000  0.29592000  1.0
  H  H19  1  0.74832000  0.01526000  0.20408000  1.0
  H  H20  1  0.15084000  0.70164000  0.76545000  1.0
  H  H21  1  0.34917000  0.20163000  0.73455000  1.0
  H  H22  1  0.84916000  0.29837000  0.23454000  1.0
  H  H23  1  0.65083000  0.79837000  0.26545000  1.0
  H  H24  1  0.04863000  0.50462000  0.59717000  1.0
  H  H25  1  0.45137000  0.00461000  0.90283000  1.0
  H  H26  1  0.95137000  0.49538000  0.40282000  1.0
  H  H27  1  0.54864000  0.99538000  0.09717000  1.0
  H  H28  1  0.22401000  0.72742000  0.35510000  1.0
  H  H29  1  0.27598000  0.22741000  0.14489000  1.0
  H  H30  1  0.77598000  0.27259000  0.64489000  1.0
  H  H31  1  0.72401000  0.77258000  0.85511000  1.0
  H  H32  1  0.45501000  0.01266000  0.62600000  1.0
  H  H33  1  0.04500000  0.51266000  0.87400000  1.0
  H  H34  1  0.54500000  0.98734000  0.37400000  1.0
  H  H35  1  0.95500000  0.48734000  0.12600000  1.0
  H  H36  1  0.33755000  0.12102000  0.54920000  1.0
  H  H37  1  0.16245000  0.62102000  0.95080000  1.0
  H  H38  1  0.66245000  0.87898000  0.45080000  1.0
  H  H39  1  0.83755000  0.37898000  0.04920000  1.0
  C  C40  1  0.20301000  0.74491000  0.50860000  1.0
  C  C41  1  0.29699000  0.24491000  0.99140000  1.0
  C  C42  1  0.79700000  0.25510000  0.49140000  1.0
  C  C43  1  0.70300000  0.75509000  0.00860000  1.0
  C  C44  1  0.26850000  0.68314000  0.61858000  1.0
  C  C45  1  0.23150000  0.18313000  0.88142000  1.0
  C  C46  1  0.73150000  0.31686000  0.38142000  1.0
  C  C47  1  0.76849000  0.81686000  0.11858000  1.0
  C  C48  1  0.22254000  0.52574000  0.62214000  1.0
  C  C49  1  0.27746000  0.02573000  0.87786000  1.0
  C  C50  1  0.77746000  0.47427000  0.37786000  1.0
  C  C51  1  0.72254000  0.97426000  0.12214000  1.0
  O  O52  1  0.63223000  0.68357000  0.76109000  1.0
  O  O53  1  0.86777000  0.18356000  0.73889000  1.0
  O  O54  1  0.36777000  0.31643000  0.23890000  1.0
  O  O55  1  0.13222000  0.81644000  0.26111000  1.0
  O  O56  1  0.62452000  0.87007000  0.60674000  1.0
  O  O57  1  0.87550000  0.37006000  0.89326000  1.0
  O  O58  1  0.37549000  0.12992000  0.39327000  1.0
  O  O59  1  0.12450000  0.62994000  0.10674000  1.0
  O  O60  1  0.15105000  0.75885000  0.69751000  1.0
  O  O61  1  0.34896000  0.25885000  0.80249000  1.0
  O  O62  1  0.84895000  0.24115000  0.30249000  1.0
  O  O63  1  0.65104000  0.74115000  0.19752000  1.0
  O  O64  1  0.27650000  0.67413000  0.42506000  1.0
  O  O65  1  0.22349000  0.17412000  0.07494000  1.0
  O  O66  1  0.72349000  0.32587000  0.57494000  1.0
  O  O67  1  0.77650000  0.82587000  0.92506000  1.0
  O  O68  1  0.09431000  0.85412000  0.49930000  1.0
  O  O69  1  0.40570000  0.35411000  0.00070000  1.0
  O  O70  1  0.90570000  0.14589000  0.50070000  1.0
  O  O71  1  0.59429000  0.64588000  0.99931000  1.0
  O  O72  1  0.34691000  0.09194000  0.62547000  1.0
  O  O73  1  0.15310000  0.59194000  0.87452000  1.0
  O  O74  1  0.65309000  0.90806000  0.37453000  1.0
  O  O75  1  0.84690000  0.40806000  0.12548000  1.0
