# generated using pymatgen
data_Zr6H17C52S10N2Cl5O32
_symmetry_space_group_name_H-M   'P 1'
_cell_length_a   16.44529887
_cell_length_b   16.45200000
_cell_length_c   16.46700000
_cell_angle_alpha   119.75040000
_cell_angle_beta   119.74840809
_cell_angle_gamma   88.89642451
_symmetry_Int_Tables_number   1
_chemical_formula_structural   Zr6H17C52S10N2Cl5O32
_chemical_formula_sum   'Zr6 H17 C52 S10 N2 Cl5 O32'
_cell_volume   3202.44342472
_cell_formula_units_Z   1
loop_
 _symmetry_equiv_pos_site_id
 _symmetry_equiv_pos_as_xyz
  1  'x, y, z'
loop_
 _atom_site_type_symbol
 _atom_site_label
 _atom_site_symmetry_multiplicity
 _atom_site_fract_x
 _atom_site_fract_y
 _atom_site_fract_z
 _atom_site_occupancy
  Zr  Zr0  1  0.59772000  0.09685000  0.48479000  1.0
  Zr  Zr1  1  0.39787000  0.89681000  0.50845000  1.0
  Zr  Zr2  1  0.60734000  0.10592000  0.70863000  1.0
  Zr  Zr3  1  0.38895000  0.88742000  0.28556000  1.0
  Zr  Zr4  1  0.38949000  0.10635000  0.49747000  1.0
  Zr  Zr5  1  0.60769000  0.88853000  0.49759000  1.0
  H  H6  1  0.57811000  0.24704000  0.65466000  1.0
  H  H7  1  0.24796000  0.91712000  0.33952000  1.0
  H  H8  1  0.58977000  0.91787000  0.67252000  1.0
  H  H9  1  0.57744000  0.90542000  0.32153000  1.0
  H  H10  1  0.36202000  0.38796000  0.48752000  1.0
  H  H11  1  0.90001000  0.87341000  0.51111000  1.0
  H  H12  1  0.11823000  0.87533000  0.98471000  1.0
  H  H13  1  0.36389000  0.60324000  0.98560000  1.0
  H  H14  1  0.87118000  0.35833000  0.96854000  1.0
  H  H15  1  0.84929000  0.34420000  0.69174000  1.0
  H  H16  1  0.13652000  0.62240000  0.02482000  1.0
  H  H17  1  0.14854000  0.64688000  0.30175000  1.0
  H  H18  1  0.61081000  0.12394000  0.23139000  1.0
  H  H19  1  0.92227000  0.45313000  0.12937000  1.0
  H  H20  1  0.01892000  0.53913000  0.26200000  1.0
  H  H21  1  0.04195000  0.57035000  0.86341000  1.0
  H  H22  1  0.95756000  0.47271000  0.73118000  1.0
  C  C23  1  0.48458000  0.26075000  0.47862000  1.0
  C  C24  1  0.23514000  0.01189000  0.51637000  1.0
  C  C25  1  0.50554000  0.72694000  0.50190000  1.0
  C  C26  1  0.76887000  0.99139000  0.49303000  1.0
  C  C27  1  0.76624000  0.25796000  0.74549000  1.0
  C  C28  1  0.48611000  0.99298000  0.21667000  1.0
  C  C29  1  0.23627000  0.72852000  0.24788000  1.0
  C  C30  1  0.50019000  0.00718000  0.77562000  1.0
  C  C31  1  0.49734000  0.26910000  0.76955000  1.0
  C  C32  1  0.77778000  0.00311000  0.76876000  1.0
  C  C33  1  0.49359000  0.71768000  0.22704000  1.0
  C  C34  1  0.22649000  0.99933000  0.22620000  1.0
  C  C35  1  0.56450000  0.57626000  0.48882000  1.0
  C  C36  1  0.42353000  0.40694000  0.48525000  1.0
  C  C37  1  0.50285000  0.63494000  0.49566000  1.0
  C  C38  1  0.48620000  0.35027000  0.47933000  1.0
  C  C39  1  0.45176000  0.48951000  0.48836000  1.0
  C  C40  1  0.53537000  0.49329000  0.48467000  1.0
  C  C41  1  0.08789000  0.07459000  0.51056000  1.0
  C  C42  1  0.91925000  0.93489000  0.50899000  1.0
  C  C43  1  0.14648000  0.01286000  0.51722000  1.0
  C  C44  1  0.86166000  0.99649000  0.50076000  1.0
  C  C45  1  0.00239000  0.96347000  0.51315000  1.0
  C  C46  1  0.00565000  0.04634000  0.50810000  1.0
  C  C47  1  0.91683000  0.07115000  0.97624000  1.0
  C  C48  1  0.09322000  0.93682000  0.02142000  1.0
  C  C49  1  0.86735000  0.00563000  0.85948000  1.0
  C  C50  1  0.14027000  0.00221000  0.13703000  1.0
  C  C51  1  0.01175000  0.96197000  0.96237000  1.0
  C  C52  1  0.99901000  0.04623000  0.03481000  1.0
  C  C53  1  0.56230000  0.40469000  0.97733000  1.0
  C  C54  1  0.42599000  0.57896000  0.02256000  1.0
  C  C55  1  0.49658000  0.35506000  0.86060000  1.0
  C  C56  1  0.49293000  0.62770000  0.13813000  1.0
  C  C57  1  0.45085000  0.49719000  0.96352000  1.0
  C  C58  1  0.53638000  0.48572000  0.03600000  1.0
  C  C59  1  0.90019000  0.39073000  0.94093000  1.0
  C  C60  1  0.88836000  0.38152000  0.78299000  1.0
  C  C61  1  0.96955000  0.46376000  0.85570000  1.0
  C  C62  1  0.01961000  0.51188000  0.97581000  1.0
  C  C63  1  0.10374000  0.59402000  0.05257000  1.0
  C  C64  1  0.11166000  0.60735000  0.21051000  1.0
  C  C65  1  0.02932000  0.52612000  0.13779000  1.0
  C  C66  1  0.98212000  0.47504000  0.01766000  1.0
  C  C67  1  0.85441000  0.34499000  0.82564000  1.0
  C  C68  1  0.14892000  0.64061000  0.16791000  1.0
  C  C69  1  0.42721000  0.93991000  0.84513000  1.0
  C  C70  1  0.55117000  0.06468000  0.14702000  1.0
  C  C71  1  0.49424000  0.00626000  0.86117000  1.0
  C  C72  1  0.48482000  0.99672000  0.12874000  1.0
  C  C73  1  0.53013000  0.04453000  0.04353000  1.0
  C  C74  1  0.44788000  0.96174000  0.94912000  1.0
  S  S75  1  0.40952000  0.58830000  0.49686000  1.0
  S  S76  1  0.57922000  0.39584000  0.47708000  1.0
  S  S77  1  0.10108000  0.92102000  0.52128000  1.0
  S  S78  1  0.90743000  0.08934000  0.49854000  1.0
  S  S79  1  0.92206000  0.91385000  0.82226000  1.0
  S  S80  1  0.08670000  0.09467000  0.17501000  1.0
  S  S81  1  0.40279000  0.40765000  0.82346000  1.0
  S  S82  1  0.58605000  0.57475000  0.17618000  1.0
  S  S83  1  0.58157000  0.09522000  0.00348000  1.0
  S  S84  1  0.39631000  0.90863000  0.98677000  1.0
  N  N85  1  0.99426000  0.49204000  0.17967000  1.0
  N  N86  1  0.00460000  0.49797000  0.81375000  1.0
  Cl  Cl87  1  0.66404000  0.59727000  0.48582000  1.0
  Cl  Cl88  1  0.10745000  0.17233000  0.50430000  1.0
  Cl  Cl89  1  0.88632000  0.17003000  0.04685000  1.0
  Cl  Cl90  1  0.66338000  0.37596000  0.04754000  1.0
  Cl  Cl91  1  0.33098000  0.84198000  0.71956000  1.0
  O  O92  1  0.55200000  0.22245000  0.47448000  1.0
  O  O93  1  0.27125000  0.94285000  0.51851000  1.0
  O  O94  1  0.43857000  0.76501000  0.50813000  1.0
  O  O95  1  0.72882000  0.05676000  0.48494000  1.0
  O  O96  1  0.73465000  0.22720000  0.78539000  1.0
  O  O97  1  0.42022000  0.92441000  0.18573000  1.0
  O  O98  1  0.26721000  0.75995000  0.20789000  1.0
  O  O99  1  0.56943000  0.07386000  0.80881000  1.0
  O  O100  1  0.42802000  0.23776000  0.66793000  1.0
  O  O101  1  0.74443000  0.93215000  0.66708000  1.0
  O  O102  1  0.56445000  0.75294000  0.32921000  1.0
  O  O103  1  0.25958000  0.06828000  0.32846000  1.0
  O  O104  1  0.73960000  0.07138000  0.79917000  1.0
  O  O105  1  0.42398000  0.75387000  0.19410000  1.0
  O  O106  1  0.26005000  0.92722000  0.19357000  1.0
  O  O107  1  0.56818000  0.23349000  0.79960000  1.0
  O  O108  1  0.72609000  0.22036000  0.64010000  1.0
  O  O109  1  0.43476000  0.93842000  0.67320000  1.0
  O  O110  1  0.27418000  0.76859000  0.35327000  1.0
  O  O111  1  0.55578000  0.05945000  0.31821000  1.0
  O  O112  1  0.73553000  0.92233000  0.49378000  1.0
  O  O113  1  0.41811000  0.22992000  0.48446000  1.0
  O  O114  1  0.26784000  0.07787000  0.51118000  1.0
  O  O115  1  0.57410000  0.76190000  0.50164000  1.0
  O  O116  1  0.55435000  0.93032000  0.37080000  1.0
  O  O117  1  0.56480000  0.94078000  0.62308000  1.0
  O  O118  1  0.31910000  0.94084000  0.38473000  1.0
  O  O119  1  0.55405000  0.17594000  0.60896000  1.0
  O  O120  1  0.45670000  0.04612000  0.58957000  1.0
  O  O121  1  0.44857000  0.03819000  0.40391000  1.0
  O  O122  1  0.45722000  0.86527000  0.41448000  1.0
  O  O123  1  0.62972000  0.03815000  0.57939000  1.0
