# generated using pymatgen
data_MnH11C16(NO3)2
_symmetry_space_group_name_H-M   'P 1'
_cell_length_a   8.64807000
_cell_length_b   8.71368000
_cell_length_c   10.21770000
_cell_angle_alpha   105.43800000
_cell_angle_beta   94.86750000
_cell_angle_gamma   103.02000000
_symmetry_Int_Tables_number   1
_chemical_formula_structural   MnH11C16(NO3)2
_chemical_formula_sum   'Mn2 H22 C32 N4 O12'
_cell_volume   714.45883204
_cell_formula_units_Z   2
loop_
 _symmetry_equiv_pos_site_id
 _symmetry_equiv_pos_as_xyz
  1  'x, y, z'
loop_
 _atom_site_type_symbol
 _atom_site_label
 _atom_site_symmetry_multiplicity
 _atom_site_fract_x
 _atom_site_fract_y
 _atom_site_fract_z
 _atom_site_occupancy
  Mn  Mn0  1  0.52236000  0.23994000  0.41128000  1.0
  Mn  Mn1  1  0.47765000  0.76006000  0.58872000  1.0
  H  H2  1  0.12621000  0.10142000  0.32153000  1.0
  H  H3  1  0.87379000  0.89859000  0.67847000  1.0
  H  H4  1  0.02660000  0.62676000  0.39086000  1.0
  H  H5  1  0.97340000  0.37324000  0.60914000  1.0
  H  H6  1  0.63828000  0.84592000  0.32288000  1.0
  H  H7  1  0.36172000  0.15408000  0.67712000  1.0
  H  H8  1  0.85415000  0.35419000  0.33222000  1.0
  H  H9  1  0.14585000  0.64581000  0.66778000  1.0
  H  H10  1  0.69118000  0.49962000  0.69462000  1.0
  H  H11  1  0.30882000  0.50038000  0.30539000  1.0
  H  H12  1  0.63622000  0.97037000  0.89603000  1.0
  H  H13  1  0.36377000  0.02963000  0.10396000  1.0
  H  H14  1  0.85294000  0.88558000  0.06690000  1.0
  H  H15  1  0.14706000  0.11442000  0.93310000  1.0
  H  H16  1  0.11244000  0.76546000  0.95640000  1.0
  H  H17  1  0.88756000  0.23454000  0.04360000  1.0
  H  H18  1  0.61889000  0.26846000  0.00578000  1.0
  H  H19  1  0.38111000  0.73154000  0.99422000  1.0
  H  H20  1  0.60895000  0.27988000  0.83437000  1.0
  H  H21  1  0.39105000  0.72012000  0.16563000  1.0
  H  H22  1  0.58601000  0.44669000  0.96743000  1.0
  H  H23  1  0.41399000  0.55330000  0.03258000  1.0
  C  C24  1  0.26992000  0.87824000  0.38616000  1.0
  C  C25  1  0.73008000  0.12176000  0.61384000  1.0
  C  C26  1  0.09292000  0.86238000  0.35343000  1.0
  C  C27  1  0.90708000  0.13762000  0.64657000  1.0
  C  C28  1  0.03919000  0.99227000  0.32649000  1.0
  C  C29  1  0.96081000  0.00773000  0.67351000  1.0
  C  C30  1  0.98190000  0.72413000  0.36534000  1.0
  C  C31  1  0.01811000  0.27587000  0.63466000  1.0
  C  C32  1  0.87451000  0.98360000  0.31138000  1.0
  C  C33  1  0.12549000  0.01640000  0.68862000  1.0
  C  C34  1  0.81851000  0.71857000  0.35613000  1.0
  C  C35  1  0.18149000  0.28143000  0.64387000  1.0
  C  C36  1  0.76482000  0.84729000  0.32705000  1.0
  C  C37  1  0.23518000  0.15271000  0.67295000  1.0
  C  C38  1  0.80975000  0.12145000  0.29325000  1.0
  C  C39  1  0.19025000  0.87855000  0.70675000  1.0
  C  C40  1  0.70031000  0.58847000  0.39262000  1.0
  C  C41  1  0.29968000  0.41153000  0.60737000  1.0
  C  C42  1  0.70274000  0.61680000  0.77096000  1.0
  C  C43  1  0.29726000  0.38319000  0.22905000  1.0
  C  C44  1  0.68074000  0.86114000  0.87985000  1.0
  C  C45  1  0.31926000  0.13886000  0.12015000  1.0
  C  C46  1  0.78787000  0.82264000  0.96450000  1.0
  C  C47  1  0.21213000  0.17736000  0.03550000  1.0
  C  C48  1  0.89920000  0.57839000  0.94692000  1.0
  C  C49  1  0.10080000  0.42161000  0.05308000  1.0
  C  C50  1  0.06456000  0.64913000  0.97739000  1.0
  C  C51  1  0.93544000  0.35087000  0.02261000  1.0
  C  C52  1  0.82982000  0.42715000  0.96937000  1.0
  C  C53  1  0.17018000  0.57285000  0.03063000  1.0
  C  C54  1  0.65179000  0.35134000  0.94272000  1.0
  C  C55  1  0.34821000  0.64866000  0.05728000  1.0
  N  N56  1  0.62916000  0.73253000  0.75937000  1.0
  N  N57  1  0.37084000  0.26747000  0.24063000  1.0
  N  N58  1  0.80011000  0.66680000  0.89489000  1.0
  N  N59  1  0.19989000  0.33320000  0.10511000  1.0
  O  O60  1  0.36892000  0.00048000  0.37026000  1.0
  O  O61  1  0.63108000  0.99952000  0.62974000  1.0
  O  O62  1  0.30743000  0.76541000  0.43042000  1.0
  O  O63  1  0.69257000  0.23459000  0.56958000  1.0
  O  O64  1  0.91750000  0.26546000  0.31898000  1.0
  O  O65  1  0.08250000  0.73454000  0.68102000  1.0
  O  O66  1  0.66292000  0.10325000  0.26130000  1.0
  O  O67  1  0.33708000  0.89676000  0.73870000  1.0
  O  O68  1  0.72860000  0.44863000  0.38480000  1.0
  O  O69  1  0.27140000  0.55137000  0.61519000  1.0
  O  O70  1  0.57436000  0.62401000  0.43159000  1.0
  O  O71  1  0.42565000  0.37599000  0.56840000  1.0
