# generated using pymatgen
data_ZnH30C26(N2O3)2
_symmetry_space_group_name_H-M   'P 1'
_cell_length_a   6.78228000
_cell_length_b   8.06390000
_cell_length_c   12.64417448
_cell_angle_alpha   71.76863212
_cell_angle_beta   74.44755383
_cell_angle_gamma   89.98480000
_symmetry_Int_Tables_number   1
_chemical_formula_structural   ZnH30C26(N2O3)2
_chemical_formula_sum   'Zn1 H30 C26 N4 O6'
_cell_volume   630.11963934
_cell_formula_units_Z   1
loop_
 _symmetry_equiv_pos_site_id
 _symmetry_equiv_pos_as_xyz
  1  'x, y, z'
loop_
 _atom_site_type_symbol
 _atom_site_label
 _atom_site_symmetry_multiplicity
 _atom_site_fract_x
 _atom_site_fract_y
 _atom_site_fract_z
 _atom_site_occupancy
  Zn  Zn0  1  0.72190000  0.49992000  0.00001000  1.0
  H  H1  1  0.07893000  0.87683000  0.61736000  1.0
  H  H2  1  0.69592000  0.12299000  0.38270000  1.0
  H  H3  1  0.37320000  0.68036000  0.74873000  1.0
  H  H4  1  0.12142000  0.31945000  0.25136000  1.0
  H  H5  1  0.99474000  0.59109000  0.59712000  1.0
  H  H6  1  0.59111000  0.40853000  0.40318000  1.0
  H  H7  1  0.18074000  0.49460000  0.66656000  1.0
  H  H8  1  0.84643000  0.50521000  0.33378000  1.0
  H  H9  1  0.57144000  0.61082000  0.56199000  1.0
  H  H10  1  0.13264000  0.38941000  0.43814000  1.0
  H  H11  1  0.63415000  0.78153000  0.42680000  1.0
  H  H12  1  0.06078000  0.21869000  0.57330000  1.0
  H  H13  1  0.45511000  0.98819000  0.52240000  1.0
  H  H14  1  0.97757000  0.01184000  0.47783000  1.0
  H  H15  1  0.64293000  0.88986000  0.59033000  1.0
  H  H16  1  0.23313000  0.11041000  0.40978000  1.0
  H  H17  1  0.32890000  0.57924000  0.45264000  1.0
  H  H18  1  0.78077000  0.42054000  0.54764000  1.0
  H  H19  1  0.26467000  0.79614000  0.43531000  1.0
  H  H20  1  0.69965000  0.20357000  0.56498000  1.0
  H  H21  1  0.59042000  0.87833000  0.77833000  1.0
  H  H22  1  0.36824000  0.12137000  0.22178000  1.0
  H  H23  1  0.21856000  0.19541000  0.86040000  1.0
  H  H24  1  0.07846000  0.80465000  0.13949000  1.0
  H  H25  1  0.83175000  0.02572000  0.81996000  1.0
  H  H26  1  0.65151000  0.97467000  0.17935000  1.0
  H  H27  1  0.90656000  0.23828000  0.91173000  1.0
  H  H28  1  0.81801000  0.76210000  0.08751000  1.0
  H  H29  1  0.31864000  0.40329000  0.94972000  1.0
  H  H30  1  0.26782000  0.59689000  0.05000000  1.0
  C  C31  1  0.94522000  0.69366000  0.78320000  1.0
  C  C32  1  0.72807000  0.30634000  0.21691000  1.0
  C  C33  1  0.12231000  0.75652000  0.67293000  1.0
  C  C34  1  0.79476000  0.24334000  0.32724000  1.0
  C  C35  1  0.32672000  0.79910000  0.69253000  1.0
  C  C36  1  0.01881000  0.20077000  0.30767000  1.0
  C  C37  1  0.14367000  0.61841000  0.61030000  1.0
  C  C38  1  0.75328000  0.38133000  0.39000000  1.0
  C  C39  1  0.51650000  0.72972000  0.51102000  1.0
  C  C40  1  0.02712000  0.27035000  0.48913000  1.0
  C  C41  1  0.49551000  0.86327000  0.57554000  1.0
  C  C42  1  0.07084000  0.13681000  0.42461000  1.0
  C  C43  1  0.31162000  0.68118000  0.49451000  1.0
  C  C44  1  0.80559000  0.31859000  0.50577000  1.0
  C  C45  1  0.30824000  0.93916000  0.75116000  1.0
  C  C46  1  0.05892000  0.06062000  0.24905000  1.0
  C  C47  1  0.51440000  0.08807000  0.83572000  1.0
  C  C48  1  0.34972000  0.91202000  0.16405000  1.0
  C  C49  1  0.37110000  0.20016000  0.87160000  1.0
  C  C50  1  0.24226000  0.79995000  0.12820000  1.0
  C  C51  1  0.71200000  0.10440000  0.84928000  1.0
  C  C52  1  0.56097000  0.89585000  0.15021000  1.0
  C  C53  1  0.75517000  0.22382000  0.89962000  1.0
  C  C54  1  0.65445000  0.77651000  0.09978000  1.0
  C  C55  1  0.42841000  0.31634000  0.92126000  1.0
  C  C56  1  0.34919000  0.68380000  0.07843000  1.0
  N  N57  1  0.47597000  0.96247000  0.78852000  1.0
  N  N58  1  0.26401000  0.03730000  0.21157000  1.0
  N  N59  1  0.61646000  0.32843000  0.93681000  1.0
  N  N60  1  0.55286000  0.67175000  0.06277000  1.0
  O  O61  1  0.76405000  0.72129000  0.77848000  1.0
  O  O62  1  0.54227000  0.27874000  0.22149000  1.0
  O  O63  1  0.98799000  0.60453000  0.87734000  1.0
  O  O64  1  0.86507000  0.39559000  0.12285000  1.0
  O  O65  1  0.16080000  0.02941000  0.75972000  1.0
  O  O66  1  0.91999000  0.97047000  0.24050000  1.0
