# generated using pymatgen
data_Ni2MoH56(C2N)16
_symmetry_space_group_name_H-M   'P 1'
_cell_length_a   15.46320000
_cell_length_b   15.46310000
_cell_length_c   15.93827312
_cell_angle_alpha   106.40665897
_cell_angle_beta   106.40819025
_cell_angle_gamma   114.69000000
_symmetry_Int_Tables_number   1
_chemical_formula_structural   Ni2MoH56(C2N)16
_chemical_formula_sum   'Ni4 Mo2 H112 C64 N32'
_cell_volume   2950.23003335
_cell_formula_units_Z   2
loop_
 _symmetry_equiv_pos_site_id
 _symmetry_equiv_pos_as_xyz
  1  'x, y, z'
loop_
 _atom_site_type_symbol
 _atom_site_label
 _atom_site_symmetry_multiplicity
 _atom_site_fract_x
 _atom_site_fract_y
 _atom_site_fract_z
 _atom_site_occupancy
  Ni  Ni0  1  0.50000000  0.00000000  0.00000000  1.0
  Ni  Ni1  1  0.50000000  0.50000000  0.50000000  1.0
  Ni  Ni2  1  0.00000000  0.00000000  0.00000000  1.0
  Ni  Ni3  1  0.50000000  0.00000000  0.50000000  1.0
  Mo  Mo4  1  0.62500000  0.87501000  0.75001000  1.0
  Mo  Mo5  1  0.37501000  0.12501000  0.25000000  1.0
  H  H6  1  0.30231000  0.79538000  0.96658000  1.0
  H  H7  1  0.32879000  0.33578000  0.53347000  1.0
  H  H8  1  0.16422000  0.17120000  0.96653000  1.0
  H  H9  1  0.70463000  0.19770000  0.53343000  1.0
  H  H10  1  0.69769000  0.20463000  0.03342000  1.0
  H  H11  1  0.67120000  0.66422000  0.46653000  1.0
  H  H12  1  0.83578000  0.82880000  0.03347000  1.0
  H  H13  1  0.29537000  0.80230000  0.46658000  1.0
  H  H14  1  0.16491000  0.66255000  0.79531000  1.0
  H  H15  1  0.36726000  0.36972000  0.70474000  1.0
  H  H16  1  0.13028000  0.13274000  0.79526000  1.0
  H  H17  1  0.83746000  0.33510000  0.70470000  1.0
  H  H18  1  0.83509000  0.33746000  0.20469000  1.0
  H  H19  1  0.63273000  0.63027000  0.29525000  1.0
  H  H20  1  0.86973000  0.86727000  0.20475000  1.0
  H  H21  1  0.16254000  0.66491000  0.29531000  1.0
  H  H22  1  0.26182000  0.64946000  0.76523000  1.0
  H  H23  1  0.38424000  0.49669000  0.73479000  1.0
  H  H24  1  0.00331000  0.11577000  0.76521000  1.0
  H  H25  1  0.85055000  0.23818000  0.73477000  1.0
  H  H26  1  0.73819000  0.35055000  0.23477000  1.0
  H  H27  1  0.61577000  0.50331000  0.26521000  1.0
  H  H28  1  0.99669000  0.88423000  0.23479000  1.0
  H  H29  1  0.14945000  0.76181000  0.26523000  1.0
  H  H30  1  0.15730000  0.49562000  0.79141000  1.0
  H  H31  1  0.20420000  0.36600000  0.70861000  1.0
  H  H32  1  0.13400000  0.29580000  0.79139000  1.0
  H  H33  1  0.00438000  0.34270000  0.70859000  1.0
  H  H34  1  0.84270000  0.50439000  0.20859000  1.0
  H  H35  1  0.79580000  0.63400000  0.29139000  1.0
  H  H36  1  0.86600000  0.70420000  0.20861000  1.0
  H  H37  1  0.99561000  0.65730000  0.29141000  1.0
  H  H38  1  0.18712000  0.58289000  0.90925000  1.0
  H  H39  1  0.17366000  0.27796000  0.59076000  1.0
  H  H40  1  0.22203000  0.32634000  0.90924000  1.0
  H  H41  1  0.91711000  0.31288000  0.59075000  1.0
  H  H42  1  0.81287000  0.41711000  0.09074000  1.0
  H  H43  1  0.82634000  0.72204000  0.40924000  1.0
  H  H44  1  0.77797000  0.67367000  0.09076000  1.0
  H  H45  1  0.08289000  0.68712000  0.40925000  1.0
  H  H46  1  0.35125000  0.56282000  0.84659000  1.0
  H  H47  1  0.21625000  0.50475000  0.65339000  1.0
  H  H48  1  0.99524000  0.28375000  0.84660000  1.0
  H  H49  1  0.93719000  0.14876000  0.65341000  1.0
  H  H50  1  0.64876000  0.43718000  0.15341000  1.0
  H  H51  1  0.78375000  0.49524000  0.34660000  1.0
  H  H52  1  0.00476000  0.71625000  0.15340000  1.0
  H  H53  1  0.06282000  0.85124000  0.34659000  1.0
  H  H54  1  0.30839000  0.51442000  0.92461000  1.0
  H  H55  1  0.08981000  0.38386000  0.57537000  1.0
  H  H56  1  0.11615000  0.41019000  0.92463000  1.0
  H  H57  1  0.98559000  0.19162000  0.57539000  1.0
  H  H58  1  0.69160000  0.48558000  0.07538000  1.0
  H  H59  1  0.91019000  0.61615000  0.42463000  1.0
  H  H60  1  0.88386000  0.58981000  0.07537000  1.0
  H  H61  1  0.01441000  0.80839000  0.42461000  1.0
  H  H62  1  0.48509000  0.69081000  0.02073000  1.0
  H  H63  1  0.17006000  0.46440000  0.47923000  1.0
  H  H64  1  0.03559000  0.32993000  0.02076000  1.0
  H  H65  1  0.80920000  0.01491000  0.47927000  1.0
  H  H66  1  0.51491000  0.30919000  0.97927000  1.0
  H  H67  1  0.82994000  0.53560000  0.52077000  1.0
  H  H68  1  0.96441000  0.67007000  0.97924000  1.0
  H  H69  1  0.19081000  0.98509000  0.52073000  1.0
  H  H70  1  0.38501000  0.70159000  0.04804000  1.0
  H  H71  1  0.15354000  0.33703000  0.45197000  1.0
  H  H72  1  0.16297000  0.34646000  0.04803000  1.0
  H  H73  1  0.79841000  0.11500000  0.45196000  1.0
  H  H74  1  0.61498000  0.29840000  0.95195000  1.0
  H  H75  1  0.84646000  0.66297000  0.54803000  1.0
  H  H76  1  0.83704000  0.65355000  0.95197000  1.0
  H  H77  1  0.20160000  0.88501000  0.54805000  1.0
  H  H78  1  0.46369000  0.76795000  0.90704000  1.0
  H  H79  1  0.36091000  0.55671000  0.59293000  1.0
  H  H80  1  0.94328000  0.13910000  0.90707000  1.0
  H  H81  1  0.73206000  0.03631000  0.59296000  1.0
  H  H82  1  0.53631000  0.23206000  0.09296000  1.0
  H  H83  1  0.63909000  0.44328000  0.40707000  1.0
  H  H84  1  0.05672000  0.86091000  0.09293000  1.0
  H  H85  1  0.26794000  0.96369000  0.40704000  1.0
  H  H86  1  0.36343000  0.83430000  0.81574000  1.0
  H  H87  1  0.51857000  0.54774000  0.68427000  1.0
  H  H88  1  0.95226000  0.98143000  0.81574000  1.0
  H  H89  1  0.66569000  0.13656000  0.68425000  1.0
  H  H90  1  0.63656000  0.16569000  0.18425000  1.0
  H  H91  1  0.48143000  0.45226000  0.31574000  1.0
  H  H92  1  0.04775000  0.01857000  0.18427000  1.0
  H  H93  1  0.33431000  0.86344000  0.31575000  1.0
  H  H94  1  0.29487000  0.87233000  0.86254000  1.0
  H  H95  1  0.50978000  0.43237000  0.63747000  1.0
  H  H96  1  0.06762000  0.99022000  0.86253000  1.0
  H  H97  1  0.62767000  0.20513000  0.63746000  1.0
  H  H98  1  0.70513000  0.12767000  0.13746000  1.0
  H  H99  1  0.49021000  0.56762000  0.36252000  1.0
  H  H100  1  0.93239000  0.00979000  0.13748000  1.0
  H  H101  1  0.37233000  0.79487000  0.36254000  1.0
  H  H102  1  0.49402000  0.89276000  0.10217000  1.0
  H  H103  1  0.29057000  0.39185000  0.39782000  1.0
  H  H104  1  0.10815000  0.20944000  0.10218000  1.0
  H  H105  1  0.60725000  0.00598000  0.39783000  1.0
  H  H106  1  0.50598000  0.10725000  0.89783000  1.0
  H  H107  1  0.70944000  0.60815000  0.60218000  1.0
  H  H108  1  0.89186000  0.79057000  0.89782000  1.0
  H  H109  1  0.39275000  0.99402000  0.60217000  1.0
  H  H110  1  0.58555000  0.89844000  0.06506000  1.0
  H  H111  1  0.33338000  0.52049000  0.43489000  1.0
  H  H112  1  0.97951000  0.16662000  0.06511000  1.0
  H  H113  1  0.60156000  0.91446000  0.43494000  1.0
  H  H114  1  0.41445000  0.10156000  0.93494000  1.0
  H  H115  1  0.66661000  0.47950000  0.56510000  1.0
  H  H116  1  0.02050000  0.83340000  0.93490000  1.0
  H  H117  1  0.39844000  0.08554000  0.56506000  1.0
  C  C118  1  0.59885000  0.94645000  0.86569000  1.0
  C  C119  1  0.58082000  0.73322000  0.63435000  1.0
  C  C120  1  0.76678000  0.91918000  0.86566000  1.0
  C  C121  1  0.55356000  0.90115000  0.63431000  1.0
  C  C122  1  0.40116000  0.05357000  0.13432000  1.0
  C  C123  1  0.41918000  0.26678000  0.36566000  1.0
  C  C124  1  0.23321000  0.08082000  0.13434000  1.0
  C  C125  1  0.44644000  0.09883000  0.36567000  1.0
  C  C126  1  0.71096000  0.04644000  0.80155000  1.0
  C  C127  1  0.74496000  0.90951000  0.69849000  1.0
  C  C128  1  0.59050000  0.75505000  0.80153000  1.0
  C  C129  1  0.45356000  0.78904000  0.69846000  1.0
  C  C130  1  0.28902000  0.95355000  0.19845000  1.0
  C  C131  1  0.25504000  0.09048000  0.30152000  1.0
  C  C132  1  0.40951000  0.24496000  0.19848000  1.0
  C  C133  1  0.54646000  0.21097000  0.30155000  1.0
  C  C134  1  0.32804000  0.77389000  0.91019000  1.0
  C  C135  1  0.36369000  0.41791000  0.58982000  1.0
  C  C136  1  0.08209000  0.13630000  0.91018000  1.0
  C  C137  1  0.72612000  0.17196000  0.58981000  1.0
  C  C138  1  0.67195000  0.22611000  0.08980000  1.0
  C  C139  1  0.63631000  0.58209000  0.41018000  1.0
  C  C140  1  0.91792000  0.86371000  0.08983000  1.0
  C  C141  1  0.27389000  0.82804000  0.41020000  1.0
  C  C142  1  0.23874000  0.66296000  0.82483000  1.0
  C  C143  1  0.33815000  0.41402000  0.67520000  1.0
  C  C144  1  0.08598000  0.16185000  0.82480000  1.0
  C  C145  1  0.83704000  0.26125000  0.67517000  1.0
  C  C146  1  0.76126000  0.33705000  0.17517000  1.0
  C  C147  1  0.66185000  0.58598000  0.32480000  1.0
  C  C148  1  0.91402000  0.83815000  0.17520000  1.0
  C  C149  1  0.16296000  0.73874000  0.32483000  1.0
  C  C150  1  0.21901000  0.57405000  0.85570000  1.0
  C  C151  1  0.21837000  0.36341000  0.64432000  1.0
  C  C152  1  0.13660000  0.28164000  0.85568000  1.0
  C  C153  1  0.92595000  0.28100000  0.64430000  1.0
  C  C154  1  0.78100000  0.42595000  0.14430000  1.0
  C  C155  1  0.78163000  0.63659000  0.35568000  1.0
  C  C156  1  0.86341000  0.71837000  0.14432000  1.0
  C  C157  1  0.07404000  0.71899000  0.35569000  1.0
  C  C158  1  0.32254000  0.57778000  0.90168000  1.0
  C  C159  1  0.17611000  0.42093000  0.59831000  1.0
  C  C160  1  0.07906000  0.32389000  0.90168000  1.0
  C  C161  1  0.92222000  0.17747000  0.59832000  1.0
  C  C162  1  0.67746000  0.42221000  0.09831000  1.0
  C  C163  1  0.82389000  0.57907000  0.40169000  1.0
  C  C164  1  0.92094000  0.67611000  0.09831000  1.0
  C  C165  1  0.07778000  0.82253000  0.40168000  1.0
  C  C166  1  0.40987000  0.68753000  0.98955000  1.0
  C  C167  1  0.19799000  0.42039000  0.51044000  1.0
  C  C168  1  0.07961000  0.30201000  0.98956000  1.0
  C  C169  1  0.81247000  0.09014000  0.51045000  1.0
  C  C170  1  0.59013000  0.31247000  0.01045000  1.0
  C  C171  1  0.80201000  0.57961000  0.48956000  1.0
  C  C172  1  0.92039000  0.69799000  0.01044000  1.0
  C  C173  1  0.18753000  0.90986000  0.48955000  1.0
  C  C174  1  0.43082000  0.77717000  0.95965000  1.0
  C  C175  1  0.31752000  0.47122000  0.54034000  1.0
  C  C176  1  0.02878000  0.18248000  0.95966000  1.0
  C  C177  1  0.72283000  0.06918000  0.54035000  1.0
  C  C178  1  0.56918000  0.22283000  0.04035000  1.0
  C  C179  1  0.68248000  0.52878000  0.45966000  1.0
  C  C180  1  0.97122000  0.81752000  0.04034000  1.0
  C  C181  1  0.27717000  0.93081000  0.45965000  1.0
  N  N182  1  0.58223000  0.98426000  0.92943000  1.0
  N  N183  1  0.55483000  0.65286000  0.57055000  1.0
  N  N184  1  0.84715000  0.94517000  0.92946000  1.0
  N  N185  1  0.51574000  0.91776000  0.57057000  1.0
  N  N186  1  0.41776000  0.01575000  0.07057000  1.0
  N  N187  1  0.44515000  0.34713000  0.42944000  1.0
  N  N188  1  0.15286000  0.05485000  0.07055000  1.0
  N  N189  1  0.48426000  0.08224000  0.42943000  1.0
  N  N190  1  0.75541000  0.13882000  0.82492000  1.0
  N  N191  1  0.81394000  0.93041000  0.67507000  1.0
  N  N192  1  0.56959000  0.68607000  0.82494000  1.0
  N  N193  1  0.36118000  0.74458000  0.67508000  1.0
  N  N194  1  0.24457000  0.86116000  0.17507000  1.0
  N  N195  1  0.18607000  0.06959000  0.32495000  1.0
  N  N196  1  0.43041000  0.31394000  0.17507000  1.0
  N  N197  1  0.63885000  0.25543000  0.32494000  1.0
  N  N198  1  0.35565000  0.85922000  0.87890000  1.0
  N  N199  1  0.48032000  0.47681000  0.62111000  1.0
  N  N200  1  0.02319000  0.01969000  0.87889000  1.0
  N  N201  1  0.64078000  0.14434000  0.62110000  1.0
  N  N202  1  0.64434000  0.14077000  0.12109000  1.0
  N  N203  1  0.51969000  0.52320000  0.37890000  1.0
  N  N204  1  0.97681000  0.98032000  0.12111000  1.0
  N  N205  1  0.35922000  0.85565000  0.37890000  1.0
  N  N206  1  0.51064000  0.88556000  0.04366000  1.0
  N  N207  1  0.34190000  0.46700000  0.45632000  1.0
  N  N208  1  0.03300000  0.15810000  0.04368000  1.0
  N  N209  1  0.61445000  0.98936000  0.45634000  1.0
  N  N210  1  0.48935000  0.11444000  0.95633000  1.0
  N  N211  1  0.65810000  0.53300000  0.54368000  1.0
  N  N212  1  0.96700000  0.84190000  0.95632000  1.0
  N  N213  1  0.38556000  0.01065000  0.54367000  1.0
