# generated using pymatgen
data_CdH17C23(NO3)2
_symmetry_space_group_name_H-M   'P 1'
_cell_length_a   10.35660000
_cell_length_b   11.49800000
_cell_length_c   12.37820000
_cell_angle_alpha   113.28600000
_cell_angle_beta   107.80900000
_cell_angle_gamma   100.74700000
_symmetry_Int_Tables_number   1
_chemical_formula_structural   CdH17C23(NO3)2
_chemical_formula_sum   'Cd2 H34 C46 N4 O12'
_cell_volume   1206.80459180
_cell_formula_units_Z   2
loop_
 _symmetry_equiv_pos_site_id
 _symmetry_equiv_pos_as_xyz
  1  'x, y, z'
loop_
 _atom_site_type_symbol
 _atom_site_label
 _atom_site_symmetry_multiplicity
 _atom_site_fract_x
 _atom_site_fract_y
 _atom_site_fract_z
 _atom_site_occupancy
  Cd  Cd0  1  0.93023000  0.30709000  0.43196000  1.0
  Cd  Cd1  1  0.06977000  0.69291000  0.56804000  1.0
  H  H2  1  0.70473000  0.36122000  0.06371000  1.0
  H  H3  1  0.29527000  0.63879000  0.93630000  1.0
  H  H4  1  0.12114000  0.74574000  0.17042000  1.0
  H  H5  1  0.87887000  0.25426000  0.82959000  1.0
  H  H6  1  0.14029000  0.63700000  0.30936000  1.0
  H  H7  1  0.85971000  0.36300000  0.69064000  1.0
  H  H8  1  0.51429000  0.37681000  0.95064000  1.0
  H  H9  1  0.48571000  0.62319000  0.04936000  1.0
  H  H10  1  0.55755000  0.26282000  0.83210000  1.0
  H  H11  1  0.44245000  0.73718000  0.16789000  1.0
  H  H12  1  0.26780000  0.16734000  0.74182000  1.0
  H  H13  1  0.73221000  0.83267000  0.25819000  1.0
  H  H14  1  0.04828000  0.15782000  0.57782000  1.0
  H  H15  1  0.95171000  0.84219000  0.42218000  1.0
  H  H16  1  0.27854000  0.49648000  0.58146000  1.0
  H  H17  1  0.72146000  0.50353000  0.41854000  1.0
  H  H18  1  0.50938000  0.52182000  0.74811000  1.0
  H  H19  1  0.49062000  0.47819000  0.25188000  1.0
  H  H20  1  0.96494000  0.78310000  0.88795000  1.0
  H  H21  1  0.03506000  0.21690000  0.11205000  1.0
  H  H22  1  0.09869000  0.77003000  0.00756000  1.0
  H  H23  1  0.90131000  0.22997000  0.99244000  1.0
  H  H24  1  0.75182000  0.83084000  0.00118000  1.0
  H  H25  1  0.24818000  0.16916000  0.99882000  1.0
  H  H26  1  0.74757000  0.03894000  0.17289000  1.0
  H  H27  1  0.25243000  0.96106000  0.82711000  1.0
  H  H28  1  0.19481000  0.20273000  0.35577000  1.0
  H  H29  1  0.80519000  0.79727000  0.64423000  1.0
  H  H30  1  0.21884000  0.00507000  0.19005000  1.0
  H  H31  1  0.78116000  0.99493000  0.80995000  1.0
  H  H32  1  0.73459000  0.96293000  0.53115000  1.0
  H  H33  1  0.26541000  0.03707000  0.46885000  1.0
  H  H34  1  0.45133000  0.16451000  0.42361000  1.0
  H  H35  1  0.54867000  0.83549000  0.57639000  1.0
  C  C36  1  0.92816000  0.42791000  0.27696000  1.0
  C  C37  1  0.07184000  0.57209000  0.72305000  1.0
  C  C38  1  0.92301000  0.49288000  0.19377000  1.0
  C  C39  1  0.07699000  0.50713000  0.80624000  1.0
  C  C40  1  0.79377000  0.44492000  0.08323000  1.0
  C  C41  1  0.20623000  0.55508000  0.91677000  1.0
  C  C42  1  0.78150000  0.50466000  0.00445000  1.0
  C  C43  1  0.21850000  0.49534000  0.99555000  1.0
  C  C44  1  0.90142000  0.61292000  0.03408000  1.0
  C  C45  1  0.09859000  0.38708000  0.96592000  1.0
  C  C46  1  0.02887000  0.66124000  0.14503000  1.0
  C  C47  1  0.97113000  0.33875000  0.85497000  1.0
  C  C48  1  0.04002000  0.60107000  0.22427000  1.0
  C  C49  1  0.95998000  0.39893000  0.77573000  1.0
  C  C50  1  0.53681000  0.35916000  0.86474000  1.0
  C  C51  1  0.46319000  0.64084000  0.13526000  1.0
  C  C52  1  0.40642000  0.34835000  0.76043000  1.0
  C  C53  1  0.59358000  0.65166000  0.23957000  1.0
  C  C54  1  0.27559000  0.24393000  0.71078000  1.0
  C  C55  1  0.72441000  0.75607000  0.28922000  1.0
  C  C56  1  0.15296000  0.23660000  0.61852000  1.0
  C  C57  1  0.84704000  0.76340000  0.38148000  1.0
  C  C58  1  0.28120000  0.42581000  0.61987000  1.0
  C  C59  1  0.71880000  0.57419000  0.38013000  1.0
  C  C60  1  0.40916000  0.44013000  0.71286000  1.0
  C  C61  1  0.59084000  0.55987000  0.28714000  1.0
  C  C62  1  0.99088000  0.77877000  0.97890000  1.0
  C  C63  1  0.00912000  0.22123000  0.02111000  1.0
  C  C64  1  0.98623000  0.90230000  0.08150000  1.0
  C  C65  1  0.01377000  0.09770000  0.91850000  1.0
  C  C66  1  0.85233000  0.91237000  0.07753000  1.0
  C  C67  1  0.14767000  0.08763000  0.92247000  1.0
  C  C68  1  0.84957000  0.02651000  0.17302000  1.0
  C  C69  1  0.15043000  0.97349000  0.82698000  1.0
  C  C70  1  0.09907000  0.11878000  0.27455000  1.0
  C  C71  1  0.90093000  0.88121000  0.72545000  1.0
  C  C72  1  0.11187000  0.00852000  0.18200000  1.0
  C  C73  1  0.88814000  0.99148000  0.81800000  1.0
  C  C74  1  0.71410000  0.14488000  0.44891000  1.0
  C  C75  1  0.28590000  0.85512000  0.55109000  1.0
  C  C76  1  0.60229000  0.06946000  0.47390000  1.0
  C  C77  1  0.39771000  0.93054000  0.52610000  1.0
  C  C78  1  0.63120000  0.97786000  0.51802000  1.0
  C  C79  1  0.36879000  0.02214000  0.48198000  1.0
  C  C80  1  0.47050000  0.09149000  0.45634000  1.0
  C  C81  1  0.52950000  0.90851000  0.54366000  1.0
  N  N82  1  0.15512000  0.32659000  0.57419000  1.0
  N  N83  1  0.84487000  0.67341000  0.42581000  1.0
  N  N84  1  0.97070000  0.12785000  0.27055000  1.0
  N  N85  1  0.02930000  0.87214000  0.72945000  1.0
  O  O86  1  0.82225000  0.32331000  0.23869000  1.0
  O  O87  1  0.17775000  0.67669000  0.76132000  1.0
  O  O88  1  0.03897000  0.48037000  0.38710000  1.0
  O  O89  1  0.96103000  0.51963000  0.61290000  1.0
  O  O90  1  0.65895000  0.46735000  0.89690000  1.0
  O  O91  1  0.34105000  0.53265000  0.10310000  1.0
  O  O92  1  0.88063000  0.65935000  0.94627000  1.0
  O  O93  1  0.11937000  0.34064000  0.05373000  1.0
  O  O94  1  0.82776000  0.11416000  0.45816000  1.0
  O  O95  1  0.17223000  0.88584000  0.54184000  1.0
  O  O96  1  0.69355000  0.23821000  0.42214000  1.0
  O  O97  1  0.30645000  0.76179000  0.57786000  1.0
