# generated using pymatgen
data_NaH7(CO)6
_symmetry_space_group_name_H-M   'P 1'
_cell_length_a   4.45102000
_cell_length_b   8.56221000
_cell_length_c   18.78480000
_cell_angle_alpha   90.00010000
_cell_angle_beta   90.00000000
_cell_angle_gamma   90.00000000
_symmetry_Int_Tables_number   1
_chemical_formula_structural   NaH7(CO)6
_chemical_formula_sum   'Na4 H28 C24 O24'
_cell_volume   715.89939690
_cell_formula_units_Z   4
loop_
 _symmetry_equiv_pos_site_id
 _symmetry_equiv_pos_as_xyz
  1  'x, y, z'
loop_
 _atom_site_type_symbol
 _atom_site_label
 _atom_site_symmetry_multiplicity
 _atom_site_fract_x
 _atom_site_fract_y
 _atom_site_fract_z
 _atom_site_occupancy
  Na  Na0  1  0.36042000  0.89329000  0.63156000  1.0
  Na  Na1  1  0.86042000  0.60671000  0.36844000  1.0
  Na  Na2  1  0.63958000  0.39329000  0.86844000  1.0
  Na  Na3  1  0.13958000  0.10671000  0.13156000  1.0
  H  H4  1  0.81055000  0.79004000  0.72727000  1.0
  H  H5  1  0.31055000  0.70996000  0.27273000  1.0
  H  H6  1  0.18946000  0.29004000  0.77273000  1.0
  H  H7  1  0.68946000  0.20996000  0.22727000  1.0
  H  H8  1  0.49661000  0.17988000  0.70296000  1.0
  H  H9  1  0.99660000  0.32012000  0.29704000  1.0
  H  H10  1  0.50339000  0.67988000  0.79704000  1.0
  H  H11  1  0.00340000  0.82012000  0.20296000  1.0
  H  H12  1  0.90671000  0.89694000  0.52226000  1.0
  H  H13  1  0.40671000  0.60306000  0.47774000  1.0
  H  H14  1  0.09329000  0.39694000  0.97774000  1.0
  H  H15  1  0.59329000  0.10306000  0.02226000  1.0
  H  H16  1  0.16971000  0.36098000  0.61729000  1.0
  H  H17  1  0.66971000  0.13902000  0.38271000  1.0
  H  H18  1  0.83029000  0.86098000  0.88271000  1.0
  H  H19  1  0.33029000  0.63902000  0.11729000  1.0
  H  H20  1  0.97896000  0.13087000  0.67411000  1.0
  H  H21  1  0.47896000  0.36913000  0.32589000  1.0
  H  H22  1  0.02103000  0.63087000  0.82589000  1.0
  H  H23  1  0.52103000  0.86913000  0.17411000  1.0
  H  H24  1  0.72715000  0.14786000  0.52342000  1.0
  H  H25  1  0.22715000  0.35214000  0.47658000  1.0
  H  H26  1  0.27285000  0.64786000  0.97658000  1.0
  H  H27  1  0.77285000  0.85214000  0.02342000  1.0
  H  H28  1  0.11908000  0.14603000  0.54266000  1.0
  H  H29  1  0.61909000  0.35397000  0.45734000  1.0
  H  H30  1  0.88092000  0.64603000  0.95734000  1.0
  H  H31  1  0.38092000  0.85397000  0.04266000  1.0
  C  C32  1  0.64350000  0.57250000  0.60254000  1.0
  C  C33  1  0.14349000  0.92750000  0.39746000  1.0
  C  C34  1  0.35650000  0.07250000  0.89746000  1.0
  C  C35  1  0.85651000  0.42750000  0.10254000  1.0
  C  C36  1  0.72328000  0.58755000  0.67592000  1.0
  C  C37  1  0.22328000  0.91245000  0.32408000  1.0
  C  C38  1  0.27672000  0.08755000  0.82408000  1.0
  C  C39  1  0.77672000  0.41245000  0.17592000  1.0
  C  C40  1  0.87571000  0.45444000  0.69762000  1.0
  C  C41  1  0.37571000  0.04557000  0.30238000  1.0
  C  C42  1  0.12429000  0.95444000  0.80238000  1.0
  C  C43  1  0.62429000  0.54557000  0.19762000  1.0
  C  C44  1  0.92872000  0.35833000  0.63071000  1.0
  C  C45  1  0.42872000  0.14167000  0.36929000  1.0
  C  C46  1  0.07128000  0.85833000  0.86929000  1.0
  C  C47  1  0.57128000  0.64167000  0.13071000  1.0
  C  C48  1  0.83675000  0.18652000  0.63341000  1.0
  C  C49  1  0.33675000  0.31348000  0.36659000  1.0
  C  C50  1  0.16325000  0.68653000  0.86659000  1.0
  C  C51  1  0.66325000  0.81348000  0.13341000  1.0
  C  C52  1  0.89734000  0.10965000  0.56228000  1.0
  C  C53  1  0.39734000  0.39035000  0.43772000  1.0
  C  C54  1  0.10267000  0.60965000  0.93772000  1.0
  C  C55  1  0.60266000  0.89035000  0.06228000  1.0
  O  O56  1  0.48088000  0.65824000  0.56497000  1.0
  O  O57  1  0.98090000  0.84177000  0.43503000  1.0
  O  O58  1  0.51911000  0.15824000  0.93504000  1.0
  O  O59  1  0.01910000  0.34177000  0.06497000  1.0
  O  O60  1  0.63064000  0.71445000  0.71549000  1.0
  O  O61  1  0.13064000  0.78555000  0.28451000  1.0
  O  O62  1  0.36936000  0.21445000  0.78451000  1.0
  O  O63  1  0.86936000  0.28555000  0.21549000  1.0
  O  O64  1  0.96344000  0.41274000  0.76016000  1.0
  O  O65  1  0.46344000  0.08726000  0.23984000  1.0
  O  O66  1  0.03656000  0.91274000  0.73984000  1.0
  O  O67  1  0.53656000  0.58726000  0.26016000  1.0
  O  O68  1  0.76724000  0.43946000  0.57432000  1.0
  O  O69  1  0.26725000  0.06054000  0.42567000  1.0
  O  O70  1  0.23276000  0.93946000  0.92568000  1.0
  O  O71  1  0.73275000  0.56054000  0.07433000  1.0
  O  O72  1  0.52884000  0.16070000  0.65096000  1.0
  O  O73  1  0.02883000  0.33930000  0.34904000  1.0
  O  O74  1  0.47116000  0.66070000  0.84904000  1.0
  O  O75  1  0.97116000  0.83930000  0.15096000  1.0
  O  O76  1  0.88597000  0.94297000  0.57092000  1.0
  O  O77  1  0.38597000  0.55703000  0.42908000  1.0
  O  O78  1  0.11403000  0.44297000  0.92908000  1.0
  O  O79  1  0.61403000  0.05703000  0.07092000  1.0
