# generated using pymatgen
data_Cd3H14C12N10(Cl3O)2
_symmetry_space_group_name_H-M   'P 1'
_cell_length_a   10.46420000
_cell_length_b   10.78321348
_cell_length_c   14.43380000
_cell_angle_alpha   100.61258580
_cell_angle_beta   90.00080000
_cell_angle_gamma   119.01114735
_symmetry_Int_Tables_number   1
_chemical_formula_structural   Cd3H14C12N10(Cl3O)2
_chemical_formula_sum   'Cd6 H28 C24 N20 Cl12 O4'
_cell_volume   1392.37538053
_cell_formula_units_Z   2
loop_
 _symmetry_equiv_pos_site_id
 _symmetry_equiv_pos_as_xyz
  1  'x, y, z'
loop_
 _atom_site_type_symbol
 _atom_site_label
 _atom_site_symmetry_multiplicity
 _atom_site_fract_x
 _atom_site_fract_y
 _atom_site_fract_z
 _atom_site_occupancy
  Cd  Cd0  1  0.70231000  0.57093000  0.01133000  1.0
  Cd  Cd1  1  0.13138000  0.42908000  0.48867000  1.0
  Cd  Cd2  1  0.29769000  0.42907000  0.98867000  1.0
  Cd  Cd3  1  0.86862000  0.57092000  0.51133000  1.0
  Cd  Cd4  1  0.00000000  0.50000000  0.00000000  1.0
  Cd  Cd5  1  0.50000000  0.50000000  0.50000000  1.0
  H  H6  1  0.79421000  0.84484000  0.12295000  1.0
  H  H7  1  0.94933000  0.15511000  0.37709000  1.0
  H  H8  1  0.20579000  0.15516000  0.87705000  1.0
  H  H9  1  0.05067000  0.84489000  0.62291000  1.0
  H  H10  1  0.64549000  0.80856000  0.06627000  1.0
  H  H11  1  0.83690000  0.19143000  0.43377000  1.0
  H  H12  1  0.35451000  0.19144000  0.93374000  1.0
  H  H13  1  0.16309000  0.80856000  0.56623000  1.0
  H  H14  1  0.66907000  0.91650000  0.82543000  1.0
  H  H15  1  0.75254000  0.08345000  0.67462000  1.0
  H  H16  1  0.33093000  0.08350000  0.17457000  1.0
  H  H17  1  0.24746000  0.91655000  0.32538000  1.0
  H  H18  1  0.26840000  0.92725000  0.88645000  1.0
  H  H19  1  0.34114000  0.07271000  0.61351000  1.0
  H  H20  1  0.73160000  0.07275000  0.11355000  1.0
  H  H21  1  0.65886000  0.92729000  0.38649000  1.0
  H  H22  1  0.12732000  0.66931000  0.79493000  1.0
  H  H23  1  0.45784000  0.33063000  0.70503000  1.0
  H  H24  1  0.87268000  0.33069000  0.20507000  1.0
  H  H25  1  0.54216000  0.66937000  0.29497000  1.0
  H  H26  1  0.51057000  0.65880000  0.73450000  1.0
  H  H27  1  0.85161000  0.34117000  0.76554000  1.0
  H  H28  1  0.48943000  0.34120000  0.26550000  1.0
  H  H29  1  0.14839000  0.65882000  0.23446000  1.0
  H  H30  1  0.25786000  0.55624000  0.72522000  1.0
  H  H31  1  0.70134000  0.44370000  0.77479000  1.0
  H  H32  1  0.74214000  0.44376000  0.27478000  1.0
  H  H33  1  0.29866000  0.55630000  0.22522000  1.0
  C  C34  1  0.57190000  0.09477000  0.90807000  1.0
  C  C35  1  0.47719000  0.90517000  0.59198000  1.0
  C  C36  1  0.42809000  0.90523000  0.09193000  1.0
  C  C37  1  0.52281000  0.09483000  0.40802000  1.0
  C  C38  1  0.48110000  0.94339000  0.86060000  1.0
  C  C39  1  0.53771000  0.05656000  0.63943000  1.0
  C  C40  1  0.51890000  0.05661000  0.13940000  1.0
  C  C41  1  0.46229000  0.94344000  0.36057000  1.0
  C  C42  1  0.54991000  0.86571000  0.81947000  1.0
  C  C43  1  0.68415000  0.13425000  0.68061000  1.0
  C  C44  1  0.45009000  0.13429000  0.18053000  1.0
  C  C45  1  0.31585000  0.86575000  0.31939000  1.0
  C  C46  1  0.32657000  0.87327000  0.85270000  1.0
  C  C47  1  0.45324000  0.12665000  0.64731000  1.0
  C  C48  1  0.67343000  0.12673000  0.14730000  1.0
  C  C49  1  0.54676000  0.87335000  0.35269000  1.0
  C  C50  1  0.24677000  0.73119000  0.80337000  1.0
  C  C51  1  0.51545000  0.26875000  0.69662000  1.0
  C  C52  1  0.75323000  0.26881000  0.19663000  1.0
  C  C53  1  0.48455000  0.73125000  0.30338000  1.0
  C  C54  1  0.46511000  0.72433000  0.77006000  1.0
  C  C55  1  0.74065000  0.27564000  0.72998000  1.0
  C  C56  1  0.53489000  0.27567000  0.22994000  1.0
  C  C57  1  0.25935000  0.72436000  0.27002000  1.0
  N  N58  1  0.71896000  0.15791000  0.92759000  1.0
  N  N59  1  0.56107000  0.84197000  0.57245000  1.0
  N  N60  1  0.28104000  0.84209000  0.07241000  1.0
  N  N61  1  0.43893000  0.15803000  0.42755000  1.0
  N  N62  1  0.52472000  0.19189000  0.93406000  1.0
  N  N63  1  0.33291000  0.80810000  0.56596000  1.0
  N  N64  1  0.47528000  0.80811000  0.06594000  1.0
  N  N65  1  0.66709000  0.19190000  0.43404000  1.0
  N  N66  1  0.64559000  0.31624000  0.96980000  1.0
  N  N67  1  0.32944000  0.68373000  0.53020000  1.0
  N  N68  1  0.35440000  0.68376000  0.03020000  1.0
  N  N69  1  0.67056000  0.31627000  0.46980000  1.0
  N  N70  1  0.76085000  0.29493000  0.96585000  1.0
  N  N71  1  0.46598000  0.70498000  0.53416000  1.0
  N  N72  1  0.23915000  0.70507000  0.03415000  1.0
  N  N73  1  0.53402000  0.29502000  0.46584000  1.0
  N  N74  1  0.31758000  0.66213000  0.76296000  1.0
  N  N75  1  0.65526000  0.33781000  0.73706000  1.0
  N  N76  1  0.68242000  0.33787000  0.23704000  1.0
  N  N77  1  0.34474000  0.66219000  0.26294000  1.0
  Cl  Cl78  1  0.90580000  0.62079000  0.14029000  1.0
  Cl  Cl79  1  0.28498000  0.37922000  0.35971000  1.0
  Cl  Cl80  1  0.09420000  0.37921000  0.85971000  1.0
  Cl  Cl81  1  0.71502000  0.62078000  0.64029000  1.0
  Cl  Cl82  1  0.49231000  0.48665000  0.12440000  1.0
  Cl  Cl83  1  0.00566000  0.51338000  0.37559000  1.0
  Cl  Cl84  1  0.50769000  0.51335000  0.87560000  1.0
  Cl  Cl85  1  0.99434000  0.48662000  0.62441000  1.0
  Cl  Cl86  1  0.90058000  0.61556000  0.88877000  1.0
  Cl  Cl87  1  0.28502000  0.38439000  0.61122000  1.0
  Cl  Cl88  1  0.09942000  0.38444000  0.11123000  1.0
  Cl  Cl89  1  0.71498000  0.61561000  0.38878000  1.0
  O  O90  1  0.74212000  0.81055000  0.05972000  1.0
  O  O91  1  0.93154000  0.18945000  0.44032000  1.0
  O  O92  1  0.25788000  0.18945000  0.94028000  1.0
  O  O93  1  0.06845000  0.81054000  0.55968000  1.0
