# generated using pymatgen
data_CaH2C2O5
_symmetry_space_group_name_H-M   'P 1'
_cell_length_a   6.33092000
_cell_length_b   9.97085000
_cell_length_c   14.60820000
_cell_angle_alpha   90.00000000
_cell_angle_beta   89.99990000
_cell_angle_gamma   106.99800000
_symmetry_Int_Tables_number   1
_chemical_formula_structural   CaH2C2O5
_chemical_formula_sum   'Ca8 H16 C16 O40'
_cell_volume   881.85395046
_cell_formula_units_Z   8
loop_
 _symmetry_equiv_pos_site_id
 _symmetry_equiv_pos_as_xyz
  1  'x, y, z'
loop_
 _atom_site_type_symbol
 _atom_site_label
 _atom_site_symmetry_multiplicity
 _atom_site_fract_x
 _atom_site_fract_y
 _atom_site_fract_z
 _atom_site_occupancy
  Ca  Ca0  1  0.90814000  0.94797000  0.12388000  1.0
  Ca  Ca1  1  0.59186000  0.55203000  0.62388000  1.0
  Ca  Ca2  1  0.09186000  0.05203000  0.87612000  1.0
  Ca  Ca3  1  0.40814000  0.44797000  0.37612000  1.0
  Ca  Ca4  1  0.56047000  0.56320000  0.12311000  1.0
  Ca  Ca5  1  0.93953000  0.93680000  0.62311000  1.0
  Ca  Ca6  1  0.43953000  0.43680000  0.87689000  1.0
  Ca  Ca7  1  0.06047000  0.06320000  0.37689000  1.0
  H  H8  1  0.94282000  0.45171000  0.13458000  1.0
  H  H9  1  0.55718000  0.04829000  0.63458000  1.0
  H  H10  1  0.05718000  0.54829000  0.86542000  1.0
  H  H11  1  0.44282000  0.95171000  0.36542000  1.0
  H  H12  1  0.79786000  0.40673000  0.22337000  1.0
  H  H13  1  0.70214000  0.09327000  0.72337000  1.0
  H  H14  1  0.20214000  0.59327000  0.77663000  1.0
  H  H15  1  0.29786000  0.90673000  0.27663000  1.0
  H  H16  1  0.53809000  0.06372000  0.12549000  1.0
  H  H17  1  0.96191000  0.43628000  0.62549000  1.0
  H  H18  1  0.46191000  0.93628000  0.87451000  1.0
  H  H19  1  0.03809000  0.56372000  0.37451000  1.0
  H  H20  1  0.72648000  0.21264000  0.12742000  1.0
  H  H21  1  0.77352000  0.28736000  0.62742000  1.0
  H  H22  1  0.27352000  0.78736000  0.87258000  1.0
  H  H23  1  0.22648000  0.71264000  0.37258000  1.0
  C  C24  1  0.73693000  0.75519000  0.31996000  1.0
  C  C25  1  0.76307000  0.74481000  0.81996000  1.0
  C  C26  1  0.26307000  0.24481000  0.68004000  1.0
  C  C27  1  0.23693000  0.25519000  0.18004000  1.0
  C  C28  1  0.75294000  0.75016000  0.42690000  1.0
  C  C29  1  0.74706000  0.74984000  0.92690000  1.0
  C  C30  1  0.24706000  0.24984000  0.57310000  1.0
  C  C31  1  0.25294000  0.25016000  0.07310000  1.0
  C  C32  1  0.33554000  0.81787000  0.12786000  1.0
  C  C33  1  0.16446000  0.68213000  0.62785000  1.0
  C  C34  1  0.66446000  0.18213000  0.87214000  1.0
  C  C35  1  0.83554000  0.31787000  0.37214000  1.0
  C  C36  1  0.13413000  0.68631000  0.11772000  1.0
  C  C37  1  0.36587000  0.81369000  0.61771000  1.0
  C  C38  1  0.86586000  0.31369000  0.88228000  1.0
  C  C39  1  0.63413000  0.18631000  0.38228000  1.0
  O  O40  1  0.84243000  0.86903000  0.28155000  1.0
  O  O41  1  0.65757000  0.63097000  0.78155000  1.0
  O  O42  1  0.15757000  0.13097000  0.71845000  1.0
  O  O43  1  0.34243000  0.36903000  0.21845000  1.0
  O  O44  1  0.87122000  0.86013000  0.46574000  1.0
  O  O45  1  0.62878000  0.63987000  0.96574000  1.0
  O  O46  1  0.12878000  0.13987000  0.53426000  1.0
  O  O47  1  0.37122000  0.36013000  0.03426000  1.0
  O  O48  1  0.62038000  0.64524000  0.28072000  1.0
  O  O49  1  0.87962000  0.85476000  0.78072000  1.0
  O  O50  1  0.37962000  0.35476000  0.71928000  1.0
  O  O51  1  0.12038000  0.14524000  0.21928000  1.0
  O  O52  1  0.64687000  0.63697000  0.46557000  1.0
  O  O53  1  0.85314000  0.86303000  0.96557000  1.0
  O  O54  1  0.35313000  0.36303000  0.53443000  1.0
  O  O55  1  0.14686000  0.13697000  0.03443000  1.0
  O  O56  1  0.29302000  0.93186000  0.14691000  1.0
  O  O57  1  0.20699000  0.56814000  0.64691000  1.0
  O  O58  1  0.70698000  0.06814000  0.85309000  1.0
  O  O59  1  0.79302000  0.43186000  0.35309000  1.0
  O  O60  1  0.52503000  0.80167000  0.12086000  1.0
  O  O61  1  0.97497000  0.69833000  0.62086000  1.0
  O  O62  1  0.47497000  0.19834000  0.87914000  1.0
  O  O63  1  0.02503000  0.30167000  0.37914000  1.0
  O  O64  1  0.94519000  0.70495000  0.12121000  1.0
  O  O65  1  0.55481000  0.79505000  0.62121000  1.0
  O  O66  1  0.05481000  0.29505000  0.87879000  1.0
  O  O67  1  0.44519000  0.20495000  0.37879000  1.0
  O  O68  1  0.17548000  0.56986000  0.10962000  1.0
  O  O69  1  0.32452000  0.93013000  0.60962000  1.0
  O  O70  1  0.82452000  0.43013000  0.89038000  1.0
  O  O71  1  0.67548000  0.06987000  0.39038000  1.0
  O  O72  1  0.79102000  0.39624000  0.15630000  1.0
  O  O73  1  0.70898000  0.10376000  0.65630000  1.0
  O  O74  1  0.20898000  0.60376000  0.84370000  1.0
  O  O75  1  0.29102000  0.89624000  0.34370000  1.0
  O  O76  1  0.69560000  0.11198000  0.11226000  1.0
  O  O77  1  0.80440000  0.38802000  0.61226000  1.0
  O  O78  1  0.30440000  0.88802000  0.88774000  1.0
  O  O79  1  0.19560000  0.61198000  0.38774000  1.0
