# generated using pymatgen
data_LiH3C(N2O)3
_symmetry_space_group_name_H-M   'P 1'
_cell_length_a   6.69425000
_cell_length_b   8.40132000
_cell_length_c   10.14970000
_cell_angle_alpha   90.00010000
_cell_angle_beta   90.00010000
_cell_angle_gamma   109.22100000
_symmetry_Int_Tables_number   1
_chemical_formula_structural   LiH3C(N2O)3
_chemical_formula_sum   'Li4 H12 C4 N24 O12'
_cell_volume   539.00439665
_cell_formula_units_Z   4
loop_
 _symmetry_equiv_pos_site_id
 _symmetry_equiv_pos_as_xyz
  1  'x, y, z'
loop_
 _atom_site_type_symbol
 _atom_site_label
 _atom_site_symmetry_multiplicity
 _atom_site_fract_x
 _atom_site_fract_y
 _atom_site_fract_z
 _atom_site_occupancy
  Li  Li0  1  0.73918000  0.08872000  0.28868000  1.0
  Li  Li1  1  0.76082000  0.91128000  0.78868000  1.0
  Li  Li2  1  0.26082000  0.91128000  0.71132000  1.0
  Li  Li3  1  0.23918000  0.08872000  0.21132000  1.0
  H  H4  1  0.73470000  0.51713000  0.63967000  1.0
  H  H5  1  0.76529000  0.48288000  0.13967000  1.0
  H  H6  1  0.26530000  0.48288000  0.36033000  1.0
  H  H7  1  0.23470000  0.51712000  0.86033000  1.0
  H  H8  1  0.37667000  0.86301000  0.23145000  1.0
  H  H9  1  0.12333000  0.13699000  0.73145000  1.0
  H  H10  1  0.62333000  0.13699000  0.76854000  1.0
  H  H11  1  0.87667000  0.86301000  0.26855000  1.0
  H  H12  1  0.36747000  0.93090000  0.37593000  1.0
  H  H13  1  0.13253000  0.06910000  0.87593000  1.0
  H  H14  1  0.63253000  0.06910000  0.62407000  1.0
  H  H15  1  0.86747000  0.93090000  0.12407000  1.0
  C  C16  1  0.76612000  0.57114000  0.42748000  1.0
  C  C17  1  0.73388000  0.42887000  0.92748000  1.0
  C  C18  1  0.23388000  0.42887000  0.57252000  1.0
  C  C19  1  0.26612000  0.57113000  0.07252000  1.0
  N  N20  1  0.74410000  0.48178000  0.54173000  1.0
  N  N21  1  0.75590000  0.51822000  0.04173000  1.0
  N  N22  1  0.25590000  0.51822000  0.45827000  1.0
  N  N23  1  0.24410000  0.48178000  0.95827000  1.0
  N  N24  1  0.74157000  0.32459000  0.51290000  1.0
  N  N25  1  0.75843000  0.67541000  0.01290000  1.0
  N  N26  1  0.25843000  0.67541000  0.48710000  1.0
  N  N27  1  0.24157000  0.32459000  0.98710000  1.0
  N  N28  1  0.76074000  0.31844000  0.38546000  1.0
  N  N29  1  0.73926000  0.68156000  0.88546000  1.0
  N  N30  1  0.23926000  0.68156000  0.61454000  1.0
  N  N31  1  0.26074000  0.31844000  0.11454000  1.0
  N  N32  1  0.77599000  0.46703000  0.32847000  1.0
  N  N33  1  0.72401000  0.53297000  0.82846000  1.0
  N  N34  1  0.22401000  0.53297000  0.67153000  1.0
  N  N35  1  0.27599000  0.46703000  0.17153000  1.0
  N  N36  1  0.77623000  0.73265000  0.40169000  1.0
  N  N37  1  0.72376000  0.26735000  0.90169000  1.0
  N  N38  1  0.22377000  0.26735000  0.59831000  1.0
  N  N39  1  0.27623000  0.73265000  0.09831000  1.0
  N  N40  1  0.76312000  0.82851000  0.50262000  1.0
  N  N41  1  0.73688000  0.17149000  0.00262000  1.0
  N  N42  1  0.23688000  0.17149000  0.49738000  1.0
  N  N43  1  0.26312000  0.82851000  0.99738000  1.0
  O  O44  1  0.74438000  0.77412000  0.61963000  1.0
  O  O45  1  0.75562000  0.22588000  0.11964000  1.0
  O  O46  1  0.25562000  0.22588000  0.38036000  1.0
  O  O47  1  0.24438000  0.77412000  0.88037000  1.0
  O  O48  1  0.76995000  0.97760000  0.47700000  1.0
  O  O49  1  0.73005000  0.02240000  0.97700000  1.0
  O  O50  1  0.23005000  0.02240000  0.52300000  1.0
  O  O51  1  0.26995000  0.97760000  0.02300000  1.0
  O  O52  1  0.42821000  0.96583000  0.28823000  1.0
  O  O53  1  0.07179000  0.03417000  0.78823000  1.0
  O  O54  1  0.57179000  0.03417000  0.71177000  1.0
  O  O55  1  0.92821000  0.96583000  0.21177000  1.0
