# generated using pymatgen
data_CoH30C28N8(O5F4)2
_symmetry_space_group_name_H-M   'P 1'
_cell_length_a   8.75413000
_cell_length_b   9.60825000
_cell_length_c   10.88760511
_cell_angle_alpha   85.49018945
_cell_angle_beta   69.44888674
_cell_angle_gamma   72.70280000
_symmetry_Int_Tables_number   1
_chemical_formula_structural   CoH30C28N8(O5F4)2
_chemical_formula_sum   'Co1 H30 C28 N8 O10 F8'
_cell_volume   818.37670513
_cell_formula_units_Z   1
loop_
 _symmetry_equiv_pos_site_id
 _symmetry_equiv_pos_as_xyz
  1  'x, y, z'
loop_
 _atom_site_type_symbol
 _atom_site_label
 _atom_site_symmetry_multiplicity
 _atom_site_fract_x
 _atom_site_fract_y
 _atom_site_fract_z
 _atom_site_occupancy
  Co  Co0  1  0.50001000  0.99999000  0.50001000  1.0
  H  H1  1  0.76313000  0.74789000  0.46018000  1.0
  H  H2  1  0.23688000  0.25211000  0.53982000  1.0
  H  H3  1  0.75080000  0.70942000  0.60574000  1.0
  H  H4  1  0.24918000  0.29062000  0.39427000  1.0
  H  H5  1  0.15507000  0.00672000  0.51423000  1.0
  H  H6  1  0.84495000  0.99328000  0.48576000  1.0
  H  H7  1  0.26502000  0.05304000  0.35095000  1.0
  H  H8  1  0.73501000  0.94696000  0.64906000  1.0
  H  H9  1  0.28870000  0.78517000  0.60853000  1.0
  H  H10  1  0.71130000  0.21482000  0.39147000  1.0
  H  H11  1  0.49338000  0.67244000  0.51186000  1.0
  H  H12  1  0.50662000  0.32755000  0.48815000  1.0
  H  H13  1  0.53687000  0.89422000  0.22330000  1.0
  H  H14  1  0.46317000  0.10577000  0.77670000  1.0
  H  H15  1  0.63435000  0.73030000  0.29271000  1.0
  H  H16  1  0.36567000  0.26969000  0.70730000  1.0
  H  H17  1  0.29584000  0.91294000  0.16786000  1.0
  H  H18  1  0.70421000  0.08706000  0.83213000  1.0
  H  H19  1  0.20448000  0.76401000  0.19375000  1.0
  H  H20  1  0.79555000  0.23600000  0.80624000  1.0
  H  H21  1  0.06065000  0.70180000  0.41138000  1.0
  H  H22  1  0.93937000  0.29821000  0.58860000  1.0
  H  H23  1  0.04062000  0.80525000  0.54928000  1.0
  H  H24  1  0.95939000  0.19476000  0.45071000  1.0
  H  H25  1  0.51910000  0.53042000  0.32608000  1.0
  H  H26  1  0.48092000  0.46957000  0.67391000  1.0
  H  H27  1  0.33310000  0.54265000  0.28498000  1.0
  H  H28  1  0.66691000  0.45736000  0.71501000  1.0
  H  H29  1  0.75235000  0.42150000  0.46955000  1.0
  H  H30  1  0.24764000  0.57851000  0.53043000  1.0
  C  C31  1  0.19594000  0.07553000  0.73556000  1.0
  C  C32  1  0.80405000  0.92446000  0.26446000  1.0
  C  C33  1  0.10246000  0.02904000  0.87140000  1.0
  C  C34  1  0.89753000  0.97095000  0.12862000  1.0
  C  C35  1  0.00082000  0.93627000  0.89091000  1.0
  C  C36  1  0.99919000  0.06371000  0.10909000  1.0
  C  C37  1  0.89926000  0.90952000  0.01601000  1.0
  C  C38  1  0.10074000  0.09047000  0.98400000  1.0
  C  C39  1  0.23801000  0.96352000  0.41534000  1.0
  C  C40  1  0.76201000  0.03648000  0.58466000  1.0
  C  C41  1  0.37160000  0.74472000  0.50919000  1.0
  C  C42  1  0.62841000  0.25527000  0.49081000  1.0
  C  C43  1  0.51432000  0.80357000  0.28740000  1.0
  C  C44  1  0.48569000  0.19642000  0.71261000  1.0
  C  C45  1  0.26860000  0.82280000  0.23207000  1.0
  C  C46  1  0.73142000  0.17720000  0.76792000  1.0
  C  C47  1  0.12099000  0.76498000  0.44910000  1.0
  C  C48  1  0.87902000  0.23503000  0.55088000  1.0
  C  C49  1  0.39895000  0.60297000  0.32023000  1.0
  C  C50  1  0.60106000  0.39702000  0.67976000  1.0
  C  C51  1  0.96163000  0.45643000  0.27919000  1.0
  C  C52  1  0.03832000  0.54360000  0.72081000  1.0
  C  C53  1  0.98327000  0.47767000  0.13540000  1.0
  C  C54  1  0.01670000  0.52233000  0.86460000  1.0
  C  C55  1  0.11303000  0.52968000  0.04830000  1.0
  C  C56  1  0.88693000  0.47033000  0.95169000  1.0
  C  C57  1  0.12830000  0.55254000  0.91733000  1.0
  C  C58  1  0.87167000  0.44744000  0.08266000  1.0
  N  N59  1  0.40509000  0.86850000  0.42381000  1.0
  N  N60  1  0.59492000  0.13149000  0.57620000  1.0
  N  N61  1  0.43047000  0.72376000  0.23680000  1.0
  N  N62  1  0.56956000  0.27624000  0.76320000  1.0
  N  N63  1  0.15525000  0.88331000  0.36398000  1.0
  N  N64  1  0.84477000  0.11670000  0.63601000  1.0
  N  N65  1  0.28552000  0.66270000  0.45665000  1.0
  N  N66  1  0.71448000  0.33730000  0.54335000  1.0
  O  O67  1  0.33646000  0.98190000  0.67010000  1.0
  O  O68  1  0.66355000  0.01807000  0.32992000  1.0
  O  O69  1  0.12970000  0.19978000  0.70263000  1.0
  O  O70  1  0.87033000  0.80020000  0.29737000  1.0
  O  O71  1  0.68208000  0.75815000  0.55146000  1.0
  O  O72  1  0.31791000  0.24187000  0.44854000  1.0
  O  O73  1  0.80528000  0.50061000  0.35556000  1.0
  O  O74  1  0.19464000  0.49939000  0.64443000  1.0
  O  O75  1  0.08980000  0.39951000  0.31158000  1.0
  O  O76  1  0.91012000  0.60059000  0.68845000  1.0
  F  F77  1  0.99645000  0.87154000  0.78617000  1.0
  F  F78  1  0.00355000  0.12845000  0.21385000  1.0
  F  F79  1  0.79834000  0.82252000  0.02715000  1.0
  F  F80  1  0.20166000  0.17747000  0.97286000  1.0
  F  F81  1  0.22681000  0.56335000  0.09015000  1.0
  F  F82  1  0.77313000  0.43667000  0.90985000  1.0
  F  F83  1  0.25303000  0.61179000  0.84273000  1.0
  F  F84  1  0.74698000  0.38816000  0.15724000  1.0
