# generated using pymatgen
data_MnH5C7N6ClO2
_symmetry_space_group_name_H-M   'P 1'
_cell_length_a   6.87747000
_cell_length_b   11.76290000
_cell_length_c   12.90140000
_cell_angle_alpha   89.99820000
_cell_angle_beta   89.99760000
_cell_angle_gamma   106.19000000
_symmetry_Int_Tables_number   1
_chemical_formula_structural   MnH5C7N6ClO2
_chemical_formula_sum   'Mn4 H20 C28 N24 Cl4 O8'
_cell_volume   1002.31917060
_cell_formula_units_Z   4
loop_
 _symmetry_equiv_pos_site_id
 _symmetry_equiv_pos_as_xyz
  1  'x, y, z'
loop_
 _atom_site_type_symbol
 _atom_site_label
 _atom_site_symmetry_multiplicity
 _atom_site_fract_x
 _atom_site_fract_y
 _atom_site_fract_z
 _atom_site_occupancy
  Mn  Mn0  1  0.01419000  0.28955000  0.83024000  1.0
  Mn  Mn1  1  0.48664000  0.71115000  0.32979000  1.0
  Mn  Mn2  1  0.98661000  0.71117000  0.17019000  1.0
  Mn  Mn3  1  0.51417000  0.28953000  0.66979000  1.0
  H  H4  1  0.41643000  0.34412000  0.19102000  1.0
  H  H5  1  0.08393000  0.65628000  0.69077000  1.0
  H  H6  1  0.58395000  0.65631000  0.80923000  1.0
  H  H7  1  0.91641000  0.34412000  0.30895000  1.0
  H  H8  1  0.37144000  0.40615000  0.06811000  1.0
  H  H9  1  0.12872000  0.59407000  0.56788000  1.0
  H  H10  1  0.62870000  0.59409000  0.93211000  1.0
  H  H11  1  0.87148000  0.40616000  0.43187000  1.0
  H  H12  1  0.29243000  0.11421000  0.90153000  1.0
  H  H13  1  0.20775000  0.88589000  0.40143000  1.0
  H  H14  1  0.70773000  0.88590000  0.09856000  1.0
  H  H15  1  0.79241000  0.11418000  0.59848000  1.0
  H  H16  1  0.37929000  0.02611000  0.07124000  1.0
  H  H17  1  0.12041000  0.97367000  0.57124000  1.0
  H  H18  1  0.62044000  0.97370000  0.92874000  1.0
  H  H19  1  0.87929000  0.02609000  0.42876000  1.0
  H  H20  1  0.18378000  0.05018000  0.22984000  1.0
  H  H21  1  0.31570000  0.94946000  0.72982000  1.0
  H  H22  1  0.81573000  0.94946000  0.77017000  1.0
  H  H23  1  0.68383000  0.05020000  0.27016000  1.0
  C  C24  1  0.56428000  0.53255000  0.16944000  1.0
  C  C25  1  0.93657000  0.46784000  0.66951000  1.0
  C  C26  1  0.43656000  0.46785000  0.83050000  1.0
  C  C27  1  0.06432000  0.53257000  0.33055000  1.0
  C  C28  1  0.99224000  0.19672000  0.06358000  1.0
  C  C29  1  0.50761000  0.80318000  0.56346000  1.0
  C  C30  1  0.00761000  0.80317000  0.93655000  1.0
  C  C31  1  0.49227000  0.19673000  0.43644000  1.0
  C  C32  1  0.48393000  0.40521000  0.12850000  1.0
  C  C33  1  0.01635000  0.59505000  0.62836000  1.0
  C  C34  1  0.51637000  0.59506000  0.87166000  1.0
  C  C35  1  0.98392000  0.40522000  0.37149000  1.0
  C  C36  1  0.21934000  0.12253000  0.97520000  1.0
  C  C37  1  0.28067000  0.87745000  0.47512000  1.0
  C  C38  1  0.78069000  0.87746000  0.02489000  1.0
  C  C39  1  0.71934000  0.12253000  0.52481000  1.0
  C  C40  1  0.26651000  0.07496000  0.06743000  1.0
  C  C41  1  0.23320000  0.92483000  0.56737000  1.0
  C  C42  1  0.73324000  0.92485000  0.93262000  1.0
  C  C43  1  0.76650000  0.07495000  0.43258000  1.0
  C  C44  1  0.85762000  0.27318000  0.05773000  1.0
  C  C45  1  0.64226000  0.72675000  0.55763000  1.0
  C  C46  1  0.14225000  0.72673000  0.94239000  1.0
  C  C47  1  0.35762000  0.27319000  0.44228000  1.0
  C  C48  1  0.15822000  0.08857000  0.15602000  1.0
  C  C49  1  0.34138000  0.91115000  0.65598000  1.0
  C  C50  1  0.84139000  0.91115000  0.84401000  1.0
  C  C51  1  0.65824000  0.08857000  0.34399000  1.0
  N  N52  1  0.64128000  0.36225000  0.08126000  1.0
  N  N53  1  0.85874000  0.63780000  0.58117000  1.0
  N  N54  1  0.35871000  0.63780000  0.91884000  1.0
  N  N55  1  0.14129000  0.36224000  0.41872000  1.0
  N  N56  1  0.72529000  0.28728000  0.12892000  1.0
  N  N57  1  0.77472000  0.71278000  0.62879000  1.0
  N  N58  1  0.27470000  0.71279000  0.87120000  1.0
  N  N59  1  0.22533000  0.28727000  0.37106000  1.0
  N  N60  1  0.07982000  0.18290000  0.97269000  1.0
  N  N61  1  0.42035000  0.81719000  0.47253000  1.0
  N  N62  1  0.92036000  0.81721000  0.02749000  1.0
  N  N63  1  0.57982000  0.18290000  0.52733000  1.0
  N  N64  1  0.71590000  0.39557000  0.98705000  1.0
  N  N65  1  0.78397000  0.60436000  0.48699000  1.0
  N  N66  1  0.28394000  0.60436000  0.01302000  1.0
  N  N67  1  0.21594000  0.39558000  0.51292000  1.0
  N  N68  1  0.85363000  0.33920000  0.97165000  1.0
  N  N69  1  0.64618000  0.66069000  0.47158000  1.0
  N  N70  1  0.14618000  0.66068000  0.02842000  1.0
  N  N71  1  0.35359000  0.33920000  0.52833000  1.0
  N  N72  1  0.02038000  0.14981000  0.15481000  1.0
  N  N73  1  0.47916000  0.84986000  0.65475000  1.0
  N  N74  1  0.97916000  0.84986000  0.84525000  1.0
  N  N75  1  0.52040000  0.14981000  0.34520000  1.0
  Cl  Cl76  1  0.15352000  0.16657000  0.70964000  1.0
  Cl  Cl77  1  0.34387000  0.83199000  0.21026000  1.0
  Cl  Cl78  1  0.84388000  0.83202000  0.28975000  1.0
  Cl  Cl79  1  0.65352000  0.16654000  0.79038000  1.0
  O  O80  1  0.69784000  0.60436000  0.11649000  1.0
  O  O81  1  0.80308000  0.39575000  0.61672000  1.0
  O  O82  1  0.30313000  0.39578000  0.88329000  1.0
  O  O83  1  0.19785000  0.60435000  0.38348000  1.0
  O  O84  1  0.48101000  0.55347000  0.25201000  1.0
  O  O85  1  0.02027000  0.44725000  0.75203000  1.0
  O  O86  1  0.52025000  0.44725000  0.74797000  1.0
  O  O87  1  0.98097000  0.55351000  0.24800000  1.0
