# generated using pymatgen
data_Ag3H28C36S2N7O10
_symmetry_space_group_name_H-M   'P 1'
_cell_length_a   11.34270000
_cell_length_b   12.60330000
_cell_length_c   13.68700000
_cell_angle_alpha   82.09830000
_cell_angle_beta   89.99950000
_cell_angle_gamma   89.99940000
_symmetry_Int_Tables_number   1
_chemical_formula_structural   Ag3H28C36S2N7O10
_chemical_formula_sum   'Ag6 H56 C72 S4 N14 O20'
_cell_volume   1938.05379546
_cell_formula_units_Z   2
loop_
 _symmetry_equiv_pos_site_id
 _symmetry_equiv_pos_as_xyz
  1  'x, y, z'
loop_
 _atom_site_type_symbol
 _atom_site_label
 _atom_site_symmetry_multiplicity
 _atom_site_fract_x
 _atom_site_fract_y
 _atom_site_fract_z
 _atom_site_occupancy
  Ag  Ag0  1  0.73383000  0.59745000  0.44278000  1.0
  Ag  Ag1  1  0.26617000  0.09745000  0.94278000  1.0
  Ag  Ag2  1  0.63041000  0.71840000  0.63209000  1.0
  Ag  Ag3  1  0.36959000  0.21839000  0.13210000  1.0
  Ag  Ag4  1  0.59128000  0.79233000  0.84283000  1.0
  Ag  Ag5  1  0.40872000  0.29233000  0.34282000  1.0
  H  H6  1  0.82638000  0.59274000  0.74902000  1.0
  H  H7  1  0.17363000  0.09273000  0.24902000  1.0
  H  H8  1  0.04444000  0.59033000  0.75715000  1.0
  H  H9  1  0.95556000  0.09032000  0.25715000  1.0
  H  H10  1  0.04560000  0.85224000  0.51664000  1.0
  H  H11  1  0.95439000  0.35224000  0.01665000  1.0
  H  H12  1  0.82722000  0.85032000  0.52417000  1.0
  H  H13  1  0.17277000  0.35032000  0.02418000  1.0
  H  H14  1  0.43485000  0.56057000  0.69538000  1.0
  H  H15  1  0.56515000  0.06055000  0.19539000  1.0
  H  H16  1  0.21798000  0.88716000  0.56814000  1.0
  H  H17  1  0.78201000  0.38715000  0.06815000  1.0
  H  H18  1  0.43333000  0.87708000  0.56309000  1.0
  H  H19  1  0.56666000  0.37707000  0.06310000  1.0
  H  H20  1  0.92963000  0.47376000  0.55251000  1.0
  H  H21  1  0.07037000  0.97376000  0.05251000  1.0
  H  H22  1  0.14859000  0.46330000  0.55501000  1.0
  H  H23  1  0.85140000  0.96329000  0.05501000  1.0
  H  H24  1  0.14889000  0.71726000  0.30584000  1.0
  H  H25  1  0.85112000  0.21726000  0.80585000  1.0
  H  H26  1  0.93128000  0.71344000  0.31220000  1.0
  H  H27  1  0.06872000  0.21344000  0.81221000  1.0
  H  H28  1  0.54244000  0.44023000  0.49834000  1.0
  H  H29  1  0.45756000  0.94023000  0.99834000  1.0
  H  H30  1  0.32469000  0.42731000  0.50033000  1.0
  H  H31  1  0.67531000  0.92731000  0.00033000  1.0
  H  H32  1  0.31492000  0.75865000  0.36432000  1.0
  H  H33  1  0.68509000  0.25865000  0.86433000  1.0
  H  H34  1  0.53263000  0.75897000  0.37280000  1.0
  H  H35  1  0.46737000  0.25897000  0.87281000  1.0
  H  H36  1  0.72923000  0.20037000  0.62923000  1.0
  H  H37  1  0.27077000  0.70035000  0.12923000  1.0
  H  H38  1  0.43333000  0.39207000  0.69782000  1.0
  H  H39  1  0.56667000  0.89206000  0.19783000  1.0
  H  H40  1  0.78935000  0.69740000  0.98148000  1.0
  H  H41  1  0.21066000  0.19742000  0.48148000  1.0
  H  H42  1  0.00660000  0.70755000  0.99602000  1.0
  H  H43  1  0.99341000  0.20756000  0.49602000  1.0
  H  H44  1  0.00348000  0.94968000  0.73851000  1.0
  H  H45  1  0.99652000  0.44968000  0.23851000  1.0
  H  H46  1  0.78619000  0.93586000  0.73922000  1.0
  H  H47  1  0.21381000  0.43587000  0.23921000  1.0
  H  H48  1  0.39896000  0.96037000  0.76706000  1.0
  H  H49  1  0.60104000  0.46037000  0.26705000  1.0
  H  H50  1  0.18462000  0.98266000  0.77676000  1.0
  H  H51  1  0.81538000  0.48266000  0.27676000  1.0
  H  H52  1  0.17188000  0.66192000  0.94231000  1.0
  H  H53  1  0.82812000  0.16193000  0.44231000  1.0
  H  H54  1  0.38539000  0.65326000  0.92159000  1.0
  H  H55  1  0.61461000  0.15327000  0.42159000  1.0
  H  H56  1  0.21649000  0.55387000  0.70267000  1.0
  H  H57  1  0.78351000  0.05386000  0.20267000  1.0
  H  H58  1  0.57090000  0.55183000  0.93159000  1.0
  H  H59  1  0.42911000  0.05184000  0.43159000  1.0
  H  H60  1  0.61886000  0.54857000  0.82426000  1.0
  H  H61  1  0.38114000  0.04856000  0.32426000  1.0
  C  C62  1  0.87837000  0.64963000  0.69952000  1.0
  C  C63  1  0.12163000  0.14962000  0.19953000  1.0
  C  C64  1  0.00064000  0.64841000  0.70279000  1.0
  C  C65  1  0.99936000  0.14840000  0.20280000  1.0
  C  C66  1  0.06553000  0.72121000  0.63677000  1.0
  C  C67  1  0.93447000  0.22120000  0.13678000  1.0
  C  C68  1  0.00119000  0.79453000  0.57092000  1.0
  C  C69  1  0.99880000  0.29453000  0.07093000  1.0
  C  C70  1  0.87893000  0.79244000  0.57285000  1.0
  C  C71  1  0.12106000  0.29244000  0.07286000  1.0
  C  C72  1  0.38176000  0.63016000  0.66757000  1.0
  C  C73  1  0.61824000  0.13015000  0.16758000  1.0
  C  C74  1  0.19548000  0.72042000  0.63521000  1.0
  C  C75  1  0.80452000  0.22041000  0.13521000  1.0
  C  C76  1  0.25992000  0.81107000  0.59527000  1.0
  C  C77  1  0.74007000  0.31106000  0.09529000  1.0
  C  C78  1  0.38211000  0.80694000  0.59270000  1.0
  C  C79  1  0.61788000  0.30693000  0.09271000  1.0
  C  C80  1  0.98277000  0.52574000  0.49942000  1.0
  C  C81  1  0.01723000  0.02573000  0.99942000  1.0
  C  C82  1  0.10513000  0.52051000  0.49946000  1.0
  C  C83  1  0.89487000  0.02050000  0.99946000  1.0
  C  C84  1  0.16941000  0.59031000  0.43050000  1.0
  C  C85  1  0.83059000  0.09030000  0.93050000  1.0
  C  C86  1  0.10518000  0.66092000  0.36190000  1.0
  C  C87  1  0.89483000  0.16093000  0.86190000  1.0
  C  C88  1  0.98294000  0.66091000  0.36588000  1.0
  C  C89  1  0.01707000  0.16091000  0.86589000  1.0
  C  C90  1  0.48847000  0.50863000  0.46905000  1.0
  C  C91  1  0.51153000  0.00863000  0.96905000  1.0
  C  C92  1  0.36637000  0.50217000  0.46933000  1.0
  C  C93  1  0.63363000  0.00216000  0.96933000  1.0
  C  C94  1  0.29947000  0.59190000  0.43075000  1.0
  C  C95  1  0.70053000  0.09190000  0.93075000  1.0
  C  C96  1  0.36117000  0.68555000  0.39435000  1.0
  C  C97  1  0.63883000  0.18554000  0.89435000  1.0
  C  C98  1  0.48335000  0.68635000  0.39819000  1.0
  C  C99  1  0.51665000  0.18636000  0.89819000  1.0
  C  C100  1  0.43106000  0.13493000  0.63019000  1.0
  C  C101  1  0.56895000  0.63492000  0.13018000  1.0
  C  C102  1  0.56004000  0.12921000  0.62106000  1.0
  C  C103  1  0.43996000  0.62921000  0.12105000  1.0
  C  C104  1  0.63448000  0.21068000  0.63776000  1.0
  C  C105  1  0.36552000  0.71067000  0.13775000  1.0
  C  C106  1  0.58929000  0.30714000  0.66492000  1.0
  C  C107  1  0.41071000  0.80713000  0.16492000  1.0
  C  C108  1  0.46931000  0.31903000  0.67585000  1.0
  C  C109  1  0.53068000  0.81902000  0.17585000  1.0
  C  C110  1  0.39104000  0.23612000  0.66128000  1.0
  C  C111  1  0.60895000  0.73611000  0.16128000  1.0
  C  C112  1  0.84017000  0.75378000  0.93033000  1.0
  C  C113  1  0.15983000  0.25379000  0.43033000  1.0
  C  C114  1  0.96219000  0.75840000  0.93640000  1.0
  C  C115  1  0.03781000  0.25841000  0.43640000  1.0
  C  C116  1  0.02604000  0.82723000  0.86588000  1.0
  C  C117  1  0.97396000  0.32723000  0.36588000  1.0
  C  C118  1  0.96054000  0.89385000  0.79533000  1.0
  C  C119  1  0.03946000  0.39385000  0.29533000  1.0
  C  C120  1  0.83838000  0.88655000  0.79497000  1.0
  C  C121  1  0.16162000  0.38656000  0.29496000  1.0
  C  C122  1  0.34545000  0.89750000  0.80761000  1.0
  C  C123  1  0.65455000  0.39750000  0.30760000  1.0
  C  C124  1  0.22371000  0.90863000  0.81327000  1.0
  C  C125  1  0.77629000  0.40864000  0.31326000  1.0
  C  C126  1  0.15601000  0.82434000  0.86253000  1.0
  C  C127  1  0.84399000  0.32435000  0.36253000  1.0
  C  C128  1  0.21658000  0.73185000  0.90365000  1.0
  C  C129  1  0.78342000  0.23186000  0.40365000  1.0
  C  C130  1  0.33794000  0.72621000  0.89364000  1.0
  C  C131  1  0.66206000  0.22622000  0.39363000  1.0
  C  C132  1  0.25963000  0.62832000  0.67223000  1.0
  C  C133  1  0.74037000  0.12831000  0.17224000  1.0
  S  S134  1  0.68924000  0.41230000  0.67910000  1.0
  S  S135  1  0.31076000  0.91229000  0.17910000  1.0
  S  S136  1  0.62373000  0.00916000  0.58856000  1.0
  S  S137  1  0.37627000  0.50916000  0.08856000  1.0
  N  N138  1  0.92184000  0.59527000  0.43426000  1.0
  N  N139  1  0.07816000  0.09526000  0.93426000  1.0
  N  N140  1  0.54694000  0.59927000  0.43431000  1.0
  N  N141  1  0.45306000  0.09927000  0.93431000  1.0
  N  N142  1  0.26899000  0.25545000  0.67673000  1.0
  N  N143  1  0.73101000  0.75544000  0.17672000  1.0
  N  N144  1  0.40239000  0.80789000  0.84730000  1.0
  N  N145  1  0.59761000  0.30789000  0.34729000  1.0
  N  N146  1  0.77865000  0.81609000  0.85992000  1.0
  N  N147  1  0.22135000  0.31610000  0.35992000  1.0
  N  N148  1  0.44248000  0.71774000  0.62828000  1.0
  N  N149  1  0.55752000  0.21772000  0.12829000  1.0
  N  N150  1  0.81786000  0.72040000  0.63534000  1.0
  N  N151  1  0.18214000  0.22040000  0.13534000  1.0
  O  O152  1  0.77443000  0.37327000  0.75630000  1.0
  O  O153  1  0.22556000  0.87326000  0.25630000  1.0
  O  O154  1  0.74498000  0.43761000  0.58132000  1.0
  O  O155  1  0.25502000  0.93760000  0.08132000  1.0
  O  O156  1  0.61540000  0.50108000  0.70553000  1.0
  O  O157  1  0.38459000  0.00107000  0.20553000  1.0
  O  O158  1  0.75122000  0.02862000  0.57945000  1.0
  O  O159  1  0.24878000  0.52861000  0.07945000  1.0
  O  O160  1  0.56932000  0.98960000  0.49454000  1.0
  O  O161  1  0.43068000  0.48960000  0.99454000  1.0
  O  O162  1  0.59343000  0.92536000  0.67108000  1.0
  O  O163  1  0.40657000  0.42535000  0.17108000  1.0
  O  O164  1  0.23522000  0.35076000  0.68060000  1.0
  O  O165  1  0.76477000  0.85075000  0.18060000  1.0
  O  O166  1  0.19764000  0.17879000  0.68664000  1.0
  O  O167  1  0.80236000  0.67879000  0.18664000  1.0
  O  O168  1  0.36489000  0.06060000  0.61125000  1.0
  O  O169  1  0.63510000  0.56060000  0.11125000  1.0
  O  O170  1  0.62610000  0.58727000  0.88195000  1.0
  O  O171  1  0.37390000  0.08727000  0.38194000  1.0
