# generated using pymatgen
data_ZnH20C14(NO)4
_symmetry_space_group_name_H-M   'P 1'
_cell_length_a   7.89687000
_cell_length_b   8.35223000
_cell_length_c   13.68830000
_cell_angle_alpha   76.45610000
_cell_angle_beta   85.88800000
_cell_angle_gamma   71.69780000
_symmetry_Int_Tables_number   1
_chemical_formula_structural   ZnH20C14(NO)4
_chemical_formula_sum   'Zn2 H40 C28 N8 O8'
_cell_volume   833.32219476
_cell_formula_units_Z   2
loop_
 _symmetry_equiv_pos_site_id
 _symmetry_equiv_pos_as_xyz
  1  'x, y, z'
loop_
 _atom_site_type_symbol
 _atom_site_label
 _atom_site_symmetry_multiplicity
 _atom_site_fract_x
 _atom_site_fract_y
 _atom_site_fract_z
 _atom_site_occupancy
  Zn  Zn0  1  0.61754000  0.58382000  0.24672000  1.0
  Zn  Zn1  1  0.38246000  0.41619000  0.75328000  1.0
  H  H2  1  0.93287000  0.73007000  0.29015000  1.0
  H  H3  1  0.06712000  0.26994000  0.70986000  1.0
  H  H4  1  0.88344000  0.15416000  0.33820000  1.0
  H  H5  1  0.11655000  0.84586000  0.66180000  1.0
  H  H6  1  0.03733000  0.94379000  0.33778000  1.0
  H  H7  1  0.96267000  0.05622000  0.66221000  1.0
  H  H8  1  0.06564000  0.70778000  0.98426000  1.0
  H  H9  1  0.93436000  0.29220000  0.01574000  1.0
  H  H10  1  0.15427000  0.78481000  0.86546000  1.0
  H  H11  1  0.84574000  0.21518000  0.13454000  1.0
  H  H12  1  0.94934000  0.83276000  0.51270000  1.0
  H  H13  1  0.05068000  0.16724000  0.48729000  1.0
  H  H14  1  0.79716000  0.03961000  0.51492000  1.0
  H  H15  1  0.20285000  0.96038000  0.48509000  1.0
  H  H16  1  0.53608000  0.15503000  0.36813000  1.0
  H  H17  1  0.46392000  0.84498000  0.63187000  1.0
  H  H18  1  0.24660000  0.63109000  0.13899000  1.0
  H  H19  1  0.75340000  0.36890000  0.86101000  1.0
  H  H20  1  0.89594000  0.01451000  0.90552000  1.0
  H  H21  1  0.10407000  0.98548000  0.09448000  1.0
  H  H22  1  0.08868000  0.07804000  0.90465000  1.0
  H  H23  1  0.91133000  0.92195000  0.09534000  1.0
  H  H24  1  0.45920000  0.85732000  0.86902000  1.0
  H  H25  1  0.54080000  0.14267000  0.13098000  1.0
  H  H26  1  0.37354000  0.93257000  0.31155000  1.0
  H  H27  1  0.62645000  0.06745000  0.68845000  1.0
  H  H28  1  0.72028000  0.73392000  0.02141000  1.0
  H  H29  1  0.27972000  0.26607000  0.97860000  1.0
  H  H30  1  0.16060000  0.19600000  0.27669000  1.0
  H  H31  1  0.83939000  0.80401000  0.72331000  1.0
  H  H32  1  0.26806000  0.35913000  0.23616000  1.0
  H  H33  1  0.73194000  0.64087000  0.76384000  1.0
  H  H34  1  0.20600000  0.26722000  0.14664000  1.0
  H  H35  1  0.79399000  0.73279000  0.85335000  1.0
  H  H36  1  0.32522000  0.32212000  0.49262000  1.0
  H  H37  1  0.67479000  0.67788000  0.50737000  1.0
  H  H38  1  0.11247000  0.45425000  0.43811000  1.0
  H  H39  1  0.88753000  0.54575000  0.56189000  1.0
  H  H40  1  0.22089000  0.53062000  0.51794000  1.0
  H  H41  1  0.77910000  0.46937000  0.48206000  1.0
  C  C42  1  0.98595000  0.44741000  0.20296000  1.0
  C  C43  1  0.01404000  0.55260000  0.79704000  1.0
  C  C44  1  0.80041000  0.81202000  0.30342000  1.0
  C  C45  1  0.19958000  0.18800000  0.69657000  1.0
  C  C46  1  0.91185000  0.01451000  0.36926000  1.0
  C  C47  1  0.08815000  0.98550000  0.63074000  1.0
  C  C48  1  0.13218000  0.80088000  0.94315000  1.0
  C  C49  1  0.86782000  0.19910000  0.05685000  1.0
  C  C50  1  0.92518000  0.97265000  0.48352000  1.0
  C  C51  1  0.07484000  0.02735000  0.51648000  1.0
  C  C52  1  0.58985000  0.03273000  0.34511000  1.0
  C  C53  1  0.41015000  0.96728000  0.65489000  1.0
  C  C54  1  0.33256000  0.53977000  0.37035000  1.0
  C  C55  1  0.66744000  0.46024000  0.62965000  1.0
  C  C56  1  0.34395000  0.67247000  0.08790000  1.0
  C  C57  1  0.65606000  0.32752000  0.91210000  1.0
  C  C58  1  0.02081000  0.98616000  0.94653000  1.0
  C  C59  1  0.97919000  0.01383000  0.05347000  1.0
  C  C60  1  0.45702000  0.79178000  0.94732000  1.0
  C  C61  1  0.54298000  0.20821000  0.05268000  1.0
  C  C62  1  0.51230000  0.92522000  0.31562000  1.0
  C  C63  1  0.48770000  0.07479000  0.68438000  1.0
  C  C64  1  0.58362000  0.73195000  0.02199000  1.0
  C  C65  1  0.41638000  0.26804000  0.97801000  1.0
  C  C66  1  0.16533000  0.30791000  0.21754000  1.0
  C  C67  1  0.83466000  0.69209000  0.78246000  1.0
  C  C68  1  0.24335000  0.45436000  0.46014000  1.0
  C  C69  1  0.75665000  0.54564000  0.53986000  1.0
  N  N70  1  0.77193000  0.95839000  0.33671000  1.0
  N  N71  1  0.22807000  0.04162000  0.66328000  1.0
  N  N72  1  0.30712000  0.75194000  0.99036000  1.0
  N  N73  1  0.69288000  0.24805000  0.00965000  1.0
  N  N74  1  0.64492000  0.78875000  0.28960000  1.0
  N  N75  1  0.35507000  0.21126000  0.71040000  1.0
  N  N76  1  0.51108000  0.65811000  0.10930000  1.0
  N  N77  1  0.48893000  0.34188000  0.89070000  1.0
  O  O78  1  0.49362000  0.45084000  0.35062000  1.0
  O  O79  1  0.50637000  0.54917000  0.64938000  1.0
  O  O80  1  0.85850000  0.41061000  0.26014000  1.0
  O  O81  1  0.14150000  0.58941000  0.73987000  1.0
  O  O82  1  0.25173000  0.68759000  0.32024000  1.0
  O  O83  1  0.74826000  0.31241000  0.67976000  1.0
  O  O84  1  0.96824000  0.58615000  0.13917000  1.0
  O  O85  1  0.03176000  0.41386000  0.86083000  1.0
