# generated using pymatgen
data_CdH24C18(N2Cl)2
_symmetry_space_group_name_H-M   'P 1'
_cell_length_a   8.83485000
_cell_length_b   8.83493000
_cell_length_c   12.44400000
_cell_angle_alpha   74.37540000
_cell_angle_beta   74.37580000
_cell_angle_gamma   85.86120000
_symmetry_Int_Tables_number   1
_chemical_formula_structural   CdH24C18(N2Cl)2
_chemical_formula_sum   'Cd2 H48 C36 N8 Cl4'
_cell_volume   900.86163212
_cell_formula_units_Z   2
loop_
 _symmetry_equiv_pos_site_id
 _symmetry_equiv_pos_as_xyz
  1  'x, y, z'
loop_
 _atom_site_type_symbol
 _atom_site_label
 _atom_site_symmetry_multiplicity
 _atom_site_fract_x
 _atom_site_fract_y
 _atom_site_fract_z
 _atom_site_occupancy
  Cd  Cd0  1  0.87856000  0.12144000  0.75000000  1.0
  Cd  Cd1  1  0.12143000  0.87856000  0.25000000  1.0
  H  H2  1  0.03489000  0.76324000  0.71475000  1.0
  H  H3  1  0.23676000  0.96512000  0.78525000  1.0
  H  H4  1  0.96512000  0.23676000  0.28525000  1.0
  H  H5  1  0.76324000  0.03488000  0.21474000  1.0
  H  H6  1  0.17791000  0.68722000  0.92214000  1.0
  H  H7  1  0.31278000  0.82209000  0.57787000  1.0
  H  H8  1  0.82209000  0.31279000  0.07786000  1.0
  H  H9  1  0.68722000  0.17791000  0.42214000  1.0
  H  H10  1  0.05716000  0.55896000  0.89457000  1.0
  H  H11  1  0.44104000  0.94283000  0.60544000  1.0
  H  H12  1  0.94284000  0.44104000  0.10543000  1.0
  H  H13  1  0.55896000  0.05717000  0.39456000  1.0
  H  H14  1  0.33531000  0.48187000  0.83619000  1.0
  H  H15  1  0.51813000  0.66470000  0.66382000  1.0
  H  H16  1  0.66470000  0.51813000  0.16381000  1.0
  H  H17  1  0.48187000  0.33530000  0.33618000  1.0
  H  H18  1  0.25360000  0.53884000  0.71735000  1.0
  H  H19  1  0.46116000  0.74640000  0.78266000  1.0
  H  H20  1  0.74640000  0.46116000  0.28266000  1.0
  H  H21  1  0.53884000  0.25361000  0.21734000  1.0
  H  H22  1  0.83891000  0.62445000  0.92193000  1.0
  H  H23  1  0.37555000  0.16109000  0.57807000  1.0
  H  H24  1  0.16109000  0.37556000  0.07807000  1.0
  H  H25  1  0.62444000  0.83891000  0.42194000  1.0
  H  H26  1  0.76711000  0.75180000  0.80972000  1.0
  H  H27  1  0.24820000  0.23289000  0.69028000  1.0
  H  H28  1  0.23289000  0.24821000  0.19028000  1.0
  H  H29  1  0.75178000  0.76712000  0.30973000  1.0
  H  H30  1  0.51034000  0.97356000  0.18667000  1.0
  H  H31  1  0.02644000  0.48966000  0.31333000  1.0
  H  H32  1  0.48966000  0.02644000  0.81334000  1.0
  H  H33  1  0.97357000  0.51034000  0.68666000  1.0
  H  H34  1  0.76340000  0.94022000  0.04460000  1.0
  H  H35  1  0.05979000  0.23659000  0.45539000  1.0
  H  H36  1  0.23660000  0.05978000  0.95540000  1.0
  H  H37  1  0.94022000  0.76341000  0.54461000  1.0
  H  H38  1  0.51797000  0.62286000  0.94000000  1.0
  H  H39  1  0.37712000  0.48203000  0.56000000  1.0
  H  H40  1  0.48203000  0.37714000  0.05999000  1.0
  H  H41  1  0.62287000  0.51797000  0.44001000  1.0
  H  H42  1  0.27641000  0.66831000  0.08794000  1.0
  H  H43  1  0.33167000  0.72359000  0.41207000  1.0
  H  H44  1  0.72359000  0.33169000  0.91206000  1.0
  H  H45  1  0.66833000  0.27641000  0.58793000  1.0
  H  H46  1  0.96508000  0.86149000  0.92938000  1.0
  H  H47  1  0.13851000  0.03492000  0.57063000  1.0
  H  H48  1  0.03492000  0.13851000  0.07062000  1.0
  H  H49  1  0.86149000  0.96509000  0.42937000  1.0
  C  C50  1  0.07666000  0.79615000  0.78137000  1.0
  C  C51  1  0.20384000  0.92333000  0.71864000  1.0
  C  C52  1  0.92334000  0.20384000  0.21863000  1.0
  C  C53  1  0.79615000  0.07666000  0.28137000  1.0
  C  C54  1  0.14666000  0.65143000  0.85250000  1.0
  C  C55  1  0.34859000  0.85334000  0.64751000  1.0
  C  C56  1  0.85334000  0.34858000  0.14750000  1.0
  C  C57  1  0.65142000  0.14666000  0.35249000  1.0
  C  C58  1  0.29011000  0.58404000  0.78088000  1.0
  C  C59  1  0.41597000  0.70990000  0.71913000  1.0
  C  C60  1  0.70990000  0.41597000  0.21913000  1.0
  C  C61  1  0.58403000  0.29011000  0.28087000  1.0
  C  C62  1  0.80333000  0.74719000  0.88871000  1.0
  C  C63  1  0.25281000  0.19667000  0.61129000  1.0
  C  C64  1  0.19667000  0.25281000  0.11129000  1.0
  C  C65  1  0.74719000  0.80333000  0.38871000  1.0
  C  C66  1  0.51853000  0.89604000  0.13017000  1.0
  C  C67  1  0.10397000  0.48146000  0.36983000  1.0
  C  C68  1  0.48147000  0.10396000  0.86984000  1.0
  C  C69  1  0.89604000  0.51853000  0.63016000  1.0
  C  C70  1  0.65888000  0.87741000  0.05035000  1.0
  C  C71  1  0.12259000  0.34111000  0.44964000  1.0
  C  C72  1  0.34112000  0.12259000  0.94964000  1.0
  C  C73  1  0.87741000  0.65888000  0.55036000  1.0
  C  C74  1  0.66191000  0.77928000  0.97841000  1.0
  C  C75  1  0.22072000  0.33808000  0.52159000  1.0
  C  C76  1  0.33808000  0.22072000  0.02159000  1.0
  C  C77  1  0.77928000  0.66192000  0.47842000  1.0
  C  C78  1  0.52236000  0.70084000  0.99366000  1.0
  C  C79  1  0.29915000  0.47763000  0.50634000  1.0
  C  C80  1  0.47764000  0.29916000  0.00634000  1.0
  C  C81  1  0.70085000  0.52236000  0.49366000  1.0
  C  C82  1  0.38797000  0.72495000  0.07544000  1.0
  C  C83  1  0.27504000  0.61203000  0.42456000  1.0
  C  C84  1  0.61203000  0.27505000  0.92456000  1.0
  C  C85  1  0.72496000  0.38797000  0.57544000  1.0
  N  N86  1  0.93627000  0.85582000  0.85553000  1.0
  N  N87  1  0.14418000  0.06374000  0.64447000  1.0
  N  N88  1  0.06374000  0.14418000  0.14446000  1.0
  N  N89  1  0.85582000  0.93626000  0.35553000  1.0
  N  N90  1  0.38450000  0.82378000  0.14148000  1.0
  N  N91  1  0.17621000  0.61550000  0.35852000  1.0
  N  N92  1  0.61550000  0.17622000  0.85852000  1.0
  N  N93  1  0.82380000  0.38450000  0.64148000  1.0
  Cl  Cl94  1  0.75802000  0.99456000  0.62547000  1.0
  Cl  Cl95  1  0.00544000  0.24198000  0.87453000  1.0
  Cl  Cl96  1  0.24197000  0.00544000  0.37453000  1.0
  Cl  Cl97  1  0.99455000  0.75802000  0.12547000  1.0
