# generated using pymatgen
data_HgH7C9(SN2)2
_symmetry_space_group_name_H-M   'P 1'
_cell_length_a   8.07211000
_cell_length_b   11.84330000
_cell_length_c   14.77460000
_cell_angle_alpha   112.15900000
_cell_angle_beta   90.03850000
_cell_angle_gamma   109.87900000
_symmetry_Int_Tables_number   1
_chemical_formula_structural   HgH7C9(SN2)2
_chemical_formula_sum   'Hg4 H28 C36 S8 N16'
_cell_volume   1216.63402009
_cell_formula_units_Z   4
loop_
 _symmetry_equiv_pos_site_id
 _symmetry_equiv_pos_as_xyz
  1  'x, y, z'
loop_
 _atom_site_type_symbol
 _atom_site_label
 _atom_site_symmetry_multiplicity
 _atom_site_fract_x
 _atom_site_fract_y
 _atom_site_fract_z
 _atom_site_occupancy
  Hg  Hg0  1  0.34279000  0.83155000  0.79580000  1.0
  Hg  Hg1  1  0.51123000  0.16878000  0.70444000  1.0
  Hg  Hg2  1  0.65721000  0.16845000  0.20420000  1.0
  Hg  Hg3  1  0.48877000  0.83122000  0.29556000  1.0
  H  H4  1  0.08665000  0.51042000  0.69386000  1.0
  H  H5  1  0.57616000  0.48948000  0.80623000  1.0
  H  H6  1  0.91334000  0.48958000  0.30614000  1.0
  H  H7  1  0.42385000  0.51052000  0.19377000  1.0
  H  H8  1  0.80935000  0.35483000  0.57751000  1.0
  H  H9  1  0.45449000  0.64533000  0.92240000  1.0
  H  H10  1  0.19065000  0.64517000  0.42249000  1.0
  H  H11  1  0.54552000  0.35467000  0.07761000  1.0
  H  H12  1  0.65095000  0.43874000  0.48540000  1.0
  H  H13  1  0.21242000  0.56175000  0.01451000  1.0
  H  H14  1  0.34905000  0.56126000  0.51460000  1.0
  H  H15  1  0.78759000  0.43825000  0.98549000  1.0
  H  H16  1  0.77884000  0.67650000  0.51581000  1.0
  H  H17  1  0.10251000  0.32401000  0.98422000  1.0
  H  H18  1  0.22116000  0.32350000  0.48419000  1.0
  H  H19  1  0.89749000  0.67599000  0.01578000  1.0
  H  H20  1  0.87759000  0.93533000  0.61574000  1.0
  H  H21  1  0.94229000  0.06500000  0.88426000  1.0
  H  H22  1  0.12241000  0.06467000  0.38426000  1.0
  H  H23  1  0.05771000  0.93500000  0.11574000  1.0
  H  H24  1  0.97396000  0.85647000  0.51412000  1.0
  H  H25  1  0.11743000  0.14407000  0.98597000  1.0
  H  H26  1  0.02605000  0.14353000  0.48587000  1.0
  H  H27  1  0.88257000  0.85593000  0.01403000  1.0
  H  H28  1  0.10013000  0.01724000  0.60509000  1.0
  H  H29  1  0.08309000  0.98321000  0.89527000  1.0
  H  H30  1  0.89987000  0.98276000  0.39490000  1.0
  H  H31  1  0.91691000  0.01679000  0.10473000  1.0
  C  C32  1  0.01318000  0.54504000  0.65509000  1.0
  C  C33  1  0.46788000  0.45497000  0.84487000  1.0
  C  C34  1  0.98682000  0.45496000  0.34492000  1.0
  C  C35  1  0.53212000  0.54502000  0.15513000  1.0
  C  C36  1  0.85782000  0.45753000  0.58905000  1.0
  C  C37  1  0.40016000  0.54264000  0.91086000  1.0
  C  C38  1  0.14217000  0.54247000  0.41095000  1.0
  C  C39  1  0.59985000  0.45736000  0.08914000  1.0
  C  C40  1  0.77159000  0.50465000  0.53836000  1.0
  C  C41  1  0.26688000  0.49568000  0.96153000  1.0
  C  C42  1  0.22841000  0.49535000  0.46164000  1.0
  C  C43  1  0.73312000  0.50432000  0.03848000  1.0
  C  C44  1  0.84220000  0.63730000  0.55541000  1.0
  C  C45  1  0.20483000  0.36305000  0.94453000  1.0
  C  C46  1  0.15780000  0.36270000  0.44459000  1.0
  C  C47  1  0.79517000  0.63695000  0.05547000  1.0
  C  C48  1  0.99542000  0.71973000  0.62500000  1.0
  C  C49  1  0.27531000  0.28039000  0.87492000  1.0
  C  C50  1  0.00457000  0.28027000  0.37500000  1.0
  C  C51  1  0.72468000  0.71961000  0.12508000  1.0
  C  C52  1  0.06461000  0.86316000  0.65338000  1.0
  C  C53  1  0.20132000  0.13702000  0.84669000  1.0
  C  C54  1  0.93538000  0.13684000  0.34662000  1.0
  C  C55  1  0.79869000  0.86298000  0.15331000  1.0
  C  C56  1  0.00115000  0.92071000  0.59299000  1.0
  C  C57  1  0.08050000  0.07967000  0.90713000  1.0
  C  C58  1  0.99885000  0.07929000  0.40701000  1.0
  C  C59  1  0.91951000  0.92033000  0.09287000  1.0
  C  C60  1  0.69279000  0.75415000  0.78963000  1.0
  C  C61  1  0.93833000  0.24553000  0.71016000  1.0
  C  C62  1  0.30721000  0.24585000  0.21036000  1.0
  C  C63  1  0.06166000  0.75447000  0.28983000  1.0
  C  C64  1  0.36856000  0.86651000  0.02212000  1.0
  C  C65  1  0.50267000  0.13338000  0.47794000  1.0
  C  C66  1  0.63144000  0.13349000  0.97788000  1.0
  C  C67  1  0.49733000  0.86662000  0.52206000  1.0
  S  S68  1  0.60337000  0.80143000  0.71563000  1.0
  S  S69  1  0.80206000  0.19848000  0.78433000  1.0
  S  S70  1  0.39663000  0.19858000  0.28437000  1.0
  S  S71  1  0.19794000  0.80152000  0.21567000  1.0
  S  S72  1  0.19500000  0.77959000  0.93419000  1.0
  S  S73  1  0.41598000  0.22051000  0.56565000  1.0
  S  S74  1  0.80501000  0.22041000  0.06582000  1.0
  S  S75  1  0.58402000  0.77949000  0.43435000  1.0
  N  N76  1  0.07859000  0.67228000  0.67276000  1.0
  N  N77  1  0.40590000  0.32772000  0.82720000  1.0
  N  N78  1  0.92140000  0.32772000  0.32724000  1.0
  N  N79  1  0.59410000  0.67228000  0.17280000  1.0
  N  N80  1  0.17421000  0.93406000  0.73542000  1.0
  N  N81  1  0.24011000  0.06608000  0.76472000  1.0
  N  N82  1  0.82578000  0.06594000  0.26458000  1.0
  N  N83  1  0.75989000  0.93392000  0.23527000  1.0
  N  N84  1  0.76432000  0.72092000  0.83901000  1.0
  N  N85  1  0.04282000  0.27858000  0.66066000  1.0
  N  N86  1  0.23567000  0.27908000  0.16098000  1.0
  N  N87  1  0.95717000  0.72142000  0.33933000  1.0
  N  N88  1  0.48951000  0.92645000  0.08730000  1.0
  N  N89  1  0.56366000  0.07327000  0.41288000  1.0
  N  N90  1  0.51050000  0.07355000  0.91270000  1.0
  N  N91  1  0.43634000  0.92672000  0.58712000  1.0
