# generated using pymatgen
data_ZnH7C17NO5
_symmetry_space_group_name_H-M   'P 1'
_cell_length_a   11.01000000
_cell_length_b   14.84930000
_cell_length_c   16.19250000
_cell_angle_alpha   89.49480000
_cell_angle_beta   89.91960000
_cell_angle_gamma   89.83590000
_symmetry_Int_Tables_number   1
_chemical_formula_structural   ZnH7C17NO5
_chemical_formula_sum   'Zn2 H14 C34 N2 O10'
_cell_volume   2647.20838496
_cell_formula_units_Z   2
loop_
 _symmetry_equiv_pos_site_id
 _symmetry_equiv_pos_as_xyz
  1  'x, y, z'
loop_
 _atom_site_type_symbol
 _atom_site_label
 _atom_site_symmetry_multiplicity
 _atom_site_fract_x
 _atom_site_fract_y
 _atom_site_fract_z
 _atom_site_occupancy
  Zn  Zn0  1  0.49842000  0.59494000  0.49748000  1.0
  Zn  Zn1  1  0.50056000  0.40561000  0.50236000  1.0
  H  H2  1  0.11285000  0.44022000  0.61288000  1.0
  H  H3  1  0.88609000  0.44093000  0.61315000  1.0
  H  H4  1  0.22512000  0.56061000  0.34756000  1.0
  H  H5  1  0.77359000  0.56229000  0.34831000  1.0
  H  H6  1  0.39529000  0.62268000  0.92272000  1.0
  H  H7  1  0.39524000  0.62167000  0.07618000  1.0
  H  H8  1  0.62215000  0.38409000  0.07653000  1.0
  H  H9  1  0.62126000  0.38477000  0.92278000  1.0
  H  H10  1  0.34217000  0.08416000  0.57894000  1.0
  H  H11  1  0.65883000  0.08447000  0.42066000  1.0
  H  H12  1  0.23702000  0.60099000  0.21232000  1.0
  H  H13  1  0.76085000  0.61585000  0.21694000  1.0
  H  H14  1  0.34104000  0.91578000  0.57841000  1.0
  H  H15  1  0.65777000  0.91610000  0.42016000  1.0
  C  C16  1  0.50056000  0.50014000  0.66085000  1.0
  C  C17  1  0.50213000  0.50022000  0.33813000  1.0
  C  C18  1  0.57241000  0.43582000  0.04238000  1.0
  C  C19  1  0.57206000  0.43633000  0.95679000  1.0
  C  C20  1  0.50699000  0.50099000  0.17381000  1.0
  C  C21  1  0.50595000  0.50328000  0.82517000  1.0
  C  C22  1  0.50352000  0.50265000  0.74992000  1.0
  C  C23  1  0.50486000  0.49905000  0.24908000  1.0
  C  C24  1  0.40983000  0.95333000  0.54426000  1.0
  C  C25  1  0.58942000  0.95346000  0.45454000  1.0
  C  C26  1  0.49927000  0.90689000  0.49924000  1.0
  C  C27  1  0.59007000  0.04694000  0.45484000  1.0
  C  C28  1  0.41051000  0.04679000  0.54457000  1.0
  C  C29  1  0.50065000  0.09340000  0.49988000  1.0
  C  C30  1  0.49842000  0.81116000  0.49876000  1.0
  C  C31  1  0.50126000  0.18915000  0.50044000  1.0
  C  C32  1  0.26358000  0.49941000  0.49557000  1.0
  C  C33  1  0.73548000  0.50126000  0.49650000  1.0
  C  C34  1  0.12597000  0.55919000  0.34782000  1.0
  C  C35  1  0.87277000  0.56209000  0.34891000  1.0
  C  C36  1  0.06447000  0.58760000  0.27785000  1.0
  C  C37  1  0.93414000  0.58682000  0.27771000  1.0
  C  C38  1  0.93428000  0.53276000  0.42151000  1.0
  C  C39  1  0.06461000  0.53095000  0.42083000  1.0
  C  C40  1  0.12747000  0.49866000  0.49192000  1.0
  C  C41  1  0.87156000  0.50081000  0.49279000  1.0
  C  C42  1  0.06330000  0.46618000  0.55944000  1.0
  C  C43  1  0.93571000  0.46691000  0.55974000  1.0
  C  C44  1  0.44478000  0.57009000  0.04236000  1.0
  C  C45  1  0.44466000  0.57063000  0.95673000  1.0
  C  C46  1  0.50832000  0.50243000  0.08647000  1.0
  C  C47  1  0.50780000  0.50356000  0.91258000  1.0
  C  C48  1  0.14158000  0.62737000  0.21167000  1.0
  C  C49  1  0.85749000  0.59788000  0.20281000  1.0
  N  N50  1  0.50150000  0.26726000  0.50124000  1.0
  N  N51  1  0.49775000  0.73307000  0.49814000  1.0
  O  O52  1  0.49890000  0.57592000  0.62305000  1.0
  O  O53  1  0.49844000  0.57806000  0.37089000  1.0
  O  O54  1  0.49989000  0.42227000  0.62837000  1.0
  O  O55  1  0.50372000  0.42435000  0.37557000  1.0
  O  O56  1  0.31398000  0.57634000  0.49350000  1.0
  O  O57  1  0.68323000  0.57767000  0.49278000  1.0
  O  O58  1  0.31601000  0.42327000  0.50151000  1.0
  O  O59  1  0.68486000  0.42479000  0.50380000  1.0
  O  O60  1  0.11112000  0.68724000  0.16364000  1.0
  O  O61  1  0.89016000  0.58300000  0.13208000  1.0
