# generated using pymatgen
data_Zn3H20C30S2(N5O4)2
_symmetry_space_group_name_H-M   'P 1'
_cell_length_a   9.28818000
_cell_length_b   11.22980000
_cell_length_c   16.81230000
_cell_angle_alpha   86.30680000
_cell_angle_beta   80.97930000
_cell_angle_gamma   65.57820000
_symmetry_Int_Tables_number   1
_chemical_formula_structural   Zn3H20C30S2(N5O4)2
_chemical_formula_sum   'Zn6 H40 C60 S4 N20 O16'
_cell_volume   1576.94783557
_cell_formula_units_Z   2
loop_
 _symmetry_equiv_pos_site_id
 _symmetry_equiv_pos_as_xyz
  1  'x, y, z'
loop_
 _atom_site_type_symbol
 _atom_site_label
 _atom_site_symmetry_multiplicity
 _atom_site_fract_x
 _atom_site_fract_y
 _atom_site_fract_z
 _atom_site_occupancy
  Zn  Zn0  1  0.26149000  0.47809000  0.25000000  1.0
  Zn  Zn1  1  0.73851000  0.52191000  0.75000000  1.0
  Zn  Zn2  1  0.05381000  0.34184000  0.09546000  1.0
  Zn  Zn3  1  0.60469000  0.34180000  0.40471000  1.0
  Zn  Zn4  1  0.94619000  0.65816000  0.90454000  1.0
  Zn  Zn5  1  0.39531000  0.65820000  0.59529000  1.0
  H  H6  1  0.98329000  0.07999000  0.30585000  1.0
  H  H7  1  0.93786000  0.07961000  0.19413000  1.0
  H  H8  1  0.01671000  0.92001000  0.69415000  1.0
  H  H9  1  0.06215000  0.92039000  0.80587000  1.0
  H  H10  1  0.06583000  0.91115000  0.41307000  1.0
  H  H11  1  0.02366000  0.91092000  0.08675000  1.0
  H  H12  1  0.93417000  0.08885000  0.58693000  1.0
  H  H13  1  0.97634000  0.08908000  0.91325000  1.0
  H  H14  1  0.43139000  0.03566000  0.44916000  1.0
  H  H15  1  0.53332000  0.03566000  0.05115000  1.0
  H  H16  1  0.56862000  0.96434000  0.55084000  1.0
  H  H17  1  0.46667000  0.96434000  0.94885000  1.0
  H  H18  1  0.35356000  0.19947000  0.34087000  1.0
  H  H19  1  0.44787000  0.19955000  0.15948000  1.0
  H  H20  1  0.64645000  0.80053000  0.65913000  1.0
  H  H21  1  0.55213000  0.80045000  0.84052000  1.0
  H  H22  1  0.38404000  0.78773000  0.03592000  1.0
  H  H23  1  0.82864000  0.78700000  0.46446000  1.0
  H  H24  1  0.61596000  0.21227000  0.96408000  1.0
  H  H25  1  0.17137000  0.21300000  0.53554000  1.0
  H  H26  1  0.43437000  0.92714000  0.12872000  1.0
  H  H27  1  0.63907000  0.92695000  0.37182000  1.0
  H  H28  1  0.56564000  0.07286000  0.87128000  1.0
  H  H29  1  0.36094000  0.07306000  0.62819000  1.0
  H  H30  1  0.43133000  0.86878000  0.27640000  1.0
  H  H31  1  0.70033000  0.86899000  0.22403000  1.0
  H  H32  1  0.56867000  0.13121000  0.72360000  1.0
  H  H33  1  0.29967000  0.13102000  0.77597000  1.0
  H  H34  1  0.37405000  0.67559000  0.32424000  1.0
  H  H35  1  0.95055000  0.67573000  0.17595000  1.0
  H  H36  1  0.62594000  0.32441000  0.67576000  1.0
  H  H37  1  0.04944000  0.32428000  0.82405000  1.0
  H  H38  1  0.36031000  0.61141000  0.89577000  1.0
  H  H39  1  0.02874000  0.61119000  0.60433000  1.0
  H  H40  1  0.63969000  0.38859000  0.10423000  1.0
  H  H41  1  0.97126000  0.38881000  0.39566000  1.0
  H  H42  1  0.21720000  0.73925000  0.94419000  1.0
  H  H43  1  0.04357000  0.73907000  0.55583000  1.0
  H  H44  1  0.78280000  0.26075000  0.05581000  1.0
  H  H45  1  0.95644000  0.26092000  0.44417000  1.0
  C  C46  1  0.08568000  0.06590000  0.33509000  1.0
  C  C47  1  0.84941000  0.06560000  0.16497000  1.0
  C  C48  1  0.91432000  0.93410000  0.66491000  1.0
  C  C49  1  0.15060000  0.93440000  0.83503000  1.0
  C  C50  1  0.12990000  0.97328000  0.39611000  1.0
  C  C51  1  0.89750000  0.97306000  0.10386000  1.0
  C  C52  1  0.87011000  0.02672000  0.60389000  1.0
  C  C53  1  0.10250000  0.02693000  0.89614000  1.0
  C  C54  1  0.25744000  0.95924000  0.43622000  1.0
  C  C55  1  0.78381000  0.95915000  0.06382000  1.0
  C  C56  1  0.74257000  0.04076000  0.56378000  1.0
  C  C57  1  0.21618000  0.04085000  0.93618000  1.0
  C  C58  1  0.33666000  0.04198000  0.41613000  1.0
  C  C59  1  0.62189000  0.04192000  0.08410000  1.0
  C  C60  1  0.66334000  0.95802000  0.58387000  1.0
  C  C61  1  0.37810000  0.95808000  0.91590000  1.0
  C  C62  1  0.29288000  0.13443000  0.35546000  1.0
  C  C63  1  0.57353000  0.13437000  0.14480000  1.0
  C  C64  1  0.70713000  0.86557000  0.64454000  1.0
  C  C65  1  0.42647000  0.86563000  0.85519000  1.0
  C  C66  1  0.16837000  0.14593000  0.31364000  1.0
  C  C67  1  0.68674000  0.14578000  0.18650000  1.0
  C  C68  1  0.83163000  0.85407000  0.68636000  1.0
  C  C69  1  0.31326000  0.85422000  0.81350000  1.0
  C  C70  1  0.12417000  0.24737000  0.24906000  1.0
  C  C71  1  0.62967000  0.24741000  0.25102000  1.0
  C  C72  1  0.87583000  0.75263000  0.75094000  1.0
  C  C73  1  0.37033000  0.75259000  0.74898000  1.0
  C  C74  1  0.31533000  0.85643000  0.49879000  1.0
  C  C75  1  0.82840000  0.85649000  0.00112000  1.0
  C  C76  1  0.68467000  0.14357000  0.50122000  1.0
  C  C77  1  0.17159000  0.14351000  0.99888000  1.0
  C  C78  1  0.22690000  0.49040000  0.99622000  1.0
  C  C79  1  0.28294000  0.49008000  0.50389000  1.0
  C  C80  1  0.77309000  0.50961000  0.00378000  1.0
  C  C81  1  0.71706000  0.50992000  0.49610000  1.0
  C  C82  1  0.30062000  0.58025000  0.08725000  1.0
  C  C83  1  0.11957000  0.57984000  0.41284000  1.0
  C  C84  1  0.69938000  0.41975000  0.91274000  1.0
  C  C85  1  0.88043000  0.42016000  0.58716000  1.0
  C  C86  1  0.34633000  0.66278000  0.13245000  1.0
  C  C87  1  0.99132000  0.66237000  0.36771000  1.0
  C  C88  1  0.65367000  0.33722000  0.86755000  1.0
  C  C89  1  0.00868000  0.33763000  0.63229000  1.0
  C  C90  1  0.38137000  0.76707000  0.10008000  1.0
  C  C91  1  0.85198000  0.76659000  0.40025000  1.0
  C  C92  1  0.61863000  0.23293000  0.89992000  1.0
  C  C93  1  0.14802000  0.23341000  0.59975000  1.0
  C  C94  1  0.41132000  0.84319000  0.15220000  1.0
  C  C95  1  0.74600000  0.84299000  0.34821000  1.0
  C  C96  1  0.58868000  0.15680000  0.84780000  1.0
  C  C97  1  0.25400000  0.15701000  0.65179000  1.0
  C  C98  1  0.40951000  0.81153000  0.23366000  1.0
  C  C99  1  0.77939000  0.81154000  0.26670000  1.0
  C  C100  1  0.59050000  0.18846000  0.76634000  1.0
  C  C101  1  0.22061000  0.18846000  0.73330000  1.0
  C  C102  1  0.37651000  0.70419000  0.26092000  1.0
  C  C103  1  0.91960000  0.70419000  0.23931000  1.0
  C  C104  1  0.62349000  0.29581000  0.73908000  1.0
  C  C105  1  0.08039000  0.29582000  0.76069000  1.0
  S  S106  1  0.18849000  0.46219000  0.90510000  1.0
  S  S107  1  0.34931000  0.46209000  0.59505000  1.0
  S  S108  1  0.81151000  0.53781000  0.09490000  1.0
  S  S109  1  0.65070000  0.53791000  0.40495000  1.0
  N  N110  1  0.24988000  0.49380000  0.12425000  1.0
  N  N111  1  0.25684000  0.49346000  0.37582000  1.0
  N  N112  1  0.75012000  0.50620000  0.87574000  1.0
  N  N113  1  0.74316000  0.50654000  0.62418000  1.0
  N  N114  1  0.20483000  0.43749000  0.06877000  1.0
  N  N115  1  0.35809000  0.43720000  0.43133000  1.0
  N  N116  1  0.79517000  0.56251000  0.93123000  1.0
  N  N117  1  0.64191000  0.56280000  0.56866000  1.0
  N  N118  1  0.29029000  0.57928000  0.00747000  1.0
  N  N119  1  0.13071000  0.57889000  0.49263000  1.0
  N  N120  1  0.70971000  0.42072000  0.99253000  1.0
  N  N121  1  0.86929000  0.42111000  0.50737000  1.0
  N  N122  1  0.32467000  0.66139000  0.94940000  1.0
  N  N123  1  0.01415000  0.66107000  0.55071000  1.0
  N  N124  1  0.67533000  0.33861000  0.05060000  1.0
  N  N125  1  0.98585000  0.33893000  0.44929000  1.0
  N  N126  1  0.34431000  0.63226000  0.21187000  1.0
  N  N127  1  0.02383000  0.63209000  0.28825000  1.0
  N  N128  1  0.65569000  0.36774000  0.78813000  1.0
  N  N129  1  0.97617000  0.36792000  0.71175000  1.0
  O  O130  1  0.42316000  0.85320000  0.53693000  1.0
  O  O131  1  0.72356000  0.85338000  0.96310000  1.0
  O  O132  1  0.57683000  0.14680000  0.46308000  1.0
  O  O133  1  0.27643000  0.14662000  0.03691000  1.0
  O  O134  1  0.25540000  0.76981000  0.51055000  1.0
  O  O135  1  0.97490000  0.76985000  0.98911000  1.0
  O  O136  1  0.74460000  0.23019000  0.48945000  1.0
  O  O137  1  0.02509000  0.23014000  0.01090000  1.0
  O  O138  1  0.05486000  0.23027000  0.19347000  1.0
  O  O139  1  0.71554000  0.22975000  0.30691000  1.0
  O  O140  1  0.94514000  0.76973000  0.80653000  1.0
  O  O141  1  0.28446000  0.77025000  0.69309000  1.0
  O  O142  1  0.15780000  0.34526000  0.25170000  1.0
  O  O143  1  0.49887000  0.34594000  0.24802000  1.0
  O  O144  1  0.84220000  0.65474000  0.74830000  1.0
  O  O145  1  0.50114000  0.65407000  0.75198000  1.0
