# generated using pymatgen
data_CuH10C14(N3O2)2
_symmetry_space_group_name_H-M   'P 1'
_cell_length_a   9.40147000
_cell_length_b   9.40532000
_cell_length_c   9.40532000
_cell_angle_alpha   81.84670000
_cell_angle_beta   75.99920000
_cell_angle_gamma   75.99900000
_symmetry_Int_Tables_number   1
_chemical_formula_structural   CuH10C14(N3O2)2
_chemical_formula_sum   'Cu2 H20 C28 N12 O8'
_cell_volume   779.90479269
_cell_formula_units_Z   2
loop_
 _symmetry_equiv_pos_site_id
 _symmetry_equiv_pos_as_xyz
  1  'x, y, z'
loop_
 _atom_site_type_symbol
 _atom_site_label
 _atom_site_symmetry_multiplicity
 _atom_site_fract_x
 _atom_site_fract_y
 _atom_site_fract_z
 _atom_site_occupancy
  Cu  Cu0  1  0.73815000  0.96149000  0.70175000  1.0
  Cu  Cu1  1  0.23815000  0.70176000  0.96148000  1.0
  H  H2  1  0.38875000  0.02698000  0.61710000  1.0
  H  H3  1  0.88875000  0.61710000  0.02698000  1.0
  H  H4  1  0.61051000  0.48616000  0.78476000  1.0
  H  H5  1  0.11050000  0.78475000  0.48617000  1.0
  H  H6  1  0.87392000  0.88533000  0.17461000  1.0
  H  H7  1  0.37392000  0.17462000  0.88533000  1.0
  H  H8  1  0.08994000  0.29825000  0.25261000  1.0
  H  H9  1  0.58995000  0.25261000  0.29825000  1.0
  H  H10  1  0.58627000  0.93732000  0.08009000  1.0
  H  H11  1  0.08627000  0.08009000  0.93731000  1.0
  H  H12  1  0.97840000  0.09839000  0.41120000  1.0
  H  H13  1  0.47840000  0.41120000  0.09839000  1.0
  H  H14  1  0.80851000  0.62760000  0.53819000  1.0
  H  H15  1  0.30852000  0.53818000  0.62761000  1.0
  H  H16  1  0.21490000  0.03987000  0.45252000  1.0
  H  H17  1  0.71491000  0.45252000  0.03987000  1.0
  H  H18  1  0.31001000  0.99541000  0.18917000  1.0
  H  H19  1  0.81001000  0.18917000  0.99540000  1.0
  H  H20  1  0.00331000  0.55672000  0.31158000  1.0
  H  H21  1  0.50332000  0.31158000  0.55672000  1.0
  C  C22  1  0.43114000  0.00510000  0.50238000  1.0
  C  C23  1  0.93114000  0.50238000  0.00510000  1.0
  C  C24  1  0.44008000  0.89833000  0.87107000  1.0
  C  C25  1  0.94007000  0.87107000  0.89833000  1.0
  C  C26  1  0.55347000  0.75295000  0.82728000  1.0
  C  C27  1  0.05346000  0.82729000  0.75296000  1.0
  C  C28  1  0.00314000  0.32442000  0.35108000  1.0
  C  C29  1  0.50315000  0.35108000  0.32442000  1.0
  C  C30  1  0.54231000  0.95309000  0.19611000  1.0
  C  C31  1  0.04232000  0.19611000  0.95307000  1.0
  C  C32  1  0.83207000  0.25293000  0.56371000  1.0
  C  C33  1  0.33207000  0.56371000  0.25293000  1.0
  C  C34  1  0.94348000  0.21219000  0.43822000  1.0
  C  C35  1  0.44348000  0.43822000  0.21219000  1.0
  C  C36  1  0.84512000  0.51448000  0.50941000  1.0
  C  C37  1  0.34513000  0.50941000  0.51449000  1.0
  C  C38  1  0.78487000  0.40104000  0.59819000  1.0
  C  C39  1  0.28487000  0.59819000  0.40104000  1.0
  C  C40  1  0.63922000  0.94307000  0.29110000  1.0
  C  C41  1  0.13922000  0.29110000  0.94306000  1.0
  C  C42  1  0.33558000  0.01289000  0.40882000  1.0
  C  C43  1  0.83559000  0.40881000  0.01289000  1.0
  C  C44  1  0.38994000  0.98803000  0.25820000  1.0
  C  C45  1  0.88994000  0.25820000  0.98802000  1.0
  C  C46  1  0.95431000  0.47274000  0.38556000  1.0
  C  C47  1  0.45431000  0.38555000  0.47274000  1.0
  C  C48  1  0.58589000  0.96927000  0.44124000  1.0
  C  C49  1  0.08589000  0.44123000  0.96926000  1.0
  N  N50  1  0.83340000  0.91858000  0.39595000  1.0
  N  N51  1  0.33340000  0.39595000  0.91858000  1.0
  N  N52  1  0.65624000  0.26142000  0.76761000  1.0
  N  N53  1  0.15623000  0.76761000  0.26142000  1.0
  N  N54  1  0.71114000  0.95313000  0.49882000  1.0
  N  N55  1  0.21114000  0.49881000  0.95313000  1.0
  N  N56  1  0.67670000  0.39770000  0.72438000  1.0
  N  N57  1  0.17670000  0.72438000  0.39771000  1.0
  N  N58  1  0.74881000  0.17318000  0.67226000  1.0
  N  N59  1  0.24881000  0.67226000  0.17319000  1.0
  N  N60  1  0.79213000  0.91230000  0.27135000  1.0
  N  N61  1  0.29213000  0.27136000  0.91230000  1.0
  O  O62  1  0.50649000  0.63537000  0.86427000  1.0
  O  O63  1  0.00647000  0.86426000  0.63539000  1.0
  O  O64  1  0.48795000  0.01594000  0.83715000  1.0
  O  O65  1  0.98795000  0.83715000  0.01594000  1.0
  O  O66  1  0.30672000  0.89251000  0.93791000  1.0
  O  O67  1  0.80671000  0.93791000  0.89252000  1.0
  O  O68  1  0.68588000  0.76073000  0.75743000  1.0
  O  O69  1  0.18587000  0.75743000  0.76074000  1.0
