# generated using pymatgen
data_NdH12C9O8
_symmetry_space_group_name_H-M   'P 1'
_cell_length_a   8.52171000
_cell_length_b   12.89970000
_cell_length_c   19.49180000
_cell_angle_alpha   89.99990000
_cell_angle_beta   90.00000000
_cell_angle_gamma   109.18700000
_symmetry_Int_Tables_number   1
_chemical_formula_structural   NdH12C9O8
_chemical_formula_sum   'Nd4 H48 C36 O32'
_cell_volume   2023.66081144
_cell_formula_units_Z   4
loop_
 _symmetry_equiv_pos_site_id
 _symmetry_equiv_pos_as_xyz
  1  'x, y, z'
loop_
 _atom_site_type_symbol
 _atom_site_label
 _atom_site_symmetry_multiplicity
 _atom_site_fract_x
 _atom_site_fract_y
 _atom_site_fract_z
 _atom_site_occupancy
  Nd  Nd0  1  0.25935000  0.51877000  0.50000000  1.0
  Nd  Nd1  1  0.74066000  0.48123000  0.00000000  1.0
  Nd  Nd2  1  0.74065000  0.48123000  0.50000000  1.0
  Nd  Nd3  1  0.25936000  0.51878000  0.00000000  1.0
  H  H4  1  0.22108000  0.89743000  0.54714000  1.0
  H  H5  1  0.77892000  0.10257000  0.04714000  1.0
  H  H6  1  0.32492000  0.10366000  0.95269000  1.0
  H  H7  1  0.67508000  0.89634000  0.45269000  1.0
  H  H8  1  0.77891000  0.10257000  0.45286000  1.0
  H  H9  1  0.22109000  0.89743000  0.95286000  1.0
  H  H10  1  0.67509000  0.89634000  0.04731000  1.0
  H  H11  1  0.32492000  0.10366000  0.54731000  1.0
  H  H12  1  0.67430000  0.67605000  0.68480000  1.0
  H  H13  1  0.32570000  0.32395000  0.18480000  1.0
  H  H14  1  0.99859000  0.32346000  0.81529000  1.0
  H  H15  1  0.00140000  0.67654000  0.31528000  1.0
  H  H16  1  0.32570000  0.32395000  0.31520000  1.0
  H  H17  1  0.67430000  0.67605000  0.81520000  1.0
  H  H18  1  0.00140000  0.67653000  0.18471000  1.0
  H  H19  1  0.99859000  0.32346000  0.68471000  1.0
  H  H20  1  0.67442000  0.53917000  0.68169000  1.0
  H  H21  1  0.32558000  0.46083000  0.18169000  1.0
  H  H22  1  0.13513000  0.46025000  0.81828000  1.0
  H  H23  1  0.86487000  0.53975000  0.31828000  1.0
  H  H24  1  0.32559000  0.46083000  0.31831000  1.0
  H  H25  1  0.67442000  0.53917000  0.81830000  1.0
  H  H26  1  0.86488000  0.53974000  0.18172000  1.0
  H  H27  1  0.13512000  0.46025000  0.68172000  1.0
  H  H28  1  0.40187000  0.61328000  0.75000000  1.0
  H  H29  1  0.59813000  0.38672000  0.25000000  1.0
  H  H30  1  0.78874000  0.38641000  0.75000000  1.0
  H  H31  1  0.21126000  0.61359000  0.25000000  1.0
  H  H32  1  0.40931000  0.47850000  0.75000000  1.0
  H  H33  1  0.59069000  0.52150000  0.25000000  1.0
  H  H34  1  0.93064000  0.52111000  0.75000000  1.0
  H  H35  1  0.06936000  0.47888000  0.25000000  1.0
  H  H36  1  0.16099000  0.28522000  0.57069000  1.0
  H  H37  1  0.83901000  0.71477000  0.07069000  1.0
  H  H38  1  0.87505000  0.71467000  0.92910000  1.0
  H  H39  1  0.12495000  0.28533000  0.42910000  1.0
  H  H40  1  0.83901000  0.71477000  0.42931000  1.0
  H  H41  1  0.16099000  0.28523000  0.92931000  1.0
  H  H42  1  0.12495000  0.28532000  0.07090000  1.0
  H  H43  1  0.87505000  0.71468000  0.57090000  1.0
  H  H44  1  0.35103000  0.31109000  0.55064000  1.0
  H  H45  1  0.64897000  0.68891000  0.05064000  1.0
  H  H46  1  0.03915000  0.68875000  0.94932000  1.0
  H  H47  1  0.96085000  0.31125000  0.44932000  1.0
  H  H48  1  0.64897000  0.68891000  0.44936000  1.0
  H  H49  1  0.35103000  0.31109000  0.94936000  1.0
  H  H50  1  0.96085000  0.31125000  0.05068000  1.0
  H  H51  1  0.03915000  0.68875000  0.55068000  1.0
  C  C52  1  0.38053000  0.76222000  0.49992000  1.0
  C  C53  1  0.61947000  0.23778000  0.99992000  1.0
  C  C54  1  0.61946000  0.23778000  0.50008000  1.0
  C  C55  1  0.38054000  0.76222000  0.00008000  1.0
  C  C56  1  0.44204000  0.88489000  0.49992000  1.0
  C  C57  1  0.55796000  0.11511000  0.99992000  1.0
  C  C58  1  0.55796000  0.11511000  0.50008000  1.0
  C  C59  1  0.44205000  0.88489000  0.00008000  1.0
  C  C60  1  0.34283000  0.94322000  0.52632000  1.0
  C  C61  1  0.65717000  0.05678000  0.02632000  1.0
  C  C62  1  0.40034000  0.05740000  0.97359000  1.0
  C  C63  1  0.59966000  0.94259000  0.47359000  1.0
  C  C64  1  0.65717000  0.05678000  0.47368000  1.0
  C  C65  1  0.34283000  0.94322000  0.97368000  1.0
  C  C66  1  0.59967000  0.94260000  0.02641000  1.0
  C  C67  1  0.40033000  0.05740000  0.52641000  1.0
  C  C68  1  0.48991000  0.57182000  0.62011000  1.0
  C  C69  1  0.51009000  0.42819000  0.12012000  1.0
  C  C70  1  0.91832000  0.42797000  0.87991000  1.0
  C  C71  1  0.08168000  0.57204000  0.37991000  1.0
  C  C72  1  0.51009000  0.42819000  0.37989000  1.0
  C  C73  1  0.48991000  0.57181000  0.87988000  1.0
  C  C74  1  0.08169000  0.57203000  0.12010000  1.0
  C  C75  1  0.91832000  0.42796000  0.62009000  1.0
  C  C76  1  0.59268000  0.58938000  0.68496000  1.0
  C  C77  1  0.40731000  0.41062000  0.18496000  1.0
  C  C78  1  0.00338000  0.41016000  0.81506000  1.0
  C  C79  1  0.99662000  0.58984000  0.31506000  1.0
  C  C80  1  0.40732000  0.41063000  0.31504000  1.0
  C  C81  1  0.59268000  0.58937000  0.81504000  1.0
  C  C82  1  0.99662000  0.58983000  0.18494000  1.0
  C  C83  1  0.00338000  0.41016000  0.68494000  1.0
  C  C84  1  0.48726000  0.56558000  0.75000000  1.0
  C  C85  1  0.51274000  0.43442000  0.25000000  1.0
  C  C86  1  0.92168000  0.43400000  0.75000000  1.0
  C  C87  1  0.07832000  0.56600000  0.25000000  1.0
  O  O88  1  0.23052000  0.71043000  0.51681000  1.0
  O  O89  1  0.76949000  0.28957000  0.01681000  1.0
  O  O90  1  0.52135000  0.28990000  0.98306000  1.0
  O  O91  1  0.47865000  0.71010000  0.48306000  1.0
  O  O92  1  0.76948000  0.28956000  0.48319000  1.0
  O  O93  1  0.23052000  0.71044000  0.98319000  1.0
  O  O94  1  0.47866000  0.71011000  0.01694000  1.0
  O  O95  1  0.52135000  0.28989000  0.51694000  1.0
  O  O96  1  0.34893000  0.58436000  0.61991000  1.0
  O  O97  1  0.65107000  0.41564000  0.11991000  1.0
  O  O98  1  0.76490000  0.41547000  0.88014000  1.0
  O  O99  1  0.23511000  0.58454000  0.38014000  1.0
  O  O100  1  0.65107000  0.41564000  0.38009000  1.0
  O  O101  1  0.34893000  0.58436000  0.88009000  1.0
  O  O102  1  0.23511000  0.58453000  0.11986000  1.0
  O  O103  1  0.76489000  0.41546000  0.61986000  1.0
  O  O104  1  0.54769000  0.54427000  0.56426000  1.0
  O  O105  1  0.45231000  0.45573000  0.06426000  1.0
  O  O106  1  0.00359000  0.45562000  0.93577000  1.0
  O  O107  1  0.99641000  0.54439000  0.43577000  1.0
  O  O108  1  0.45231000  0.45573000  0.43574000  1.0
  O  O109  1  0.54769000  0.54427000  0.93574000  1.0
  O  O110  1  0.99642000  0.54438000  0.06423000  1.0
  O  O111  1  0.00359000  0.45562000  0.56423000  1.0
  O  O112  1  0.26606000  0.34399000  0.56564000  1.0
  O  O113  1  0.73394000  0.65601000  0.06564000  1.0
  O  O114  1  0.92146000  0.65583000  0.93433000  1.0
  O  O115  1  0.07854000  0.34417000  0.43433000  1.0
  O  O116  1  0.73393000  0.65601000  0.43436000  1.0
  O  O117  1  0.26606000  0.34399000  0.93436000  1.0
  O  O118  1  0.07854000  0.34417000  0.06567000  1.0
  O  O119  1  0.92146000  0.65583000  0.56567000  1.0
