# generated using pymatgen
data_CdH8C12N3Cl2
_symmetry_space_group_name_H-M   'P 1'
_cell_length_a   11.90820000
_cell_length_b   11.90700000
_cell_length_c   12.97612866
_cell_angle_alpha   94.04498817
_cell_angle_beta   114.15893451
_cell_angle_gamma   118.50400000
_symmetry_Int_Tables_number   1
_chemical_formula_structural   CdH8C12N3Cl2
_chemical_formula_sum   'Cd4 H32 C48 N12 Cl8'
_cell_volume   1391.80599181
_cell_formula_units_Z   4
loop_
 _symmetry_equiv_pos_site_id
 _symmetry_equiv_pos_as_xyz
  1  'x, y, z'
loop_
 _atom_site_type_symbol
 _atom_site_label
 _atom_site_symmetry_multiplicity
 _atom_site_fract_x
 _atom_site_fract_y
 _atom_site_fract_z
 _atom_site_occupancy
  Cd  Cd0  1  0.89328000  0.35958000  0.68846000  1.0
  Cd  Cd1  1  0.17128000  0.20499000  0.81155000  1.0
  Cd  Cd2  1  0.10672000  0.64042000  0.31154000  1.0
  Cd  Cd3  1  0.82872000  0.79501000  0.18845000  1.0
  H  H4  1  0.13701000  0.57565000  0.63159000  1.0
  H  H5  1  0.44420000  0.50528000  0.86844000  1.0
  H  H6  1  0.86298000  0.42434000  0.36840000  1.0
  H  H7  1  0.55580000  0.49472000  0.13156000  1.0
  H  H8  1  0.31185000  0.82411000  0.69616000  1.0
  H  H9  1  0.62790000  0.61560000  0.80376000  1.0
  H  H10  1  0.68814000  0.17589000  0.30383000  1.0
  H  H11  1  0.37211000  0.38439000  0.19624000  1.0
  H  H12  1  0.37722000  0.97038000  0.89103000  1.0
  H  H13  1  0.57913000  0.48620000  0.60879000  1.0
  H  H14  1  0.62278000  0.02963000  0.10897000  1.0
  H  H15  1  0.42088000  0.51380000  0.39122000  1.0
  H  H16  1  0.27495000  0.85710000  0.01308000  1.0
  H  H17  1  0.34381000  0.26179000  0.48678000  1.0
  H  H18  1  0.72504000  0.14290000  0.98691000  1.0
  H  H19  1  0.65619000  0.73821000  0.51322000  1.0
  H  H20  1  0.41148000  0.71497000  0.07971000  1.0
  H  H21  1  0.13529000  0.33193000  0.42001000  1.0
  H  H22  1  0.58853000  0.28504000  0.92030000  1.0
  H  H23  1  0.86471000  0.66807000  0.57999000  1.0
  H  H24  1  0.65426000  0.90209000  0.24593000  1.0
  H  H25  1  0.15613000  0.40803000  0.25360000  1.0
  H  H26  1  0.34574000  0.09792000  0.75407000  1.0
  H  H27  1  0.84388000  0.59198000  0.74641000  1.0
  H  H28  1  0.67401000  0.00346000  0.43552000  1.0
  H  H29  1  0.06792000  0.23782000  0.06426000  1.0
  H  H30  1  0.32599000  0.99655000  0.56448000  1.0
  H  H31  1  0.93208000  0.76218000  0.93574000  1.0
  H  H32  1  0.44163000  0.89833000  0.44838000  1.0
  H  H33  1  0.94978000  0.99254000  0.05171000  1.0
  H  H34  1  0.55837000  0.10167000  0.55162000  1.0
  H  H35  1  0.05021000  0.00745000  0.94828000  1.0
  C  C36  1  0.17067000  0.64071000  0.71633000  1.0
  C  C37  1  0.42438000  0.45422000  0.78363000  1.0
  C  C38  1  0.82933000  0.35930000  0.28367000  1.0
  C  C39  1  0.57562000  0.54578000  0.21637000  1.0
  C  C40  1  0.26900000  0.78072000  0.75317000  1.0
  C  C41  1  0.52750000  0.51571000  0.74675000  1.0
  C  C42  1  0.73100000  0.21929000  0.24683000  1.0
  C  C43  1  0.47250000  0.48428000  0.25325000  1.0
  C  C44  1  0.30623000  0.86006000  0.86064000  1.0
  C  C45  1  0.49928000  0.44555000  0.63923000  1.0
  C  C46  1  0.69377000  0.13994000  0.13936000  1.0
  C  C47  1  0.50072000  0.55445000  0.36077000  1.0
  C  C48  1  0.24897000  0.79678000  0.92981000  1.0
  C  C49  1  0.36684000  0.31909000  0.57009000  1.0
  C  C50  1  0.75103000  0.20323000  0.07019000  1.0
  C  C51  1  0.63317000  0.68092000  0.42992000  1.0
  C  C52  1  0.15380000  0.65560000  0.88860000  1.0
  C  C53  1  0.26693000  0.26515000  0.61132000  1.0
  C  C54  1  0.84620000  0.34440000  0.11140000  1.0
  C  C55  1  0.73307000  0.73485000  0.38868000  1.0
  C  C56  1  0.08092000  0.57905000  0.95262000  1.0
  C  C57  1  0.12641000  0.12823000  0.54734000  1.0
  C  C58  1  0.91908000  0.42095000  0.04738000  1.0
  C  C59  1  0.87359000  0.87177000  0.45266000  1.0
  C  C60  1  0.14267000  0.60582000  0.07764000  1.0
  C  C61  1  0.02807000  0.06505000  0.42233000  1.0
  C  C62  1  0.85733000  0.39418000  0.92236000  1.0
  C  C63  1  0.97193000  0.93495000  0.57767000  1.0
  C  C64  1  0.29469000  0.71608000  0.17229000  1.0
  C  C65  1  0.04368000  0.12237000  0.32766000  1.0
  C  C66  1  0.70531000  0.28392000  0.82771000  1.0
  C  C67  1  0.95632000  0.87763000  0.67234000  1.0
  C  C68  1  0.41898000  0.76078000  0.15997000  1.0
  C  C69  1  0.10076000  0.25899000  0.33981000  1.0
  C  C70  1  0.58102000  0.23922000  0.84003000  1.0
  C  C71  1  0.89924000  0.74101000  0.66019000  1.0
  C  C72  1  0.55657000  0.86595000  0.25463000  1.0
  C  C73  1  0.11128000  0.30162000  0.24506000  1.0
  C  C74  1  0.44343000  0.13405000  0.74537000  1.0
  C  C75  1  0.88872000  0.69838000  0.75494000  1.0
  C  C76  1  0.56771000  0.92098000  0.35955000  1.0
  C  C77  1  0.06141000  0.20765000  0.14028000  1.0
  C  C78  1  0.43229000  0.07902000  0.64045000  1.0
  C  C79  1  0.93859000  0.79235000  0.85972000  1.0
  C  C80  1  0.43931000  0.86534000  0.36658000  1.0
  C  C81  1  0.99868000  0.07224000  0.13341000  1.0
  C  C82  1  0.56069000  0.13466000  0.63342000  1.0
  C  C83  1  0.00132000  0.92776000  0.86659000  1.0
  N  N84  1  0.11291000  0.58001000  0.78148000  1.0
  N  N85  1  0.29850000  0.33135000  0.71846000  1.0
  N  N86  1  0.88709000  0.41999000  0.21852000  1.0
  N  N87  1  0.70150000  0.66865000  0.28154000  1.0
  N  N88  1  0.94080000  0.47405000  0.88094000  1.0
  N  N89  1  0.09323000  0.05980000  0.61905000  1.0
  N  N90  1  0.05920000  0.52595000  0.11906000  1.0
  N  N91  1  0.90677000  0.94020000  0.38095000  1.0
  N  N92  1  0.30608000  0.76653000  0.27519000  1.0
  N  N93  1  0.99122000  0.03068000  0.22488000  1.0
  N  N94  1  0.69392000  0.23347000  0.72481000  1.0
  N  N95  1  0.00878000  0.96933000  0.77512000  1.0
  Cl  Cl96  1  0.73387000  0.40003000  0.51751000  1.0
  Cl  Cl97  1  0.38254000  0.21644000  0.98262000  1.0
  Cl  Cl98  1  0.26613000  0.59997000  0.48249000  1.0
  Cl  Cl99  1  0.61746000  0.78356000  0.01738000  1.0
  Cl  Cl100  1  0.91630000  0.19417000  0.58822000  1.0
  Cl  Cl101  1  0.10616000  0.32818000  0.91193000  1.0
  Cl  Cl102  1  0.08370000  0.80584000  0.41179000  1.0
  Cl  Cl103  1  0.89384000  0.67182000  0.08807000  1.0
