# generated using pymatgen
data_PrH15(C7O4)3
_symmetry_space_group_name_H-M   'P 1'
_cell_length_a   8.98294000
_cell_length_b   15.12710000
_cell_length_c   16.64630000
_cell_angle_alpha   90.00010000
_cell_angle_beta   90.00010000
_cell_angle_gamma   104.17800000
_symmetry_Int_Tables_number   1
_chemical_formula_structural   PrH15(C7O4)3
_chemical_formula_sum   'Pr4 H60 C84 O48'
_cell_volume   2193.09471235
_cell_formula_units_Z   4
loop_
 _symmetry_equiv_pos_site_id
 _symmetry_equiv_pos_as_xyz
  1  'x, y, z'
loop_
 _atom_site_type_symbol
 _atom_site_label
 _atom_site_symmetry_multiplicity
 _atom_site_fract_x
 _atom_site_fract_y
 _atom_site_fract_z
 _atom_site_occupancy
  Pr  Pr0  1  0.56599000  0.96797000  0.11234000  1.0
  Pr  Pr1  1  0.93401000  0.03202000  0.61234000  1.0
  Pr  Pr2  1  0.43401000  0.03202000  0.88766000  1.0
  Pr  Pr3  1  0.06599000  0.96797000  0.38766000  1.0
  H  H4  1  0.01775000  0.13675000  0.01575000  1.0
  H  H5  1  0.48225000  0.86325000  0.51575000  1.0
  H  H6  1  0.98225000  0.86325000  0.98425000  1.0
  H  H7  1  0.51775000  0.13675000  0.48425000  1.0
  H  H8  1  0.04987000  0.08494000  0.92416000  1.0
  H  H9  1  0.45013000  0.91506000  0.42416000  1.0
  H  H10  1  0.95013000  0.91506000  0.07584000  1.0
  H  H11  1  0.54987000  0.08494000  0.57584000  1.0
  H  H12  1  0.85205000  0.20491000  0.05943000  1.0
  H  H13  1  0.64796000  0.79510000  0.55943000  1.0
  H  H14  1  0.14796000  0.79510000  0.94057000  1.0
  H  H15  1  0.35204000  0.20491000  0.44057000  1.0
  H  H16  1  0.74883000  0.33027000  0.10833000  1.0
  H  H17  1  0.75117000  0.66974000  0.60833000  1.0
  H  H18  1  0.25117000  0.66974000  0.89167000  1.0
  H  H19  1  0.24883000  0.33027000  0.39167000  1.0
  H  H20  1  0.86725000  0.47261000  0.88398000  1.0
  H  H21  1  0.63275000  0.52739000  0.38398000  1.0
  H  H22  1  0.13275000  0.52740000  0.11602000  1.0
  H  H23  1  0.36725000  0.47261000  0.61602000  1.0
  H  H24  1  0.97737000  0.34982000  0.83632000  1.0
  H  H25  1  0.52263000  0.65017000  0.33632000  1.0
  H  H26  1  0.02263000  0.65018000  0.16368000  1.0
  H  H27  1  0.47737000  0.34982000  0.66368000  1.0
  H  H28  1  0.87283000  0.58931000  0.95027000  1.0
  H  H29  1  0.62718000  0.41069000  0.45027000  1.0
  H  H30  1  0.12718000  0.41069000  0.04973000  1.0
  H  H31  1  0.37282000  0.58931000  0.54972000  1.0
  H  H32  1  0.33075000  0.63152000  0.24361000  1.0
  H  H33  1  0.16925000  0.36848000  0.74361000  1.0
  H  H34  1  0.66925000  0.36848000  0.75639000  1.0
  H  H35  1  0.83075000  0.63152000  0.25639000  1.0
  H  H36  1  0.42191000  0.49366000  0.21043000  1.0
  H  H37  1  0.07809000  0.50634000  0.71043000  1.0
  H  H38  1  0.57809000  0.50634000  0.78957000  1.0
  H  H39  1  0.92190000  0.49366000  0.28957000  1.0
  H  H40  1  0.54155000  0.72265000  0.93677000  1.0
  H  H41  1  0.95845000  0.27735000  0.43677000  1.0
  H  H42  1  0.45846000  0.27735000  0.06323000  1.0
  H  H43  1  0.04154000  0.72265000  0.56323000  1.0
  H  H44  1  0.72324000  0.80405000  0.93232000  1.0
  H  H45  1  0.77676000  0.19595000  0.43232000  1.0
  H  H46  1  0.27676000  0.19595000  0.06768000  1.0
  H  H47  1  0.22324000  0.80405000  0.56768000  1.0
  H  H48  1  0.36208000  0.75683000  0.28680000  1.0
  H  H49  1  0.13792000  0.24317000  0.78680000  1.0
  H  H50  1  0.63792000  0.24317000  0.71320000  1.0
  H  H51  1  0.86208000  0.75683000  0.21320000  1.0
  H  H52  1  0.20883000  0.76419000  0.21966000  1.0
  H  H53  1  0.29117000  0.23581000  0.71966000  1.0
  H  H54  1  0.79117000  0.23581000  0.78034000  1.0
  H  H55  1  0.70883000  0.76418000  0.28033000  1.0
  H  H56  1  0.85507000  0.05273000  0.21355000  1.0
  H  H57  1  0.64493000  0.94727000  0.71355000  1.0
  H  H58  1  0.14493000  0.94727000  0.78645000  1.0
  H  H59  1  0.35507000  0.05273000  0.28645000  1.0
  H  H60  1  0.75961000  0.12397000  0.23085000  1.0
  H  H61  1  0.74039000  0.87603000  0.73085000  1.0
  H  H62  1  0.24040000  0.87603000  0.76915000  1.0
  H  H63  1  0.25960000  0.12397000  0.26915000  1.0
  C  C64  1  0.81146000  0.05930000  0.95794000  1.0
  C  C65  1  0.68854000  0.94070000  0.45794000  1.0
  C  C66  1  0.18853000  0.94070000  0.04206000  1.0
  C  C67  1  0.31146000  0.05930000  0.54206000  1.0
  C  C68  1  0.97400000  0.12129000  0.95435000  1.0
  C  C69  1  0.52600000  0.87871000  0.45434000  1.0
  C  C70  1  0.02599000  0.87871000  0.04565000  1.0
  C  C71  1  0.47400000  0.12129000  0.54565000  1.0
  C  C72  1  0.92222000  0.26835000  0.94344000  1.0
  C  C73  1  0.57778000  0.73165000  0.44344000  1.0
  C  C74  1  0.07778000  0.73165000  0.05656000  1.0
  C  C75  1  0.42222000  0.26835000  0.55656000  1.0
  C  C76  1  0.85823000  0.26362000  0.02056000  1.0
  C  C77  1  0.64177000  0.73638000  0.52056000  1.0
  C  C78  1  0.14178000  0.73638000  0.97944000  1.0
  C  C79  1  0.35823000  0.26362000  0.47944000  1.0
  C  C80  1  0.79891000  0.33515000  0.04853000  1.0
  C  C81  1  0.70109000  0.66485000  0.54853000  1.0
  C  C82  1  0.20109000  0.66485000  0.95147000  1.0
  C  C83  1  0.29891000  0.33515000  0.45147000  1.0
  C  C84  1  0.79939000  0.41229000  0.00106000  1.0
  C  C85  1  0.70061000  0.58771000  0.50106000  1.0
  C  C86  1  0.20062000  0.58771000  0.99894000  1.0
  C  C87  1  0.29939000  0.41229000  0.49894000  1.0
  C  C88  1  0.86575000  0.41546000  0.92407000  1.0
  C  C89  1  0.63425000  0.58454000  0.42407000  1.0
  C  C90  1  0.13425000  0.58455000  0.07593000  1.0
  C  C91  1  0.36575000  0.41546000  0.57593000  1.0
  C  C92  1  0.92713000  0.34576000  0.89613000  1.0
  C  C93  1  0.57287000  0.65425000  0.39613000  1.0
  C  C94  1  0.07287000  0.65425000  0.10387000  1.0
  C  C95  1  0.42713000  0.34575000  0.60387000  1.0
  C  C96  1  0.61820000  0.47546000  0.09320000  1.0
  C  C97  1  0.88181000  0.52454000  0.59320000  1.0
  C  C98  1  0.38180000  0.52454000  0.90680000  1.0
  C  C99  1  0.11819000  0.47546000  0.40680000  1.0
  C  C100  1  0.73431000  0.48738000  0.02937000  1.0
  C  C101  1  0.76569000  0.51262000  0.52938000  1.0
  C  C102  1  0.26569000  0.51262000  0.97063000  1.0
  C  C103  1  0.23431000  0.48738000  0.47063000  1.0
  C  C104  1  0.78276000  0.57176000  0.99537000  1.0
  C  C105  1  0.71724000  0.42824000  0.49537000  1.0
  C  C106  1  0.21724000  0.42824000  0.00463000  1.0
  C  C107  1  0.28276000  0.57176000  0.50463000  1.0
  C  C108  1  0.62192000  0.63949000  0.07179000  1.0
  C  C109  1  0.87808000  0.36051000  0.57179000  1.0
  C  C110  1  0.37808000  0.36051000  0.92821000  1.0
  C  C111  1  0.12191000  0.63948000  0.42821000  1.0
  C  C112  1  0.56856000  0.71785000  0.08691000  1.0
  C  C113  1  0.93145000  0.28215000  0.58691000  1.0
  C  C114  1  0.43144000  0.28215000  0.91309000  1.0
  C  C115  1  0.06855000  0.71785000  0.41309000  1.0
  C  C116  1  0.46867000  0.71583000  0.15230000  1.0
  C  C117  1  0.03133000  0.28417000  0.65229000  1.0
  C  C118  1  0.53133000  0.28417000  0.84770000  1.0
  C  C119  1  0.96867000  0.71583000  0.34770000  1.0
  C  C120  1  0.41591000  0.63487000  0.19656000  1.0
  C  C121  1  0.08409000  0.36513000  0.69656000  1.0
  C  C122  1  0.58409000  0.36513000  0.80344000  1.0
  C  C123  1  0.91590000  0.63487000  0.30344000  1.0
  C  C124  1  0.46494000  0.55738000  0.17795000  1.0
  C  C125  1  0.03506000  0.44262000  0.67795000  1.0
  C  C126  1  0.53506000  0.44263000  0.82205000  1.0
  C  C127  1  0.96495000  0.55738000  0.32205000  1.0
  C  C128  1  0.56980000  0.55830000  0.11537000  1.0
  C  C129  1  0.93020000  0.44170000  0.61538000  1.0
  C  C130  1  0.43020000  0.44171000  0.88463000  1.0
  C  C131  1  0.06980000  0.55829000  0.38462000  1.0
  C  C132  1  0.60638000  0.79050000  0.95693000  1.0
  C  C133  1  0.89362000  0.20950000  0.45693000  1.0
  C  C134  1  0.39362000  0.20950000  0.04307000  1.0
  C  C135  1  0.10638000  0.79050000  0.54307000  1.0
  C  C136  1  0.52776000  0.86149000  0.92593000  1.0
  C  C137  1  0.97224000  0.13851000  0.42593000  1.0
  C  C138  1  0.47224000  0.13851000  0.07407000  1.0
  C  C139  1  0.02777000  0.86149000  0.57407000  1.0
  C  C140  1  0.32827000  0.79485000  0.23657000  1.0
  C  C141  1  0.17173000  0.20515000  0.73657000  1.0
  C  C142  1  0.67173000  0.20515000  0.76343000  1.0
  C  C143  1  0.82827000  0.79485000  0.26343000  1.0
  C  C144  1  0.34024000  0.88994000  0.26905000  1.0
  C  C145  1  0.15977000  0.11006000  0.76905000  1.0
  C  C146  1  0.65976000  0.11006000  0.73096000  1.0
  C  C147  1  0.84024000  0.88994000  0.23096000  1.0
  O  O148  1  0.78447000  0.00581000  0.01825000  1.0
  O  O149  1  0.71552000  0.99419000  0.51825000  1.0
  O  O150  1  0.21552000  0.99419000  0.98175000  1.0
  O  O151  1  0.28448000  0.00581000  0.48175000  1.0
  O  O152  1  0.71952000  0.06433000  0.90165000  1.0
  O  O153  1  0.78048000  0.93567000  0.40165000  1.0
  O  O154  1  0.28048000  0.93567000  0.09835000  1.0
  O  O155  1  0.21952000  0.06433000  0.59835000  1.0
  O  O156  1  0.98406000  0.20326000  0.90938000  1.0
  O  O157  1  0.51594000  0.79674000  0.40938000  1.0
  O  O158  1  0.01593000  0.79674000  0.09062000  1.0
  O  O159  1  0.48406000  0.20326000  0.59062000  1.0
  O  O160  1  0.56071000  0.40131000  0.12717000  1.0
  O  O161  1  0.93929000  0.59869000  0.62716000  1.0
  O  O162  1  0.43929000  0.59869000  0.87284000  1.0
  O  O163  1  0.06070000  0.40131000  0.37284000  1.0
  O  O164  1  0.72885000  0.64567000  0.01226000  1.0
  O  O165  1  0.77115000  0.35434000  0.51226000  1.0
  O  O166  1  0.27115000  0.35434000  0.98774000  1.0
  O  O167  1  0.22885000  0.64567000  0.48774000  1.0
  O  O168  1  0.61500000  0.79661000  0.04374000  1.0
  O  O169  1  0.88500000  0.20339000  0.54373000  1.0
  O  O170  1  0.38501000  0.20339000  0.95627000  1.0
  O  O171  1  0.11499000  0.79661000  0.45627000  1.0
  O  O172  1  0.52097000  0.87553000  0.85191000  1.0
  O  O173  1  0.97904000  0.12447000  0.35191000  1.0
  O  O174  1  0.47904000  0.12447000  0.14809000  1.0
  O  O175  1  0.02096000  0.87553000  0.64809000  1.0
  O  O176  1  0.46947000  0.90630000  0.97815000  1.0
  O  O177  1  0.03052000  0.09369000  0.47815000  1.0
  O  O178  1  0.53052000  0.09369000  0.02185000  1.0
  O  O179  1  0.96947000  0.90630000  0.52185000  1.0
  O  O180  1  0.42659000  0.79496000  0.16844000  1.0
  O  O181  1  0.07341000  0.20504000  0.66844000  1.0
  O  O182  1  0.57341000  0.20504000  0.83156000  1.0
  O  O183  1  0.92659000  0.79496000  0.33156000  1.0
  O  O184  1  0.23987000  0.89215000  0.32137000  1.0
  O  O185  1  0.26013000  0.10785000  0.82136000  1.0
  O  O186  1  0.76013000  0.10786000  0.67863000  1.0
  O  O187  1  0.73987000  0.89215000  0.17863000  1.0
  O  O188  1  0.44662000  0.95744000  0.24737000  1.0
  O  O189  1  0.05339000  0.04255000  0.74737000  1.0
  O  O190  1  0.55339000  0.04256000  0.75263000  1.0
  O  O191  1  0.94661000  0.95744000  0.25263000  1.0
  O  O192  1  0.78208000  0.08437000  0.18894000  1.0
  O  O193  1  0.71792000  0.91563000  0.68894000  1.0
  O  O194  1  0.21792000  0.91563000  0.81106000  1.0
  O  O195  1  0.28208000  0.08437000  0.31106000  1.0
