# generated using pymatgen
data_NdH15C22S2(NO4)2
_symmetry_space_group_name_H-M   'P 1'
_cell_length_a   8.88764000
_cell_length_b   11.87620000
_cell_length_c   12.70980000
_cell_angle_alpha   105.84000000
_cell_angle_beta   108.76000000
_cell_angle_gamma   100.15100000
_symmetry_Int_Tables_number   1
_chemical_formula_structural   NdH15C22S2(NO4)2
_chemical_formula_sum   'Nd2 H30 C44 S4 N4 O16'
_cell_volume   1169.57406173
_cell_formula_units_Z   2
loop_
 _symmetry_equiv_pos_site_id
 _symmetry_equiv_pos_as_xyz
  1  'x, y, z'
loop_
 _atom_site_type_symbol
 _atom_site_label
 _atom_site_symmetry_multiplicity
 _atom_site_fract_x
 _atom_site_fract_y
 _atom_site_fract_z
 _atom_site_occupancy
  Nd  Nd0  1  0.54294000  0.42469000  0.35631000  1.0
  Nd  Nd1  1  0.45706000  0.57531000  0.64369000  1.0
  H  H2  1  0.87989000  0.30034000  0.77648000  1.0
  H  H3  1  0.12011000  0.69966000  0.22352000  1.0
  H  H4  1  0.80692000  0.12068000  0.84476000  1.0
  H  H5  1  0.19308000  0.87932000  0.15524000  1.0
  H  H6  1  0.32481000  0.85790000  0.65017000  1.0
  H  H7  1  0.67519000  0.14210000  0.34983000  1.0
  H  H8  1  0.24448000  0.97740000  0.51747000  1.0
  H  H9  1  0.75552000  0.02260000  0.48253000  1.0
  H  H10  1  0.29898000  0.16313000  0.47272000  1.0
  H  H11  1  0.70102000  0.83687000  0.52728000  1.0
  H  H12  1  0.92566000  0.62755000  0.50507000  1.0
  H  H13  1  0.07434000  0.37245000  0.49494000  1.0
  H  H14  1  0.10161000  0.82524000  0.52515000  1.0
  H  H15  1  0.89839000  0.17477000  0.47486000  1.0
  H  H16  1  0.00597000  0.91642000  0.36614000  1.0
  H  H17  1  0.99403000  0.08357000  0.63386000  1.0
  H  H18  1  0.78506000  0.90282000  0.17712000  1.0
  H  H19  1  0.21495000  0.09718000  0.82287000  1.0
  H  H20  1  0.50599000  0.79925000  0.02070000  1.0
  H  H21  1  0.49402000  0.20075000  0.97929000  1.0
  H  H22  1  0.24367000  0.62297000  0.92737000  1.0
  H  H23  1  0.75633000  0.37703000  0.07263000  1.0
  H  H24  1  0.08947000  0.42531000  0.92406000  1.0
  H  H25  1  0.91053000  0.57469000  0.07594000  1.0
  H  H26  1  0.22168000  0.34205000  0.08170000  1.0
  H  H27  1  0.77832000  0.65795000  0.91831000  1.0
  H  H28  1  0.83011000  0.38817000  0.26784000  1.0
  H  H29  1  0.16989000  0.61183000  0.73216000  1.0
  H  H30  1  0.67857000  0.25886000  0.20857000  1.0
  H  H31  1  0.32143000  0.74114000  0.79143000  1.0
  C  C32  1  0.69669000  0.34033000  0.64609000  1.0
  C  C33  1  0.30331000  0.65967000  0.35391000  1.0
  C  C34  1  0.75162000  0.27053000  0.71269000  1.0
  C  C35  1  0.24838000  0.72947000  0.28731000  1.0
  C  C36  1  0.64122000  0.16006000  0.69846000  1.0
  C  C37  1  0.35877000  0.83994000  0.30154000  1.0
  C  C38  1  0.68476000  0.09010000  0.77234000  1.0
  C  C39  1  0.31524000  0.90990000  0.22765000  1.0
  C  C40  1  0.56987000  0.98508000  0.75497000  1.0
  C  C41  1  0.43013000  0.01492000  0.24503000  1.0
  C  C42  1  0.41069000  0.94230000  0.66161000  1.0
  C  C43  1  0.58931000  0.05770000  0.33839000  1.0
  C  C44  1  0.36644000  0.00802000  0.58928000  1.0
  C  C45  1  0.63356000  0.99198000  0.41072000  1.0
  C  C46  1  0.47714000  0.11955000  0.60698000  1.0
  C  C47  1  0.52286000  0.88045000  0.39302000  1.0
  C  C48  1  0.42485000  0.19243000  0.53992000  1.0
  C  C49  1  0.57515000  0.80757000  0.46009000  1.0
  C  C50  1  0.52793000  0.30583000  0.56273000  1.0
  C  C51  1  0.47207000  0.69417000  0.43727000  1.0
  C  C52  1  0.88587000  0.66926000  0.43838000  1.0
  C  C53  1  0.11413000  0.33074000  0.56162000  1.0
  C  C54  1  0.98509000  0.78064000  0.44855000  1.0
  C  C55  1  0.01491000  0.21936000  0.55145000  1.0
  C  C56  1  0.93228000  0.82990000  0.36142000  1.0
  C  C57  1  0.06772000  0.17010000  0.63858000  1.0
  C  C58  1  0.77848000  0.76847000  0.26457000  1.0
  C  C59  1  0.22153000  0.23152000  0.73543000  1.0
  C  C60  1  0.71187000  0.81724000  0.17441000  1.0
  C  C61  1  0.28814000  0.18276000  0.82559000  1.0
  C  C62  1  0.55699000  0.75954000  0.08727000  1.0
  C  C63  1  0.44301000  0.24046000  0.91273000  1.0
  C  C64  1  0.45995000  0.64676000  0.08193000  1.0
  C  C65  1  0.54006000  0.35324000  0.91807000  1.0
  C  C66  1  0.29903000  0.58445000  0.99377000  1.0
  C  C67  1  0.70098000  0.41555000  0.00623000  1.0
  C  C68  1  0.21306000  0.47463000  0.99211000  1.0
  C  C69  1  0.78694000  0.52537000  0.00789000  1.0
  C  C70  1  0.28677000  0.42793000  0.07979000  1.0
  C  C71  1  0.71323000  0.57207000  0.92021000  1.0
  C  C72  1  0.52401000  0.59345000  0.16787000  1.0
  C  C73  1  0.47600000  0.40655000  0.83213000  1.0
  C  C74  1  0.68514000  0.65673000  0.26234000  1.0
  C  C75  1  0.31486000  0.34327000  0.73766000  1.0
  S  S76  1  0.82456000  0.47807000  0.65453000  1.0
  S  S77  1  0.17544000  0.52194000  0.34547000  1.0
  S  S78  1  0.60987000  0.89762000  0.84896000  1.0
  S  S79  1  0.39014000  0.10239000  0.15105000  1.0
  N  N80  1  0.74026000  0.60896000  0.34839000  1.0
  N  N81  1  0.25974000  0.39104000  0.65161000  1.0
  N  N82  1  0.43690000  0.48616000  0.16630000  1.0
  N  N83  1  0.56311000  0.51384000  0.83370000  1.0
  O  O84  1  0.99550000  0.49700000  0.73279000  1.0
  O  O85  1  0.00451000  0.50300000  0.26721000  1.0
  O  O86  1  0.75561000  0.57677000  0.69862000  1.0
  O  O87  1  0.24439000  0.42323000  0.30138000  1.0
  O  O88  1  0.80482000  0.45733000  0.52918000  1.0
  O  O89  1  0.19518000  0.54267000  0.47082000  1.0
  O  O90  1  0.46224000  0.87635000  0.87881000  1.0
  O  O91  1  0.53775000  0.12364000  0.12119000  1.0
  O  O92  1  0.61112000  0.77890000  0.76777000  1.0
  O  O93  1  0.38889000  0.22110000  0.23223000  1.0
  O  O94  1  0.76673000  0.96151000  0.94794000  1.0
  O  O95  1  0.23326000  0.03850000  0.05205000  1.0
  O  O96  1  0.47334000  0.38404000  0.51236000  1.0
  O  O97  1  0.52667000  0.61596000  0.48764000  1.0
  O  O98  1  0.73105000  0.34150000  0.27293000  1.0
  O  O99  1  0.26894000  0.65850000  0.72707000  1.0
