# generated using pymatgen
data_Zn2Sn2H32C12Se7N6
_symmetry_space_group_name_H-M   'P 1'
_cell_length_a   10.32900000
_cell_length_b   11.04710000
_cell_length_c   13.75120000
_cell_angle_alpha   89.99990000
_cell_angle_beta   69.87000000
_cell_angle_gamma   89.99990000
_symmetry_Int_Tables_number   1
_chemical_formula_structural   Zn2Sn2H32C12Se7N6
_chemical_formula_sum   'Zn4 Sn4 H64 C24 Se14 N12'
_cell_volume   1473.23850453
_cell_formula_units_Z   2
loop_
 _symmetry_equiv_pos_site_id
 _symmetry_equiv_pos_as_xyz
  1  'x, y, z'
loop_
 _atom_site_type_symbol
 _atom_site_label
 _atom_site_symmetry_multiplicity
 _atom_site_fract_x
 _atom_site_fract_y
 _atom_site_fract_z
 _atom_site_occupancy
  Zn  Zn0  1  0.96411000  0.26050000  0.05884000  1.0
  Zn  Zn1  1  0.03589000  0.76049000  0.94116000  1.0
  Zn  Zn2  1  0.07449000  0.46410000  0.54024000  1.0
  Zn  Zn3  1  0.92551000  0.96410000  0.45976000  1.0
  Sn  Sn4  1  0.05423000  0.26618000  0.30567000  1.0
  Sn  Sn5  1  0.94578000  0.76617000  0.69432000  1.0
  Sn  Sn6  1  0.04662000  0.94905000  0.16527000  1.0
  Sn  Sn7  1  0.95338000  0.44905000  0.83473000  1.0
  H  H8  1  0.84902000  0.38543000  0.52921000  1.0
  H  H9  1  0.15098000  0.88543000  0.47079000  1.0
  H  H10  1  0.80852000  0.49773000  0.61465000  1.0
  H  H11  1  0.19148000  0.99773000  0.38535000  1.0
  H  H12  1  0.71371000  0.59558000  0.38427000  1.0
  H  H13  1  0.28629000  0.09558000  0.61573000  1.0
  H  H14  1  0.71286000  0.44265000  0.42283000  1.0
  H  H15  1  0.28714000  0.94265000  0.57717000  1.0
  H  H16  1  0.52525000  0.38293000  0.55126000  1.0
  H  H17  1  0.47475000  0.88293000  0.44874000  1.0
  H  H18  1  0.43188000  0.49057000  0.50505000  1.0
  H  H19  1  0.56812000  0.99057000  0.49495000  1.0
  H  H20  1  0.29437000  0.43601000  0.68449000  1.0
  H  H21  1  0.70563000  0.93601000  0.31551000  1.0
  H  H22  1  0.43612000  0.47092000  0.72753000  1.0
  H  H23  1  0.56388000  0.97092000  0.27247000  1.0
  H  H24  1  0.27100000  0.62573000  0.76483000  1.0
  H  H25  1  0.72900000  0.12573000  0.23517000  1.0
  H  H26  1  0.28021000  0.64087000  0.64077000  1.0
  H  H27  1  0.71979000  0.14087000  0.35923000  1.0
  H  H28  1  0.41456000  0.79951000  0.67215000  1.0
  H  H29  1  0.58544000  0.29950000  0.32785000  1.0
  H  H30  1  0.50889000  0.69476000  0.72126000  1.0
  H  H31  1  0.49111000  0.19475000  0.27874000  1.0
  H  H32  1  0.64632000  0.74425000  0.54100000  1.0
  H  H33  1  0.35368000  0.24425000  0.45900000  1.0
  H  H34  1  0.50591000  0.70660000  0.49823000  1.0
  H  H35  1  0.49410000  0.20660000  0.50177000  1.0
  H  H36  1  0.19166000  0.32655000  0.91984000  1.0
  H  H37  1  0.80834000  0.82655000  0.08016000  1.0
  H  H38  1  0.23033000  0.24318000  0.00535000  1.0
  H  H39  1  0.76967000  0.74318000  0.99465000  1.0
  H  H40  1  0.11386000  0.13240000  0.85862000  1.0
  H  H41  1  0.88613000  0.63240000  0.14138000  1.0
  H  H42  1  0.19362000  0.05896000  0.93622000  1.0
  H  H43  1  0.80638000  0.55896000  0.06378000  1.0
  H  H44  1  0.33808000  0.06442000  0.75095000  1.0
  H  H45  1  0.66192000  0.56442000  0.24905000  1.0
  H  H46  1  0.32718000  0.22489000  0.74935000  1.0
  H  H47  1  0.67282000  0.72489000  0.25065000  1.0
  H  H48  1  0.54956000  0.27397000  0.69713000  1.0
  H  H49  1  0.45044000  0.77397000  0.30287000  1.0
  H  H50  1  0.59530000  0.11875000  0.67300000  1.0
  H  H51  1  0.40470000  0.61875000  0.32700000  1.0
  H  H52  1  0.79230000  0.23353000  0.68882000  1.0
  H  H53  1  0.20770000  0.73353000  0.31118000  1.0
  H  H54  1  0.68716000  0.29343000  0.81176000  1.0
  H  H55  1  0.31284000  0.79343000  0.18824000  1.0
  H  H56  1  0.81531000  0.13430000  0.83890000  1.0
  H  H57  1  0.18469000  0.63430000  0.16110000  1.0
  H  H58  1  0.77027000  0.03823000  0.75804000  1.0
  H  H59  1  0.22973000  0.53823000  0.24196000  1.0
  H  H60  1  0.59822000  0.13913000  0.96221000  1.0
  H  H61  1  0.40178000  0.63913000  0.03779000  1.0
  H  H62  1  0.64526000  0.98433000  0.93112000  1.0
  H  H63  1  0.35474000  0.48434000  0.06888000  1.0
  H  H64  1  0.50586000  0.97306000  0.81729000  1.0
  H  H65  1  0.49414000  0.47306000  0.18272000  1.0
  H  H66  1  0.40209000  0.02654000  0.94130000  1.0
  H  H67  1  0.59791000  0.52654000  0.05870000  1.0
  H  H68  1  0.93960000  0.54076000  0.38970000  1.0
  H  H69  1  0.06040000  0.04077000  0.61030000  1.0
  H  H70  1  0.86547000  0.64848000  0.48783000  1.0
  H  H71  1  0.13453000  0.14849000  0.51217000  1.0
  C  C72  1  0.71798000  0.53663000  0.44797000  1.0
  C  C73  1  0.28201000  0.03663000  0.55203000  1.0
  C  C74  1  0.48716000  0.47659000  0.56102000  1.0
  C  C75  1  0.51284000  0.97659000  0.43898000  1.0
  C  C76  1  0.38691000  0.49226000  0.67033000  1.0
  C  C77  1  0.61309000  0.99226000  0.32967000  1.0
  C  C78  1  0.45748000  0.70764000  0.66412000  1.0
  C  C79  1  0.54252000  0.20764000  0.33588000  1.0
  C  C80  1  0.55716000  0.68391000  0.55521000  1.0
  C  C81  1  0.44284000  0.18391000  0.44479000  1.0
  C  C82  1  0.19830000  0.14081000  0.88971000  1.0
  C  C83  1  0.80170000  0.64081000  0.11029000  1.0
  C  C84  1  0.33253000  0.14728000  0.79818000  1.0
  C  C85  1  0.66747000  0.64728000  0.20182000  1.0
  C  C86  1  0.57389000  0.19169000  0.73240000  1.0
  C  C87  1  0.42611000  0.69169000  0.26760000  1.0
  C  C88  1  0.70230000  0.21644000  0.75848000  1.0
  C  C89  1  0.29770000  0.71644000  0.24152000  1.0
  C  C90  1  0.61536000  0.06885000  0.90260000  1.0
  C  C91  1  0.38464000  0.56885000  0.09740000  1.0
  C  C92  1  0.48910000  0.05101000  0.87155000  1.0
  C  C93  1  0.51090000  0.55101000  0.12846000  1.0
  C  C94  1  0.85527000  0.55528000  0.46361000  1.0
  C  C95  1  0.14473000  0.05528000  0.53639000  1.0
  Se  Se96  1  0.92599000  0.82178000  0.32373000  1.0
  Se  Se97  1  0.07401000  0.32177000  0.67628000  1.0
  Se  Se98  1  0.20474000  0.81717000  0.02311000  1.0
  Se  Se99  1  0.79526000  0.31717000  0.97689000  1.0
  Se  Se100  1  0.21916000  0.39252000  0.36646000  1.0
  Se  Se101  1  0.78085000  0.89252000  0.63354000  1.0
  Se  Se102  1  0.87990000  0.05039000  0.09075000  1.0
  Se  Se103  1  0.12010000  0.55039000  0.90925000  1.0
  Se  Se104  1  0.22105000  0.10050000  0.19784000  1.0
  Se  Se105  1  0.77895000  0.60050000  0.80217000  1.0
  Se  Se106  1  0.85250000  0.17685000  0.45512000  1.0
  Se  Se107  1  0.14750000  0.67685000  0.54487000  1.0
  Se  Se108  1  0.96329000  0.40009000  0.19569000  1.0
  Se  Se109  1  0.03674000  0.90008000  0.80430000  1.0
  N  N110  1  0.87384000  0.47298000  0.54227000  1.0
  N  N111  1  0.12616000  0.97298000  0.45773000  1.0
  N  N112  1  0.60293000  0.55841000  0.54388000  1.0
  N  N113  1  0.39707000  0.05841000  0.45612000  1.0
  N  N114  1  0.34061000  0.62071000  0.68752000  1.0
  N  N115  1  0.65939000  0.12071000  0.31248000  1.0
  N  N116  1  0.16968000  0.24616000  0.96003000  1.0
  N  N117  1  0.83032000  0.74616000  0.03996000  1.0
  N  N118  1  0.45698000  0.16121000  0.82502000  1.0
  N  N119  1  0.54302000  0.66121000  0.17498000  1.0
  N  N120  1  0.73644000  0.10972000  0.81213000  1.0
  N  N121  1  0.26356000  0.60972000  0.18788000  1.0
