# generated using pymatgen
data_CuH7C7SBrN
_symmetry_space_group_name_H-M   'P 1'
_cell_length_a   5.45117000
_cell_length_b   11.64220000
_cell_length_c   17.65470000
_cell_angle_alpha   90.00250000
_cell_angle_beta   90.00180000
_cell_angle_gamma   91.19930000
_symmetry_Int_Tables_number   1
_chemical_formula_structural   CuH7C7SBrN
_chemical_formula_sum   'Cu4 H28 C28 S4 Br4 N4'
_cell_volume   1120.18557562
_cell_formula_units_Z   4
loop_
 _symmetry_equiv_pos_site_id
 _symmetry_equiv_pos_as_xyz
  1  'x, y, z'
loop_
 _atom_site_type_symbol
 _atom_site_label
 _atom_site_symmetry_multiplicity
 _atom_site_fract_x
 _atom_site_fract_y
 _atom_site_fract_z
 _atom_site_occupancy
  Cu  Cu0  1  0.24997000  0.50986000  0.49473000  1.0
  Cu  Cu1  1  0.25004000  0.99016000  0.99472000  1.0
  Cu  Cu2  1  0.74999000  0.49019000  0.50528000  1.0
  Cu  Cu3  1  0.74998000  0.00982000  0.00527000  1.0
  H  H4  1  0.95653000  0.74870000  0.44833000  1.0
  H  H5  1  0.54350000  0.75130000  0.94833000  1.0
  H  H6  1  0.04344000  0.25133000  0.55167000  1.0
  H  H7  1  0.45649000  0.24872000  0.05167000  1.0
  H  H8  1  0.29285000  0.87342000  0.39808000  1.0
  H  H9  1  0.20715000  0.62658000  0.89809000  1.0
  H  H10  1  0.70712000  0.12660000  0.60191000  1.0
  H  H11  1  0.79288000  0.37343000  0.10191000  1.0
  H  H12  1  0.31937000  0.91334000  0.25872000  1.0
  H  H13  1  0.18060000  0.58666000  0.75873000  1.0
  H  H14  1  0.68062000  0.08663000  0.74127000  1.0
  H  H15  1  0.81939000  0.41333000  0.24128000  1.0
  H  H16  1  0.99809000  0.83449000  0.17250000  1.0
  H  H17  1  0.50186000  0.66551000  0.67250000  1.0
  H  H18  1  0.00194000  0.16547000  0.82749000  1.0
  H  H19  1  0.49817000  0.33448000  0.32751000  1.0
  H  H20  1  0.65251000  0.71965000  0.22247000  1.0
  H  H21  1  0.84748000  0.78035000  0.72246000  1.0
  H  H22  1  0.34749000  0.28032000  0.77752000  1.0
  H  H23  1  0.15257000  0.21964000  0.27754000  1.0
  H  H24  1  0.50028000  0.57569000  0.26808000  1.0
  H  H25  1  0.99976000  0.92428000  0.76807000  1.0
  H  H26  1  0.49972000  0.42429000  0.73194000  1.0
  H  H27  1  0.00023000  0.07571000  0.23193000  1.0
  H  H28  1  0.30740000  0.53548000  0.34342000  1.0
  H  H29  1  0.19262000  0.96449000  0.84342000  1.0
  H  H30  1  0.69257000  0.46452000  0.65660000  1.0
  H  H31  1  0.80738000  0.03549000  0.15658000  1.0
  C  C32  1  0.58313000  0.65040000  0.37022000  1.0
  C  C33  1  0.91686000  0.84960000  0.87021000  1.0
  C  C34  1  0.41684000  0.34961000  0.62979000  1.0
  C  C35  1  0.08313000  0.15041000  0.12979000  1.0
  C  C36  1  0.78222000  0.72375000  0.33955000  1.0
  C  C37  1  0.71776000  0.77625000  0.83955000  1.0
  C  C38  1  0.21774000  0.27626000  0.66045000  1.0
  C  C39  1  0.28226000  0.22376000  0.16045000  1.0
  C  C40  1  0.96342000  0.76995000  0.38821000  1.0
  C  C41  1  0.53659000  0.73005000  0.88821000  1.0
  C  C42  1  0.03656000  0.23006000  0.61179000  1.0
  C  C43  1  0.46344000  0.26996000  0.11179000  1.0
  C  C44  1  0.15262000  0.83942000  0.35965000  1.0
  C  C45  1  0.34737000  0.66058000  0.85966000  1.0
  C  C46  1  0.84735000  0.16059000  0.64034000  1.0
  C  C47  1  0.65267000  0.33943000  0.14034000  1.0
  C  C48  1  0.16759000  0.86182000  0.28198000  1.0
  C  C49  1  0.33238000  0.63819000  0.78198000  1.0
  C  C50  1  0.83241000  0.13816000  0.71802000  1.0
  C  C51  1  0.66762000  0.36181000  0.21802000  1.0
  C  C52  1  0.98860000  0.81633000  0.23303000  1.0
  C  C53  1  0.51138000  0.68368000  0.73304000  1.0
  C  C54  1  0.01138000  0.18365000  0.76696000  1.0
  C  C55  1  0.48865000  0.31632000  0.26697000  1.0
  C  C56  1  0.79598000  0.74882000  0.26154000  1.0
  C  C57  1  0.70403000  0.75118000  0.76153000  1.0
  C  C58  1  0.20402000  0.25115000  0.73846000  1.0
  C  C59  1  0.29602000  0.24882000  0.23846000  1.0
  S  S60  1  0.52087000  0.65117000  0.46491000  1.0
  S  S61  1  0.97914000  0.84884000  0.96490000  1.0
  S  S62  1  0.47908000  0.34888000  0.53510000  1.0
  S  S63  1  0.02087000  0.15115000  0.03510000  1.0
  Br  Br64  1  0.00804000  0.58500000  0.60344000  1.0
  Br  Br65  1  0.49198000  0.91499000  0.10343000  1.0
  Br  Br66  1  0.99194000  0.41503000  0.39657000  1.0
  Br  Br67  1  0.50806000  0.08499000  0.89656000  1.0
  N  N68  1  0.45108000  0.58521000  0.32312000  1.0
  N  N69  1  0.04893000  0.91476000  0.82311000  1.0
  N  N70  1  0.54889000  0.41478000  0.67689000  1.0
  N  N71  1  0.95108000  0.08522000  0.17689000  1.0
