# generated using pymatgen
data_ZnPH9C6N2O3
_symmetry_space_group_name_H-M   'P 1'
_cell_length_a   7.95396000
_cell_length_b   8.06743000
_cell_length_c   13.49760000
_cell_angle_alpha   90.00000000
_cell_angle_beta   90.00010000
_cell_angle_gamma   89.99980000
_symmetry_Int_Tables_number   1
_chemical_formula_structural   ZnPH9C6N2O3
_chemical_formula_sum   'Zn4 P4 H36 C24 N8 O12'
_cell_volume   866.11420631
_cell_formula_units_Z   4
loop_
 _symmetry_equiv_pos_site_id
 _symmetry_equiv_pos_as_xyz
  1  'x, y, z'
loop_
 _atom_site_type_symbol
 _atom_site_label
 _atom_site_symmetry_multiplicity
 _atom_site_fract_x
 _atom_site_fract_y
 _atom_site_fract_z
 _atom_site_occupancy
  Zn  Zn0  1  0.34815000  0.65757000  0.06903000  1.0
  Zn  Zn1  1  0.65185000  0.15757000  0.93097000  1.0
  Zn  Zn2  1  0.15185000  0.15757000  0.06903000  1.0
  Zn  Zn3  1  0.84815000  0.65757000  0.93097000  1.0
  P  P4  1  0.99672000  0.78212000  0.12246000  1.0
  P  P5  1  0.00329000  0.28212000  0.87754000  1.0
  P  P6  1  0.50329000  0.28212000  0.12246000  1.0
  P  P7  1  0.49671000  0.78212000  0.87754000  1.0
  H  H8  1  0.94910000  0.82703000  0.21902000  1.0
  H  H9  1  0.05091000  0.32703000  0.78098000  1.0
  H  H10  1  0.55091000  0.32703000  0.21902000  1.0
  H  H11  1  0.44909000  0.82703000  0.78098000  1.0
  H  H12  1  0.32256000  0.79003000  0.47567000  1.0
  H  H13  1  0.67744000  0.29003000  0.52433000  1.0
  H  H14  1  0.17745000  0.29003000  0.47567000  1.0
  H  H15  1  0.82256000  0.79003000  0.52433000  1.0
  H  H16  1  0.53430000  0.58134000  0.52310000  1.0
  H  H17  1  0.46570000  0.08135000  0.47690000  1.0
  H  H18  1  0.96570000  0.08134000  0.52310000  1.0
  H  H19  1  0.03430000  0.58134000  0.47690000  1.0
  H  H20  1  0.74289000  0.47832000  0.39647000  1.0
  H  H21  1  0.25711000  0.97833000  0.60354000  1.0
  H  H22  1  0.75711000  0.97833000  0.39647000  1.0
  H  H23  1  0.24289000  0.47832000  0.60353000  1.0
  H  H24  1  0.72735000  0.58784000  0.22449000  1.0
  H  H25  1  0.27266000  0.08784000  0.77551000  1.0
  H  H26  1  0.77266000  0.08785000  0.22449000  1.0
  H  H27  1  0.22735000  0.58785000  0.77551000  1.0
  H  H28  1  0.62602000  0.78650000  0.11696000  1.0
  H  H29  1  0.37399000  0.28650000  0.88305000  1.0
  H  H30  1  0.87399000  0.28651000  0.11695000  1.0
  H  H31  1  0.12602000  0.78650000  0.88304000  1.0
  H  H32  1  0.47274000  0.92250000  0.14152000  1.0
  H  H33  1  0.52727000  0.42250000  0.85848000  1.0
  H  H34  1  0.02727000  0.42250000  0.14152000  1.0
  H  H35  1  0.97274000  0.92250000  0.85848000  1.0
  H  H36  1  0.21391000  0.97399000  0.35485000  1.0
  H  H37  1  0.78609000  0.47399000  0.64515000  1.0
  H  H38  1  0.28609000  0.47399000  0.35485000  1.0
  H  H39  1  0.71391000  0.97399000  0.64515000  1.0
  H  H40  1  0.30936000  0.00917000  0.24436000  1.0
  H  H41  1  0.69064000  0.50917000  0.75564000  1.0
  H  H42  1  0.19064000  0.50917000  0.24436000  1.0
  H  H43  1  0.80936000  0.00917000  0.75564000  1.0
  C  C44  1  0.52078000  0.75062000  0.25327000  1.0
  C  C45  1  0.47922000  0.25062000  0.74673000  1.0
  C  C46  1  0.97922000  0.25062000  0.25327000  1.0
  C  C47  1  0.02078000  0.75061000  0.74673000  1.0
  C  C48  1  0.40459000  0.81171000  0.32406000  1.0
  C  C49  1  0.59540000  0.31172000  0.67593000  1.0
  C  C50  1  0.09540000  0.31172000  0.32407000  1.0
  C  C51  1  0.90459000  0.81171000  0.67594000  1.0
  C  C52  1  0.41317000  0.74654000  0.42087000  1.0
  C  C53  1  0.58682000  0.24654000  0.57913000  1.0
  C  C54  1  0.08683000  0.24654000  0.42087000  1.0
  C  C55  1  0.91317000  0.74654000  0.57913000  1.0
  C  C56  1  0.53238000  0.62794000  0.44734000  1.0
  C  C57  1  0.46761000  0.12795000  0.55266000  1.0
  C  C58  1  0.96761000  0.12795000  0.44734000  1.0
  C  C59  1  0.03238000  0.62794000  0.55266000  1.0
  C  C60  1  0.64827000  0.57074000  0.37741000  1.0
  C  C61  1  0.35172000  0.07075000  0.62259000  1.0
  C  C62  1  0.85173000  0.07075000  0.37741000  1.0
  C  C63  1  0.14827000  0.57074000  0.62259000  1.0
  C  C64  1  0.64060000  0.63276000  0.28097000  1.0
  C  C65  1  0.35940000  0.13277000  0.71903000  1.0
  C  C66  1  0.85940000  0.13277000  0.28097000  1.0
  C  C67  1  0.14060000  0.63276000  0.71903000  1.0
  N  N68  1  0.50981000  0.80069000  0.15088000  1.0
  N  N69  1  0.49019000  0.30069000  0.84912000  1.0
  N  N70  1  0.99019000  0.30069000  0.15088000  1.0
  N  N71  1  0.00981000  0.80069000  0.84912000  1.0
  N  N72  1  0.28152000  0.92444000  0.29818000  1.0
  N  N73  1  0.71847000  0.42445000  0.70182000  1.0
  N  N74  1  0.21848000  0.42445000  0.29818000  1.0
  N  N75  1  0.78152000  0.92445000  0.70182000  1.0
  O  O76  1  0.12517000  0.63789000  0.13183000  1.0
  O  O77  1  0.87483000  0.13789000  0.86816000  1.0
  O  O78  1  0.37483000  0.13789000  0.13184000  1.0
  O  O79  1  0.62518000  0.63789000  0.86816000  1.0
  O  O80  1  0.83404000  0.71939000  0.07194000  1.0
  O  O81  1  0.16596000  0.21939000  0.92806000  1.0
  O  O82  1  0.66596000  0.21939000  0.07194000  1.0
  O  O83  1  0.33404000  0.71939000  0.92806000  1.0
  O  O84  1  0.07346000  0.92911000  0.06827000  1.0
  O  O85  1  0.92654000  0.42911000  0.93173000  1.0
  O  O86  1  0.42654000  0.42912000  0.06827000  1.0
  O  O87  1  0.57346000  0.92912000  0.93173000  1.0
