# generated using pymatgen
data_SmNiH12C22N5O8
_symmetry_space_group_name_H-M   'P 1'
_cell_length_a   10.64050000
_cell_length_b   12.74220000
_cell_length_c   18.07620000
_cell_angle_alpha   90.00000000
_cell_angle_beta   90.41850000
_cell_angle_gamma   90.00000000
_symmetry_Int_Tables_number   1
_chemical_formula_structural   SmNiH12C22N5O8
_chemical_formula_sum   'Sm4 Ni4 H48 C88 N20 O32'
_cell_volume   2450.76689994
_cell_formula_units_Z   4
loop_
 _symmetry_equiv_pos_site_id
 _symmetry_equiv_pos_as_xyz
  1  'x, y, z'
loop_
 _atom_site_type_symbol
 _atom_site_label
 _atom_site_symmetry_multiplicity
 _atom_site_fract_x
 _atom_site_fract_y
 _atom_site_fract_z
 _atom_site_occupancy
  Sm  Sm0  1  0.43373000  0.14498000  0.50872000  1.0
  Sm  Sm1  1  0.06627000  0.64498000  0.99128000  1.0
  Sm  Sm2  1  0.56627000  0.85502000  0.49128000  1.0
  Sm  Sm3  1  0.93373000  0.35502000  0.00872000  1.0
  Ni  Ni4  1  0.74214000  0.34670000  0.77176000  1.0
  Ni  Ni5  1  0.75786000  0.84670000  0.72824000  1.0
  Ni  Ni6  1  0.25786000  0.65330000  0.22824000  1.0
  Ni  Ni7  1  0.24214000  0.15330000  0.27176000  1.0
  H  H8  1  0.77538000  0.19974000  0.90349000  1.0
  H  H9  1  0.72462000  0.69974000  0.59651000  1.0
  H  H10  1  0.22462000  0.80026000  0.09651000  1.0
  H  H11  1  0.27538000  0.30026000  0.40349000  1.0
  H  H12  1  0.00537000  0.97562000  0.78824000  1.0
  H  H13  1  0.49463000  0.47562000  0.71176000  1.0
  H  H14  1  0.99463000  0.02438000  0.21176000  1.0
  H  H15  1  0.50537000  0.52438000  0.28824000  1.0
  H  H16  1  0.16472000  0.99477000  0.89056000  1.0
  H  H17  1  0.33528000  0.49477000  0.60944000  1.0
  H  H18  1  0.83528000  0.00523000  0.10944000  1.0
  H  H19  1  0.66472000  0.50523000  0.39056000  1.0
  H  H20  1  0.12542000  0.12997000  0.99005000  1.0
  H  H21  1  0.37459000  0.62997000  0.50995000  1.0
  H  H22  1  0.87459000  0.87003000  0.00996000  1.0
  H  H23  1  0.62542000  0.37003000  0.49004000  1.0
  H  H24  1  0.20267000  0.73788000  0.63306000  1.0
  H  H25  1  0.29733000  0.23788000  0.86694000  1.0
  H  H26  1  0.79733000  0.26212000  0.36694000  1.0
  H  H27  1  0.70267000  0.76212000  0.13306000  1.0
  H  H28  1  0.06720000  0.03736000  0.55770000  1.0
  H  H29  1  0.43280000  0.53736000  0.94230000  1.0
  H  H30  1  0.93280000  0.96264000  0.44230000  1.0
  H  H31  1  0.56720000  0.46264000  0.05770000  1.0
  H  H32  1  0.99663000  0.71343000  0.69824000  1.0
  H  H33  1  0.50337000  0.21343000  0.80176000  1.0
  H  H34  1  0.00337000  0.28657000  0.30175000  1.0
  H  H35  1  0.49663000  0.78657000  0.19824000  1.0
  H  H36  1  0.86408000  0.99907000  0.62052000  1.0
  H  H37  1  0.63592000  0.49907000  0.87947000  1.0
  H  H38  1  0.13592000  0.00093000  0.37947000  1.0
  H  H39  1  0.36408000  0.50093000  0.12052000  1.0
  H  H40  1  0.20138000  0.22736000  0.73873000  1.0
  H  H41  1  0.29862000  0.72736000  0.76127000  1.0
  H  H42  1  0.79862000  0.77264000  0.26127000  1.0
  H  H43  1  0.70138000  0.27264000  0.23873000  1.0
  H  H44  1  0.01126000  0.31453000  0.53731000  1.0
  H  H45  1  0.48874000  0.81453000  0.96269000  1.0
  H  H46  1  0.98874000  0.68547000  0.46269000  1.0
  H  H47  1  0.51126000  0.18547000  0.03731000  1.0
  H  H48  1  0.01198000  0.29019000  0.80885000  1.0
  H  H49  1  0.48802000  0.79019000  0.69115000  1.0
  H  H50  1  0.98802000  0.70981000  0.19115000  1.0
  H  H51  1  0.51198000  0.20981000  0.30885000  1.0
  H  H52  1  0.82762000  0.37333000  0.61530000  1.0
  H  H53  1  0.67238000  0.87333000  0.88470000  1.0
  H  H54  1  0.17238000  0.62667000  0.38470000  1.0
  H  H55  1  0.32761000  0.12667000  0.11530000  1.0
  C  C56  1  0.61587000  0.24907000  0.65000000  1.0
  C  C57  1  0.88413000  0.74907000  0.85000000  1.0
  C  C58  1  0.38413000  0.75092000  0.34999000  1.0
  C  C59  1  0.11587000  0.25093000  0.15000000  1.0
  C  C60  1  0.65888000  0.15931000  0.69531000  1.0
  C  C61  1  0.84112000  0.65931000  0.80469000  1.0
  C  C62  1  0.34112000  0.84069000  0.30469000  1.0
  C  C63  1  0.15888000  0.34069000  0.19531000  1.0
  C  C64  1  0.66471000  0.05057000  0.68364000  1.0
  C  C65  1  0.83529000  0.55057000  0.81636000  1.0
  C  C66  1  0.33529000  0.94943000  0.31636000  1.0
  C  C67  1  0.16471000  0.44943000  0.18364000  1.0
  C  C68  1  0.61149000  0.98023000  0.62835000  1.0
  C  C69  1  0.88851000  0.48023000  0.87165000  1.0
  C  C70  1  0.38850000  0.01977000  0.37165000  1.0
  C  C71  1  0.11150000  0.51977000  0.12835000  1.0
  C  C72  1  0.78244000  0.08923000  0.77864000  1.0
  C  C73  1  0.71756000  0.58923000  0.72136000  1.0
  C  C74  1  0.21756000  0.91077000  0.22136000  1.0
  C  C75  1  0.28244000  0.41077000  0.27864000  1.0
  C  C76  1  0.87699000  0.08656000  0.83772000  1.0
  C  C77  1  0.62301000  0.58656000  0.66228000  1.0
  C  C78  1  0.12301000  0.91344000  0.16228000  1.0
  C  C79  1  0.37699000  0.41344000  0.33772000  1.0
  C  C80  1  0.86155000  0.15448000  0.89763000  1.0
  C  C81  1  0.63845000  0.65448000  0.60237000  1.0
  C  C82  1  0.13845000  0.84552000  0.10237000  1.0
  C  C83  1  0.36155000  0.34552000  0.39763000  1.0
  C  C84  1  0.98873000  0.02829000  0.83444000  1.0
  C  C85  1  0.51127000  0.52829000  0.66556000  1.0
  C  C86  1  0.01127000  0.97171000  0.16556000  1.0
  C  C87  1  0.48873000  0.47171000  0.33444000  1.0
  C  C88  1  0.07803000  0.04038000  0.89065000  1.0
  C  C89  1  0.42197000  0.54038000  0.60935000  1.0
  C  C90  1  0.92197000  0.95962000  0.10935000  1.0
  C  C91  1  0.57803000  0.45962000  0.39065000  1.0
  C  C92  1  0.05680000  0.11372000  0.94641000  1.0
  C  C93  1  0.44320000  0.61372000  0.55359000  1.0
  C  C94  1  0.94320000  0.88628000  0.05359000  1.0
  C  C95  1  0.55680000  0.38628000  0.44641000  1.0
  C  C96  1  0.27477000  0.91571000  0.55407000  1.0
  C  C97  1  0.22523000  0.41571000  0.94593000  1.0
  C  C98  1  0.72523000  0.08429000  0.44593000  1.0
  C  C99  1  0.77477000  0.58429000  0.05407000  1.0
  C  C100  1  0.15115000  0.89089000  0.59123000  1.0
  C  C101  1  0.34885000  0.39089000  0.90877000  1.0
  C  C102  1  0.84885000  0.10911000  0.40877000  1.0
  C  C103  1  0.65115000  0.60911000  0.09123000  1.0
  C  C104  1  0.12973000  0.79787000  0.63021000  1.0
  C  C105  1  0.37027000  0.29787000  0.86979000  1.0
  C  C106  1  0.87027000  0.20214000  0.36979000  1.0
  C  C107  1  0.62973000  0.70214000  0.13021000  1.0
  C  C108  1  0.05375000  0.96435000  0.58790000  1.0
  C  C109  1  0.44625000  0.46435000  0.91210000  1.0
  C  C110  1  0.94625000  0.03565000  0.41210000  1.0
  C  C111  1  0.55375000  0.53565000  0.08790000  1.0
  C  C112  1  0.01518000  0.78384000  0.66586000  1.0
  C  C113  1  0.48482000  0.28384000  0.83414000  1.0
  C  C114  1  0.98482000  0.21616000  0.33414000  1.0
  C  C115  1  0.51518000  0.71616000  0.16586000  1.0
  C  C116  1  0.94131000  0.94333000  0.62332000  1.0
  C  C117  1  0.55869000  0.44333000  0.87668000  1.0
  C  C118  1  0.05869000  0.05667000  0.37668000  1.0
  C  C119  1  0.44131000  0.55667000  0.12332000  1.0
  C  C120  1  0.22882000  0.22472000  0.58961000  1.0
  C  C121  1  0.27118000  0.72472000  0.91040000  1.0
  C  C122  1  0.77118000  0.77528000  0.41039000  1.0
  C  C123  1  0.72882000  0.27528000  0.08960000  1.0
  C  C124  1  0.11902000  0.26529000  0.63284000  1.0
  C  C125  1  0.38098000  0.76529000  0.86716000  1.0
  C  C126  1  0.88098000  0.73471000  0.36716000  1.0
  C  C127  1  0.61902000  0.23470000  0.13284000  1.0
  C  C128  1  0.11982000  0.25955000  0.71002000  1.0
  C  C129  1  0.38018000  0.75955000  0.78998000  1.0
  C  C130  1  0.88018000  0.74045000  0.28998000  1.0
  C  C131  1  0.61982000  0.24045000  0.21002000  1.0
  C  C132  1  0.01375000  0.30829000  0.59743000  1.0
  C  C133  1  0.48625000  0.80829000  0.90257000  1.0
  C  C134  1  0.98625000  0.69171000  0.40257000  1.0
  C  C135  1  0.51375000  0.19171000  0.09743000  1.0
  C  C136  1  0.01522000  0.29377000  0.74871000  1.0
  C  C137  1  0.48478000  0.79377000  0.75129000  1.0
  C  C138  1  0.98478000  0.70623000  0.25129000  1.0
  C  C139  1  0.51522000  0.20623000  0.24871000  1.0
  C  C140  1  0.91279000  0.34089000  0.64010000  1.0
  C  C141  1  0.58721000  0.84089000  0.85990000  1.0
  C  C142  1  0.08721000  0.65911000  0.35990000  1.0
  C  C143  1  0.41279000  0.15911000  0.14010000  1.0
  N  N144  1  0.73041000  0.18201000  0.75648000  1.0
  N  N145  1  0.76959000  0.68201000  0.74352000  1.0
  N  N146  1  0.26959000  0.81799000  0.24352000  1.0
  N  N147  1  0.23041000  0.31799000  0.25648000  1.0
  N  N148  1  0.74392000  0.00809000  0.73593000  1.0
  N  N149  1  0.75608000  0.50809000  0.76407000  1.0
  N  N150  1  0.25608000  0.99191000  0.26407000  1.0
  N  N151  1  0.24392000  0.49191000  0.23593000  1.0
  N  N152  1  0.95036000  0.17065000  0.94933000  1.0
  N  N153  1  0.54964000  0.67065000  0.55067000  1.0
  N  N154  1  0.04964000  0.82935000  0.05067000  1.0
  N  N155  1  0.45036000  0.32935000  0.44933000  1.0
  N  N156  1  0.91220000  0.33216000  0.71440000  1.0
  N  N157  1  0.58780000  0.83216000  0.78560000  1.0
  N  N158  1  0.08780000  0.66784000  0.28560000  1.0
  N  N159  1  0.41220000  0.16784000  0.21440000  1.0
  N  N160  1  0.92194000  0.85555000  0.66328000  1.0
  N  N161  1  0.57806000  0.35555000  0.83672000  1.0
  N  N162  1  0.07806000  0.14445000  0.33672000  1.0
  N  N163  1  0.42194000  0.64445000  0.16328000  1.0
  O  O164  1  0.63991000  0.33976000  0.67697000  1.0
  O  O165  1  0.86009000  0.83976000  0.82303000  1.0
  O  O166  1  0.36009000  0.66024000  0.32303000  1.0
  O  O167  1  0.13991000  0.16024000  0.17697000  1.0
  O  O168  1  0.56772000  0.23709000  0.58654000  1.0
  O  O169  1  0.93228000  0.73709000  0.91346000  1.0
  O  O170  1  0.43227000  0.76291000  0.41346000  1.0
  O  O171  1  0.06773000  0.26291000  0.08654000  1.0
  O  O172  1  0.53319000  0.01083000  0.57923000  1.0
  O  O173  1  0.96681000  0.51083000  0.92077000  1.0
  O  O174  1  0.46681000  0.98917000  0.42077000  1.0
  O  O175  1  0.03319000  0.48917000  0.07923000  1.0
  O  O176  1  0.64849000  0.88375000  0.62854000  1.0
  O  O177  1  0.85151000  0.38375000  0.87146000  1.0
  O  O178  1  0.35151000  0.11625000  0.37146000  1.0
  O  O179  1  0.14849000  0.61626000  0.12854000  1.0
  O  O180  1  0.28106000  0.00592000  0.52441000  1.0
  O  O181  1  0.21894000  0.50592000  0.97559000  1.0
  O  O182  1  0.71894000  0.99408000  0.47559000  1.0
  O  O183  1  0.78106000  0.49408000  0.02441000  1.0
  O  O184  1  0.36034000  0.84633000  0.55553000  1.0
  O  O185  1  0.13966000  0.34633000  0.94447000  1.0
  O  O186  1  0.63966000  0.15367000  0.44447000  1.0
  O  O187  1  0.86034000  0.65367000  0.05553000  1.0
  O  O188  1  0.22597000  0.23240000  0.51913000  1.0
  O  O189  1  0.27403000  0.73240000  0.98087000  1.0
  O  O190  1  0.77403000  0.76760000  0.48087000  1.0
  O  O191  1  0.72597000  0.26760000  0.01913000  1.0
  O  O192  1  0.32019000  0.18353000  0.62493000  1.0
  O  O193  1  0.17981000  0.68353000  0.87507000  1.0
  O  O194  1  0.67981000  0.81647000  0.37507000  1.0
  O  O195  1  0.82019000  0.31647000  0.12493000  1.0
