# generated using pymatgen
data_CoPH7C8N3ClO3
_symmetry_space_group_name_H-M   'P 1'
_cell_length_a   7.52247000
_cell_length_b   7.60940000
_cell_length_c   10.45210000
_cell_angle_alpha   84.47970000
_cell_angle_beta   71.29000000
_cell_angle_gamma   84.16410000
_symmetry_Int_Tables_number   1
_chemical_formula_structural   CoPH7C8N3ClO3
_chemical_formula_sum   'Co2 P2 H14 C16 N6 Cl2 O6'
_cell_volume   562.45455141
_cell_formula_units_Z   2
loop_
 _symmetry_equiv_pos_site_id
 _symmetry_equiv_pos_as_xyz
  1  'x, y, z'
loop_
 _atom_site_type_symbol
 _atom_site_label
 _atom_site_symmetry_multiplicity
 _atom_site_fract_x
 _atom_site_fract_y
 _atom_site_fract_z
 _atom_site_occupancy
  Co  Co0  1  0.00000000  0.50000000  0.50000000  1.0
  Co  Co1  1  0.50000000  0.50001000  0.49999000  1.0
  P  P2  1  0.24042000  0.15929000  0.58143000  1.0
  P  P3  1  0.75958000  0.84072000  0.41857000  1.0
  H  H4  1  0.37752000  0.89034000  0.52042000  1.0
  H  H5  1  0.62248000  0.10967000  0.47959000  1.0
  H  H6  1  0.86262000  0.18260000  0.77229000  1.0
  H  H7  1  0.57184000  0.81145000  0.21380000  1.0
  H  H8  1  0.13738000  0.81733000  0.22772000  1.0
  H  H9  1  0.42816000  0.18864000  0.78619000  1.0
  H  H10  1  0.73644000  0.24385000  0.01321000  1.0
  H  H11  1  0.69575000  0.74751000  0.97312000  1.0
  H  H12  1  0.26356000  0.75605000  0.98682000  1.0
  H  H13  1  0.30425000  0.25256000  0.02687000  1.0
  H  H14  1  0.19218000  0.33309000  0.22800000  1.0
  H  H15  1  0.36561000  0.64884000  0.79299000  1.0
  H  H16  1  0.80781000  0.66686000  0.77202000  1.0
  H  H17  1  0.63439000  0.35120000  0.20699000  1.0
  C  C18  1  0.15408000  0.17746000  0.76327000  1.0
  C  C19  1  0.84592000  0.82255000  0.23673000  1.0
  C  C20  1  0.95942000  0.19166000  0.82947000  1.0
  C  C21  1  0.72337000  0.80546000  0.16278000  1.0
  C  C22  1  0.04058000  0.80829000  0.17054000  1.0
  C  C23  1  0.27663000  0.19457000  0.83722000  1.0
  C  C24  1  0.88819000  0.22937000  0.96506000  1.0
  C  C25  1  0.79342000  0.76679000  0.02725000  1.0
  C  C26  1  0.11181000  0.77058000  0.03495000  1.0
  C  C27  1  0.20658000  0.23324000  0.97274000  1.0
  C  C28  1  0.01186000  0.25425000  0.03602000  1.0
  C  C29  1  0.98814000  0.74573000  0.96398000  1.0
  C  C30  1  0.04114000  0.35014000  0.25012000  1.0
  C  C31  1  0.24408000  0.63949000  0.76077000  1.0
  C  C32  1  0.95885000  0.64985000  0.74988000  1.0
  C  C33  1  0.75592000  0.36053000  0.23922000  1.0
  N  N34  1  0.92610000  0.42075000  0.35968000  1.0
  N  N35  1  0.25425000  0.57393000  0.64639000  1.0
  N  N36  1  0.07390000  0.57926000  0.64032000  1.0
  N  N37  1  0.74575000  0.42609000  0.35360000  1.0
  N  N38  1  0.93945000  0.31139000  0.17010000  1.0
  N  N39  1  0.06055000  0.68860000  0.82991000  1.0
  Cl  Cl40  1  0.33313000  0.55711000  0.33494000  1.0
  Cl  Cl41  1  0.66688000  0.44290000  0.66505000  1.0
  O  O42  1  0.09391000  0.25549000  0.52349000  1.0
  O  O43  1  0.56037000  0.77508000  0.47221000  1.0
  O  O44  1  0.90609000  0.74451000  0.47651000  1.0
  O  O45  1  0.43963000  0.22493000  0.52778000  1.0
  O  O46  1  0.24778000  0.95744000  0.55883000  1.0
  O  O47  1  0.75222000  0.04257000  0.44118000  1.0
