# generated using pymatgen
data_Zn2H12C27BrN2O8F5
_symmetry_space_group_name_H-M   'P 1'
_cell_length_a   9.97703000
_cell_length_b   11.14000000
_cell_length_c   24.36470000
_cell_angle_alpha   89.97570000
_cell_angle_beta   87.97520000
_cell_angle_gamma   89.85590000
_symmetry_Int_Tables_number   1
_chemical_formula_structural   Zn2H12C27BrN2O8F5
_chemical_formula_sum   'Zn4 H24 C54 Br2 N4 O16 F10'
_cell_volume   2706.29349135
_cell_formula_units_Z   2
loop_
 _symmetry_equiv_pos_site_id
 _symmetry_equiv_pos_as_xyz
  1  'x, y, z'
loop_
 _atom_site_type_symbol
 _atom_site_label
 _atom_site_symmetry_multiplicity
 _atom_site_fract_x
 _atom_site_fract_y
 _atom_site_fract_z
 _atom_site_occupancy
  Zn  Zn0  1  0.36624000  0.50046000  0.50075000  1.0
  Zn  Zn1  1  0.64920000  0.49858000  0.49866000  1.0
  Zn  Zn2  1  0.63443000  0.50223000  0.95754000  1.0
  Zn  Zn3  1  0.35201000  0.50199000  0.95340000  1.0
  H  H4  1  0.89423000  0.61600000  0.38081000  1.0
  H  H5  1  0.88165000  0.73469000  0.43002000  1.0
  H  H6  1  0.13540000  0.74191000  0.43318000  1.0
  H  H7  1  0.14720000  0.62374000  0.38335000  1.0
  H  H8  1  0.80314000  0.88835000  0.53878000  1.0
  H  H9  1  0.81511000  0.89482000  0.46558000  1.0
  H  H10  1  0.81168000  0.11914000  0.46872000  1.0
  H  H11  1  0.79711000  0.11497000  0.54185000  1.0
  H  H12  1  0.66900000  0.50533000  0.13463000  1.0
  H  H13  1  0.24120000  0.49222000  0.12617000  1.0
  H  H14  1  0.32352000  0.49775000  0.32037000  1.0
  H  H15  1  0.75165000  0.50138000  0.32844000  1.0
  H  H16  1  0.19204000  0.42425000  0.78017000  1.0
  H  H17  1  0.18995000  0.58437000  0.78009000  1.0
  H  H18  1  0.19735000  0.58382000  0.67658000  1.0
  H  H19  1  0.19904000  0.42373000  0.67682000  1.0
  H  H20  1  0.11337000  0.62040000  0.07294000  1.0
  H  H21  1  0.11960000  0.73887000  0.02353000  1.0
  H  H22  1  0.86557000  0.74320000  0.02340000  1.0
  H  H23  1  0.85966000  0.62567000  0.07370000  1.0
  H  H24  1  0.19677000  0.89163000  0.91646000  1.0
  H  H25  1  0.18681000  0.89856000  0.98965000  1.0
  H  H26  1  0.18947000  0.12269000  0.98621000  1.0
  H  H27  1  0.20262000  0.11820000  0.91306000  1.0
  C  C28  1  0.50172000  0.73449000  0.49690000  1.0
  C  C29  1  0.52434000  0.49979000  0.39178000  1.0
  C  C30  1  0.49564000  0.26660000  0.49939000  1.0
  C  C31  1  0.51120000  0.50505000  0.60600000  1.0
  C  C32  1  0.50024000  0.73690000  0.95760000  1.0
  C  C33  1  0.47119000  0.50153000  0.06301000  1.0
  C  C34  1  0.50519000  0.26913000  0.95541000  1.0
  C  C35  1  0.49536000  0.50658000  0.84906000  1.0
  C  C36  1  0.94095000  0.56088000  0.46503000  1.0
  C  C37  1  0.07588000  0.42938000  0.53423000  1.0
  C  C38  1  0.07981000  0.56425000  0.46626000  1.0
  C  C39  1  0.93422000  0.42629000  0.53309000  1.0
  C  C40  1  0.93415000  0.65106000  0.41897000  1.0
  C  C41  1  0.09345000  0.65565000  0.42064000  1.0
  C  C42  1  0.49714000  0.86889000  0.49750000  1.0
  C  C43  1  0.49327000  0.13245000  0.49936000  1.0
  C  C44  1  0.61274000  0.93912000  0.49992000  1.0
  C  C45  1  0.37579000  0.06292000  0.49701000  1.0
  C  C46  1  0.61069000  0.06422000  0.50104000  1.0
  C  C47  1  0.37785000  0.93685000  0.49618000  1.0
  C  C48  1  0.76421000  0.93269000  0.50236000  1.0
  C  C49  1  0.76160000  0.07445000  0.50398000  1.0
  C  C50  1  0.57102000  0.50352000  0.15561000  1.0
  C  C51  1  0.32939000  0.49643000  0.15108000  1.0
  C  C52  1  0.31835000  0.49667000  0.20749000  1.0
  C  C53  1  0.43134000  0.49996000  0.24132000  1.0
  C  C54  1  0.42143000  0.49976000  0.29932000  1.0
  C  C55  1  0.66334000  0.50244000  0.30354000  1.0
  C  C56  1  0.67413000  0.50482000  0.24721000  1.0
  C  C57  1  0.56092000  0.50304000  0.21354000  1.0
  C  C58  1  0.45785000  0.50055000  0.12464000  1.0
  C  C59  1  0.53496000  0.50071000  0.33011000  1.0
  C  C60  1  0.50311000  0.50663000  0.78771000  1.0
  C  C61  1  0.51108000  0.50563000  0.66731000  1.0
  C  C62  1  0.38813000  0.50584000  0.75650000  1.0
  C  C63  1  0.62787000  0.50654000  0.69828000  1.0
  C  C64  1  0.39200000  0.50513000  0.69928000  1.0
  C  C65  1  0.62403000  0.50685000  0.75598000  1.0
  C  C66  1  0.23615000  0.50463000  0.76077000  1.0
  C  C67  1  0.24066000  0.50415000  0.69584000  1.0
  C  C68  1  0.06108000  0.56421000  0.98956000  1.0
  C  C69  1  0.92322000  0.43109000  0.92217000  1.0
  C  C70  1  0.92199000  0.56592000  0.99013000  1.0
  C  C71  1  0.06510000  0.42988000  0.92154000  1.0
  C  C72  1  0.06966000  0.65472000  0.03535000  1.0
  C  C73  1  0.91006000  0.65758000  0.03570000  1.0
  C  C74  1  0.50399000  0.87132000  0.95665000  1.0
  C  C75  1  0.50734000  0.13496000  0.95471000  1.0
  C  C76  1  0.38825000  0.94196000  0.95438000  1.0
  C  C77  1  0.62504000  0.06503000  0.95663000  1.0
  C  C78  1  0.39008000  0.06706000  0.95318000  1.0
  C  C79  1  0.62325000  0.93897000  0.95754000  1.0
  C  C80  1  0.23669000  0.93604000  0.95261000  1.0
  C  C81  1  0.23907000  0.07778000  0.95085000  1.0
  Br  Br82  1  0.84816000  0.51015000  0.21332000  1.0
  Br  Br83  1  0.14424000  0.49190000  0.24132000  1.0
  N  N84  1  0.86396000  0.49245000  0.49856000  1.0
  N  N85  1  0.15146000  0.49868000  0.50094000  1.0
  N  N86  1  0.13692000  0.49673000  0.95503000  1.0
  N  N87  1  0.84888000  0.49963000  0.95640000  1.0
  O  O88  1  0.38963000  0.67975000  0.50045000  1.0
  O  O89  1  0.61744000  0.68634000  0.49314000  1.0
  O  O90  1  0.63577000  0.49362000  0.41601000  1.0
  O  O91  1  0.40818000  0.50529000  0.41462000  1.0
  O  O92  1  0.61070000  0.31501000  0.50175000  1.0
  O  O93  1  0.38381000  0.32115000  0.49684000  1.0
  O  O94  1  0.39708000  0.49723000  0.58454000  1.0
  O  O95  1  0.62422000  0.51243000  0.58021000  1.0
  O  O96  1  0.61263000  0.68234000  0.95663000  1.0
  O  O97  1  0.38461000  0.68840000  0.95914000  1.0
  O  O98  1  0.36217000  0.49522000  0.03720000  1.0
  O  O99  1  0.58901000  0.50880000  0.04180000  1.0
  O  O100  1  0.39122000  0.31871000  0.94988000  1.0
  O  O101  1  0.61598000  0.32245000  0.96197000  1.0
  O  O102  1  0.60347000  0.49746000  0.87466000  1.0
  O  O103  1  0.37724000  0.51516000  0.87083000  1.0
  F  F104  1  0.13645000  0.36016000  0.57028000  1.0
  F  F105  1  0.86825000  0.35383000  0.56789000  1.0
  F  F106  1  0.25277000  0.11413000  0.49524000  1.0
  F  F107  1  0.25588000  0.88367000  0.49348000  1.0
  F  F108  1  0.75200000  0.50686000  0.67388000  1.0
  F  F109  1  0.74477000  0.50814000  0.77968000  1.0
  F  F110  1  0.86153000  0.36106000  0.88706000  1.0
  F  F111  1  0.13009000  0.35828000  0.88580000  1.0
  F  F112  1  0.74809000  0.11579000  0.95759000  1.0
  F  F113  1  0.74548000  0.88563000  0.95967000  1.0
