# generated using pymatgen
data_Al2H17C18S2NO10
_symmetry_space_group_name_H-M   'P 1'
_cell_length_a   6.65577000
_cell_length_b   10.98160000
_cell_length_c   12.60200000
_cell_angle_alpha   84.81400000
_cell_angle_beta   77.20790000
_cell_angle_gamma   72.42110000
_symmetry_Int_Tables_number   1
_chemical_formula_structural   Al2H17C18S2NO10
_chemical_formula_sum   'Al2 H17 C18 S2 N1 O10'
_cell_volume   856.01151627
_cell_formula_units_Z   1
loop_
 _symmetry_equiv_pos_site_id
 _symmetry_equiv_pos_as_xyz
  1  'x, y, z'
loop_
 _atom_site_type_symbol
 _atom_site_label
 _atom_site_symmetry_multiplicity
 _atom_site_fract_x
 _atom_site_fract_y
 _atom_site_fract_z
 _atom_site_occupancy
  Al  Al0  1  0.49950000  0.49723000  0.49913000  1.0
  Al  Al1  1  0.99504000  0.50115000  0.50200000  1.0
  H  H2  1  0.28661000  0.35479000  0.57392000  1.0
  H  H3  1  0.70323000  0.64420000  0.42634000  1.0
  H  H4  1  0.74772000  0.42391000  0.15760000  1.0
  H  H5  1  0.06586000  0.88726000  0.32856000  1.0
  H  H6  1  0.81037000  0.89767000  0.41250000  1.0
  H  H7  1  0.73023000  0.12045000  0.39475000  1.0
  H  H8  1  0.99693000  0.10850000  0.32494000  1.0
  H  H9  1  0.64539000  0.10696000  0.59930000  1.0
  H  H10  1  0.83544000  0.11253000  0.67533000  1.0
  H  H11  1  0.76212000  0.88376000  0.61582000  1.0
  H  H12  1  0.97174000  0.89023000  0.67803000  1.0
  H  H13  1  0.37209000  0.89212000  0.41660000  1.0
  H  H14  1  0.34487000  0.87857000  0.55889000  1.0
  H  H15  1  0.21853000  0.10062000  0.57443000  1.0
  H  H16  1  0.27885000  0.11356000  0.43150000  1.0
  H  H17  1  0.05719000  0.56366000  0.88362000  1.0
  H  H18  1  0.21922000  0.56334000  0.75559000  1.0
  C  C19  1  0.87331000  0.26903000  0.49862000  1.0
  C  C20  1  0.64935000  0.50586000  0.69733000  1.0
  C  C21  1  0.12618000  0.72941000  0.50201000  1.0
  C  C22  1  0.34476000  0.48415000  0.30534000  1.0
  C  C23  1  0.38103000  0.52602000  0.87787000  1.0
  C  C24  1  0.60490000  0.45083000  0.12225000  1.0
  C  C25  1  0.59166000  0.49767000  0.81462000  1.0
  C  C26  1  0.39922000  0.48105000  0.18584000  1.0
  C  C27  1  0.59878000  0.46403000  0.01062000  1.0
  C  C28  1  0.38878000  0.50587000  0.99069000  1.0
  C  C29  1  0.95583000  0.92845000  0.40384000  1.0
  C  C30  1  0.90041000  0.07625000  0.39843000  1.0
  C  C31  1  0.94594000  0.12394000  0.50006000  1.0
  C  C32  1  0.81708000  0.07245000  0.60231000  1.0
  C  C33  1  0.89666000  0.92458000  0.60725000  1.0
  C  C34  1  0.06248000  0.87450000  0.50235000  1.0
  C  C35  1  0.25916000  0.92338000  0.49373000  1.0
  C  C36  1  0.18765000  0.07059000  0.50010000  1.0
  S  S37  1  0.79168000  0.44514000  0.89188000  1.0
  S  S38  1  0.19777000  0.52609000  0.11026000  1.0
  N  N39  1  0.19873000  0.57173000  0.83752000  1.0
  O  O40  1  0.67129000  0.32427000  0.51401000  1.0
  O  O41  1  0.84851000  0.48639000  0.65179000  1.0
  O  O42  1  0.97525000  0.67639000  0.51964000  1.0
  O  O43  1  0.50373000  0.46260000  0.35231000  1.0
  O  O44  1  0.32612000  0.66966000  0.48233000  1.0
  O  O45  1  0.14592000  0.51052000  0.35116000  1.0
  O  O46  1  0.01766000  0.32634000  0.48297000  1.0
  O  O47  1  0.49287000  0.53120000  0.64646000  1.0
  O  O48  1  0.25341000  0.44404000  0.55076000  1.0
  O  O49  1  0.74040000  0.55547000  0.45084000  1.0
