# generated using pymatgen
data_MnH19C26(N3O2)2
_symmetry_space_group_name_H-M   'P 1'
_cell_length_a   8.20763000
_cell_length_b   10.16020000
_cell_length_c   15.66400000
_cell_angle_alpha   88.80910000
_cell_angle_beta   75.01200000
_cell_angle_gamma   79.49040000
_symmetry_Int_Tables_number   1
_chemical_formula_structural   MnH19C26(N3O2)2
_chemical_formula_sum   'Mn2 H38 C52 N12 O8'
_cell_volume   1240.15447659
_cell_formula_units_Z   2
loop_
 _symmetry_equiv_pos_site_id
 _symmetry_equiv_pos_as_xyz
  1  'x, y, z'
loop_
 _atom_site_type_symbol
 _atom_site_label
 _atom_site_symmetry_multiplicity
 _atom_site_fract_x
 _atom_site_fract_y
 _atom_site_fract_z
 _atom_site_occupancy
  Mn  Mn0  1  0.33419000  0.37124000  0.04362000  1.0
  Mn  Mn1  1  0.66581000  0.62876000  0.95638000  1.0
  H  H2  1  0.52337000  0.23162000  0.86467000  1.0
  H  H3  1  0.47661000  0.76837000  0.13534000  1.0
  H  H4  1  0.51151000  0.24755000  0.70643000  1.0
  H  H5  1  0.48848000  0.75245000  0.29358000  1.0
  H  H6  1  0.10151000  0.59050000  0.78788000  1.0
  H  H7  1  0.89849000  0.40951000  0.21213000  1.0
  H  H8  1  0.12802000  0.55982000  0.93932000  1.0
  H  H9  1  0.87196000  0.44019000  0.06069000  1.0
  H  H10  1  0.19310000  0.52655000  0.63252000  1.0
  H  H11  1  0.80691000  0.47346000  0.36749000  1.0
  H  H12  1  0.56534000  0.26206000  0.43812000  1.0
  H  H13  1  0.43466000  0.73794000  0.56189000  1.0
  H  H14  1  0.63851000  0.19287000  0.28593000  1.0
  H  H15  1  0.36148000  0.80711000  0.71408000  1.0
  H  H16  1  0.58943000  0.22122000  0.13380000  1.0
  H  H17  1  0.41055000  0.77875000  0.86620000  1.0
  H  H18  1  0.15814000  0.51306000  0.22539000  1.0
  H  H19  1  0.84187000  0.48695000  0.77461000  1.0
  H  H20  1  0.18586000  0.49507000  0.38166000  1.0
  H  H21  1  0.81415000  0.50494000  0.61834000  1.0
  H  H22  1  0.86303000  0.15253000  0.15437000  1.0
  H  H23  1  0.13697000  0.84746000  0.84562000  1.0
  H  H24  1  0.73266000  0.94574000  0.19151000  1.0
  H  H25  1  0.26731000  0.05426000  0.80845000  1.0
  H  H26  1  0.91621000  0.72116000  0.14573000  1.0
  H  H27  1  0.08379000  0.27883000  0.85425000  1.0
  H  H28  1  0.34776000  0.90950000  0.02770000  1.0
  H  H29  1  0.65225000  0.09049000  0.97230000  1.0
  H  H30  1  0.26819000  0.08806000  0.59397000  1.0
  H  H31  1  0.73183000  0.91195000  0.40602000  1.0
  H  H32  1  0.28789000  0.04180000  0.34931000  1.0
  H  H33  1  0.71213000  0.95822000  0.65069000  1.0
  H  H34  1  0.03703000  0.12624000  0.28708000  1.0
  H  H35  1  0.96298000  0.87378000  0.71291000  1.0
  H  H36  1  0.73724000  0.28551000  0.53051000  1.0
  H  H37  1  0.26277000  0.71449000  0.46949000  1.0
  H  H38  1  0.97568000  0.20809000  0.60277000  1.0
  H  H39  1  0.02433000  0.79191000  0.39723000  1.0
  C  C40  1  0.43288000  0.30984000  0.84386000  1.0
  C  C41  1  0.56710000  0.69016000  0.15614000  1.0
  C  C42  1  0.42553000  0.31859000  0.75663000  1.0
  C  C43  1  0.57446000  0.68141000  0.24339000  1.0
  C  C44  1  0.30627000  0.42204000  0.73279000  1.0
  C  C45  1  0.69373000  0.57796000  0.26721000  1.0
  C  C46  1  0.19773000  0.50914000  0.80077000  1.0
  C  C47  1  0.80227000  0.49087000  0.19924000  1.0
  C  C48  1  0.21275000  0.49319000  0.88655000  1.0
  C  C49  1  0.78724000  0.50681000  0.11346000  1.0
  C  C50  1  0.28848000  0.44159000  0.64386000  1.0
  C  C51  1  0.71152000  0.55843000  0.35615000  1.0
  C  C52  1  0.44796000  0.32894000  0.43238000  1.0
  C  C53  1  0.55205000  0.67106000  0.56762000  1.0
  C  C54  1  0.41697000  0.34318000  0.34582000  1.0
  C  C55  1  0.58303000  0.65682000  0.65418000  1.0
  C  C56  1  0.52938000  0.26348000  0.27475000  1.0
  C  C57  1  0.47062000  0.73650000  0.72525000  1.0
  C  C58  1  0.50352000  0.27895000  0.19094000  1.0
  C  C59  1  0.49647000  0.72103000  0.80906000  1.0
  C  C60  1  0.26118000  0.44268000  0.24259000  1.0
  C  C61  1  0.73883000  0.55733000  0.75742000  1.0
  C  C62  1  0.27731000  0.43278000  0.32826000  1.0
  C  C63  1  0.72271000  0.56722000  0.67174000  1.0
  C  C64  1  0.18633000  0.16657000  0.07156000  1.0
  C  C65  1  0.81366000  0.83343000  0.92846000  1.0
  C  C66  1  0.11214000  0.04248000  0.09054000  1.0
  C  C67  1  0.88787000  0.95752000  0.90946000  1.0
  C  C68  1  0.93877000  0.05276000  0.13597000  1.0
  C  C69  1  0.06122000  0.94724000  0.86402000  1.0
  C  C70  1  0.86761000  0.93781000  0.15637000  1.0
  C  C71  1  0.13238000  0.06219000  0.84360000  1.0
  C  C72  1  0.96924000  0.81214000  0.13078000  1.0
  C  C73  1  0.03076000  0.18785000  0.86921000  1.0
  C  C74  1  0.14193000  0.80113000  0.08378000  1.0
  C  C75  1  0.85808000  0.19887000  0.91621000  1.0
  C  C76  1  0.21351000  0.91670000  0.06393000  1.0
  C  C77  1  0.78649000  0.08330000  0.93607000  1.0
  C  C78  1  0.24936000  0.66703000  0.05262000  1.0
  C  C79  1  0.75064000  0.33296000  0.94738000  1.0
  C  C80  1  0.29143000  0.07218000  0.52227000  1.0
  C  C81  1  0.70856000  0.92784000  0.47773000  1.0
  C  C82  1  0.15126000  0.11777000  0.48145000  1.0
  C  C83  1  0.84875000  0.88223000  0.51854000  1.0
  C  C84  1  0.16741000  0.09533000  0.39114000  1.0
  C  C85  1  0.83261000  0.90469000  0.60886000  1.0
  C  C86  1  0.02786000  0.14263000  0.35708000  1.0
  C  C87  1  0.97215000  0.85739000  0.64292000  1.0
  C  C88  1  0.86160000  0.23143000  0.49208000  1.0
  C  C89  1  0.13840000  0.76857000  0.50791000  1.0
  C  C90  1  0.99404000  0.18799000  0.53243000  1.0
  C  C91  1  0.00598000  0.81202000  0.46757000  1.0
  N  N92  1  0.33090000  0.39739000  0.90844000  1.0
  N  N93  1  0.66908000  0.60261000  0.09158000  1.0
  N  N94  1  0.38140000  0.36142000  0.57844000  1.0
  N  N95  1  0.61861000  0.63859000  0.42156000  1.0
  N  N96  1  0.33815000  0.39277000  0.50082000  1.0
  N  N97  1  0.66185000  0.60724000  0.49918000  1.0
  N  N98  1  0.37433000  0.36970000  0.17375000  1.0
  N  N99  1  0.62568000  0.63029000  0.82625000  1.0
  N  N100  1  0.87631000  0.20944000  0.40590000  1.0
  N  N101  1  0.12370000  0.79057000  0.59410000  1.0
  N  N102  1  0.44153000  0.01700000  0.47490000  1.0
  N  N103  1  0.55851000  0.98299000  0.52508000  1.0
  O  O104  1  0.09000000  0.28059000  0.09275000  1.0
  O  O105  1  0.91000000  0.71939000  0.90729000  1.0
  O  O106  1  0.34749000  0.15819000  0.03551000  1.0
  O  O107  1  0.65251000  0.84182000  0.96448000  1.0
  O  O108  1  0.39562000  0.66288000  0.99941000  1.0
  O  O109  1  0.60438000  0.33710000  0.00060000  1.0
  O  O110  1  0.18618000  0.56250000  0.07945000  1.0
  O  O111  1  0.81380000  0.43749000  0.92056000  1.0
