# generated using pymatgen
data_MnH7C7NO6
_symmetry_space_group_name_H-M   'P 1'
_cell_length_a   6.25185000
_cell_length_b   10.62850000
_cell_length_c   14.55300000
_cell_angle_alpha   106.86700000
_cell_angle_beta   90.02900000
_cell_angle_gamma   107.08600000
_symmetry_Int_Tables_number   1
_chemical_formula_structural   MnH7C7NO6
_chemical_formula_sum   'Mn4 H28 C28 N4 O24'
_cell_volume   880.67558976
_cell_formula_units_Z   4
loop_
 _symmetry_equiv_pos_site_id
 _symmetry_equiv_pos_as_xyz
  1  'x, y, z'
loop_
 _atom_site_type_symbol
 _atom_site_label
 _atom_site_symmetry_multiplicity
 _atom_site_fract_x
 _atom_site_fract_y
 _atom_site_fract_z
 _atom_site_occupancy
  Mn  Mn0  1  0.57718000  0.38412000  0.71047000  1.0
  Mn  Mn1  1  0.19299000  0.61592000  0.78952000  1.0
  Mn  Mn2  1  0.42282000  0.61589000  0.28953000  1.0
  Mn  Mn3  1  0.80700000  0.38409000  0.21049000  1.0
  H  H4  1  0.53996000  0.06719000  0.58355000  1.0
  H  H5  1  0.47264000  0.93290000  0.91631000  1.0
  H  H6  1  0.46000000  0.93280000  0.41644000  1.0
  H  H7  1  0.52736000  0.06708000  0.08369000  1.0
  H  H8  1  0.25464000  0.83388000  0.54583000  1.0
  H  H9  1  0.42039000  0.16617000  0.95403000  1.0
  H  H10  1  0.74533000  0.16613000  0.45417000  1.0
  H  H11  1  0.57963000  0.83382000  0.04597000  1.0
  H  H12  1  0.77014000  0.03886000  0.66380000  1.0
  H  H13  1  0.73071000  0.96114000  0.83624000  1.0
  H  H14  1  0.22983000  0.96114000  0.33621000  1.0
  H  H15  1  0.26929000  0.03885000  0.16377000  1.0
  H  H16  1  0.53583000  0.36128000  0.51495000  1.0
  H  H17  1  0.17480000  0.63870000  0.98498000  1.0
  H  H18  1  0.46417000  0.63871000  0.48506000  1.0
  H  H19  1  0.82521000  0.36129000  0.01502000  1.0
  H  H20  1  0.67647000  0.30865000  0.86789000  1.0
  H  H21  1  0.36796000  0.69147000  0.63223000  1.0
  H  H22  1  0.32354000  0.69134000  0.13211000  1.0
  H  H23  1  0.63202000  0.30852000  0.36777000  1.0
  H  H24  1  0.69784000  0.51791000  0.56857000  1.0
  H  H25  1  0.18001000  0.48202000  0.93134000  1.0
  H  H26  1  0.30215000  0.48208000  0.43143000  1.0
  H  H27  1  0.82001000  0.51796000  0.06866000  1.0
  H  H28  1  0.43795000  0.33967000  0.88349000  1.0
  H  H29  1  0.09839000  0.66038000  0.61644000  1.0
  H  H30  1  0.56206000  0.66031000  0.11651000  1.0
  H  H31  1  0.90159000  0.33961000  0.38356000  1.0
  C  C32  1  0.36698000  0.05609000  0.59998000  1.0
  C  C33  1  0.31064000  0.94399000  0.89994000  1.0
  C  C34  1  0.63300000  0.94391000  0.40001000  1.0
  C  C35  1  0.68937000  0.05601000  0.10006000  1.0
  C  C36  1  0.20745000  0.92617000  0.57981000  1.0
  C  C37  1  0.28089000  0.07388000  0.92015000  1.0
  C  C38  1  0.79254000  0.07383000  0.42019000  1.0
  C  C39  1  0.71913000  0.92611000  0.07985000  1.0
  C  C40  1  0.98796000  0.91733000  0.60357000  1.0
  C  C41  1  0.07013000  0.08270000  0.89646000  1.0
  C  C42  1  0.01203000  0.08266000  0.39642000  1.0
  C  C43  1  0.92989000  0.91730000  0.10353000  1.0
  C  C44  1  0.93807000  0.04042000  0.64388000  1.0
  C  C45  1  0.89717000  0.95959000  0.85616000  1.0
  C  C46  1  0.06192000  0.95957000  0.35611000  1.0
  C  C47  1  0.10284000  0.04041000  0.14384000  1.0
  C  C48  1  0.10607000  0.16606000  0.65939000  1.0
  C  C49  1  0.93967000  0.83394000  0.84059000  1.0
  C  C50  1  0.89394000  0.83394000  0.34061000  1.0
  C  C51  1  0.06032000  0.16605000  0.15941000  1.0
  C  C52  1  0.05468000  0.30030000  0.69733000  1.0
  C  C53  1  0.75422000  0.69971000  0.80268000  1.0
  C  C54  1  0.94528000  0.69971000  0.30267000  1.0
  C  C55  1  0.24581000  0.30029000  0.19733000  1.0
  C  C56  1  0.80686000  0.78002000  0.58502000  1.0
  C  C57  1  0.02633000  0.22001000  0.91500000  1.0
  C  C58  1  0.19314000  0.21998000  0.41499000  1.0
  C  C59  1  0.97368000  0.77998000  0.08500000  1.0
  N  N60  1  0.31979000  0.17438000  0.63980000  1.0
  N  N61  1  0.14517000  0.82567000  0.86015000  1.0
  N  N62  1  0.68023000  0.82562000  0.36019000  1.0
  N  N63  1  0.85483000  0.17431000  0.13986000  1.0
  O  O64  1  0.22409000  0.40957000  0.72891000  1.0
  O  O65  1  0.81443000  0.59046000  0.77111000  1.0
  O  O66  1  0.77593000  0.59043000  0.27109000  1.0
  O  O67  1  0.18556000  0.40955000  0.22889000  1.0
  O  O68  1  0.85123000  0.29514000  0.69495000  1.0
  O  O69  1  0.55591000  0.70481000  0.80503000  1.0
  O  O70  1  0.14875000  0.70485000  0.30505000  1.0
  O  O71  1  0.44409000  0.29519000  0.19496000  1.0
  O  O72  1  0.86910000  0.67292000  0.57050000  1.0
  O  O73  1  0.19573000  0.32703000  0.92941000  1.0
  O  O74  1  0.13088000  0.32709000  0.42950000  1.0
  O  O75  1  0.80430000  0.67296000  0.07060000  1.0
  O  O76  1  0.60422000  0.78135000  0.58360000  1.0
  O  O77  1  0.82242000  0.21879000  0.91650000  1.0
  O  O78  1  0.39576000  0.21863000  0.41640000  1.0
  O  O79  1  0.17760000  0.78120000  0.08350000  1.0
  O  O80  1  0.61036000  0.42768000  0.57764000  1.0
  O  O81  1  0.18313000  0.57235000  0.92230000  1.0
  O  O82  1  0.38965000  0.57232000  0.42236000  1.0
  O  O83  1  0.81688000  0.42763000  0.07770000  1.0
  O  O84  1  0.57539000  0.35405000  0.84783000  1.0
  O  O85  1  0.22151000  0.64604000  0.65219000  1.0
  O  O86  1  0.42461000  0.64593000  0.15217000  1.0
  O  O87  1  0.77848000  0.35395000  0.34781000  1.0
