# generated using pymatgen
data_Na2H20C16SO12
_symmetry_space_group_name_H-M   'P 1'
_cell_length_a   7.97280000
_cell_length_b   8.32722000
_cell_length_c   15.22610000
_cell_angle_alpha   75.61340000
_cell_angle_beta   87.51670000
_cell_angle_gamma   86.75320000
_symmetry_Int_Tables_number   1
_chemical_formula_structural   Na2H20C16SO12
_chemical_formula_sum   'Na4 H40 C32 S2 O24'
_cell_volume   977.16089043
_cell_formula_units_Z   2
loop_
 _symmetry_equiv_pos_site_id
 _symmetry_equiv_pos_as_xyz
  1  'x, y, z'
loop_
 _atom_site_type_symbol
 _atom_site_label
 _atom_site_symmetry_multiplicity
 _atom_site_fract_x
 _atom_site_fract_y
 _atom_site_fract_z
 _atom_site_occupancy
  Na  Na0  1  0.31400000  0.10840000  0.96861000  1.0
  Na  Na1  1  0.66728000  0.79440000  0.97121000  1.0
  Na  Na2  1  0.97111000  0.67499000  0.13233000  1.0
  Na  Na3  1  0.27408000  0.38530000  0.09670000  1.0
  H  H4  1  0.34204000  0.75695000  0.04217000  1.0
  H  H5  1  0.31545000  0.74777000  0.94199000  1.0
  H  H6  1  0.66785000  0.17530000  0.94443000  1.0
  H  H7  1  0.65771000  0.08935000  0.04695000  1.0
  H  H8  1  0.95143000  0.11863000  0.03664000  1.0
  H  H9  1  0.93842000  0.20298000  0.93367000  1.0
  H  H10  1  0.15495000  0.03217000  0.15060000  1.0
  H  H11  1  0.34526000  0.00536000  0.16430000  1.0
  H  H12  1  0.64328000  0.56244000  0.13577000  1.0
  H  H13  1  0.58936000  0.72781000  0.16249000  1.0
  H  H14  1  0.03762000  0.75749000  0.93446000  1.0
  H  H15  1  0.98984000  0.92305000  0.96705000  1.0
  H  H16  1  0.92694000  0.31333000  0.11648000  1.0
  H  H17  1  0.90814000  0.45843000  0.03241000  1.0
  H  H18  1  0.61299000  0.41346000  0.05241000  1.0
  H  H19  1  0.63021000  0.27743000  0.14292000  1.0
  H  H20  1  0.06044000  0.48645000  0.78437000  1.0
  H  H21  1  0.26821000  0.51550000  0.73677000  1.0
  H  H22  1  0.07174000  0.42672000  0.64823000  1.0
  H  H23  1  0.98096000  0.27316000  0.54110000  1.0
  H  H24  1  0.14772000  0.80977000  0.72060000  1.0
  H  H25  1  0.23892000  0.96164000  0.82826000  1.0
  H  H26  1  0.32031000  0.73151000  0.52747000  1.0
  H  H27  1  0.56609000  0.78495000  0.42271000  1.0
  H  H28  1  0.33230000  0.25481000  0.28409000  1.0
  H  H29  1  0.08186000  0.19853000  0.38900000  1.0
  H  H30  1  0.68929000  0.82346000  0.28875000  1.0
  H  H31  1  0.80470000  0.94105000  0.34744000  1.0
  H  H32  1  0.78193000  0.59944000  0.73751000  1.0
  H  H33  1  0.56736000  0.58325000  0.77559000  1.0
  H  H34  1  0.75403000  0.05669000  0.82528000  1.0
  H  H35  1  0.66443000  0.32201000  0.72167000  1.0
  H  H36  1  0.46375000  0.05485000  0.54348000  1.0
  H  H37  1  0.54914000  0.78783000  0.64841000  1.0
  H  H38  1  0.78735000  0.59088000  0.55082000  1.0
  H  H39  1  0.03248000  0.64450000  0.44724000  1.0
  H  H40  1  0.82500000  0.36308000  0.27740000  1.0
  H  H41  1  0.58024000  0.30121000  0.38597000  1.0
  H  H42  1  0.28704000  0.55951000  0.35964000  1.0
  H  H43  1  0.15741000  0.74545000  0.32406000  1.0
  C  C44  1  0.24449000  0.50304000  0.88047000  1.0
  C  C45  1  0.19387000  0.45017000  0.79644000  1.0
  C  C46  1  0.16107000  0.20307000  0.74600000  1.0
  C  C47  1  0.08631000  0.29188000  0.66550000  1.0
  C  C48  1  0.03602000  0.20537000  0.60448000  1.0
  C  C49  1  0.05863000  0.03299000  0.62376000  1.0
  C  C50  1  0.13075000  0.94418000  0.70474000  1.0
  C  C51  1  0.18080000  0.02949000  0.76569000  1.0
  C  C52  1  0.18518000  0.96042000  0.46378000  1.0
  C  C53  1  0.32151000  0.84523000  0.47353000  1.0
  C  C54  1  0.46081000  0.87577000  0.41426000  1.0
  C  C55  1  0.46315000  0.02281000  0.34520000  1.0
  C  C56  1  0.32673000  0.13972000  0.33693000  1.0
  C  C57  1  0.18795000  0.10862000  0.39561000  1.0
  C  C58  1  0.73209000  0.94788000  0.28651000  1.0
  C  C59  1  0.84582000  0.00034000  0.20256000  1.0
  C  C60  1  0.74205000  0.47605000  0.87973000  1.0
  C  C61  1  0.69391000  0.60813000  0.79410000  1.0
  C  C62  1  0.65112000  0.90640000  0.74559000  1.0
  C  C63  1  0.68581000  0.05729000  0.76482000  1.0
  C  C64  1  0.63767000  0.20602000  0.70582000  1.0
  C  C65  1  0.55526000  0.20389000  0.62676000  1.0
  C  C66  1  0.52550000  0.05440000  0.60581000  1.0
  C  C67  1  0.57315000  0.90395000  0.66530000  1.0
  C  C68  1  0.66899000  0.44284000  0.47461000  1.0
  C  C69  1  0.79494000  0.54010000  0.49135000  1.0
  C  C70  1  0.93330000  0.57273000  0.43157000  1.0
  C  C71  1  0.94291000  0.50887000  0.35452000  1.0
  C  C72  1  0.81510000  0.41157000  0.33775000  1.0
  C  C73  1  0.67886000  0.37773000  0.39796000  1.0
  C  C74  1  0.20707000  0.63244000  0.30526000  1.0
  C  C75  1  0.30891000  0.68766000  0.21718000  1.0
  S  S76  1  0.01126000  0.92647000  0.54181000  1.0
  S  S77  1  0.49647000  0.39525000  0.55200000  1.0
  O  O78  1  0.22049000  0.27416000  0.80967000  1.0
  O  O79  1  0.31827000  0.39963000  0.94341000  1.0
  O  O80  1  0.20671000  0.65502000  0.87788000  1.0
  O  O81  1  0.86432000  0.00651000  0.49265000  1.0
  O  O82  1  0.01211000  0.75004000  0.58686000  1.0
  O  O83  1  0.59133000  0.06396000  0.28260000  1.0
  O  O84  1  0.80409000  0.12927000  0.14015000  1.0
  O  O85  1  0.97766000  0.91084000  0.19882000  1.0
  O  O86  1  0.69693000  0.76855000  0.81183000  1.0
  O  O87  1  0.73754000  0.51636000  0.95496000  1.0
  O  O88  1  0.78091000  0.33264000  0.86809000  1.0
  O  O89  1  0.48288000  0.51921000  0.60532000  1.0
  O  O90  1  0.35490000  0.37306000  0.49988000  1.0
  O  O91  1  0.07170000  0.53510000  0.29115000  1.0
  O  O92  1  0.27037000  0.63891000  0.14808000  1.0
  O  O93  1  0.42533000  0.78413000  0.21957000  1.0
  O  O94  1  0.37092000  0.81427000  0.97818000  1.0
  O  O95  1  0.61426000  0.08257000  0.98874000  1.0
  O  O96  1  0.00895000  0.12141000  0.97759000  1.0
  O  O97  1  0.26215000  0.08748000  0.13088000  1.0
  O  O98  1  0.68283000  0.67516000  0.13180000  1.0
  O  O99  1  0.96112000  0.80533000  0.97488000  1.0
  O  O100  1  0.97661000  0.41998000  0.08727000  1.0
  O  O101  1  0.56420000  0.38043000  0.11494000  1.0
