# generated using pymatgen
data_Co3H58C84(N3O5)4
_symmetry_space_group_name_H-M   'P 1'
_cell_length_a   9.95791000
_cell_length_b   14.13550000
_cell_length_c   18.25120000
_cell_angle_alpha   70.12160000
_cell_angle_beta   87.34360000
_cell_angle_gamma   71.57080000
_symmetry_Int_Tables_number   1
_chemical_formula_structural   Co3H58C84(N3O5)4
_chemical_formula_sum   'Co3 H58 C84 N12 O20'
_cell_volume   2286.67468457
_cell_formula_units_Z   1
loop_
 _symmetry_equiv_pos_site_id
 _symmetry_equiv_pos_as_xyz
  1  'x, y, z'
loop_
 _atom_site_type_symbol
 _atom_site_label
 _atom_site_symmetry_multiplicity
 _atom_site_fract_x
 _atom_site_fract_y
 _atom_site_fract_z
 _atom_site_occupancy
  Co  Co0  1  0.85952000  0.96853000  0.43847000  1.0
  Co  Co1  1  0.14048000  0.03150000  0.56147000  1.0
  Co  Co2  1  0.49997000  0.99995000  0.99998000  1.0
  H  H3  1  0.76541000  0.96624000  0.05348000  1.0
  H  H4  1  0.75989000  0.92075000  0.98420000  1.0
  H  H5  1  0.50743000  0.31223000  0.74297000  1.0
  H  H6  1  0.61014000  0.00539000  0.55942000  1.0
  H  H7  1  0.91897000  0.63365000  0.69280000  1.0
  H  H8  1  0.89081000  0.25976000  0.17505000  1.0
  H  H9  1  0.86215000  0.97631000  0.75748000  1.0
  H  H10  1  0.41391000  0.38425000  0.63861000  1.0
  H  H11  1  0.87339000  0.79086000  0.59227000  1.0
  H  H12  1  0.61049000  0.56194000  0.01909000  1.0
  H  H13  1  0.42426000  0.99050000  0.77870000  1.0
  H  H14  1  0.65853000  0.60812000  0.87782000  1.0
  H  H15  1  0.87622000  0.11757000  0.28344000  1.0
  H  H16  1  0.81303000  0.57535000  0.77731000  1.0
  H  H17  1  0.68263000  0.61980000  0.48065000  1.0
  H  H18  1  0.72527000  0.16321000  0.48790000  1.0
  H  H19  1  0.48215000  0.17467000  0.84591000  1.0
  H  H20  1  0.70826000  0.55636000  0.62620000  1.0
  H  H21  1  0.71154000  0.43820000  0.28633000  1.0
  H  H22  1  0.64233000  0.40576000  0.88439000  1.0
  H  H23  1  0.01347000  0.31113000  0.07968000  1.0
  H  H24  1  0.97614000  0.80145000  0.36842000  1.0
  H  H25  1  0.10253000  0.49675000  0.55586000  1.0
  H  H26  1  0.66691000  0.35985000  0.42686000  1.0
  H  H27  1  0.09277000  0.60375000  0.41318000  1.0
  H  H28  1  0.21995000  0.32924000  0.83548000  1.0
  H  H29  1  0.66101000  0.30205000  0.02762000  1.0
  H  H30  1  0.58609000  0.13774000  0.07281000  1.0
  H  H31  1  0.17112000  0.27870000  0.97556000  1.0
  H  H32  1  0.23451000  0.03374000  0.94646000  1.0
  H  H33  1  0.24008000  0.07920000  0.01579000  1.0
  H  H34  1  0.49254000  0.68777000  0.25704000  1.0
  H  H35  1  0.38981000  0.99469000  0.44054000  1.0
  H  H36  1  0.08103000  0.36633000  0.30722000  1.0
  H  H37  1  0.10918000  0.74029000  0.82493000  1.0
  H  H38  1  0.13790000  0.02367000  0.24250000  1.0
  H  H39  1  0.58611000  0.61574000  0.36141000  1.0
  H  H40  1  0.12658000  0.20913000  0.40775000  1.0
  H  H41  1  0.38947000  0.43807000  0.98088000  1.0
  H  H42  1  0.57570000  0.00953000  0.22125000  1.0
  H  H43  1  0.34143000  0.39190000  0.12215000  1.0
  H  H44  1  0.12375000  0.88246000  0.71654000  1.0
  H  H45  1  0.18703000  0.42463000  0.22270000  1.0
  H  H46  1  0.31743000  0.38017000  0.51939000  1.0
  H  H47  1  0.27476000  0.83682000  0.51211000  1.0
  H  H48  1  0.51784000  0.82529000  0.15407000  1.0
  H  H49  1  0.29179000  0.44360000  0.37384000  1.0
  H  H50  1  0.28853000  0.56187000  0.71367000  1.0
  H  H51  1  0.35760000  0.59417000  0.11565000  1.0
  H  H52  1  0.98647000  0.68893000  0.92033000  1.0
  H  H53  1  0.02381000  0.19853000  0.63160000  1.0
  H  H54  1  0.89756000  0.50322000  0.44417000  1.0
  H  H55  1  0.33314000  0.64019000  0.57315000  1.0
  H  H56  1  0.90726000  0.39623000  0.58684000  1.0
  H  H57  1  0.78009000  0.67076000  0.16458000  1.0
  H  H58  1  0.33894000  0.69786000  0.97241000  1.0
  H  H59  1  0.41388000  0.86217000  0.92718000  1.0
  H  H60  1  0.82888000  0.72130000  0.02449000  1.0
  C  C61  1  0.62049000  0.99939000  0.62021000  1.0
  C  C62  1  0.74880000  0.99323000  0.65284000  1.0
  C  C63  1  0.76234000  0.98134000  0.73181000  1.0
  C  C64  1  0.50305000  0.00031000  0.66539000  1.0
  C  C65  1  0.46251000  0.46552000  0.52312000  1.0
  C  C66  1  0.86966000  0.00036000  0.60208000  1.0
  C  C67  1  0.86525000  0.48753000  0.89901000  1.0
  C  C68  1  0.64690000  0.97655000  0.77803000  1.0
  C  C69  1  0.47907000  0.43155000  0.60566000  1.0
  C  C70  1  0.56825000  0.46274000  0.64196000  1.0
  C  C71  1  0.92271000  0.74556000  0.55457000  1.0
  C  C72  1  0.59067000  0.43176000  0.72873000  1.0
  C  C73  1  0.80713000  0.43306000  0.05795000  1.0
  C  C74  1  0.36454000  0.01349000  0.62898000  1.0
  C  C75  1  0.70795000  0.51811000  0.99990000  1.0
  C  C76  1  0.98613000  0.63492000  0.58513000  1.0
  C  C77  1  0.51622000  0.98938000  0.74392000  1.0
  C  C78  1  0.73566000  0.54397000  0.92248000  1.0
  C  C79  1  0.83012000  0.17461000  0.31307000  1.0
  C  C80  1  0.89635000  0.51391000  0.81974000  1.0
  C  C81  1  0.66026000  0.95946000  0.86334000  1.0
  C  C82  1  0.62636000  0.56667000  0.51560000  1.0
  C  C83  1  0.74583000  0.19967000  0.42745000  1.0
  C  C84  1  0.52245000  0.20592000  0.88430000  1.0
  C  C85  1  0.96608000  0.40136000  0.95691000  1.0
  C  C86  1  0.56163000  0.29815000  0.85379000  1.0
  C  C87  1  0.79823000  0.28389000  0.27354000  1.0
  C  C88  1  0.02301000  0.45871000  0.79699000  1.0
  C  C89  1  0.76520000  0.41612000  0.14002000  1.0
  C  C90  1  0.64129000  0.53170000  0.59578000  1.0
  C  C91  1  0.05886000  0.48513000  0.71338000  1.0
  C  C92  1  0.73781000  0.35302000  0.31481000  1.0
  C  C93  1  0.61279000  0.33412000  0.90608000  1.0
  C  C94  1  0.93371000  0.37558000  0.03648000  1.0
  C  C95  1  0.98117000  0.75153000  0.42930000  1.0
  C  C96  1  0.05080000  0.58201000  0.53390000  1.0
  C  C97  1  0.71240000  0.30898000  0.39273000  1.0
  C  C98  1  0.04555000  0.64214000  0.45501000  1.0
  C  C99  1  0.12182000  0.37263000  0.85440000  1.0
  C  C100  1  0.62221000  0.27594000  0.98548000  1.0
  C  C101  1  0.58202000  0.18487000  0.01114000  1.0
  C  C102  1  0.09444000  0.34503000  0.93214000  1.0
  C  C103  1  0.37948000  0.00070000  0.37973000  1.0
  C  C104  1  0.25117000  0.00685000  0.34711000  1.0
  C  C105  1  0.23769000  0.01865000  0.26816000  1.0
  C  C106  1  0.49691000  0.99974000  0.33454000  1.0
  C  C107  1  0.53752000  0.53448000  0.47691000  1.0
  C  C108  1  0.13033000  0.99968000  0.39789000  1.0
  C  C109  1  0.13473000  0.51249000  0.10100000  1.0
  C  C110  1  0.35309000  0.02343000  0.22192000  1.0
  C  C111  1  0.52097000  0.56844000  0.39437000  1.0
  C  C112  1  0.43179000  0.53724000  0.35807000  1.0
  C  C113  1  0.07725000  0.25448000  0.44540000  1.0
  C  C114  1  0.40935000  0.56821000  0.27130000  1.0
  C  C115  1  0.19290000  0.56697000  0.94203000  1.0
  C  C116  1  0.63542000  0.98658000  0.37097000  1.0
  C  C117  1  0.29203000  0.48190000  0.00009000  1.0
  C  C118  1  0.01388000  0.36509000  0.41487000  1.0
  C  C119  1  0.48374000  0.01067000  0.25602000  1.0
  C  C120  1  0.26429000  0.45603000  0.07750000  1.0
  C  C121  1  0.16992000  0.82537000  0.68697000  1.0
  C  C122  1  0.10369000  0.48610000  0.18028000  1.0
  C  C123  1  0.33975000  0.04048000  0.13661000  1.0
  C  C124  1  0.37368000  0.43330000  0.48443000  1.0
  C  C125  1  0.25420000  0.80036000  0.57255000  1.0
  C  C126  1  0.47750000  0.79406000  0.11569000  1.0
  C  C127  1  0.03391000  0.59866000  0.04309000  1.0
  C  C128  1  0.43833000  0.70182000  0.14622000  1.0
  C  C129  1  0.20181000  0.71611000  0.72652000  1.0
  C  C130  1  0.97701000  0.54128000  0.20304000  1.0
  C  C131  1  0.23483000  0.58389000  0.85999000  1.0
  C  C132  1  0.35875000  0.46828000  0.40425000  1.0
  C  C133  1  0.94118000  0.51490000  0.28664000  1.0
  C  C134  1  0.26217000  0.64705000  0.68518000  1.0
  C  C135  1  0.38720000  0.66579000  0.09395000  1.0
  C  C136  1  0.06627000  0.62443000  0.96350000  1.0
  C  C137  1  0.01881000  0.24845000  0.57072000  1.0
  C  C138  1  0.94930000  0.41797000  0.46612000  1.0
  C  C139  1  0.28767000  0.69107000  0.60727000  1.0
  C  C140  1  0.95446000  0.35784000  0.54500000  1.0
  C  C141  1  0.87819000  0.62738000  0.14564000  1.0
  C  C142  1  0.37772000  0.72399000  0.01454000  1.0
  C  C143  1  0.41795000  0.81505000  0.98886000  1.0
  C  C144  1  0.90558000  0.65499000  0.06790000  1.0
  N  N145  1  0.92228000  0.80256000  0.47911000  1.0
  N  N146  1  0.80524000  0.13348000  0.38817000  1.0
  N  N147  1  0.54785000  0.34722000  0.77278000  1.0
  N  N148  1  0.53352000  0.15004000  0.96078000  1.0
  N  N149  1  0.97958000  0.58522000  0.66523000  1.0
  N  N150  1  0.82992000  0.31749000  0.19494000  1.0
  N  N151  1  0.07769000  0.19749000  0.52086000  1.0
  N  N152  1  0.19476000  0.86648000  0.61186000  1.0
  N  N153  1  0.45213000  0.65277000  0.22723000  1.0
  N  N154  1  0.46647000  0.84989000  0.03921000  1.0
  N  N155  1  0.02047000  0.41479000  0.33478000  1.0
  N  N156  1  0.17008000  0.68251000  0.80509000  1.0
  O  O157  1  0.54210000  0.98356000  0.89499000  1.0
  O  O158  1  0.87927000  0.96439000  0.54628000  1.0
  O  O159  1  0.25158000  0.02887000  0.66554000  1.0
  O  O160  1  0.95706000  0.04128000  0.61781000  1.0
  O  O161  1  0.36053000  0.00929000  0.56026000  1.0
  O  O162  1  0.72134000  0.92362000  0.03713000  1.0
  O  O163  1  0.64660000  0.47904000  0.75733000  1.0
  O  O164  1  0.67506000  0.48734000  0.15688000  1.0
  O  O165  1  0.15278000  0.42298000  0.68963000  1.0
  O  O166  1  0.78243000  0.92292000  0.89868000  1.0
  O  O167  1  0.45791000  0.01634000  0.10500000  1.0
  O  O168  1  0.12078000  0.03565000  0.45368000  1.0
  O  O169  1  0.74836000  0.97117000  0.33445000  1.0
  O  O170  1  0.04293000  0.95872000  0.38224000  1.0
  O  O171  1  0.63940000  0.99084000  0.43966000  1.0
  O  O172  1  0.27862000  0.07632000  0.96283000  1.0
  O  O173  1  0.35341000  0.52092000  0.24271000  1.0
  O  O174  1  0.32497000  0.51268000  0.84311000  1.0
  O  O175  1  0.84734000  0.57704000  0.31041000  1.0
  O  O176  1  0.21756000  0.07706000  0.10129000  1.0
