# generated using pymatgen
data_Zn2H20C31(NO4)2
_symmetry_space_group_name_H-M   'P 1'
_cell_length_a   9.85417000
_cell_length_b   10.89200000
_cell_length_c   11.03600000
_cell_angle_alpha   88.36370000
_cell_angle_beta   89.75130000
_cell_angle_gamma   89.03380000
_symmetry_Int_Tables_number   1
_chemical_formula_structural   Zn2H20C31(NO4)2
_chemical_formula_sum   'Zn2 H20 C31 N2 O8'
_cell_volume   1183.85156525
_cell_formula_units_Z   1
loop_
 _symmetry_equiv_pos_site_id
 _symmetry_equiv_pos_as_xyz
  1  'x, y, z'
loop_
 _atom_site_type_symbol
 _atom_site_label
 _atom_site_symmetry_multiplicity
 _atom_site_fract_x
 _atom_site_fract_y
 _atom_site_fract_z
 _atom_site_occupancy
  Zn  Zn0  1  0.35387000  0.50021000  0.50019000  1.0
  Zn  Zn1  1  0.64452000  0.50217000  0.49991000  1.0
  H  H2  1  0.61010000  0.91221000  0.67722000  1.0
  H  H3  1  0.44190000  0.93078000  0.09822000  1.0
  H  H4  1  0.46791000  0.73670000  0.21828000  1.0
  H  H5  1  0.52176000  0.31241000  0.12021000  1.0
  H  H6  1  0.86923000  0.62793000  0.37653000  1.0
  H  H7  1  0.74751000  0.33215000  0.66539000  1.0
  H  H8  1  0.87549000  0.18830000  0.80291000  1.0
  H  H9  1  0.12856000  0.18641000  0.80226000  1.0
  H  H10  1  0.25438000  0.32838000  0.66420000  1.0
  H  H11  1  0.12693000  0.62625000  0.37587000  1.0
  H  H12  1  0.38081000  0.07619000  0.67424000  1.0
  H  H13  1  0.26347000  0.93479000  0.49005000  1.0
  H  H14  1  0.39122000  0.09069000  0.31333000  1.0
  H  H15  1  0.62045000  0.92627000  0.31580000  1.0
  H  H16  1  0.73795000  0.06805000  0.50066000  1.0
  H  H17  1  0.43943000  0.92789000  0.87154000  1.0
  H  H18  1  0.52264000  0.19627000  0.94369000  1.0
  H  H19  1  0.43065000  0.26022000  0.81800000  1.0
  H  H20  1  0.60936000  0.26770000  0.81970000  1.0
  H  H21  1  0.46283000  0.73177000  0.76642000  1.0
  C  C22  1  0.49601000  0.50367000  0.73753000  1.0
  C  C23  1  0.56759000  0.96122000  0.39549000  1.0
  C  C24  1  0.63297000  0.03713000  0.49807000  1.0
  C  C25  1  0.50646000  0.12537000  0.49633000  1.0
  C  C26  1  0.46535000  0.73253000  0.86518000  1.0
  C  C27  1  0.45172000  0.84203000  0.92410000  1.0
  C  C28  1  0.45312000  0.84369000  0.05235000  1.0
  C  C29  1  0.46789000  0.73555000  0.11944000  1.0
  C  C30  1  0.48221000  0.62115000  0.06152000  1.0
  C  C31  1  0.48124000  0.61938000  0.93163000  1.0
  C  C32  1  0.49524000  0.50483000  0.87352000  1.0
  C  C33  1  0.50451000  0.26156000  0.49783000  1.0
  C  C34  1  0.50815000  0.39476000  0.93949000  1.0
  C  C35  1  0.51037000  0.39844000  0.06754000  1.0
  C  C36  1  0.49800000  0.50766000  0.12744000  1.0
  C  C37  1  0.85757000  0.33069000  0.66633000  1.0
  C  C38  1  0.92975000  0.25118000  0.74198000  1.0
  C  C39  1  0.07334000  0.25007000  0.74152000  1.0
  C  C40  1  0.14431000  0.32843000  0.66542000  1.0
  C  C41  1  0.07319000  0.41126000  0.58638000  1.0
  C  C42  1  0.92723000  0.41229000  0.58676000  1.0
  C  C43  1  0.92701000  0.56585000  0.43690000  1.0
  C  C44  1  0.49913000  0.50607000  0.26359000  1.0
  C  C45  1  0.07029000  0.56498000  0.43663000  1.0
  C  C46  1  0.49622000  0.74046000  0.49389000  1.0
  C  C47  1  0.43396000  0.04113000  0.59465000  1.0
  C  C48  1  0.56182000  0.95360000  0.59643000  1.0
  C  C49  1  0.49504000  0.87696000  0.49362000  1.0
  C  C50  1  0.36855000  0.96535000  0.49219000  1.0
  C  C51  1  0.43974000  0.04891000  0.39387000  1.0
  C  C52  1  0.51832000  0.27334000  0.87742000  1.0
  N  N53  1  0.85716000  0.49157000  0.51016000  1.0
  N  N54  1  0.14162000  0.48991000  0.50956000  1.0
  O  O55  1  0.38144000  0.49930000  0.68556000  1.0
  O  O56  1  0.61127000  0.50609000  0.68558000  1.0
  O  O57  1  0.38773000  0.31371000  0.49655000  1.0
  O  O58  1  0.61803000  0.31542000  0.50137000  1.0
  O  O59  1  0.38358000  0.50856000  0.31555000  1.0
  O  O60  1  0.61475000  0.50201000  0.31436000  1.0
  O  O61  1  0.38192000  0.68724000  0.49827000  1.0
  O  O62  1  0.61322000  0.68831000  0.49089000  1.0
