# generated using pymatgen
data_TbCrH18C16(N4O3)2
_symmetry_space_group_name_H-M   'P 1'
_cell_length_a   9.11734000
_cell_length_b   9.11792000
_cell_length_c   16.67820391
_cell_angle_alpha   98.20056660
_cell_angle_beta   98.04495686
_cell_angle_gamma   118.83700000
_symmetry_Int_Tables_number   1
_chemical_formula_structural   TbCrH18C16(N4O3)2
_chemical_formula_sum   'Tb2 Cr2 H36 C32 N16 O12'
_cell_volume   1166.76916256
_cell_formula_units_Z   2
loop_
 _symmetry_equiv_pos_site_id
 _symmetry_equiv_pos_as_xyz
  1  'x, y, z'
loop_
 _atom_site_type_symbol
 _atom_site_label
 _atom_site_symmetry_multiplicity
 _atom_site_fract_x
 _atom_site_fract_y
 _atom_site_fract_z
 _atom_site_occupancy
  Tb  Tb0  1  0.90249000  0.65237000  0.74996000  1.0
  Tb  Tb1  1  0.09751000  0.34763000  0.25004000  1.0
  Cr  Cr2  1  0.00000000  0.00000000  0.50000000  1.0
  Cr  Cr3  1  0.49999000  0.00000000  0.00000000  1.0
  H  H4  1  0.05510000  0.66402000  0.92539000  1.0
  H  H5  1  0.73859000  0.62975000  0.57452000  1.0
  H  H6  1  0.94490000  0.33597000  0.07461000  1.0
  H  H7  1  0.26141000  0.37025000  0.42548000  1.0
  H  H8  1  0.87784000  0.48331000  0.90005000  1.0
  H  H9  1  0.58331000  0.47791000  0.59995000  1.0
  H  H10  1  0.12216000  0.51668000  0.09995000  1.0
  H  H11  1  0.41668000  0.52208000  0.40004000  1.0
  H  H12  1  0.62265000  0.60955000  0.84020000  1.0
  H  H13  1  0.76944000  0.28253000  0.65974000  1.0
  H  H14  1  0.37735000  0.39045000  0.15980000  1.0
  H  H15  1  0.23056000  0.71747000  0.34026000  1.0
  H  H16  1  0.53157000  0.42084000  0.78045000  1.0
  H  H17  1  0.64039000  0.25106000  0.71952000  1.0
  H  H18  1  0.46844000  0.57916000  0.21955000  1.0
  H  H19  1  0.35961000  0.74894000  0.28048000  1.0
  H  H20  1  0.24761000  0.53818000  0.89462000  1.0
  H  H21  1  0.64394000  0.85373000  0.60513000  1.0
  H  H22  1  0.75239000  0.46182000  0.10538000  1.0
  H  H23  1  0.35606000  0.14627000  0.39487000  1.0
  H  H24  1  0.88924000  0.10875000  0.70559000  1.0
  H  H25  1  0.40355000  0.68382000  0.79421000  1.0
  H  H26  1  0.11076000  0.89126000  0.29441000  1.0
  H  H27  1  0.59646000  0.31618000  0.20579000  1.0
  H  H28  1  0.05802000  0.03189000  0.94354000  1.0
  H  H29  1  0.08875000  0.61480000  0.55630000  1.0
  H  H30  1  0.94198000  0.96811000  0.05646000  1.0
  H  H31  1  0.91124000  0.38519000  0.44369000  1.0
  H  H32  1  0.24762000  0.35135000  0.99335000  1.0
  H  H33  1  0.35844000  0.75497000  0.50646000  1.0
  H  H34  1  0.75238000  0.64865000  0.00665000  1.0
  H  H35  1  0.64156000  0.24503000  0.49354000  1.0
  H  H36  1  0.06729000  0.40686000  0.76067000  1.0
  H  H37  1  0.64655000  0.80683000  0.73906000  1.0
  H  H38  1  0.93271000  0.59314000  0.23933000  1.0
  H  H39  1  0.35345000  0.19318000  0.26094000  1.0
  C  C40  1  0.89124000  0.12244000  0.55269000  1.0
  C  C41  1  0.56937000  0.83812000  0.94730000  1.0
  C  C42  1  0.10877000  0.87756000  0.44731000  1.0
  C  C43  1  0.43061000  0.16187000  0.05270000  1.0
  C  C44  1  0.23580000  0.21202000  0.54363000  1.0
  C  C45  1  0.66827000  0.19219000  0.95629000  1.0
  C  C46  1  0.76420000  0.78798000  0.45636000  1.0
  C  C47  1  0.33174000  0.80781000  0.04372000  1.0
  C  C48  1  0.02951000  0.91775000  0.60373000  1.0
  C  C49  1  0.31400000  0.92572000  0.89630000  1.0
  C  C50  1  0.97049000  0.08225000  0.39627000  1.0
  C  C51  1  0.68599000  0.07428000  0.10370000  1.0
  C  C52  1  0.95402000  0.03913000  0.82046000  1.0
  C  C53  1  0.21913000  0.63404000  0.67941000  1.0
  C  C54  1  0.04598000  0.96087000  0.17954000  1.0
  C  C55  1  0.78087000  0.36596000  0.32059000  1.0
  C  C56  1  0.16844000  0.39840000  0.87718000  1.0
  C  C57  1  0.52162000  0.79203000  0.62262000  1.0
  C  C58  1  0.83156000  0.60161000  0.12282000  1.0
  C  C59  1  0.47839000  0.20797000  0.37738000  1.0
  C  C60  1  0.16579000  0.29360000  0.93035000  1.0
  C  C61  1  0.36367000  0.73614000  0.56947000  1.0
  C  C62  1  0.83421000  0.70640000  0.06965000  1.0
  C  C63  1  0.63634000  0.26386000  0.43053000  1.0
  C  C64  1  0.05963000  0.11553000  0.90268000  1.0
  C  C65  1  0.21326000  0.65745000  0.59718000  1.0
  C  C66  1  0.94037000  0.88447000  0.09732000  1.0
  C  C67  1  0.78674000  0.34255000  0.40282000  1.0
  C  C68  1  0.96290000  0.15299000  0.76990000  1.0
  C  C69  1  0.38353000  0.69343000  0.72992000  1.0
  C  C70  1  0.03710000  0.84701000  0.23010000  1.0
  C  C71  1  0.61647000  0.30658000  0.27008000  1.0
  N  N72  1  0.37558000  0.33349000  0.56751000  1.0
  N  N73  1  0.76590000  0.30820000  0.93247000  1.0
  N  N74  1  0.62442000  0.66651000  0.43249000  1.0
  N  N75  1  0.23409000  0.69179000  0.06753000  1.0
  N  N76  1  0.82353000  0.18771000  0.58498000  1.0
  N  N77  1  0.60225000  0.73803000  0.91505000  1.0
  N  N78  1  0.17647000  0.81229000  0.41502000  1.0
  N  N79  1  0.39773000  0.26197000  0.08495000  1.0
  N  N80  1  0.03267000  0.85549000  0.66046000  1.0
  N  N81  1  0.19504000  0.87212000  0.83958000  1.0
  N  N82  1  0.96733000  0.14451000  0.33954000  1.0
  N  N83  1  0.80495000  0.12788000  0.16042000  1.0
  N  N84  1  0.06728000  0.32463000  0.79923000  1.0
  N  N85  1  0.52581000  0.76856000  0.70055000  1.0
  N  N86  1  0.93272000  0.67537000  0.20077000  1.0
  N  N87  1  0.47419000  0.23144000  0.29945000  1.0
  O  O88  1  0.62698000  0.53781000  0.78947000  1.0
  O  O89  1  0.74823000  0.33753000  0.71042000  1.0
  O  O90  1  0.37301000  0.46219000  0.21053000  1.0
  O  O91  1  0.25177000  0.66248000  0.28958000  1.0
  O  O92  1  0.94909000  0.59253000  0.88184000  1.0
  O  O93  1  0.71070000  0.56732000  0.61811000  1.0
  O  O94  1  0.05091000  0.40747000  0.11816000  1.0
  O  O95  1  0.28931000  0.43268000  0.38189000  1.0
  O  O96  1  0.85197000  0.87096000  0.79120000  1.0
  O  O97  1  0.08018000  0.56100000  0.70869000  1.0
  O  O98  1  0.14803000  0.12905000  0.20880000  1.0
  O  O99  1  0.91982000  0.43900000  0.29131000  1.0
