# generated using pymatgen
data_Cu2H9C14S2N7
_symmetry_space_group_name_H-M   'P 1'
_cell_length_a   6.09418000
_cell_length_b   11.29300000
_cell_length_c   11.82950000
_cell_angle_alpha   112.98600000
_cell_angle_beta   104.71600000
_cell_angle_gamma   90.10710000
_symmetry_Int_Tables_number   1
_chemical_formula_structural   Cu2H9C14S2N7
_chemical_formula_sum   'Cu4 H18 C28 S4 N14'
_cell_volume   720.21307712
_cell_formula_units_Z   2
loop_
 _symmetry_equiv_pos_site_id
 _symmetry_equiv_pos_as_xyz
  1  'x, y, z'
loop_
 _atom_site_type_symbol
 _atom_site_label
 _atom_site_symmetry_multiplicity
 _atom_site_fract_x
 _atom_site_fract_y
 _atom_site_fract_z
 _atom_site_occupancy
  Cu  Cu0  1  0.24435000  0.44114000  0.43499000  1.0
  Cu  Cu1  1  0.80823000  0.05845000  0.56594000  1.0
  Cu  Cu2  1  0.75568000  0.55886000  0.56501000  1.0
  Cu  Cu3  1  0.19172000  0.94155000  0.43406000  1.0
  H  H4  1  0.11315000  0.74997000  0.00031000  1.0
  H  H5  1  0.88684000  0.25004000  0.99968000  1.0
  H  H6  1  0.44392000  0.57167000  0.30832000  1.0
  H  H7  1  0.13386000  0.92748000  0.69120000  1.0
  H  H8  1  0.55613000  0.42834000  0.69168000  1.0
  H  H9  1  0.86608000  0.07251000  0.30878000  1.0
  H  H10  1  0.30419000  0.68632000  0.16937000  1.0
  H  H11  1  0.13355000  0.81341000  0.83087000  1.0
  H  H12  1  0.69585000  0.31369000  0.83063000  1.0
  H  H13  1  0.86641000  0.18658000  0.16911000  1.0
  H  H14  1  0.61936000  0.52214000  0.10978000  1.0
  H  H15  1  0.50760000  0.97576000  0.89118000  1.0
  H  H16  1  0.38068000  0.47786000  0.89021000  1.0
  H  H17  1  0.49239000  0.02424000  0.10883000  1.0
  H  H18  1  0.79067000  0.41044000  0.24927000  1.0
  H  H19  1  0.53930000  0.08726000  0.75126000  1.0
  H  H20  1  0.20937000  0.58955000  0.75073000  1.0
  H  H21  1  0.46067000  0.91275000  0.24876000  1.0
  C  C22  1  0.35232000  0.74831000  0.54885000  1.0
  C  C23  1  0.80302000  0.75203000  0.44997000  1.0
  C  C24  1  0.64768000  0.25169000  0.45115000  1.0
  C  C25  1  0.19698000  0.24798000  0.55003000  1.0
  C  C26  1  0.26202000  0.56166000  0.26131000  1.0
  C  C27  1  0.99901000  0.93729000  0.73860000  1.0
  C  C28  1  0.73802000  0.43834000  0.73869000  1.0
  C  C29  1  0.00094000  0.06270000  0.26139000  1.0
  C  C30  1  0.18105000  0.62725000  0.18380000  1.0
  C  C31  1  0.99582000  0.87202000  0.81653000  1.0
  C  C32  1  0.81898000  0.37276000  0.81620000  1.0
  C  C33  1  0.00414000  0.12797000  0.18346000  1.0
  C  C34  1  0.94483000  0.61839000  0.13073000  1.0
  C  C35  1  0.81327000  0.88081000  0.87059000  1.0
  C  C36  1  0.05520000  0.38161000  0.86927000  1.0
  C  C37  1  0.18670000  0.11918000  0.12941000  1.0
  C  C38  1  0.80284000  0.53671000  0.15308000  1.0
  C  C39  1  0.64797000  0.96144000  0.84769000  1.0
  C  C40  1  0.19720000  0.46329000  0.84692000  1.0
  C  C41  1  0.35201000  0.03856000  0.15232000  1.0
  C  C42  1  0.89776000  0.47384000  0.23026000  1.0
  C  C43  1  0.66548000  0.02418000  0.77012000  1.0
  C  C44  1  0.10228000  0.52616000  0.76973000  1.0
  C  C45  1  0.33448000  0.97582000  0.22988000  1.0
  C  C46  1  0.84027000  0.69113000  0.05746000  1.0
  C  C47  1  0.78339000  0.80884000  0.94492000  1.0
  C  C48  1  0.15975000  0.30887000  0.94254000  1.0
  C  C49  1  0.21661000  0.19116000  0.05509000  1.0
  S  S50  1  0.39352000  0.64091000  0.61063000  1.0
  S  S51  1  0.78255000  0.85981000  0.38859000  1.0
  S  S52  1  0.60650000  0.35909000  0.38937000  1.0
  S  S53  1  0.21742000  0.14020000  0.61141000  1.0
  N  N54  1  0.32496000  0.82572000  0.50363000  1.0
  N  N55  1  0.82100000  0.67445000  0.49502000  1.0
  N  N56  1  0.67502000  0.17429000  0.49637000  1.0
  N  N57  1  0.17901000  0.32555000  0.50498000  1.0
  N  N58  1  0.12476000  0.48766000  0.28763000  1.0
  N  N59  1  0.83546000  0.01104000  0.71258000  1.0
  N  N60  1  0.87528000  0.51234000  0.71237000  1.0
  N  N61  1  0.16449000  0.98895000  0.28742000  1.0
  N  N62  1  0.62084000  0.71324000  0.03679000  1.0
  N  N63  1  0.58547000  0.78652000  0.96679000  1.0
  N  N64  1  0.37918000  0.28675000  0.96322000  1.0
  N  N65  1  0.41453000  0.21348000  0.03322000  1.0
  N  N66  1  0.94635000  0.74997000  0.00080000  1.0
  N  N67  1  0.05365000  0.25004000  0.99920000  1.0
