# generated using pymatgen
data_CdH2C3N3O2
_symmetry_space_group_name_H-M   'P 1'
_cell_length_a   8.52149000
_cell_length_b   10.28570000
_cell_length_c   13.66080000
_cell_angle_alpha   89.99990000
_cell_angle_beta   90.00010000
_cell_angle_gamma   90.00000000
_symmetry_Int_Tables_number   1
_chemical_formula_structural   CdH2C3N3O2
_chemical_formula_sum   'Cd8 H16 C24 N24 O16'
_cell_volume   1197.36214879
_cell_formula_units_Z   8
loop_
 _symmetry_equiv_pos_site_id
 _symmetry_equiv_pos_as_xyz
  1  'x, y, z'
loop_
 _atom_site_type_symbol
 _atom_site_label
 _atom_site_symmetry_multiplicity
 _atom_site_fract_x
 _atom_site_fract_y
 _atom_site_fract_z
 _atom_site_occupancy
  Cd  Cd0  1  0.25000000  0.52856000  0.25000000  1.0
  Cd  Cd1  1  0.25000000  0.97144000  0.75000000  1.0
  Cd  Cd2  1  0.75000000  0.47144000  0.75000000  1.0
  Cd  Cd3  1  0.75000000  0.02856000  0.25000000  1.0
  Cd  Cd4  1  0.31576000  0.75000000  0.50000000  1.0
  Cd  Cd5  1  0.18424000  0.75000000  0.00000000  1.0
  Cd  Cd6  1  0.68424000  0.25000000  0.50000000  1.0
  Cd  Cd7  1  0.81576000  0.25000000  0.00000000  1.0
  H  H8  1  0.60372000  0.70621000  0.28930000  1.0
  H  H9  1  0.60372000  0.79379000  0.71070000  1.0
  H  H10  1  0.89628000  0.79379000  0.78930000  1.0
  H  H11  1  0.89628000  0.70621000  0.21070000  1.0
  H  H12  1  0.39628000  0.29379000  0.71070000  1.0
  H  H13  1  0.39628000  0.20621000  0.28930000  1.0
  H  H14  1  0.10372000  0.20621000  0.21070000  1.0
  H  H15  1  0.10371000  0.29379000  0.78930000  1.0
  H  H16  1  0.44761000  0.98081000  0.08477000  1.0
  H  H17  1  0.44761000  0.51918000  0.91523000  1.0
  H  H18  1  0.05239000  0.51918000  0.58477000  1.0
  H  H19  1  0.05239000  0.98082000  0.41523000  1.0
  H  H20  1  0.55239000  0.01919000  0.91523000  1.0
  H  H21  1  0.55239000  0.48082000  0.08477000  1.0
  H  H22  1  0.94761000  0.48082000  0.41523000  1.0
  H  H23  1  0.94761000  0.01918000  0.58477000  1.0
  C  C24  1  0.53895000  0.75328000  0.23093000  1.0
  C  C25  1  0.53896000  0.74672000  0.76907000  1.0
  C  C26  1  0.96104000  0.74672000  0.73093000  1.0
  C  C27  1  0.96105000  0.75328000  0.26907000  1.0
  C  C28  1  0.46105000  0.24672000  0.76907000  1.0
  C  C29  1  0.46104000  0.25328000  0.23093000  1.0
  C  C30  1  0.03896000  0.25328000  0.26907000  1.0
  C  C31  1  0.03896000  0.24672000  0.73093000  1.0
  C  C32  1  0.45921000  0.89274000  0.12801000  1.0
  C  C33  1  0.45921000  0.60726000  0.87199000  1.0
  C  C34  1  0.04078000  0.60726000  0.62801000  1.0
  C  C35  1  0.04078000  0.89274000  0.37199000  1.0
  C  C36  1  0.54078000  0.10726000  0.87199000  1.0
  C  C37  1  0.54078000  0.39274000  0.12801000  1.0
  C  C38  1  0.95921000  0.39274000  0.37199000  1.0
  C  C39  1  0.95921000  0.10726000  0.62801000  1.0
  C  C40  1  0.04415000  0.47502000  0.04672000  1.0
  C  C41  1  0.04415000  0.02498000  0.95328000  1.0
  C  C42  1  0.45585000  0.02498000  0.54672000  1.0
  C  C43  1  0.45585000  0.47502000  0.45328000  1.0
  C  C44  1  0.95585000  0.52498000  0.95328000  1.0
  C  C45  1  0.95585000  0.97502000  0.04672000  1.0
  C  C46  1  0.54415000  0.97502000  0.45328000  1.0
  C  C47  1  0.54415000  0.52498000  0.54672000  1.0
  N  N48  1  0.08577000  0.70039000  0.31259000  1.0
  N  N49  1  0.08577000  0.79961000  0.68741000  1.0
  N  N50  1  0.41423000  0.79961000  0.81259000  1.0
  N  N51  1  0.41423000  0.70039000  0.18741000  1.0
  N  N52  1  0.91423000  0.29961000  0.68741000  1.0
  N  N53  1  0.91423000  0.20039000  0.31259000  1.0
  N  N54  1  0.58577000  0.20039000  0.18741000  1.0
  N  N55  1  0.58577000  0.29961000  0.81259000  1.0
  N  N56  1  0.36240000  0.79135000  0.12083000  1.0
  N  N57  1  0.36239000  0.70865000  0.87917000  1.0
  N  N58  1  0.13760000  0.70865000  0.62083000  1.0
  N  N59  1  0.13760000  0.79135000  0.37917000  1.0
  N  N60  1  0.63760000  0.20866000  0.87917000  1.0
  N  N61  1  0.63760000  0.29134000  0.12083000  1.0
  N  N62  1  0.86240000  0.29135000  0.37917000  1.0
  N  N63  1  0.86239000  0.20865000  0.62083000  1.0
  N  N64  1  0.57168000  0.87367000  0.19620000  1.0
  N  N65  1  0.57168000  0.62633000  0.80379000  1.0
  N  N66  1  0.92832000  0.62633000  0.69621000  1.0
  N  N67  1  0.92832000  0.87367000  0.30379000  1.0
  N  N68  1  0.42832000  0.12633000  0.80379000  1.0
  N  N69  1  0.42832000  0.37367000  0.19620000  1.0
  N  N70  1  0.07168000  0.37367000  0.30380000  1.0
  N  N71  1  0.07168000  0.12633000  0.69620000  1.0
  O  O72  1  0.13968000  0.55473000  0.08683000  1.0
  O  O73  1  0.13968000  0.94527000  0.91316000  1.0
  O  O74  1  0.36032000  0.94527000  0.58683000  1.0
  O  O75  1  0.36032000  0.55473000  0.41317000  1.0
  O  O76  1  0.86032000  0.44527000  0.91317000  1.0
  O  O77  1  0.86032000  0.05473000  0.08683000  1.0
  O  O78  1  0.63968000  0.05473000  0.41317000  1.0
  O  O79  1  0.63968000  0.44527000  0.58683000  1.0
  O  O80  1  0.98293000  0.63780000  0.92330000  1.0
  O  O81  1  0.98294000  0.86219000  0.07671000  1.0
  O  O82  1  0.51707000  0.86220000  0.42330000  1.0
  O  O83  1  0.51706000  0.63781000  0.57671000  1.0
  O  O84  1  0.01706000  0.36219000  0.07671000  1.0
  O  O85  1  0.01707000  0.13780000  0.92330000  1.0
  O  O86  1  0.48294000  0.13781000  0.57671000  1.0
  O  O87  1  0.48294000  0.36219000  0.42329000  1.0
