# generated using pymatgen
data_MgH2(C2O)3
_symmetry_space_group_name_H-M   'P 1'
_cell_length_a   6.87257000
_cell_length_b   19.46159036
_cell_length_c   19.47450000
_cell_angle_alpha   118.62232494
_cell_angle_beta   96.74570000
_cell_angle_gamma   96.75109795
_symmetry_Int_Tables_number   1
_chemical_formula_structural   MgH2(C2O)3
_chemical_formula_sum   'Mg6 H12 C36 O18'
_cell_volume   2225.00006017
_cell_formula_units_Z   6
loop_
 _symmetry_equiv_pos_site_id
 _symmetry_equiv_pos_as_xyz
  1  'x, y, z'
loop_
 _atom_site_type_symbol
 _atom_site_label
 _atom_site_symmetry_multiplicity
 _atom_site_fract_x
 _atom_site_fract_y
 _atom_site_fract_z
 _atom_site_occupancy
  Mg  Mg0  1  0.30151000  0.67533000  0.28377000  1.0
  Mg  Mg1  1  0.01756000  0.71610000  0.39137000  1.0
  Mg  Mg2  1  0.62621000  0.60834000  0.32448000  1.0
  Mg  Mg3  1  0.69848000  0.32467000  0.71623000  1.0
  Mg  Mg4  1  0.98244000  0.28390000  0.60863000  1.0
  Mg  Mg5  1  0.37379000  0.39166000  0.67552000  1.0
  H  H6  1  0.11358000  0.91073000  0.42155000  1.0
  H  H7  1  0.69201000  0.57836000  0.48884000  1.0
  H  H8  1  0.20304000  0.51106000  0.08944000  1.0
  H  H9  1  0.84550000  0.93967000  0.50480000  1.0
  H  H10  1  0.34098000  0.49509000  0.43502000  1.0
  H  H11  1  0.90589000  0.56487000  0.06002000  1.0
  H  H12  1  0.88643000  0.08927000  0.57844000  1.0
  H  H13  1  0.30800000  0.42164000  0.51116000  1.0
  H  H14  1  0.79695000  0.48894000  0.91056000  1.0
  H  H15  1  0.15450000  0.06032000  0.49519000  1.0
  H  H16  1  0.65902000  0.50491000  0.56498000  1.0
  H  H17  1  0.09409000  0.43513000  0.93998000  1.0
  C  C18  1  0.35394000  0.84919000  0.41432000  1.0
  C  C19  1  0.93985000  0.58560000  0.43475000  1.0
  C  C20  1  0.50498000  0.56515000  0.15075000  1.0
  C  C21  1  0.27431000  0.91781000  0.43986000  1.0
  C  C22  1  0.83451000  0.56006000  0.47775000  1.0
  C  C23  1  0.35667000  0.52215000  0.08224000  1.0
  C  C24  1  0.39415000  0.99525000  0.48784000  1.0
  C  C25  1  0.90626000  0.51214000  0.50733000  1.0
  C  C26  1  0.39892000  0.49264000  0.00480000  1.0
  C  C27  1  0.60585000  0.00474000  0.51216000  1.0
  C  C28  1  0.09372000  0.48785000  0.49266000  1.0
  C  C29  1  0.60107000  0.50736000  0.99520000  1.0
  C  C30  1  0.68585000  0.93495000  0.48682000  1.0
  C  C31  1  0.19933000  0.51316000  0.44825000  1.0
  C  C32  1  0.75100000  0.55172000  0.06488000  1.0
  C  C33  1  0.56785000  0.85889000  0.43926000  1.0
  C  C34  1  0.12894000  0.56067000  0.41965000  1.0
  C  C35  1  0.70919000  0.58026000  0.14095000  1.0
  C  C36  1  0.67071000  0.79048000  0.41598000  1.0
  C  C37  1  0.25504000  0.58386000  0.37443000  1.0
  C  C38  1  0.88041000  0.62537000  0.20933000  1.0
  C  C39  1  0.72570000  0.08219000  0.56014000  1.0
  C  C40  1  0.16549000  0.43994000  0.52225000  1.0
  C  C41  1  0.64332000  0.47785000  0.91776000  1.0
  C  C42  1  0.64606000  0.15081000  0.58568000  1.0
  C  C43  1  0.06015000  0.41440000  0.56525000  1.0
  C  C44  1  0.49501000  0.43485000  0.84924000  1.0
  C  C45  1  0.43216000  0.14111000  0.56074000  1.0
  C  C46  1  0.87105000  0.43932000  0.58034000  1.0
  C  C47  1  0.29080000  0.41974000  0.85905000  1.0
  C  C48  1  0.31417000  0.06505000  0.51319000  1.0
  C  C49  1  0.80067000  0.48684000  0.55175000  1.0
  C  C50  1  0.24899000  0.44828000  0.93512000  1.0
  C  C51  1  0.32929000  0.20952000  0.58402000  1.0
  C  C52  1  0.74495000  0.41614000  0.62557000  1.0
  C  C53  1  0.11960000  0.37464000  0.79068000  1.0
  O  O54  1  0.85601000  0.80128000  0.44306000  1.0
  O  O55  1  0.41325000  0.55674000  0.35812000  1.0
  O  O56  1  0.05494000  0.64167000  0.19854000  1.0
  O  O57  1  0.56749000  0.71966000  0.36627000  1.0
  O  O58  1  0.20124000  0.63349000  0.35323000  1.0
  O  O59  1  0.84776000  0.64647000  0.28009000  1.0
  O  O60  1  0.23207000  0.77700000  0.36786000  1.0
  O  O61  1  0.86431000  0.63195000  0.40890000  1.0
  O  O62  1  0.45530000  0.59094000  0.22291000  1.0
  O  O63  1  0.14400000  0.19872000  0.55694000  1.0
  O  O64  1  0.58675000  0.44326000  0.64188000  1.0
  O  O65  1  0.94505000  0.35832000  0.80145000  1.0
  O  O66  1  0.43251000  0.28034000  0.63373000  1.0
  O  O67  1  0.79875000  0.36651000  0.64677000  1.0
  O  O68  1  0.15224000  0.35353000  0.71991000  1.0
  O  O69  1  0.76794000  0.22300000  0.63214000  1.0
  O  O70  1  0.13568000  0.36804000  0.59110000  1.0
  O  O71  1  0.54470000  0.40906000  0.77710000  1.0
