# generated using pymatgen
data_CdH14C17N8
_symmetry_space_group_name_H-M   'P 1'
_cell_length_a   9.25793000
_cell_length_b   9.83764000
_cell_length_c   12.42650000
_cell_angle_alpha   108.71500000
_cell_angle_beta   96.61260000
_cell_angle_gamma   115.15700000
_symmetry_Int_Tables_number   1
_chemical_formula_structural   CdH14C17N8
_chemical_formula_sum   'Cd2 H28 C34 N16'
_cell_volume   927.53320179
_cell_formula_units_Z   2
loop_
 _symmetry_equiv_pos_site_id
 _symmetry_equiv_pos_as_xyz
  1  'x, y, z'
loop_
 _atom_site_type_symbol
 _atom_site_label
 _atom_site_symmetry_multiplicity
 _atom_site_fract_x
 _atom_site_fract_y
 _atom_site_fract_z
 _atom_site_occupancy
  Cd  Cd0  1  0.00040000  0.50031000  0.00016000  1.0
  Cd  Cd1  1  0.50063000  0.49937000  0.49952000  1.0
  H  H2  1  0.50996000  0.27881000  0.80098000  1.0
  H  H3  1  0.64152000  0.78413000  0.12596000  1.0
  H  H4  1  0.49081000  0.72067000  0.19825000  1.0
  H  H5  1  0.36193000  0.21716000  0.87547000  1.0
  H  H6  1  0.54936000  0.07839000  0.83229000  1.0
  H  H7  1  0.69303000  0.87234000  0.39257000  1.0
  H  H8  1  0.44952000  0.91878000  0.16467000  1.0
  H  H9  1  0.30535000  0.13289000  0.60918000  1.0
  H  H10  1  0.41296000  0.96255000  0.68772000  1.0
  H  H11  1  0.75236000  0.74566000  0.29392000  1.0
  H  H12  1  0.58353000  0.03623000  0.31007000  1.0
  H  H13  1  0.24618000  0.25667000  0.71065000  1.0
  H  H14  1  0.30198000  0.69525000  0.68970000  1.0
  H  H15  1  0.99821000  0.88264000  0.21405000  1.0
  H  H16  1  0.69990000  0.30442000  0.31079000  1.0
  H  H17  1  0.99979000  0.11599000  0.78732000  1.0
  H  H18  1  0.14351000  0.50111000  0.77665000  1.0
  H  H19  1  0.28015000  0.13214000  0.28194000  1.0
  H  H20  1  0.85959000  0.49931000  0.22473000  1.0
  H  H21  1  0.71883000  0.86474000  0.71812000  1.0
  H  H22  1  0.12791000  0.87142000  0.04380000  1.0
  H  H23  1  0.15504000  0.40491000  0.54499000  1.0
  H  H24  1  0.86983000  0.12830000  0.95450000  1.0
  H  H25  1  0.84753000  0.59707000  0.45459000  1.0
  H  H26  1  0.29203000  0.08168000  0.97391000  1.0
  H  H27  1  0.87057000  0.16476000  0.49204000  1.0
  H  H28  1  0.70439000  0.91733000  0.02359000  1.0
  H  H29  1  0.13122000  0.83902000  0.50900000  1.0
  C  C30  1  0.39153000  0.17491000  0.79224000  1.0
  C  C31  1  0.60912000  0.82556000  0.20802000  1.0
  C  C32  1  0.41975000  0.02843000  0.77994000  1.0
  C  C33  1  0.74022000  0.85697000  0.31465000  1.0
  C  C34  1  0.57887000  0.97048000  0.21841000  1.0
  C  C35  1  0.25899000  0.14556000  0.68748000  1.0
  C  C36  1  0.31012000  0.90615000  0.82329000  1.0
  C  C37  1  0.90912000  0.00369000  0.34710000  1.0
  C  C38  1  0.68894000  0.09316000  0.17556000  1.0
  C  C39  1  0.09064000  0.99773000  0.65424000  1.0
  C  C40  1  0.26475000  0.73927000  0.76813000  1.0
  C  C41  1  0.02687000  0.99675000  0.28703000  1.0
  C  C42  1  0.73617000  0.26038000  0.23183000  1.0
  C  C43  1  0.97212000  0.00266000  0.71401000  1.0
  C  C44  1  0.17593000  0.63060000  0.81553000  1.0
  C  C45  1  0.18378000  0.13502000  0.32421000  1.0
  C  C46  1  0.82564000  0.36947000  0.18492000  1.0
  C  C47  1  0.81577000  0.86345000  0.67604000  1.0
  C  C48  1  0.16848000  0.83731000  0.96510000  1.0
  C  C49  1  0.11438000  0.28700000  0.47163000  1.0
  C  C50  1  0.83011000  0.16234000  0.03367000  1.0
  C  C51  1  0.88719000  0.71427000  0.52837000  1.0
  C  C52  1  0.25938000  0.95394000  0.92446000  1.0
  C  C53  1  0.95628000  0.15369000  0.44112000  1.0
  C  C54  1  0.73846000  0.04533000  0.07377000  1.0
  C  C55  1  0.04484000  0.84862000  0.55970000  1.0
  C  C56  1  0.75999000  0.24006000  0.71193000  1.0
  C  C57  1  0.44872000  0.41806000  0.21158000  1.0
  C  C58  1  0.24042000  0.75968000  0.28827000  1.0
  C  C59  1  0.55155000  0.58090000  0.78797000  1.0
  C  C60  1  0.63683000  0.25232000  0.54683000  1.0
  C  C61  1  0.28146000  0.38854000  0.04322000  1.0
  C  C62  1  0.36348000  0.74648000  0.45298000  1.0
  C  C63  1  0.71846000  0.61121000  0.95682000  1.0
  N  N64  1  0.12738000  0.67796000  0.91236000  1.0
  N  N65  1  0.22757000  0.27823000  0.41515000  1.0
  N  N66  1  0.87305000  0.32210000  0.08749000  1.0
  N  N67  1  0.77324000  0.72118000  0.58458000  1.0
  N  N68  1  0.83476000  0.28437000  0.81120000  1.0
  N  N69  1  0.53227000  0.47647000  0.31077000  1.0
  N  N70  1  0.16609000  0.71605000  0.18902000  1.0
  N  N71  1  0.46928000  0.52268000  0.68845000  1.0
  N  N72  1  0.59916000  0.31077000  0.48675000  1.0
  N  N73  1  0.20352000  0.41595000  0.97918000  1.0
  N  N74  1  0.40162000  0.68785000  0.51268000  1.0
  N  N75  1  0.79735000  0.58470000  0.02093000  1.0
  N  N76  1  0.67380000  0.17464000  0.60178000  1.0
  N  N77  1  0.36152000  0.34145000  0.10127000  1.0
  N  N78  1  0.32600000  0.82440000  0.39850000  1.0
  N  N79  1  0.63704000  0.65712000  0.89868000  1.0
