# generated using pymatgen
data_CdH12(C2O)6
_symmetry_space_group_name_H-M   'P 1'
_cell_length_a   5.30354000
_cell_length_b   6.51712483
_cell_length_c   19.16370000
_cell_angle_alpha   90.00042553
_cell_angle_beta   90.00040000
_cell_angle_gamma   66.00399752
_symmetry_Int_Tables_number   1
_chemical_formula_structural   CdH12(C2O)6
_chemical_formula_sum   'Cd2 H24 C24 O12'
_cell_volume   605.12473273
_cell_formula_units_Z   2
loop_
 _symmetry_equiv_pos_site_id
 _symmetry_equiv_pos_as_xyz
  1  'x, y, z'
loop_
 _atom_site_type_symbol
 _atom_site_label
 _atom_site_symmetry_multiplicity
 _atom_site_fract_x
 _atom_site_fract_y
 _atom_site_fract_z
 _atom_site_occupancy
  Cd  Cd0  1  0.94074000  0.00059000  0.00007000  1.0
  Cd  Cd1  1  0.05927000  0.99939000  0.50008000  1.0
  H  H2  1  0.69940000  0.45824000  0.87143000  1.0
  H  H3  1  0.30061000  0.54174000  0.37142000  1.0
  H  H4  1  0.83875000  0.45924000  0.62834000  1.0
  H  H5  1  0.16124000  0.54076000  0.12834000  1.0
  H  H6  1  0.71268000  0.91771000  0.83903000  1.0
  H  H7  1  0.28735000  0.08228000  0.33900000  1.0
  H  H8  1  0.36654000  0.91851000  0.66109000  1.0
  H  H9  1  0.63345000  0.08151000  0.16108000  1.0
  H  H10  1  0.06763000  0.28029000  0.82699000  1.0
  H  H11  1  0.93241000  0.71970000  0.32698000  1.0
  H  H12  1  0.64990000  0.28085000  0.67300000  1.0
  H  H13  1  0.35009000  0.71915000  0.17301000  1.0
  H  H14  1  0.46016000  0.07839000  0.74999000  1.0
  H  H15  1  0.53985000  0.92162000  0.24999000  1.0
  H  H16  1  0.04232000  0.91157000  0.74993000  1.0
  H  H17  1  0.95769000  0.08842000  0.24992000  1.0
  H  H18  1  0.57285000  0.86265000  0.07155000  1.0
  H  H19  1  0.42713000  0.13738000  0.57156000  1.0
  H  H20  1  0.56513000  0.86332000  0.42857000  1.0
  H  H21  1  0.43486000  0.13669000  0.92857000  1.0
  H  H22  1  0.82925000  0.62472000  0.05055000  1.0
  H  H23  1  0.17072000  0.37530000  0.55055000  1.0
  H  H24  1  0.54778000  0.62475000  0.44939000  1.0
  H  H25  1  0.45221000  0.37526000  0.94940000  1.0
  C  C26  1  0.39053000  0.76203000  0.91466000  1.0
  C  C27  1  0.60944000  0.23798000  0.41465000  1.0
  C  C28  1  0.84481000  0.76302000  0.58546000  1.0
  C  C29  1  0.15520000  0.23702000  0.08545000  1.0
  C  C30  1  0.63751000  0.63947000  0.87242000  1.0
  C  C31  1  0.36255000  0.36051000  0.37241000  1.0
  C  C32  1  0.71979000  0.64047000  0.62749000  1.0
  C  C33  1  0.28018000  0.35952000  0.12749000  1.0
  C  C34  1  0.78076000  0.73538000  0.83666000  1.0
  C  C35  1  0.21929000  0.26460000  0.33665000  1.0
  C  C36  1  0.48072000  0.73619000  0.66329000  1.0
  C  C37  1  0.51925000  0.26381000  0.16329000  1.0
  C  C38  1  0.02186000  0.61220000  0.79334000  1.0
  C  C39  1  0.97819000  0.38778000  0.29334000  1.0
  C  C40  1  0.36279000  0.61268000  0.70651000  1.0
  C  C41  1  0.63717000  0.38731000  0.20651000  1.0
  C  C42  1  0.14434000  0.37589000  0.79299000  1.0
  C  C43  1  0.85568000  0.62410000  0.29298000  1.0
  C  C44  1  0.47749000  0.37629000  0.70699000  1.0
  C  C45  1  0.52250000  0.62369000  0.20698000  1.0
  C  C46  1  0.36852000  0.26100000  0.74996000  1.0
  C  C47  1  0.63149000  0.73901000  0.24996000  1.0
  C  C48  1  0.13441000  0.72798000  0.74994000  1.0
  C  C49  1  0.86558000  0.27203000  0.24993000  1.0
  O  O50  1  0.26664000  0.97818000  0.91300000  1.0
  O  O51  1  0.73340000  0.02180000  0.41300000  1.0
  O  O52  1  0.75343000  0.97903000  0.58720000  1.0
  O  O53  1  0.24655000  0.02097000  0.08719000  1.0
  O  O54  1  0.29514000  0.64944000  0.95328000  1.0
  O  O55  1  0.70486000  0.35054000  0.45327000  1.0
  O  O56  1  0.05289000  0.65032000  0.54686000  1.0
  O  O57  1  0.94712000  0.34968000  0.04686000  1.0
  O  O58  1  0.77368000  0.78959000  0.05993000  1.0
  O  O59  1  0.22630000  0.21043000  0.55993000  1.0
  O  O60  1  0.43787000  0.78973000  0.44014000  1.0
  O  O61  1  0.56213000  0.21028000  0.94014000  1.0
