# generated using pymatgen
data_ZnH11C17N2O5
_symmetry_space_group_name_H-M   'P 1'
_cell_length_a   7.98019000
_cell_length_b   11.58650000
_cell_length_c   15.39350000
_cell_angle_alpha   90.00000000
_cell_angle_beta   99.59090000
_cell_angle_gamma   90.00000000
_symmetry_Int_Tables_number   1
_chemical_formula_structural   ZnH11C17N2O5
_chemical_formula_sum   'Zn4 H44 C68 N8 O20'
_cell_volume   1403.42660062
_cell_formula_units_Z   4
loop_
 _symmetry_equiv_pos_site_id
 _symmetry_equiv_pos_as_xyz
  1  'x, y, z'
loop_
 _atom_site_type_symbol
 _atom_site_label
 _atom_site_symmetry_multiplicity
 _atom_site_fract_x
 _atom_site_fract_y
 _atom_site_fract_z
 _atom_site_occupancy
  Zn  Zn0  1  0.09022000  0.58967000  0.25694000  1.0
  Zn  Zn1  1  0.40978000  0.08968000  0.24306000  1.0
  Zn  Zn2  1  0.90978000  0.41032000  0.74307000  1.0
  Zn  Zn3  1  0.59021000  0.91032000  0.75693000  1.0
  H  H4  1  0.99223000  0.81631000  0.28173000  1.0
  H  H5  1  0.50777000  0.31631000  0.21827000  1.0
  H  H6  1  0.00777000  0.18369000  0.71827000  1.0
  H  H7  1  0.49222000  0.68369000  0.78173000  1.0
  H  H8  1  0.83218000  0.72106000  0.25366000  1.0
  H  H9  1  0.66782000  0.22106000  0.24634000  1.0
  H  H10  1  0.16782000  0.27894000  0.74634000  1.0
  H  H11  1  0.33218000  0.77894000  0.75366000  1.0
  H  H12  1  0.92616000  0.35331000  0.30692000  1.0
  H  H13  1  0.57383000  0.85331000  0.19308000  1.0
  H  H14  1  0.07383000  0.64669000  0.69308000  1.0
  H  H15  1  0.42617000  0.14670000  0.80692000  1.0
  H  H16  1  0.94633000  0.23607000  0.44345000  1.0
  H  H17  1  0.55367000  0.73607000  0.05655000  1.0
  H  H18  1  0.05367000  0.76393000  0.55655000  1.0
  H  H19  1  0.44633000  0.26393000  0.94345000  1.0
  H  H20  1  0.12997000  0.30473000  0.58191000  1.0
  H  H21  1  0.37003000  0.80473000  0.91809000  1.0
  H  H22  1  0.87003000  0.69527000  0.41809000  1.0
  H  H23  1  0.62997000  0.19527000  0.08191000  1.0
  H  H24  1  0.34314000  0.45313000  0.65531000  1.0
  H  H25  1  0.15687000  0.95313000  0.84469000  1.0
  H  H26  1  0.65687000  0.54687000  0.34469000  1.0
  H  H27  1  0.84313000  0.04687000  0.15531000  1.0
  H  H28  1  0.50781000  0.63016000  0.64364000  1.0
  H  H29  1  0.99219000  0.13016000  0.85636000  1.0
  H  H30  1  0.49219000  0.36984000  0.35636000  1.0
  H  H31  1  0.00781000  0.86984000  0.14364000  1.0
  H  H32  1  0.58609000  0.79871000  0.55065000  1.0
  H  H33  1  0.91391000  0.29871000  0.94935000  1.0
  H  H34  1  0.41391000  0.20129000  0.44935000  1.0
  H  H35  1  0.08609000  0.70129000  0.05065000  1.0
  H  H36  1  0.56339000  0.88555000  0.39881000  1.0
  H  H37  1  0.93661000  0.38555000  0.10119000  1.0
  H  H38  1  0.43661000  0.11445000  0.60119000  1.0
  H  H39  1  0.06339000  0.61445000  0.89881000  1.0
  H  H40  1  0.37019000  0.79479000  0.27410000  1.0
  H  H41  1  0.12981000  0.29479000  0.22589000  1.0
  H  H42  1  0.62981000  0.20521000  0.72589000  1.0
  H  H43  1  0.87019000  0.70521000  0.77411000  1.0
  H  H44  1  0.19087000  0.47369000  0.99387000  1.0
  H  H45  1  0.30913000  0.97369000  0.50613000  1.0
  H  H46  1  0.80913000  0.52631000  0.00613000  1.0
  H  H47  1  0.69087000  0.02631000  0.49387000  1.0
  C  C48  1  0.20408000  0.51314000  0.43623000  1.0
  C  C49  1  0.29592000  0.01314000  0.06377000  1.0
  C  C50  1  0.79592000  0.48687000  0.56377000  1.0
  C  C51  1  0.70408000  0.98686000  0.93623000  1.0
  C  C52  1  0.01035000  0.37941000  0.36675000  1.0
  C  C53  1  0.48965000  0.87941000  0.13325000  1.0
  C  C54  1  0.98965000  0.62059000  0.63325000  1.0
  C  C55  1  0.51035000  0.12059000  0.86675000  1.0
  C  C56  1  0.02118000  0.31436000  0.44436000  1.0
  C  C57  1  0.47882000  0.81436000  0.05564000  1.0
  C  C58  1  0.97882000  0.68564000  0.55564000  1.0
  C  C59  1  0.52118000  0.18564000  0.94436000  1.0
  C  C60  1  0.12418000  0.35192000  0.52017000  1.0
  C  C61  1  0.37582000  0.85192000  0.97983000  1.0
  C  C62  1  0.87582000  0.64808000  0.47983000  1.0
  C  C63  1  0.62418000  0.14808000  0.02017000  1.0
  C  C64  1  0.21954000  0.45429000  0.51794000  1.0
  C  C65  1  0.28046000  0.95429000  0.98206000  1.0
  C  C66  1  0.78046000  0.54571000  0.48206000  1.0
  C  C67  1  0.71954000  0.04571000  0.01794000  1.0
  C  C68  1  0.33011000  0.49976000  0.59291000  1.0
  C  C69  1  0.16990000  0.99976000  0.90709000  1.0
  C  C70  1  0.66989000  0.50024000  0.40709000  1.0
  C  C71  1  0.83011000  0.00024000  0.09291000  1.0
  C  C72  1  0.42065000  0.59883000  0.58655000  1.0
  C  C73  1  0.07935000  0.09883000  0.91345000  1.0
  C  C74  1  0.57935000  0.40117000  0.41345000  1.0
  C  C75  1  0.92065000  0.90117000  0.08655000  1.0
  C  C76  1  0.40888000  0.65986000  0.50511000  1.0
  C  C77  1  0.09112000  0.15986000  0.99489000  1.0
  C  C78  1  0.59112000  0.34015000  0.49489000  1.0
  C  C79  1  0.90888000  0.84014000  0.00511000  1.0
  C  C80  1  0.50367000  0.76039000  0.49423000  1.0
  C  C81  1  0.99633000  0.26039000  0.00577000  1.0
  C  C82  1  0.49633000  0.23961000  0.50577000  1.0
  C  C83  1  0.00367000  0.73961000  0.99423000  1.0
  C  C84  1  0.49191000  0.80894000  0.41134000  1.0
  C  C85  1  0.00809000  0.30894000  0.08866000  1.0
  C  C86  1  0.50809000  0.19106000  0.58866000  1.0
  C  C87  1  0.99191000  0.69106000  0.91134000  1.0
  C  C88  1  0.38368000  0.75839000  0.34013000  1.0
  C  C89  1  0.11632000  0.25838000  0.15988000  1.0
  C  C90  1  0.61632000  0.24161000  0.65987000  1.0
  C  C91  1  0.88368000  0.74161000  0.84012000  1.0
  C  C92  1  0.30208000  0.61598000  0.42952000  1.0
  C  C93  1  0.19792000  0.11598000  0.07048000  1.0
  C  C94  1  0.69792000  0.38402000  0.57048000  1.0
  C  C95  1  0.80208000  0.88402000  0.92952000  1.0
  C  C96  1  0.34615000  0.51214000  0.15855000  1.0
  C  C97  1  0.15385000  0.01214000  0.34145000  1.0
  C  C98  1  0.65385000  0.48786000  0.84145000  1.0
  C  C99  1  0.84615000  0.98786000  0.65855000  1.0
  C  C100  1  0.42859000  0.51063000  0.07741000  1.0
  C  C101  1  0.07141000  0.01063000  0.42259000  1.0
  C  C102  1  0.57141000  0.48937000  0.92259000  1.0
  C  C103  1  0.92859000  0.98937000  0.57741000  1.0
  C  C104  1  0.60493000  0.52478000  0.08134000  1.0
  C  C105  1  0.89507000  0.02478000  0.41866000  1.0
  C  C106  1  0.39507000  0.47522000  0.91866000  1.0
  C  C107  1  0.10493000  0.97522000  0.58134000  1.0
  C  C108  1  0.32668000  0.48698000  0.99632000  1.0
  C  C109  1  0.17332000  0.98698000  0.50368000  1.0
  C  C110  1  0.67332000  0.51302000  0.00368000  1.0
  C  C111  1  0.82668000  0.01302000  0.49632000  1.0
  C  C112  1  0.72034000  0.56754000  0.16290000  1.0
  C  C113  1  0.77966000  0.06754000  0.33710000  1.0
  C  C114  1  0.27966000  0.43246000  0.83710000  1.0
  C  C115  1  0.22034000  0.93246000  0.66290000  1.0
  N  N116  1  0.09972000  0.47584000  0.36260000  1.0
  N  N117  1  0.40028000  0.97584000  0.13740000  1.0
  N  N118  1  0.90028000  0.52416000  0.63740000  1.0
  N  N119  1  0.59972000  0.02416000  0.86260000  1.0
  N  N120  1  0.29039000  0.66562000  0.34921000  1.0
  N  N121  1  0.20961000  0.16562000  0.15079000  1.0
  N  N122  1  0.70962000  0.33438000  0.65079000  1.0
  N  N123  1  0.79039000  0.83438000  0.84921000  1.0
  O  O124  1  0.21758000  0.58023000  0.15540000  1.0
  O  O125  1  0.28242000  0.08023000  0.34460000  1.0
  O  O126  1  0.78242000  0.41977000  0.84460000  1.0
  O  O127  1  0.71758000  0.91977000  0.65540000  1.0
  O  O128  1  0.40013000  0.44470000  0.22103000  1.0
  O  O129  1  0.09987000  0.94470000  0.27897000  1.0
  O  O130  1  0.59987000  0.55530000  0.77897000  1.0
  O  O131  1  0.90013000  0.05530000  0.72103000  1.0
  O  O132  1  0.66567000  0.64930000  0.20509000  1.0
  O  O133  1  0.83433000  0.14930000  0.29491000  1.0
  O  O134  1  0.33432000  0.35070000  0.79491000  1.0
  O  O135  1  0.16567000  0.85070000  0.70509000  1.0
  O  O136  1  0.86914000  0.52275000  0.17977000  1.0
  O  O137  1  0.63086000  0.02276000  0.32023000  1.0
  O  O138  1  0.13086000  0.47724000  0.82023000  1.0
  O  O139  1  0.36914000  0.97725000  0.67977000  1.0
  O  O140  1  0.95264000  0.73459000  0.28367000  1.0
  O  O141  1  0.54735000  0.23459000  0.21633000  1.0
  O  O142  1  0.04736000  0.26541000  0.71633000  1.0
  O  O143  1  0.45264000  0.76541000  0.78367000  1.0
