# generated using pymatgen
data_ZnH7C8Br2N5
_symmetry_space_group_name_H-M   'P 1'
_cell_length_a   5.59450000
_cell_length_b   10.72240000
_cell_length_c   19.46270000
_cell_angle_alpha   89.99920000
_cell_angle_beta   90.00100000
_cell_angle_gamma   89.99910000
_symmetry_Int_Tables_number   1
_chemical_formula_structural   ZnH7C8Br2N5
_chemical_formula_sum   'Zn4 H28 C32 Br8 N20'
_cell_volume   1167.49860695
_cell_formula_units_Z   4
loop_
 _symmetry_equiv_pos_site_id
 _symmetry_equiv_pos_as_xyz
  1  'x, y, z'
loop_
 _atom_site_type_symbol
 _atom_site_label
 _atom_site_symmetry_multiplicity
 _atom_site_fract_x
 _atom_site_fract_y
 _atom_site_fract_z
 _atom_site_occupancy
  Zn  Zn0  1  0.69243000  0.20600000  0.10943000  1.0
  Zn  Zn1  1  0.19238000  0.79401000  0.39058000  1.0
  Zn  Zn2  1  0.30760000  0.29400000  0.60942000  1.0
  Zn  Zn3  1  0.80758000  0.70600000  0.89057000  1.0
  H  H4  1  0.97985000  0.01105000  0.98860000  1.0
  H  H5  1  0.47976000  0.98895000  0.51140000  1.0
  H  H6  1  0.02018000  0.48893000  0.48860000  1.0
  H  H7  1  0.52017000  0.51105000  0.01140000  1.0
  H  H8  1  0.29568000  0.03575000  0.07808000  1.0
  H  H9  1  0.79558000  0.96425000  0.42192000  1.0
  H  H10  1  0.70435000  0.46422000  0.57807000  1.0
  H  H11  1  0.20434000  0.53575000  0.92192000  1.0
  H  H12  1  0.63280000  0.31547000  0.96655000  1.0
  H  H13  1  0.13273000  0.68454000  0.53344000  1.0
  H  H14  1  0.36726000  0.18450000  0.46654000  1.0
  H  H15  1  0.86722000  0.81547000  0.03344000  1.0
  H  H16  1  0.33287000  0.30086000  0.87176000  1.0
  H  H17  1  0.83281000  0.69915000  0.62824000  1.0
  H  H18  1  0.66721000  0.19911000  0.37175000  1.0
  H  H19  1  0.16715000  0.80086000  0.12824000  1.0
  H  H20  1  0.81292000  0.06349000  0.88197000  1.0
  H  H21  1  0.31287000  0.93652000  0.61803000  1.0
  H  H22  1  0.18713000  0.43650000  0.38197000  1.0
  H  H23  1  0.68710000  0.56349000  0.11803000  1.0
  H  H24  1  0.81126000  0.34718000  0.70785000  1.0
  H  H25  1  0.31124000  0.65282000  0.79215000  1.0
  H  H26  1  0.18878000  0.15281000  0.20786000  1.0
  H  H27  1  0.68874000  0.84719000  0.29214000  1.0
  H  H28  1  0.56300000  0.01868000  0.80763000  1.0
  H  H29  1  0.06298000  0.98134000  0.69237000  1.0
  H  H30  1  0.43701000  0.48133000  0.30763000  1.0
  H  H31  1  0.93700000  0.51868000  0.19238000  1.0
  C  C32  1  0.13240000  0.15306000  0.92255000  1.0
  C  C33  1  0.63236000  0.84695000  0.57746000  1.0
  C  C34  1  0.86764000  0.34693000  0.42254000  1.0
  C  C35  1  0.36762000  0.65306000  0.07746000  1.0
  C  C36  1  0.12333000  0.07855000  0.98152000  1.0
  C  C37  1  0.62324000  0.92146000  0.51849000  1.0
  C  C38  1  0.87672000  0.42143000  0.48151000  1.0
  C  C39  1  0.37669000  0.57855000  0.01849000  1.0
  C  C40  1  0.29793000  0.09244000  0.03164000  1.0
  C  C41  1  0.79785000  0.90757000  0.46836000  1.0
  C  C42  1  0.70210000  0.40754000  0.53163000  1.0
  C  C43  1  0.20209000  0.59244000  0.96837000  1.0
  C  C44  1  0.48559000  0.24872000  0.96892000  1.0
  C  C45  1  0.98553000  0.75129000  0.53108000  1.0
  C  C46  1  0.51446000  0.25125000  0.46891000  1.0
  C  C47  1  0.01443000  0.74872000  0.03108000  1.0
  C  C48  1  0.31946000  0.23985000  0.91634000  1.0
  C  C49  1  0.81941000  0.76016000  0.58366000  1.0
  C  C50  1  0.68058000  0.26013000  0.41633000  1.0
  C  C51  1  0.18054000  0.73985000  0.08366000  1.0
  C  C52  1  0.94432000  0.13733000  0.87146000  1.0
  C  C53  1  0.44427000  0.86269000  0.62853000  1.0
  C  C54  1  0.05573000  0.36266000  0.37146000  1.0
  C  C55  1  0.55569000  0.63733000  0.12854000  1.0
  C  C56  1  0.70301000  0.26568000  0.71988000  1.0
  C  C57  1  0.20300000  0.73432000  0.78011000  1.0
  C  C58  1  0.29702000  0.23432000  0.21989000  1.0
  C  C59  1  0.79699000  0.76568000  0.28011000  1.0
  C  C60  1  0.57431000  0.09661000  0.77211000  1.0
  C  C61  1  0.07429000  0.90341000  0.72790000  1.0
  C  C62  1  0.42571000  0.40340000  0.27211000  1.0
  C  C63  1  0.92569000  0.59661000  0.22790000  1.0
  Br  Br64  1  0.82799000  0.00905000  0.15084000  1.0
  Br  Br65  1  0.32795000  0.99095000  0.34917000  1.0
  Br  Br66  1  0.17207000  0.49094000  0.65081000  1.0
  Br  Br67  1  0.67203000  0.50906000  0.84917000  1.0
  Br  Br68  1  0.96281000  0.36858000  0.07915000  1.0
  Br  Br69  1  0.46278000  0.63143000  0.42086000  1.0
  Br  Br70  1  0.03720000  0.13142000  0.57915000  1.0
  Br  Br71  1  0.53720000  0.86858000  0.92085000  1.0
  N  N72  1  0.47471000  0.17664000  0.02587000  1.0
  N  N73  1  0.97463000  0.82337000  0.47413000  1.0
  N  N74  1  0.52534000  0.32333000  0.52585000  1.0
  N  N75  1  0.02531000  0.67664000  0.97413000  1.0
  N  N76  1  0.93683000  0.20858000  0.81815000  1.0
  N  N77  1  0.43680000  0.79142000  0.68186000  1.0
  N  N78  1  0.06320000  0.29142000  0.31815000  1.0
  N  N79  1  0.56317000  0.70858000  0.18185000  1.0
  N  N80  1  0.74930000  0.18797000  0.77386000  1.0
  N  N81  1  0.24928000  0.81204000  0.72614000  1.0
  N  N82  1  0.25073000  0.31203000  0.27386000  1.0
  N  N83  1  0.75070000  0.68798000  0.22614000  1.0
  N  N84  1  0.51220000  0.22388000  0.68748000  1.0
  N  N85  1  0.01218000  0.77612000  0.81252000  1.0
  N  N86  1  0.48783000  0.27612000  0.18748000  1.0
  N  N87  1  0.98780000  0.72389000  0.31252000  1.0
  N  N88  1  0.43113000  0.11703000  0.72003000  1.0
  N  N89  1  0.93112000  0.88298000  0.77997000  1.0
  N  N90  1  0.56889000  0.38298000  0.22003000  1.0
  N  N91  1  0.06887000  0.61703000  0.27998000  1.0
