# generated using pymatgen
data_LiBH10C3O2
_symmetry_space_group_name_H-M   'P 1'
_cell_length_a   7.00915000
_cell_length_b   12.69800000
_cell_length_c   13.15590000
_cell_angle_alpha   89.99980000
_cell_angle_beta   102.31600000
_cell_angle_gamma   89.99990000
_symmetry_Int_Tables_number   1
_chemical_formula_structural   LiBH10C3O2
_chemical_formula_sum   'Li8 B8 H80 C24 O16'
_cell_volume   1143.95674145
_cell_formula_units_Z   8
loop_
 _symmetry_equiv_pos_site_id
 _symmetry_equiv_pos_as_xyz
  1  'x, y, z'
loop_
 _atom_site_type_symbol
 _atom_site_label
 _atom_site_symmetry_multiplicity
 _atom_site_fract_x
 _atom_site_fract_y
 _atom_site_fract_z
 _atom_site_occupancy
  Li  Li0  1  0.68809000  0.79187000  0.57086000  1.0
  Li  Li1  1  0.81191000  0.29187000  0.92914000  1.0
  Li  Li2  1  0.31191000  0.20813000  0.42914000  1.0
  Li  Li3  1  0.18809000  0.70813000  0.07086000  1.0
  Li  Li4  1  0.12925000  0.02925000  0.77643000  1.0
  Li  Li5  1  0.37075000  0.52925000  0.72357000  1.0
  Li  Li6  1  0.87075000  0.97075000  0.22357000  1.0
  Li  Li7  1  0.62925000  0.47075000  0.27643000  1.0
  B  B8  1  0.48853000  0.67124000  0.63928000  1.0
  B  B9  1  0.01147000  0.17124000  0.86072000  1.0
  B  B10  1  0.51147000  0.32876000  0.36072000  1.0
  B  B11  1  0.98853000  0.82876000  0.13928000  1.0
  B  B12  1  0.89863000  0.91399000  0.67687000  1.0
  B  B13  1  0.60137000  0.41399000  0.82313000  1.0
  B  B14  1  0.10137000  0.08601000  0.32313000  1.0
  B  B15  1  0.39863000  0.58601000  0.17687000  1.0
  H  H16  1  0.95590000  0.85035000  0.61962000  1.0
  H  H17  1  0.54410000  0.35035000  0.88038000  1.0
  H  H18  1  0.04411000  0.14965000  0.38038000  1.0
  H  H19  1  0.45589000  0.64965000  0.11962000  1.0
  H  H20  1  0.72243000  0.90765000  0.67182000  1.0
  H  H21  1  0.77757000  0.40765000  0.82819000  1.0
  H  H22  1  0.27757000  0.09235000  0.32819000  1.0
  H  H23  1  0.22243000  0.59235000  0.17182000  1.0
  H  H24  1  0.98221000  0.89609000  0.76695000  1.0
  H  H25  1  0.51779000  0.39609000  0.73305000  1.0
  H  H26  1  0.01779000  0.10391000  0.23305000  1.0
  H  H27  1  0.48221000  0.60391000  0.26695000  1.0
  H  H28  1  0.93231000  0.00324000  0.64886000  1.0
  H  H29  1  0.56769000  0.50324000  0.85114000  1.0
  H  H30  1  0.06769000  0.99676000  0.35114000  1.0
  H  H31  1  0.43231000  0.49676000  0.14886000  1.0
  H  H32  1  0.39884000  0.94184000  0.22774000  1.0
  H  H33  1  0.10116000  0.44184000  0.27226000  1.0
  H  H34  1  0.60116000  0.05816000  0.77226000  1.0
  H  H35  1  0.89884000  0.55816000  0.72774000  1.0
  H  H36  1  0.52718000  0.82124000  0.21500000  1.0
  H  H37  1  0.97282000  0.32123000  0.28500000  1.0
  H  H38  1  0.47282000  0.17876000  0.78500000  1.0
  H  H39  1  0.02718000  0.67877000  0.71500000  1.0
  H  H40  1  0.44315000  0.75390000  0.37076000  1.0
  H  H41  1  0.05685000  0.25390000  0.12924000  1.0
  H  H42  1  0.55685000  0.24610000  0.62924000  1.0
  H  H43  1  0.94315000  0.74610000  0.87076000  1.0
  H  H44  1  0.28316000  0.86584000  0.36475000  1.0
  H  H45  1  0.21684000  0.36584000  0.13525000  1.0
  H  H46  1  0.71684000  0.13416000  0.63525000  1.0
  H  H47  1  0.78316000  0.63416000  0.86475000  1.0
  H  H48  1  0.58288000  0.04060000  0.40541000  1.0
  H  H49  1  0.91711000  0.54060000  0.09459000  1.0
  H  H50  1  0.41712000  0.95940000  0.59459000  1.0
  H  H51  1  0.08289000  0.45940000  0.90541000  1.0
  H  H52  1  0.81418000  0.97743000  0.46272000  1.0
  H  H53  1  0.68582000  0.47742000  0.03728000  1.0
  H  H54  1  0.18582000  0.02257000  0.53728000  1.0
  H  H55  1  0.31418000  0.52257000  0.96271000  1.0
  H  H56  1  0.51817000  0.57812000  0.62288000  1.0
  H  H57  1  0.98183000  0.07812000  0.87712000  1.0
  H  H58  1  0.48183000  0.42188000  0.37712000  1.0
  H  H59  1  0.01817000  0.92188000  0.12288000  1.0
  H  H60  1  0.64094000  0.70938000  0.68883000  1.0
  H  H61  1  0.85905000  0.20938000  0.81117000  1.0
  H  H62  1  0.35906000  0.29062000  0.31117000  1.0
  H  H63  1  0.14095000  0.79062000  0.18883000  1.0
  H  H64  1  0.43282000  0.71581000  0.55545000  1.0
  H  H65  1  0.06718000  0.21581000  0.94455000  1.0
  H  H66  1  0.56718000  0.28419000  0.44455000  1.0
  H  H67  1  0.93282000  0.78420000  0.05545000  1.0
  H  H68  1  0.36187000  0.68200000  0.68964000  1.0
  H  H69  1  0.13813000  0.18200000  0.81036000  1.0
  H  H70  1  0.63813000  0.31800000  0.31036000  1.0
  H  H71  1  0.86187000  0.81800000  0.18964000  1.0
  H  H72  1  0.10854000  0.69583000  0.49096000  1.0
  H  H73  1  0.39146000  0.19583000  0.00904000  1.0
  H  H74  1  0.89146000  0.30417000  0.50904000  1.0
  H  H75  1  0.60854000  0.80417000  0.99096000  1.0
  H  H76  1  0.96263000  0.79528000  0.41271000  1.0
  H  H77  1  0.53737000  0.29528000  0.08729000  1.0
  H  H78  1  0.03737000  0.20472000  0.58729000  1.0
  H  H79  1  0.46263000  0.70472000  0.91271000  1.0
  H  H80  1  0.06328000  0.60834000  0.32190000  1.0
  H  H81  1  0.43672000  0.10834000  0.17810000  1.0
  H  H82  1  0.93672000  0.39166000  0.67810000  1.0
  H  H83  1  0.56328000  0.89166000  0.82190000  1.0
  H  H84  1  0.83203000  0.67130000  0.27559000  1.0
  H  H85  1  0.66797000  0.17130000  0.22441000  1.0
  H  H86  1  0.16797000  0.32870000  0.72441000  1.0
  H  H87  1  0.33202000  0.82870000  0.77559000  1.0
  H  H88  1  0.87801000  0.54065000  0.54258000  1.0
  H  H89  1  0.62199000  0.04064000  0.95742000  1.0
  H  H90  1  0.12199000  0.45935000  0.45742000  1.0
  H  H91  1  0.37801000  0.95936000  0.04258000  1.0
  H  H92  1  0.62612000  0.56298000  0.47520000  1.0
  H  H93  1  0.87387000  0.06298000  0.02480000  1.0
  H  H94  1  0.37387000  0.43702000  0.52480000  1.0
  H  H95  1  0.12612000  0.93702000  0.97520000  1.0
  C  C96  1  0.50115000  0.88264000  0.26894000  1.0
  C  C97  1  0.99884000  0.38264000  0.23106000  1.0
  C  C98  1  0.49885000  0.11736000  0.73106000  1.0
  C  C99  1  0.00116000  0.61736000  0.76894000  1.0
  C  C100  1  0.43213000  0.83985000  0.36426000  1.0
  C  C101  1  0.06787000  0.33985000  0.13574000  1.0
  C  C102  1  0.56787000  0.16015000  0.63574000  1.0
  C  C103  1  0.93213000  0.66015000  0.86426000  1.0
  C  C104  1  0.66904000  0.96735000  0.41255000  1.0
  C  C105  1  0.83095000  0.46735000  0.08745000  1.0
  C  C106  1  0.33096000  0.03265000  0.58745000  1.0
  C  C107  1  0.16905000  0.53265000  0.91255000  1.0
  C  C108  1  0.96979000  0.71231000  0.43589000  1.0
  C  C109  1  0.53021000  0.21231000  0.06411000  1.0
  C  C110  1  0.03020000  0.28769000  0.56411000  1.0
  C  C111  1  0.46979000  0.78769000  0.93589000  1.0
  C  C112  1  0.92986000  0.63695000  0.34392000  1.0
  C  C113  1  0.57014000  0.13694000  0.15608000  1.0
  C  C114  1  0.07014000  0.36305000  0.65608000  1.0
  C  C115  1  0.42986000  0.86305000  0.84392000  1.0
  C  C116  1  0.77990000  0.58071000  0.47740000  1.0
  C  C117  1  0.72010000  0.08071000  0.02260000  1.0
  C  C118  1  0.22010000  0.41929000  0.52260000  1.0
  C  C119  1  0.27990000  0.91929000  0.97740000  1.0
  O  O120  1  0.68762000  0.93122000  0.31286000  1.0
  O  O121  1  0.81238000  0.43122000  0.18714000  1.0
  O  O122  1  0.31238000  0.06878000  0.68714000  1.0
  O  O123  1  0.18762000  0.56878000  0.81286000  1.0
  O  O124  1  0.56805000  0.88494000  0.45278000  1.0
  O  O125  1  0.93195000  0.38494000  0.04722000  1.0
  O  O126  1  0.43195000  0.11506000  0.54722000  1.0
  O  O127  1  0.06806000  0.61506000  0.95278000  1.0
  O  O128  1  0.80703000  0.69124000  0.48475000  1.0
  O  O129  1  0.69297000  0.19124000  0.01525000  1.0
  O  O130  1  0.19297000  0.30876000  0.51525000  1.0
  O  O131  1  0.30703000  0.80876000  0.98475000  1.0
  O  O132  1  0.83093000  0.54887000  0.38158000  1.0
  O  O133  1  0.66907000  0.04887000  0.11842000  1.0
  O  O134  1  0.16907000  0.45113000  0.61842000  1.0
  O  O135  1  0.33093000  0.95113000  0.88158000  1.0
