# generated using pymatgen
data_CoH24C22SN4O7
_symmetry_space_group_name_H-M   'P 1'
_cell_length_a   8.35706000
_cell_length_b   11.32700000
_cell_length_c   11.84770000
_cell_angle_alpha   103.67100000
_cell_angle_beta   89.99960000
_cell_angle_gamma   89.99970000
_symmetry_Int_Tables_number   1
_chemical_formula_structural   CoH24C22SN4O7
_chemical_formula_sum   'Co2 H48 C44 S2 N8 O14'
_cell_volume   1089.73464595
_cell_formula_units_Z   2
loop_
 _symmetry_equiv_pos_site_id
 _symmetry_equiv_pos_as_xyz
  1  'x, y, z'
loop_
 _atom_site_type_symbol
 _atom_site_label
 _atom_site_symmetry_multiplicity
 _atom_site_fract_x
 _atom_site_fract_y
 _atom_site_fract_z
 _atom_site_occupancy
  Co  Co0  1  0.51886000  0.84346000  0.65129000  1.0
  Co  Co1  1  0.01887000  0.15653000  0.34871000  1.0
  H  H2  1  0.54856000  0.43839000  0.26573000  1.0
  H  H3  1  0.04858000  0.56161000  0.73427000  1.0
  H  H4  1  0.44519000  0.64265000  0.26753000  1.0
  H  H5  1  0.94521000  0.35736000  0.73246000  1.0
  H  H6  1  0.37096000  0.27769000  0.31214000  1.0
  H  H7  1  0.87096000  0.72231000  0.68786000  1.0
  H  H8  1  0.15842000  0.69508000  0.31292000  1.0
  H  H9  1  0.65843000  0.30491000  0.68708000  1.0
  H  H10  1  0.79079000  0.37320000  0.39936000  1.0
  H  H11  1  0.29079000  0.62680000  0.60064000  1.0
  H  H12  1  0.75455000  0.81350000  0.28934000  1.0
  H  H13  1  0.25456000  0.18650000  0.71067000  1.0
  H  H14  1  0.63428000  0.92859000  0.17024000  1.0
  H  H15  1  0.13428000  0.07141000  0.82976000  1.0
  H  H16  1  0.79251000  0.91473000  0.06909000  1.0
  H  H17  1  0.29251000  0.08527000  0.93091000  1.0
  H  H18  1  0.15122000  0.80699000  0.76174000  1.0
  H  H19  1  0.65122000  0.19301000  0.23826000  1.0
  H  H20  1  0.06415000  0.77265000  0.11202000  1.0
  H  H21  1  0.56416000  0.22735000  0.88797000  1.0
  H  H22  1  0.96915000  0.76409000  0.91312000  1.0
  H  H23  1  0.46915000  0.23591000  0.08687000  1.0
  H  H24  1  0.69215000  0.65014000  0.92539000  1.0
  H  H25  1  0.19214000  0.34986000  0.07461000  1.0
  H  H26  1  0.83594000  0.42934000  0.15676000  1.0
  H  H27  1  0.33595000  0.57066000  0.84324000  1.0
  H  H28  1  0.72943000  0.90520000  0.86429000  1.0
  H  H29  1  0.22943000  0.09481000  0.13571000  1.0
  H  H30  1  0.34918000  0.82114000  0.16717000  1.0
  H  H31  1  0.84919000  0.17886000  0.83283000  1.0
  H  H32  1  0.76807000  0.45051000  0.95977000  1.0
  H  H33  1  0.26806000  0.54949000  0.04023000  1.0
  H  H34  1  0.88065000  0.69633000  0.41302000  1.0
  H  H35  1  0.38067000  0.30367000  0.58698000  1.0
  H  H36  1  0.72222000  0.59216000  0.40424000  1.0
  H  H37  1  0.22223000  0.40783000  0.59576000  1.0
  H  H38  1  0.50673000  0.84577000  0.43516000  1.0
  H  H39  1  0.00675000  0.15422000  0.56484000  1.0
  H  H40  1  0.68817000  0.85273000  0.48101000  1.0
  H  H41  1  0.18818000  0.14727000  0.51899000  1.0
  H  H42  1  0.44767000  0.04464000  0.60354000  1.0
  H  H43  1  0.94767000  0.95536000  0.39646000  1.0
  H  H44  1  0.61141000  0.05552000  0.67051000  1.0
  H  H45  1  0.11143000  0.94449000  0.32950000  1.0
  H  H46  1  0.27933000  0.83561000  0.49745000  1.0
  H  H47  1  0.77933000  0.16439000  0.50255000  1.0
  H  H48  1  0.19006000  0.88486000  0.61255000  1.0
  H  H49  1  0.69006000  0.11514000  0.38745000  1.0
  C  C50  1  0.42349000  0.45867000  0.28829000  1.0
  C  C51  1  0.92350000  0.54133000  0.71172000  1.0
  C  C52  1  0.36427000  0.57517000  0.28808000  1.0
  C  C53  1  0.86428000  0.42482000  0.71192000  1.0
  C  C54  1  0.32608000  0.36799000  0.31266000  1.0
  C  C55  1  0.82608000  0.63201000  0.68734000  1.0
  C  C56  1  0.16458000  0.39640000  0.33660000  1.0
  C  C57  1  0.66458000  0.60359000  0.66341000  1.0
  C  C58  1  0.20449000  0.60518000  0.31298000  1.0
  C  C59  1  0.70450000  0.39482000  0.68701000  1.0
  C  C60  1  0.10689000  0.51441000  0.33771000  1.0
  C  C61  1  0.60690000  0.48559000  0.66229000  1.0
  C  C62  1  0.90904000  0.40048000  0.37748000  1.0
  C  C63  1  0.40905000  0.59952000  0.62252000  1.0
  C  C64  1  0.71870000  0.74527000  0.10613000  1.0
  C  C65  1  0.21871000  0.25473000  0.89387000  1.0
  C  C66  1  0.40880000  0.83979000  0.99324000  1.0
  C  C67  1  0.90881000  0.16022000  0.00676000  1.0
  C  C68  1  0.79856000  0.62006000  0.23775000  1.0
  C  C69  1  0.29856000  0.37994000  0.76225000  1.0
  C  C70  1  0.75688000  0.73299000  0.21775000  1.0
  C  C71  1  0.25688000  0.26701000  0.78225000  1.0
  C  C72  1  0.68236000  0.87096000  0.08967000  1.0
  C  C73  1  0.18236000  0.12904000  0.91032000  1.0
  C  C74  1  0.35580000  0.83575000  0.87844000  1.0
  C  C75  1  0.85580000  0.16425000  0.12156000  1.0
  C  C76  1  0.19536000  0.80932000  0.84853000  1.0
  C  C77  1  0.69536000  0.19068000  0.15147000  1.0
  C  C78  1  0.14831000  0.79095000  0.04789000  1.0
  C  C79  1  0.64831000  0.20905000  0.95211000  1.0
  C  C80  1  0.09383000  0.78714000  0.93450000  1.0
  C  C81  1  0.59383000  0.21286000  0.06549000  1.0
  C  C82  1  0.72183000  0.64271000  0.01314000  1.0
  C  C83  1  0.22183000  0.35729000  0.98686000  1.0
  C  C84  1  0.80293000  0.51837000  0.14378000  1.0
  C  C85  1  0.30294000  0.48162000  0.85622000  1.0
  C  C86  1  0.61018000  0.88184000  0.88781000  1.0
  C  C87  1  0.11017000  0.11816000  0.11220000  1.0
  C  C88  1  0.30730000  0.81713000  0.07931000  1.0
  C  C89  1  0.80731000  0.18287000  0.92068000  1.0
  C  C90  1  0.76451000  0.53002000  0.03229000  1.0
  C  C91  1  0.26451000  0.46998000  0.96772000  1.0
  C  C92  1  0.83282000  0.61030000  0.36097000  1.0
  C  C93  1  0.33283000  0.38970000  0.63903000  1.0
  S  S94  1  0.88803000  0.97446000  0.62294000  1.0
  S  S95  1  0.38804000  0.02554000  0.37706000  1.0
  N  N96  1  0.48623000  0.86229000  0.81472000  1.0
  N  N97  1  0.98623000  0.13771000  0.18528000  1.0
  N  N98  1  0.57012000  0.86947000  0.99533000  1.0
  N  N99  1  0.07012000  0.13053000  0.00468000  1.0
  N  N100  1  0.94564000  0.51364000  0.36494000  1.0
  N  N101  1  0.44565000  0.48635000  0.63507000  1.0
  N  N102  1  0.03604000  0.32724000  0.36089000  1.0
  N  N103  1  0.53605000  0.67276000  0.63911000  1.0
  O  O104  1  0.80104000  0.90925000  0.69808000  1.0
  O  O105  1  0.30104000  0.09075000  0.30192000  1.0
  O  O106  1  0.87358000  0.90203000  0.49864000  1.0
  O  O107  1  0.37358000  0.09797000  0.50136000  1.0
  O  O108  1  0.81400000  0.09785000  0.63165000  1.0
  O  O109  1  0.31401000  0.90215000  0.36835000  1.0
  O  O110  1  0.05867000  0.99244000  0.65574000  1.0
  O  O111  1  0.55867000  0.00756000  0.34424000  1.0
  O  O112  1  0.58093000  0.81370000  0.48524000  1.0
  O  O113  1  0.08094000  0.18630000  0.51476000  1.0
  O  O114  1  0.50218000  0.02147000  0.67119000  1.0
  O  O115  1  0.00219000  0.97854000  0.32882000  1.0
  O  O116  1  0.26929000  0.82098000  0.57592000  1.0
  O  O117  1  0.76929000  0.17902000  0.42408000  1.0
