# generated using pymatgen
data_AgH2C6N4ClO4
_symmetry_space_group_name_H-M   'P 1'
_cell_length_a   7.88400000
_cell_length_b   7.88397000
_cell_length_c   15.09670000
_cell_angle_alpha   90.00020000
_cell_angle_beta   90.00000000
_cell_angle_gamma   90.00000000
_symmetry_Int_Tables_number   1
_chemical_formula_structural   AgH2C6N4ClO4
_chemical_formula_sum   'Ag4 H8 C24 N16 Cl4 O16'
_cell_volume   938.36889532
_cell_formula_units_Z   4
loop_
 _symmetry_equiv_pos_site_id
 _symmetry_equiv_pos_as_xyz
  1  'x, y, z'
loop_
 _atom_site_type_symbol
 _atom_site_label
 _atom_site_symmetry_multiplicity
 _atom_site_fract_x
 _atom_site_fract_y
 _atom_site_fract_z
 _atom_site_occupancy
  Ag  Ag0  1  0.75000000  0.25000000  0.10324000  1.0
  Ag  Ag1  1  0.25000000  0.75000000  0.60324000  1.0
  Ag  Ag2  1  0.25000000  0.75000000  0.89676000  1.0
  Ag  Ag3  1  0.75000000  0.25000000  0.39676000  1.0
  H  H4  1  0.75000000  0.59003000  0.95841000  1.0
  H  H5  1  0.90997000  0.75000000  0.45841000  1.0
  H  H6  1  0.25000000  0.40998000  0.04159000  1.0
  H  H7  1  0.75000000  0.90998000  0.95841000  1.0
  H  H8  1  0.09003000  0.25000000  0.54159000  1.0
  H  H9  1  0.59003000  0.75000000  0.45841000  1.0
  H  H10  1  0.25000000  0.09003000  0.04159000  1.0
  H  H11  1  0.40997000  0.25000000  0.54159000  1.0
  C  C12  1  0.75000000  0.56906000  0.25316000  1.0
  C  C13  1  0.93094000  0.75000000  0.75316000  1.0
  C  C14  1  0.25000000  0.43094000  0.74683000  1.0
  C  C15  1  0.75000000  0.93094000  0.25317000  1.0
  C  C16  1  0.06906000  0.25000000  0.24684000  1.0
  C  C17  1  0.56906000  0.75000000  0.75316000  1.0
  C  C18  1  0.25000000  0.06906000  0.74683000  1.0
  C  C19  1  0.43094000  0.25000000  0.24684000  1.0
  C  C20  1  0.75000000  0.66070000  0.17158000  1.0
  C  C21  1  0.83930000  0.75000000  0.67158000  1.0
  C  C22  1  0.25000000  0.33930000  0.82842000  1.0
  C  C23  1  0.75000000  0.83930000  0.17158000  1.0
  C  C24  1  0.16070000  0.25000000  0.32842000  1.0
  C  C25  1  0.66070000  0.75000000  0.67158000  1.0
  C  C26  1  0.25000000  0.16070000  0.82842000  1.0
  C  C27  1  0.33930000  0.25000000  0.32842000  1.0
  C  C28  1  0.75000000  0.66077000  0.02049000  1.0
  C  C29  1  0.83924000  0.75000000  0.52050000  1.0
  C  C30  1  0.25000000  0.33924000  0.97950000  1.0
  C  C31  1  0.75000000  0.83924000  0.02050000  1.0
  C  C32  1  0.16076000  0.25000000  0.47950000  1.0
  C  C33  1  0.66076000  0.75000000  0.52050000  1.0
  C  C34  1  0.25000000  0.16076000  0.97950000  1.0
  C  C35  1  0.33924000  0.25000000  0.47951000  1.0
  N  N36  1  0.75000000  0.49657000  0.32046000  1.0
  N  N37  1  0.00343000  0.75000000  0.82046000  1.0
  N  N38  1  0.25000000  0.50343000  0.67954000  1.0
  N  N39  1  0.75000000  0.00343000  0.32046000  1.0
  N  N40  1  0.99657000  0.25000000  0.17954000  1.0
  N  N41  1  0.49657000  0.75000000  0.82046000  1.0
  N  N42  1  0.25000000  0.99657000  0.67954000  1.0
  N  N43  1  0.50343000  0.25000000  0.17954000  1.0
  N  N44  1  0.75000000  0.57183000  0.09545000  1.0
  N  N45  1  0.92817000  0.75000000  0.59545000  1.0
  N  N46  1  0.25000000  0.42817000  0.90455000  1.0
  N  N47  1  0.75000000  0.92817000  0.09545000  1.0
  N  N48  1  0.07183000  0.25000000  0.40455000  1.0
  N  N49  1  0.57183000  0.75000000  0.59545000  1.0
  N  N50  1  0.25000000  0.07183000  0.90455000  1.0
  N  N51  1  0.42817000  0.25000000  0.40455000  1.0
  Cl  Cl52  1  0.75000000  0.25000000  0.89058000  1.0
  Cl  Cl53  1  0.25000000  0.75000000  0.39058000  1.0
  Cl  Cl54  1  0.25000000  0.75000000  0.10942000  1.0
  Cl  Cl55  1  0.75000000  0.25000000  0.60942000  1.0
  O  O56  1  0.90081000  0.24999000  0.94883000  1.0
  O  O57  1  0.25000000  0.90081000  0.44884000  1.0
  O  O58  1  0.40081000  0.75000000  0.05117000  1.0
  O  O59  1  0.59919000  0.24999000  0.94883000  1.0
  O  O60  1  0.75000000  0.40081000  0.55116000  1.0
  O  O61  1  0.25000000  0.59919000  0.44884000  1.0
  O  O62  1  0.09919000  0.75000000  0.05117000  1.0
  O  O63  1  0.75000000  0.09919000  0.55116000  1.0
  O  O64  1  0.75000000  0.09742000  0.83684000  1.0
  O  O65  1  0.40258000  0.75000000  0.33685000  1.0
  O  O66  1  0.25000000  0.90258000  0.16315000  1.0
  O  O67  1  0.75000000  0.40258000  0.83685000  1.0
  O  O68  1  0.59742000  0.25000000  0.66315000  1.0
  O  O69  1  0.09742000  0.75000000  0.33685000  1.0
  O  O70  1  0.25000000  0.59742000  0.16315000  1.0
  O  O71  1  0.90258000  0.25000000  0.66315000  1.0
