# generated using pymatgen
data_CuH9C11SN3O4
_symmetry_space_group_name_H-M   'P 1'
_cell_length_a   6.73402000
_cell_length_b   11.99180000
_cell_length_c   15.21820000
_cell_angle_alpha   89.27590000
_cell_angle_beta   89.99820000
_cell_angle_gamma   89.99820000
_symmetry_Int_Tables_number   1
_chemical_formula_structural   CuH9C11SN3O4
_chemical_formula_sum   'Cu4 H36 C44 S4 N12 O16'
_cell_volume   1228.81748533
_cell_formula_units_Z   4
loop_
 _symmetry_equiv_pos_site_id
 _symmetry_equiv_pos_as_xyz
  1  'x, y, z'
loop_
 _atom_site_type_symbol
 _atom_site_label
 _atom_site_symmetry_multiplicity
 _atom_site_fract_x
 _atom_site_fract_y
 _atom_site_fract_z
 _atom_site_occupancy
  Cu  Cu0  1  0.19139000  0.50848000  0.75168000  1.0
  Cu  Cu1  1  0.69140000  0.49151000  0.74830000  1.0
  Cu  Cu2  1  0.80861000  0.49152000  0.24832000  1.0
  Cu  Cu3  1  0.30861000  0.50848000  0.25170000  1.0
  H  H4  1  0.68865000  0.98540000  0.78357000  1.0
  H  H5  1  0.18866000  0.01459000  0.71644000  1.0
  H  H6  1  0.31136000  0.01461000  0.21643000  1.0
  H  H7  1  0.81135000  0.98541000  0.28357000  1.0
  H  H8  1  0.57386000  0.13617000  0.88259000  1.0
  H  H9  1  0.07388000  0.86382000  0.61741000  1.0
  H  H10  1  0.42614000  0.86384000  0.11741000  1.0
  H  H11  1  0.92612000  0.13618000  0.38259000  1.0
  H  H12  1  0.25365000  0.11764000  0.96353000  1.0
  H  H13  1  0.75368000  0.88236000  0.53647000  1.0
  H  H14  1  0.74634000  0.88237000  0.03647000  1.0
  H  H15  1  0.24631000  0.11764000  0.46353000  1.0
  H  H16  1  0.05055000  0.94287000  0.95103000  1.0
  H  H17  1  0.55055000  0.05712000  0.54898000  1.0
  H  H18  1  0.94946000  0.05712000  0.04897000  1.0
  H  H19  1  0.44944000  0.94288000  0.45102000  1.0
  H  H20  1  0.29468000  0.61057000  0.58602000  1.0
  H  H21  1  0.79468000  0.38946000  0.91397000  1.0
  H  H22  1  0.70530000  0.38944000  0.41397000  1.0
  H  H23  1  0.20533000  0.61054000  0.08602000  1.0
  H  H24  1  0.57925000  0.59005000  0.58027000  1.0
  H  H25  1  0.07923000  0.40993000  0.91971000  1.0
  H  H26  1  0.42074000  0.40994000  0.41974000  1.0
  H  H27  1  0.92078000  0.59008000  0.08030000  1.0
  H  H28  1  0.12300000  0.70270000  0.45626000  1.0
  H  H29  1  0.62298000  0.29732000  0.04373000  1.0
  H  H30  1  0.87696000  0.29728000  0.54372000  1.0
  H  H31  1  0.37703000  0.70267000  0.95626000  1.0
  H  H32  1  0.74407000  0.69207000  0.45198000  1.0
  H  H33  1  0.24404000  0.30794000  0.04801000  1.0
  H  H34  1  0.25591000  0.30792000  0.54802000  1.0
  H  H35  1  0.75598000  0.69206000  0.95198000  1.0
  H  H36  1  0.93735000  0.59108000  0.83891000  1.0
  H  H37  1  0.43737000  0.40892000  0.66107000  1.0
  H  H38  1  0.06265000  0.40892000  0.16109000  1.0
  H  H39  1  0.56262000  0.59107000  0.33893000  1.0
  C  C40  1  0.15936000  0.75878000  0.84191000  1.0
  C  C41  1  0.65936000  0.24122000  0.65810000  1.0
  C  C42  1  0.84064000  0.24122000  0.15810000  1.0
  C  C43  1  0.34064000  0.75878000  0.34191000  1.0
  C  C44  1  0.25297000  0.87021000  0.85893000  1.0
  C  C45  1  0.75295000  0.12978000  0.64108000  1.0
  C  C46  1  0.74705000  0.12979000  0.14108000  1.0
  C  C47  1  0.24704000  0.87022000  0.35893000  1.0
  C  C48  1  0.42923000  0.88395000  0.81164000  1.0
  C  C49  1  0.92923000  0.11604000  0.68837000  1.0
  C  C50  1  0.57077000  0.11605000  0.18837000  1.0
  C  C51  1  0.07077000  0.88396000  0.31163000  1.0
  C  C52  1  0.54908000  0.97750000  0.81928000  1.0
  C  C53  1  0.04908000  0.02249000  0.68073000  1.0
  C  C54  1  0.45093000  0.02250000  0.18072000  1.0
  C  C55  1  0.95092000  0.97751000  0.31927000  1.0
  C  C56  1  0.48277000  0.06168000  0.87528000  1.0
  C  C57  1  0.98278000  0.93831000  0.62474000  1.0
  C  C58  1  0.51723000  0.93833000  0.12473000  1.0
  C  C59  1  0.01722000  0.06169000  0.37527000  1.0
  C  C60  1  0.30395000  0.05034000  0.92157000  1.0
  C  C61  1  0.80396000  0.94965000  0.57844000  1.0
  C  C62  1  0.69605000  0.94966000  0.07843000  1.0
  C  C63  1  0.19604000  0.05035000  0.42157000  1.0
  C  C64  1  0.18853000  0.95382000  0.91467000  1.0
  C  C65  1  0.68854000  0.04617000  0.58534000  1.0
  C  C66  1  0.81148000  0.04618000  0.08533000  1.0
  C  C67  1  0.31146000  0.95382000  0.41466000  1.0
  C  C68  1  0.13467000  0.60999000  0.57797000  1.0
  C  C69  1  0.63466000  0.39002000  0.92202000  1.0
  C  C70  1  0.86531000  0.39000000  0.42202000  1.0
  C  C71  1  0.36535000  0.60998000  0.07798000  1.0
  C  C72  1  0.03748000  0.66068000  0.50720000  1.0
  C  C73  1  0.53747000  0.33933000  0.99278000  1.0
  C  C74  1  0.96250000  0.33931000  0.49279000  1.0
  C  C75  1  0.46255000  0.66066000  0.00721000  1.0
  C  C76  1  0.73906000  0.59945000  0.57456000  1.0
  C  C77  1  0.23904000  0.40055000  0.92542000  1.0
  C  C78  1  0.26093000  0.40054000  0.42544000  1.0
  C  C79  1  0.76097000  0.59945000  0.07458000  1.0
  C  C80  1  0.83235000  0.65508000  0.50482000  1.0
  C  C81  1  0.33234000  0.34493000  0.99517000  1.0
  C  C82  1  0.16763000  0.34491000  0.49518000  1.0
  C  C83  1  0.66767000  0.65507000  0.00483000  1.0
  S  S84  1  0.45933000  0.76287000  0.74667000  1.0
  S  S85  1  0.95931000  0.23712000  0.75332000  1.0
  S  S86  1  0.54068000  0.23713000  0.25333000  1.0
  S  S87  1  0.04070000  0.76288000  0.24667000  1.0
  N  N88  1  0.26081000  0.69831000  0.78196000  1.0
  N  N89  1  0.76082000  0.30169000  0.71803000  1.0
  N  N90  1  0.73918000  0.30169000  0.21804000  1.0
  N  N91  1  0.23921000  0.69831000  0.28196000  1.0
  N  N92  1  0.03627000  0.55794000  0.64277000  1.0
  N  N93  1  0.53626000  0.44207000  0.85722000  1.0
  N  N94  1  0.96373000  0.44206000  0.35723000  1.0
  N  N95  1  0.46374000  0.55794000  0.14278000  1.0
  N  N96  1  0.84012000  0.55333000  0.64129000  1.0
  N  N97  1  0.34011000  0.44667000  0.85869000  1.0
  N  N98  1  0.15988000  0.44667000  0.35871000  1.0
  N  N99  1  0.65989000  0.55334000  0.14131000  1.0
  O  O100  1  0.00893000  0.72430000  0.88246000  1.0
  O  O101  1  0.50893000  0.27571000  0.61754000  1.0
  O  O102  1  0.99106000  0.27572000  0.11754000  1.0
  O  O103  1  0.49106000  0.72429000  0.38246000  1.0
  O  O104  1  0.63769000  0.70309000  0.77397000  1.0
  O  O105  1  0.13767000  0.29691000  0.72602000  1.0
  O  O106  1  0.36233000  0.29693000  0.22604000  1.0
  O  O107  1  0.86235000  0.70309000  0.27397000  1.0
  O  O108  1  0.93712000  0.51418000  0.81478000  1.0
  O  O109  1  0.43714000  0.48582000  0.68521000  1.0
  O  O110  1  0.06287000  0.48582000  0.18522000  1.0
  O  O111  1  0.56287000  0.51418000  0.31479000  1.0
  O  O112  1  0.44374000  0.78899000  0.65323000  1.0
  O  O113  1  0.94372000  0.21100000  0.84676000  1.0
  O  O114  1  0.55626000  0.21101000  0.34677000  1.0
  O  O115  1  0.05630000  0.78899000  0.15323000  1.0
