# generated using pymatgen
data_CsH2C5N3O5
_symmetry_space_group_name_H-M   'P 1'
_cell_length_a   4.23576000
_cell_length_b   14.04730000
_cell_length_c   15.02240000
_cell_angle_alpha   90.00000000
_cell_angle_beta   89.99980000
_cell_angle_gamma   94.65050000
_symmetry_Int_Tables_number   1
_chemical_formula_structural   CsH2C5N3O5
_chemical_formula_sum   'Cs4 H8 C20 N12 O20'
_cell_volume   890.90497271
_cell_formula_units_Z   4
loop_
 _symmetry_equiv_pos_site_id
 _symmetry_equiv_pos_as_xyz
  1  'x, y, z'
loop_
 _atom_site_type_symbol
 _atom_site_label
 _atom_site_symmetry_multiplicity
 _atom_site_fract_x
 _atom_site_fract_y
 _atom_site_fract_z
 _atom_site_occupancy
  Cs  Cs0  1  0.57465000  0.19256000  0.42457000  1.0
  Cs  Cs1  1  0.42535000  0.30744000  0.92457000  1.0
  Cs  Cs2  1  0.42535000  0.80744000  0.57543000  1.0
  Cs  Cs3  1  0.57465000  0.69256000  0.07543000  1.0
  H  H4  1  0.96734000  0.78137000  0.26689000  1.0
  H  H5  1  0.03265000  0.71863000  0.76689000  1.0
  H  H6  1  0.03266000  0.21863000  0.73311000  1.0
  H  H7  1  0.96734000  0.28137000  0.23311000  1.0
  H  H8  1  0.29786000  0.95070000  0.05458000  1.0
  H  H9  1  0.70214000  0.54930000  0.55458000  1.0
  H  H10  1  0.70214000  0.04931000  0.94542000  1.0
  H  H11  1  0.29786000  0.45070000  0.44542000  1.0
  C  C12  1  0.07694000  0.02955000  0.26311000  1.0
  C  C13  1  0.92306000  0.47045000  0.76311000  1.0
  C  C14  1  0.92306000  0.97045000  0.73689000  1.0
  C  C15  1  0.07693000  0.52955000  0.23689000  1.0
  C  C16  1  0.99352000  0.93185000  0.29280000  1.0
  C  C17  1  0.00648000  0.56815000  0.79280000  1.0
  C  C18  1  0.00648000  0.06815000  0.70720000  1.0
  C  C19  1  0.99352000  0.43185000  0.20720000  1.0
  C  C20  1  0.02997000  0.85255000  0.23974000  1.0
  C  C21  1  0.97003000  0.64745000  0.73974000  1.0
  C  C22  1  0.97003000  0.14745000  0.76026000  1.0
  C  C23  1  0.02997000  0.35255000  0.26026000  1.0
  C  C24  1  0.21058000  0.94583000  0.12293000  1.0
  C  C25  1  0.78942000  0.55417000  0.62293000  1.0
  C  C26  1  0.78942000  0.05417000  0.87707000  1.0
  C  C27  1  0.21058000  0.44583000  0.37707000  1.0
  C  C28  1  0.19937000  0.02907000  0.17236000  1.0
  C  C29  1  0.80064000  0.47093000  0.67236000  1.0
  C  C30  1  0.80063000  0.97093000  0.82764000  1.0
  C  C31  1  0.19937000  0.52907000  0.32764000  1.0
  N  N32  1  0.13034000  0.85782000  0.15488000  1.0
  N  N33  1  0.86966000  0.64218000  0.65488000  1.0
  N  N34  1  0.86966000  0.14218000  0.84512000  1.0
  N  N35  1  0.13034000  0.35782000  0.34512000  1.0
  N  N36  1  0.87395000  0.91375000  0.38126000  1.0
  N  N37  1  0.12605000  0.58625000  0.88126000  1.0
  N  N38  1  0.12605000  0.08625000  0.61874000  1.0
  N  N39  1  0.87394000  0.41375000  0.11874000  1.0
  N  N40  1  0.31965000  0.11706000  0.13008000  1.0
  N  N41  1  0.68035000  0.38294000  0.63009000  1.0
  N  N42  1  0.68035000  0.88294000  0.86992000  1.0
  N  N43  1  0.31965000  0.61706000  0.36991000  1.0
  O  O44  1  0.05006000  0.10296000  0.30901000  1.0
  O  O45  1  0.94994000  0.39704000  0.80901000  1.0
  O  O46  1  0.94993000  0.89704000  0.69099000  1.0
  O  O47  1  0.05006000  0.60296000  0.19099000  1.0
  O  O48  1  0.95013000  0.84025000  0.42029000  1.0
  O  O49  1  0.04987000  0.65975000  0.92029000  1.0
  O  O50  1  0.04987000  0.15975000  0.57971000  1.0
  O  O51  1  0.95013000  0.34025000  0.07971000  1.0
  O  O52  1  0.69677000  0.97034000  0.41533000  1.0
  O  O53  1  0.30322000  0.52966000  0.91533000  1.0
  O  O54  1  0.30323000  0.02966000  0.58467000  1.0
  O  O55  1  0.69678000  0.47034000  0.08467000  1.0
  O  O56  1  0.44957000  0.18186000  0.17684000  1.0
  O  O57  1  0.55043000  0.31814000  0.67683000  1.0
  O  O58  1  0.55043000  0.81814000  0.82317000  1.0
  O  O59  1  0.44957000  0.68186000  0.32316000  1.0
  O  O60  1  0.29328000  0.12268000  0.04710000  1.0
  O  O61  1  0.70672000  0.37732000  0.54710000  1.0
  O  O62  1  0.70672000  0.87732000  0.95290000  1.0
  O  O63  1  0.29328000  0.62268000  0.45290000  1.0
