# generated using pymatgen
data_CdH30C18S2(N2O3)2
_symmetry_space_group_name_H-M   'P 1'
_cell_length_a   8.34809000
_cell_length_b   8.48990000
_cell_length_c   8.50491000
_cell_angle_alpha   91.15900000
_cell_angle_beta   113.12870000
_cell_angle_gamma   91.10730000
_symmetry_Int_Tables_number   1
_chemical_formula_structural   CdH30C18S2(N2O3)2
_chemical_formula_sum   'Cd1 H30 C18 S2 N4 O6'
_cell_volume   553.97498811
_cell_formula_units_Z   1
loop_
 _symmetry_equiv_pos_site_id
 _symmetry_equiv_pos_as_xyz
  1  'x, y, z'
loop_
 _atom_site_type_symbol
 _atom_site_label
 _atom_site_symmetry_multiplicity
 _atom_site_fract_x
 _atom_site_fract_y
 _atom_site_fract_z
 _atom_site_occupancy
  Cd  Cd0  1  0.50000000  0.00000000  0.50000000  1.0
  H  H1  1  0.82846000  0.16163000  0.62514000  1.0
  H  H2  1  0.17154000  0.83837000  0.37487000  1.0
  H  H3  1  0.55379000  0.91008000  0.84612000  1.0
  H  H4  1  0.44622000  0.08992000  0.15389000  1.0
  H  H5  1  0.27463000  0.74979000  0.85618000  1.0
  H  H6  1  0.72536000  0.25021000  0.14382000  1.0
  H  H7  1  0.36628000  0.46944000  0.90328000  1.0
  H  H8  1  0.63371000  0.53056000  0.09671000  1.0
  H  H9  1  0.02673000  0.82019000  0.59713000  1.0
  H  H10  1  0.97326000  0.17981000  0.40286000  1.0
  H  H11  1  0.79544000  0.43032000  0.72049000  1.0
  H  H12  1  0.20456000  0.56968000  0.27952000  1.0
  H  H13  1  0.56828000  0.38093000  0.64974000  1.0
  H  H14  1  0.43173000  0.61907000  0.35027000  1.0
  H  H15  1  0.66924000  0.38689000  0.50002000  1.0
  H  H16  1  0.33076000  0.61312000  0.49999000  1.0
  H  H17  1  0.67018000  0.19240000  0.87535000  1.0
  H  H18  1  0.32983000  0.80760000  0.12465000  1.0
  H  H19  1  0.89651000  0.21481000  0.91735000  1.0
  H  H20  1  0.10349000  0.78520000  0.08266000  1.0
  H  H21  1  0.88577000  0.93225000  0.80772000  1.0
  H  H22  1  0.11423000  0.06775000  0.19228000  1.0
  H  H23  1  0.84989000  0.95205000  0.00077000  1.0
  H  H24  1  0.15011000  0.04795000  0.99923000  1.0
  H  H25  1  0.74064000  0.68005000  0.90819000  1.0
  H  H26  1  0.25936000  0.31995000  0.09181000  1.0
  H  H27  1  0.72274000  0.69141000  0.69165000  1.0
  H  H28  1  0.27727000  0.30859000  0.30835000  1.0
  H  H29  1  0.53387000  0.65205000  0.73586000  1.0
  H  H30  1  0.46614000  0.34795000  0.26414000  1.0
  C  C31  1  0.20405000  0.65850000  0.76086000  1.0
  C  C32  1  0.79594000  0.34150000  0.23914000  1.0
  C  C33  1  0.25697000  0.50089000  0.78774000  1.0
  C  C34  1  0.74302000  0.49910000  0.21226000  1.0
  C  C35  1  0.17058000  0.38401000  0.66716000  1.0
  C  C36  1  0.82941000  0.61599000  0.33283000  1.0
  C  C37  1  0.02670000  0.41933000  0.51255000  1.0
  C  C38  1  0.97330000  0.58067000  0.48745000  1.0
  C  C39  1  0.06507000  0.69786000  0.61490000  1.0
  C  C40  1  0.93492000  0.30214000  0.38509000  1.0
  C  C41  1  0.68760000  0.35587000  0.63004000  1.0
  C  C42  1  0.31241000  0.64413000  0.36997000  1.0
  C  C43  1  0.77402000  0.15116000  0.83711000  1.0
  C  C44  1  0.22599000  0.84884000  0.16289000  1.0
  C  C45  1  0.79543000  0.97564000  0.86314000  1.0
  C  C46  1  0.20457000  0.02436000  0.13687000  1.0
  C  C47  1  0.65830000  0.71796000  0.77885000  1.0
  C  C48  1  0.34170000  0.28204000  0.22115000  1.0
  S  S49  1  0.24130000  0.18520000  0.70952000  1.0
  S  S50  1  0.75870000  0.81481000  0.29048000  1.0
  N  N51  1  0.72420000  0.18805000  0.65567000  1.0
  N  N52  1  0.27580000  0.81196000  0.34434000  1.0
  N  N53  1  0.62793000  0.88777000  0.77695000  1.0
  N  N54  1  0.37208000  0.11223000  0.22305000  1.0
  O  O55  1  0.09092000  0.09454000  0.71206000  1.0
  O  O56  1  0.90908000  0.90546000  0.28794000  1.0
  O  O57  1  0.28497000  0.13895000  0.56250000  1.0
  O  O58  1  0.71503000  0.86105000  0.43750000  1.0
  O  O59  1  0.39279000  0.18971000  0.87298000  1.0
  O  O60  1  0.60721000  0.81029000  0.12701000  1.0
