# generated using pymatgen
data_Cu3H10(C4O3)4
_symmetry_space_group_name_H-M   'P 1'
_cell_length_a   5.03554000
_cell_length_b   10.42270000
_cell_length_c   15.36880000
_cell_angle_alpha   89.99410000
_cell_angle_beta   89.37960000
_cell_angle_gamma   89.99880000
_symmetry_Int_Tables_number   1
_chemical_formula_structural   Cu3H10(C4O3)4
_chemical_formula_sum   'Cu6 H20 C32 O24'
_cell_volume   806.56762189
_cell_formula_units_Z   2
loop_
 _symmetry_equiv_pos_site_id
 _symmetry_equiv_pos_as_xyz
  1  'x, y, z'
loop_
 _atom_site_type_symbol
 _atom_site_label
 _atom_site_symmetry_multiplicity
 _atom_site_fract_x
 _atom_site_fract_y
 _atom_site_fract_z
 _atom_site_occupancy
  Cu  Cu0  1  0.50055000  0.49985000  0.49987000  1.0
  Cu  Cu1  1  0.50055000  0.00015000  0.99987000  1.0
  Cu  Cu2  1  0.59948000  0.13395000  0.48731000  1.0
  Cu  Cu3  1  0.40031000  0.63390000  0.01271000  1.0
  Cu  Cu4  1  0.40030000  0.86609000  0.51270000  1.0
  Cu  Cu5  1  0.59945000  0.36605000  0.98732000  1.0
  H  H6  1  0.72698000  0.64078000  0.61362000  1.0
  H  H7  1  0.27335000  0.14100000  0.88625000  1.0
  H  H8  1  0.27335000  0.35902000  0.38626000  1.0
  H  H9  1  0.72698000  0.85921000  0.11362000  1.0
  H  H10  1  0.89373000  0.50849000  0.59722000  1.0
  H  H11  1  0.10683000  0.00876000  0.90278000  1.0
  H  H12  1  0.10680000  0.49126000  0.40279000  1.0
  H  H13  1  0.89369000  0.99151000  0.09722000  1.0
  H  H14  1  0.62298000  0.96676000  0.73210000  1.0
  H  H15  1  0.37693000  0.46679000  0.76792000  1.0
  H  H16  1  0.37696000  0.03325000  0.26791000  1.0
  H  H17  1  0.62302000  0.53321000  0.23212000  1.0
  H  H18  1  0.59960000  0.19752000  0.77517000  1.0
  H  H19  1  0.40039000  0.69756000  0.72487000  1.0
  H  H20  1  0.40039000  0.80248000  0.22487000  1.0
  H  H21  1  0.59961000  0.30243000  0.27518000  1.0
  H  H22  1  0.89814000  0.35365000  0.70068000  1.0
  H  H23  1  0.10181000  0.85365000  0.79937000  1.0
  H  H24  1  0.10180000  0.64637000  0.29937000  1.0
  H  H25  1  0.89812000  0.14632000  0.20068000  1.0
  C  C26  1  0.10750000  0.21193000  0.62596000  1.0
  C  C27  1  0.89237000  0.71190000  0.87404000  1.0
  C  C28  1  0.89236000  0.78813000  0.37405000  1.0
  C  C29  1  0.10746000  0.28804000  0.12596000  1.0
  C  C30  1  0.13394000  0.07885000  0.60581000  1.0
  C  C31  1  0.86585000  0.57879000  0.89415000  1.0
  C  C32  1  0.86585000  0.92124000  0.39416000  1.0
  C  C33  1  0.13391000  0.42113000  0.10582000  1.0
  C  C34  1  0.94901000  0.99063000  0.64329000  1.0
  C  C35  1  0.05087000  0.49059000  0.85670000  1.0
  C  C36  1  0.05087000  0.00942000  0.35670000  1.0
  C  C37  1  0.94900000  0.50936000  0.14330000  1.0
  C  C38  1  0.76141000  0.03605000  0.70417000  1.0
  C  C39  1  0.23849000  0.53606000  0.79585000  1.0
  C  C40  1  0.23853000  0.96396000  0.29586000  1.0
  C  C41  1  0.76142000  0.46392000  0.20418000  1.0
  C  C42  1  0.74582000  0.16461000  0.72765000  1.0
  C  C43  1  0.25414000  0.66462000  0.77238000  1.0
  C  C44  1  0.25417000  0.83540000  0.27239000  1.0
  C  C45  1  0.74583000  0.33535000  0.22766000  1.0
  C  C46  1  0.91433000  0.25152000  0.68663000  1.0
  C  C47  1  0.08562000  0.75152000  0.81339000  1.0
  C  C48  1  0.08563000  0.74851000  0.31340000  1.0
  C  C49  1  0.91430000  0.24845000  0.18664000  1.0
  C  C50  1  0.26512000  0.31251000  0.58227000  1.0
  C  C51  1  0.73488000  0.81240000  0.91778000  1.0
  C  C52  1  0.73485000  0.68762000  0.41777000  1.0
  C  C53  1  0.26506000  0.18747000  0.08226000  1.0
  C  C54  1  0.92677000  0.85257000  0.61752000  1.0
  C  C55  1  0.07306000  0.35258000  0.88250000  1.0
  C  C56  1  0.07310000  0.14745000  0.38249000  1.0
  C  C57  1  0.92681000  0.64740000  0.11753000  1.0
  O  O58  1  0.19254000  0.43001000  0.58536000  1.0
  O  O59  1  0.80727000  0.92993000  0.91464000  1.0
  O  O60  1  0.80722000  0.57008000  0.41465000  1.0
  O  O61  1  0.19246000  0.06998000  0.08535000  1.0
  O  O62  1  0.48264000  0.28974000  0.53928000  1.0
  O  O63  1  0.51760000  0.78968000  0.96091000  1.0
  O  O64  1  0.51759000  0.71035000  0.46091000  1.0
  O  O65  1  0.48259000  0.21023000  0.03928000  1.0
  O  O66  1  0.32076000  0.03887000  0.54968000  1.0
  O  O67  1  0.67882000  0.53879000  0.95023000  1.0
  O  O68  1  0.67884000  0.96123000  0.45023000  1.0
  O  O69  1  0.32074000  0.46112000  0.04968000  1.0
  O  O70  1  0.10531000  0.79386000  0.57161000  1.0
  O  O71  1  0.89448000  0.29384000  0.92836000  1.0
  O  O72  1  0.89449000  0.20617000  0.42835000  1.0
  O  O73  1  0.10535000  0.70614000  0.07164000  1.0
  O  O74  1  0.71931000  0.79181000  0.64078000  1.0
  O  O75  1  0.28064000  0.29186000  0.85929000  1.0
  O  O76  1  0.28071000  0.20816000  0.35930000  1.0
  O  O77  1  0.71935000  0.70816000  0.14079000  1.0
  O  O78  1  0.71098000  0.54451000  0.60242000  1.0
  O  O79  1  0.28951000  0.04469000  0.89740000  1.0
  O  O80  1  0.28948000  0.45532000  0.39742000  1.0
  O  O81  1  0.71095000  0.95548000  0.10243000  1.0
