# generated using pymatgen
data_KH6C6SNO6
_symmetry_space_group_name_H-M   'P 1'
_cell_length_a   7.14147000
_cell_length_b   10.73370000
_cell_length_c   12.60620000
_cell_angle_alpha   73.46400000
_cell_angle_beta   89.99990000
_cell_angle_gamma   89.99990000
_symmetry_Int_Tables_number   1
_chemical_formula_structural   KH6C6SNO6
_chemical_formula_sum   'K4 H24 C24 S4 N4 O24'
_cell_volume   926.35468810
_cell_formula_units_Z   4
loop_
 _symmetry_equiv_pos_site_id
 _symmetry_equiv_pos_as_xyz
  1  'x, y, z'
loop_
 _atom_site_type_symbol
 _atom_site_label
 _atom_site_symmetry_multiplicity
 _atom_site_fract_x
 _atom_site_fract_y
 _atom_site_fract_z
 _atom_site_occupancy
  K  K0  1  0.54405000  0.43807000  0.25924000  1.0
  K  K1  1  0.04404000  0.56193000  0.24076000  1.0
  K  K2  1  0.45595000  0.56192000  0.74077000  1.0
  K  K3  1  0.95595000  0.43807000  0.75924000  1.0
  H  H4  1  0.91187000  0.31502000  0.41083000  1.0
  H  H5  1  0.41187000  0.68498000  0.08917000  1.0
  H  H6  1  0.08813000  0.68498000  0.58917000  1.0
  H  H7  1  0.58813000  0.31503000  0.91083000  1.0
  H  H8  1  0.95710000  0.23506000  0.32975000  1.0
  H  H9  1  0.45710000  0.76494000  0.17025000  1.0
  H  H10  1  0.04291000  0.76494000  0.67025000  1.0
  H  H11  1  0.54291000  0.23506000  0.82975000  1.0
  H  H12  1  0.36165000  0.09957000  0.08611000  1.0
  H  H13  1  0.86165000  0.90043000  0.41389000  1.0
  H  H14  1  0.63835000  0.90043000  0.91389000  1.0
  H  H15  1  0.13835000  0.09957000  0.58611000  1.0
  H  H16  1  0.15337000  0.90439000  0.13892000  1.0
  H  H17  1  0.65338000  0.09562000  0.36108000  1.0
  H  H18  1  0.84662000  0.09562000  0.86108000  1.0
  H  H19  1  0.34662000  0.90438000  0.63892000  1.0
  H  H20  1  0.67338000  0.15698000  0.11560000  1.0
  H  H21  1  0.17338000  0.84303000  0.38440000  1.0
  H  H22  1  0.32661000  0.84302000  0.88440000  1.0
  H  H23  1  0.82662000  0.15697000  0.61560000  1.0
  H  H24  1  0.88119000  0.35010000  0.06646000  1.0
  H  H25  1  0.38119000  0.64991000  0.43354000  1.0
  H  H26  1  0.11881000  0.64991000  0.93354000  1.0
  H  H27  1  0.61881000  0.35009000  0.56646000  1.0
  C  C28  1  0.13344000  0.23530000  0.07243000  1.0
  C  C29  1  0.63344000  0.76470000  0.42757000  1.0
  C  C30  1  0.86656000  0.76470000  0.92757000  1.0
  C  C31  1  0.36656000  0.23529000  0.57243000  1.0
  C  C32  1  0.21120000  0.11095000  0.09340000  1.0
  C  C33  1  0.71120000  0.88905000  0.40660000  1.0
  C  C34  1  0.78880000  0.88905000  0.90660000  1.0
  C  C35  1  0.28880000  0.11095000  0.59341000  1.0
  C  C36  1  0.09595000  0.00203000  0.12338000  1.0
  C  C37  1  0.59595000  0.99797000  0.37662000  1.0
  C  C38  1  0.90405000  0.99797000  0.87662000  1.0
  C  C39  1  0.40405000  0.00203000  0.62338000  1.0
  C  C40  1  0.90324000  0.02133000  0.13001000  1.0
  C  C41  1  0.40324000  0.97867000  0.36999000  1.0
  C  C42  1  0.09676000  0.97867000  0.86999000  1.0
  C  C43  1  0.59676000  0.02133000  0.63001000  1.0
  C  C44  1  0.82377000  0.14481000  0.11004000  1.0
  C  C45  1  0.32377000  0.85520000  0.38996000  1.0
  C  C46  1  0.17623000  0.85519000  0.88996000  1.0
  C  C47  1  0.67623000  0.14480000  0.61004000  1.0
  C  C48  1  0.94039000  0.25289000  0.08179000  1.0
  C  C49  1  0.44039000  0.74711000  0.41821000  1.0
  C  C50  1  0.05961000  0.74711000  0.91821000  1.0
  C  C51  1  0.55961000  0.25289000  0.58179000  1.0
  S  S52  1  0.28150000  0.37551000  0.03158000  1.0
  S  S53  1  0.78151000  0.62450000  0.46842000  1.0
  S  S54  1  0.71850000  0.62449000  0.96842000  1.0
  S  S55  1  0.21850000  0.37550000  0.53158000  1.0
  N  N56  1  0.78055000  0.90865000  0.15532000  1.0
  N  N57  1  0.28055000  0.09136000  0.34468000  1.0
  N  N58  1  0.21945000  0.09136000  0.84467000  1.0
  N  N59  1  0.71945000  0.90864000  0.65532000  1.0
  O  O60  1  0.24330000  0.44872000  0.11107000  1.0
  O  O61  1  0.74330000  0.55129000  0.38893000  1.0
  O  O62  1  0.75671000  0.55128000  0.88893000  1.0
  O  O63  1  0.25671000  0.44872000  0.61107000  1.0
  O  O64  1  0.47433000  0.32537000  0.03880000  1.0
  O  O65  1  0.97434000  0.67463000  0.46120000  1.0
  O  O66  1  0.52567000  0.67462000  0.96120000  1.0
  O  O67  1  0.02567000  0.32537000  0.53880000  1.0
  O  O68  1  0.22309000  0.44366000  0.91811000  1.0
  O  O69  1  0.72309000  0.55634000  0.58188000  1.0
  O  O70  1  0.77692000  0.55634000  0.08189000  1.0
  O  O71  1  0.27692000  0.44366000  0.41811000  1.0
  O  O72  1  0.85187000  0.79892000  0.18574000  1.0
  O  O73  1  0.35188000  0.20109000  0.31426000  1.0
  O  O74  1  0.14812000  0.20109000  0.81426000  1.0
  O  O75  1  0.64812000  0.79891000  0.68574000  1.0
  O  O76  1  0.60784000  0.92710000  0.14440000  1.0
  O  O77  1  0.10785000  0.07291000  0.35560000  1.0
  O  O78  1  0.39215000  0.07291000  0.85560000  1.0
  O  O79  1  0.89215000  0.92709000  0.64440000  1.0
  O  O80  1  0.87188000  0.30248000  0.33951000  1.0
  O  O81  1  0.37187000  0.69752000  0.16049000  1.0
  O  O82  1  0.12813000  0.69752000  0.66049000  1.0
  O  O83  1  0.62813000  0.30248000  0.83951000  1.0
