# generated using pymatgen
data_ZnH10C17N4F
_symmetry_space_group_name_H-M   'P 1'
_cell_length_a   19.29360000
_cell_length_b   19.95170000
_cell_length_c   20.34617074
_cell_angle_alpha   112.13442670
_cell_angle_beta   103.85180465
_cell_angle_gamma   110.65400000
_symmetry_Int_Tables_number   1
_chemical_formula_structural   ZnH10C17N4F
_chemical_formula_sum   'Zn4 H40 C68 N16 F4'
_cell_volume   6130.39981930
_cell_formula_units_Z   4
loop_
 _symmetry_equiv_pos_site_id
 _symmetry_equiv_pos_as_xyz
  1  'x, y, z'
loop_
 _atom_site_type_symbol
 _atom_site_label
 _atom_site_symmetry_multiplicity
 _atom_site_fract_x
 _atom_site_fract_y
 _atom_site_fract_z
 _atom_site_occupancy
  Zn  Zn0  1  0.62013000  0.59740000  0.49723000  1.0
  Zn  Zn1  1  0.37649000  0.38628000  0.47509000  1.0
  Zn  Zn2  1  0.50148000  0.58417000  0.60224000  1.0
  Zn  Zn3  1  0.49298000  0.38945000  0.36970000  1.0
  H  H4  1  0.20827000  0.38857000  0.42788000  1.0
  H  H5  1  0.51684000  0.99993000  0.37064000  1.0
  H  H6  1  0.46078000  0.65185000  0.10907000  1.0
  H  H7  1  0.46763000  0.64373000  0.98597000  1.0
  H  H8  1  0.98035000  0.03594000  0.83071000  1.0
  H  H9  1  0.10389000  0.14756000  0.95523000  1.0
  H  H10  1  0.95052000  0.15597000  0.07798000  1.0
  H  H11  1  0.55933000  0.58699000  0.75649000  1.0
  H  H12  1  0.65567000  0.35428000  0.34749000  1.0
  H  H13  1  0.77397000  0.58237000  0.57201000  1.0
  H  H14  1  0.55880000  0.27126000  0.40091000  1.0
  H  H15  1  0.37572000  0.61461000  0.49128000  1.0
  H  H16  1  0.58583000  0.64261000  0.34547000  1.0
  H  H17  1  0.39763000  0.73079000  0.27418000  1.0
  H  H18  1  0.41164000  0.79150000  0.22816000  1.0
  H  H19  1  0.47270000  0.74326000  0.23704000  1.0
  H  H20  1  0.55396000  0.89607000  0.33765000  1.0
  H  H21  1  0.54073000  0.83470000  0.38255000  1.0
  H  H22  1  0.20875000  0.36252000  0.99137000  1.0
  H  H23  1  0.20193000  0.30810000  0.89578000  1.0
  H  H24  1  0.19851000  0.26177000  0.95519000  1.0
  H  H25  1  0.33689000  0.31490000  0.95611000  1.0
  H  H26  1  0.33492000  0.25315000  0.18940000  1.0
  H  H27  1  0.34443000  0.37127000  0.05126000  1.0
  H  H28  1  0.80778000  0.16191000  0.99199000  1.0
  H  H29  1  0.76237000  0.09658000  0.88837000  1.0
  H  H30  1  0.70673000  0.07577000  0.94299000  1.0
  H  H31  1  0.76049000  0.97689000  0.90493000  1.0
  H  H32  1  0.80602000  0.04174000  0.00825000  1.0
  H  H33  1  0.67373000  0.73788000  0.85852000  1.0
  H  H34  1  0.73496000  0.84173000  0.88322000  1.0
  H  H35  1  0.64455000  0.81385000  0.89879000  1.0
  H  H36  1  0.61893000  0.82666000  0.77875000  1.0
  H  H37  1  0.19936000  0.30073000  0.32571000  1.0
  H  H38  1  0.55786000  0.72249000  0.75254000  1.0
  H  H39  1  0.37053000  0.40367000  0.24448000  1.0
  H  H40  1  0.34808000  0.61948000  0.65138000  1.0
  H  H41  1  0.36800000  0.01102000  0.49804000  1.0
  H  H42  1  0.35114000  0.87822000  0.48982000  1.0
  H  H43  1  0.40971000  0.27088000  0.53005000  1.0
  C  C44  1  0.73656000  0.73275000  0.66026000  1.0
  C  C45  1  0.54964000  0.71373000  0.48924000  1.0
  C  C46  1  0.42944000  0.46022000  0.27986000  1.0
  C  C47  1  0.44474000  0.28206000  0.49713000  1.0
  C  C48  1  0.32672000  0.56341000  0.59665000  1.0
  C  C49  1  0.46250000  0.52607000  0.26633000  1.0
  C  C50  1  0.24530000  0.50154000  0.54072000  1.0
  C  C51  1  0.46978000  0.70205000  0.47279000  1.0
  C  C52  1  0.23639000  0.26295000  0.22708000  1.0
  C  C53  1  0.81885000  0.46039000  0.48628000  1.0
  C  C54  1  0.88532000  0.46197000  0.50199000  1.0
  C  C55  1  0.48293000  0.23865000  0.46428000  1.0
  C  C56  1  0.95913000  0.46722000  0.51667000  1.0
  C  C57  1  0.02817000  0.47517000  0.52787000  1.0
  C  C58  1  0.10271000  0.48496000  0.53623000  1.0
  C  C59  1  0.50291000  0.52929000  0.71293000  1.0
  C  C60  1  0.17083000  0.49498000  0.54111000  1.0
  C  C61  1  0.38694000  0.90513000  0.46339000  1.0
  C  C62  1  0.42581000  0.86490000  0.42719000  1.0
  C  C63  1  0.47085000  0.89781000  0.39039000  1.0
  C  C64  1  0.48030000  0.97267000  0.39647000  1.0
  C  C65  1  0.44596000  0.01593000  0.43705000  1.0
  C  C66  1  0.43949000  0.47995000  0.72457000  1.0
  C  C67  1  0.39658000  0.97931000  0.46832000  1.0
  C  C68  1  0.42769000  0.79779000  0.43456000  1.0
  C  C69  1  0.46181000  0.09495000  0.44767000  1.0
  C  C70  1  0.47572000  0.16381000  0.45841000  1.0
  C  C71  1  0.67225000  0.41159000  0.39864000  1.0
  C  C72  1  0.43980000  0.74773000  0.44904000  1.0
  C  C73  1  0.43854000  0.58725000  0.98800000  1.0
  C  C74  1  0.40718000  0.50964000  0.92021000  1.0
  C  C75  1  0.36735000  0.43832000  0.92465000  1.0
  C  C76  1  0.36237000  0.43954000  0.99209000  1.0
  C  C77  1  0.74646000  0.46474000  0.46828000  1.0
  C  C78  1  0.39980000  0.51890000  0.06066000  1.0
  C  C79  1  0.43458000  0.59166000  0.05648000  1.0
  C  C80  1  0.41786000  0.50206000  0.85201000  1.0
  C  C81  1  0.41076000  0.52544000  0.13461000  1.0
  C  C82  1  0.43125000  0.52822000  0.19767000  1.0
  C  C83  1  0.38474000  0.41395000  0.64691000  1.0
  C  C84  1  0.42980000  0.49236000  0.79363000  1.0
  C  C85  1  0.04329000  0.12508000  0.95460000  1.0
  C  C86  1  0.03605000  0.15524000  0.02615000  1.0
  C  C87  1  0.95673000  0.12981000  0.02339000  1.0
  C  C88  1  0.54012000  0.58234000  0.33143000  1.0
  C  C89  1  0.88654000  0.06806000  0.95397000  1.0
  C  C90  1  0.89636000  0.02954000  0.88484000  1.0
  C  C91  1  0.97446000  0.06312000  0.88522000  1.0
  C  C92  1  0.10682000  0.20168000  0.09830000  1.0
  C  C93  1  0.83295000  0.95140000  0.82001000  1.0
  C  C94  1  0.78658000  0.87749000  0.77199000  1.0
  C  C95  1  0.73301000  0.52796000  0.51402000  1.0
  C  C96  1  0.16708000  0.23051000  0.15837000  1.0
  C  C97  1  0.52117000  0.28235000  0.43110000  1.0
  C  C98  1  0.65736000  0.74378000  0.72055000  1.0
  C  C99  1  0.25550000  0.44543000  0.48176000  1.0
  C  C100  1  0.73218000  0.79228000  0.72132000  1.0
  C  C101  1  0.50805000  0.85300000  0.34646000  1.0
  C  C102  1  0.44369000  0.77516000  0.26677000  1.0
  C  C103  1  0.32076000  0.35927000  0.99091000  1.0
  C  C104  1  0.22697000  0.32077000  0.95625000  1.0
  C  C105  1  0.80273000  0.04127000  0.95331000  1.0
  C  C106  1  0.76792000  0.09715000  0.94363000  1.0
  C  C107  1  0.62169000  0.77152000  0.77603000  1.0
  C  C108  1  0.67155000  0.79238000  0.85908000  1.0
  C  C109  1  0.43627000  0.64187000  0.49324000  1.0
  C  C110  1  0.31416000  0.27124000  0.23503000  1.0
  C  C111  1  0.24537000  0.29660000  0.30506000  1.0
  N  N112  1  0.67230000  0.65664000  0.62434000  1.0
  N  N113  1  0.48585000  0.49508000  0.63553000  1.0
  N  N114  1  0.62027000  0.44163000  0.40215000  1.0
  N  N115  1  0.41142000  0.42263000  0.59479000  1.0
  N  N116  1  0.65798000  0.51354000  0.47388000  1.0
  N  N117  1  0.50448000  0.34480000  0.44181000  1.0
  N  N118  1  0.62264000  0.66415000  0.66294000  1.0
  N  N119  1  0.55257000  0.55082000  0.37794000  1.0
  N  N120  1  0.33590000  0.47163000  0.50126000  1.0
  N  N121  1  0.49255000  0.62164000  0.51984000  1.0
  N  N122  1  0.36502000  0.30784000  0.31111000  1.0
  N  N123  1  0.32201000  0.32354000  0.35476000  1.0
  N  N124  1  0.56371000  0.66751000  0.51755000  1.0
  N  N125  1  0.48418000  0.47567000  0.34667000  1.0
  N  N126  1  0.37936000  0.54439000  0.57234000  1.0
  N  N127  1  0.45756000  0.34450000  0.48206000  1.0
  F  F128  1  0.79549000  0.74519000  0.63439000  1.0
  F  F129  1  0.60862000  0.76411000  0.47930000  1.0
  F  F130  1  0.33450000  0.36278000  0.85896000  1.0
  F  F131  1  0.31372000  0.34730000  0.62340000  1.0
