# generated using pymatgen
data_ZnH11C13(NO4)2
_symmetry_space_group_name_H-M   'P 1'
_cell_length_a   9.68434000
_cell_length_b   9.84990000
_cell_length_c   18.11800000
_cell_angle_alpha   79.25020000
_cell_angle_beta   74.53840000
_cell_angle_gamma   60.57400000
_symmetry_Int_Tables_number   1
_chemical_formula_structural   ZnH11C13(NO4)2
_chemical_formula_sum   'Zn4 H44 C52 N8 O32'
_cell_volume   1447.65191609
_cell_formula_units_Z   4
loop_
 _symmetry_equiv_pos_site_id
 _symmetry_equiv_pos_as_xyz
  1  'x, y, z'
loop_
 _atom_site_type_symbol
 _atom_site_label
 _atom_site_symmetry_multiplicity
 _atom_site_fract_x
 _atom_site_fract_y
 _atom_site_fract_z
 _atom_site_occupancy
  Zn  Zn0  1  0.26892000  0.98316000  0.77989000  1.0
  Zn  Zn1  1  0.96791000  0.48319000  0.27990000  1.0
  Zn  Zn2  1  0.73108000  0.01684000  0.22011000  1.0
  Zn  Zn3  1  0.03209000  0.51681000  0.72010000  1.0
  H  H4  1  0.73120000  0.97988000  0.75277000  1.0
  H  H5  1  0.53601000  0.48010000  0.25278000  1.0
  H  H6  1  0.26880000  0.02012000  0.24723000  1.0
  H  H7  1  0.46399000  0.51990000  0.74721000  1.0
  H  H8  1  0.50420000  0.33999000  0.58440000  1.0
  H  H9  1  0.57078000  0.84025000  0.08436000  1.0
  H  H10  1  0.49580000  0.66000000  0.41560000  1.0
  H  H11  1  0.42922000  0.15976000  0.91564000  1.0
  H  H12  1  0.95246000  0.26740000  0.63066000  1.0
  H  H13  1  0.14897000  0.76748000  0.13079000  1.0
  H  H14  1  0.04754000  0.73260000  0.36934000  1.0
  H  H15  1  0.85103000  0.23252000  0.86921000  1.0
  H  H16  1  0.14528000  0.77627000  0.88277000  1.0
  H  H17  1  0.19608000  0.27589000  0.38271000  1.0
  H  H18  1  0.85472000  0.22374000  0.11723000  1.0
  H  H19  1  0.80392000  0.72411000  0.61729000  1.0
  H  H20  1  0.23797000  0.56303000  0.98405000  1.0
  H  H21  1  0.21520000  0.06273000  0.48401000  1.0
  H  H22  1  0.76202000  0.43698000  0.01596000  1.0
  H  H23  1  0.78480000  0.93727000  0.51599000  1.0
  H  H24  1  0.67719000  0.61002000  0.93855000  1.0
  H  H25  1  0.77447000  0.10995000  0.43832000  1.0
  H  H26  1  0.32281000  0.38998000  0.06145000  1.0
  H  H27  1  0.22553000  0.89005000  0.56168000  1.0
  H  H28  1  0.56601000  0.81751000  0.84038000  1.0
  H  H29  1  0.77642000  0.31739000  0.34019000  1.0
  H  H30  1  0.43399000  0.18248000  0.15962000  1.0
  H  H31  1  0.22358000  0.68261000  0.65981000  1.0
  H  H32  1  0.12099000  0.23385000  0.87498000  1.0
  H  H33  1  0.77044000  0.73392000  0.37495000  1.0
  H  H34  1  0.87901000  0.76615000  0.12502000  1.0
  H  H35  1  0.22956000  0.26608000  0.62505000  1.0
  H  H36  1  0.13418000  0.08337000  0.92860000  1.0
  H  H37  1  0.85376000  0.58337000  0.42862000  1.0
  H  H38  1  0.86582000  0.91663000  0.07140000  1.0
  H  H39  1  0.14624000  0.41663000  0.57138000  1.0
  H  H40  1  0.43065000  0.89553000  0.64584000  1.0
  H  H41  1  0.02771000  0.39554000  0.14580000  1.0
  H  H42  1  0.56935000  0.10447000  0.35416000  1.0
  H  H43  1  0.97229000  0.60446000  0.85419000  1.0
  H  H44  1  0.51734000  0.73081000  0.69134000  1.0
  H  H45  1  0.06025000  0.23084000  0.19135000  1.0
  H  H46  1  0.48266000  0.26919000  0.30866000  1.0
  H  H47  1  0.93975000  0.76916000  0.80865000  1.0
  C  C48  1  0.85832000  0.11076000  0.69485000  1.0
  C  C49  1  0.33574000  0.61093000  0.19496000  1.0
  C  C50  1  0.14169000  0.88924000  0.30515000  1.0
  C  C51  1  0.66426000  0.38907000  0.80504000  1.0
  C  C52  1  0.73195000  0.07268000  0.70957000  1.0
  C  C53  1  0.48547000  0.57295000  0.20962000  1.0
  C  C54  1  0.26805000  0.92731000  0.29043000  1.0
  C  C55  1  0.51453000  0.42706000  0.79038000  1.0
  C  C56  1  0.60615000  0.15241000  0.66915000  1.0
  C  C57  1  0.57188000  0.65269000  0.16915000  1.0
  C  C58  1  0.39385000  0.84759000  0.33085000  1.0
  C  C59  1  0.42812000  0.34732000  0.83085000  1.0
  C  C60  1  0.60148000  0.27646000  0.61613000  1.0
  C  C61  1  0.50540000  0.77668000  0.11614000  1.0
  C  C62  1  0.39852000  0.72354000  0.38387000  1.0
  C  C63  1  0.49460000  0.22333000  0.88386000  1.0
  C  C64  1  0.72589000  0.31629000  0.60458000  1.0
  C  C65  1  0.35269000  0.81643000  0.10465000  1.0
  C  C66  1  0.27412000  0.68371000  0.39542000  1.0
  C  C67  1  0.64731000  0.18357000  0.89535000  1.0
  C  C68  1  0.85674000  0.23371000  0.64114000  1.0
  C  C69  1  0.26793000  0.73385000  0.14125000  1.0
  C  C70  1  0.14327000  0.76629000  0.35886000  1.0
  C  C71  1  0.73207000  0.26616000  0.85875000  1.0
  C  C72  1  0.99220000  0.02600000  0.73916000  1.0
  C  C73  1  0.24256000  0.52599000  0.23928000  1.0
  C  C74  1  0.00781000  0.97400000  0.26084000  1.0
  C  C75  1  0.75744000  0.47401000  0.76072000  1.0
  C  C76  1  0.47662000  0.10349000  0.68314000  1.0
  C  C77  1  0.73637000  0.60374000  0.18310000  1.0
  C  C78  1  0.52338000  0.89651000  0.31686000  1.0
  C  C79  1  0.26363000  0.39626000  0.81690000  1.0
  C  C80  1  0.26229000  0.73361000  0.89788000  1.0
  C  C81  1  0.10660000  0.23328000  0.39780000  1.0
  C  C82  1  0.73771000  0.26640000  0.10212000  1.0
  C  C83  1  0.89340000  0.76672000  0.60220000  1.0
  C  C84  1  0.31615000  0.61483000  0.95430000  1.0
  C  C85  1  0.11498000  0.11457000  0.45422000  1.0
  C  C86  1  0.68385000  0.38517000  0.04571000  1.0
  C  C87  1  0.88502000  0.88543000  0.54577000  1.0
  C  C88  1  0.46828000  0.56435000  0.97087000  1.0
  C  C89  1  0.99664000  0.06424000  0.47081000  1.0
  C  C90  1  0.53172000  0.43566000  0.02914000  1.0
  C  C91  1  0.00336000  0.93576000  0.52919000  1.0
  C  C92  1  0.55841000  0.64067000  0.92945000  1.0
  C  C93  1  0.87170000  0.14055000  0.42929000  1.0
  C  C94  1  0.44158000  0.35933000  0.07055000  1.0
  C  C95  1  0.12830000  0.85944000  0.57071000  1.0
  C  C96  1  0.49721000  0.75823000  0.87385000  1.0
  C  C97  1  0.87103000  0.25809000  0.37369000  1.0
  C  C98  1  0.50279000  0.24177000  0.12615000  1.0
  C  C99  1  0.12897000  0.74191000  0.62631000  1.0
  N  N100  1  0.71742000  0.45131000  0.55192000  1.0
  N  N101  1  0.27882000  0.95133000  0.05190000  1.0
  N  N102  1  0.28258000  0.54869000  0.44808000  1.0
  N  N103  1  0.72117000  0.04867000  0.94810000  1.0
  N  N104  1  0.35175000  0.80325000  0.85799000  1.0
  N  N105  1  0.98731000  0.30307000  0.35790000  1.0
  N  N106  1  0.64825000  0.19675000  0.14201000  1.0
  N  N107  1  0.01269000  0.69692000  0.64209000  1.0
  O  O108  1  0.09563000  0.07816000  0.72310000  1.0
  O  O109  1  0.10301000  0.57812000  0.22324000  1.0
  O  O110  1  0.90437000  0.92184000  0.27690000  1.0
  O  O111  1  0.89700000  0.42188000  0.77676000  1.0
  O  O112  1  0.99615000  0.91564000  0.78818000  1.0
  O  O113  1  0.30016000  0.41563000  0.28828000  1.0
  O  O114  1  0.00386000  0.08435000  0.21182000  1.0
  O  O115  1  0.69984000  0.58437000  0.71172000  1.0
  O  O116  1  0.43481000  0.05882000  0.75294000  1.0
  O  O117  1  0.75328000  0.55907000  0.25290000  1.0
  O  O118  1  0.56519000  0.94118000  0.24706000  1.0
  O  O119  1  0.24673000  0.44093000  0.74710000  1.0
  O  O120  1  0.42044000  0.10604000  0.62712000  1.0
  O  O121  1  0.84591000  0.60616000  0.12705000  1.0
  O  O122  1  0.57956000  0.89395000  0.37289000  1.0
  O  O123  1  0.15409000  0.39384000  0.87295000  1.0
  O  O124  1  0.58372000  0.55131000  0.53838000  1.0
  O  O125  1  0.32629000  0.05122000  0.03821000  1.0
  O  O126  1  0.41628000  0.44869000  0.46162000  1.0
  O  O127  1  0.67371000  0.94879000  0.96179000  1.0
  O  O128  1  0.84658000  0.45824000  0.52313000  1.0
  O  O129  1  0.17136000  0.95829000  0.02317000  1.0
  O  O130  1  0.15342000  0.54175000  0.47687000  1.0
  O  O131  1  0.82863000  0.04172000  0.97683000  1.0
  O  O132  1  0.11800000  0.13376000  0.87717000  1.0
  O  O133  1  0.87118000  0.63374000  0.37720000  1.0
  O  O134  1  0.88200000  0.86625000  0.12284000  1.0
  O  O135  1  0.12882000  0.36626000  0.62280000  1.0
  O  O136  1  0.41049000  0.81638000  0.68206000  1.0
  O  O137  1  0.09078000  0.31645000  0.18206000  1.0
  O  O138  1  0.58951000  0.18362000  0.31795000  1.0
  O  O139  1  0.90922000  0.68355000  0.81795000  1.0
