# generated using pymatgen
data_UH4C5N2O7
_symmetry_space_group_name_H-M   'P 1'
_cell_length_a   7.06524000
_cell_length_b   10.37760000
_cell_length_c   11.27100000
_cell_angle_alpha   90.00010000
_cell_angle_beta   89.99990000
_cell_angle_gamma   89.74450000
_symmetry_Int_Tables_number   1
_chemical_formula_structural   UH4C5N2O7
_chemical_formula_sum   'U4 H16 C20 N8 O28'
_cell_volume   826.38414784
_cell_formula_units_Z   4
loop_
 _symmetry_equiv_pos_site_id
 _symmetry_equiv_pos_as_xyz
  1  'x, y, z'
loop_
 _atom_site_type_symbol
 _atom_site_label
 _atom_site_symmetry_multiplicity
 _atom_site_fract_x
 _atom_site_fract_y
 _atom_site_fract_z
 _atom_site_occupancy
  U  U0  1  0.25281000  0.67738000  0.14480000  1.0
  U  U1  1  0.74717000  0.82265000  0.64480000  1.0
  U  U2  1  0.74719000  0.32262000  0.85520000  1.0
  U  U3  1  0.25283000  0.17735000  0.35520000  1.0
  H  H4  1  0.02407000  0.77057000  0.92761000  1.0
  H  H5  1  0.97593000  0.72943000  0.42761000  1.0
  H  H6  1  0.97593000  0.22943000  0.07239000  1.0
  H  H7  1  0.02407000  0.27057000  0.57239000  1.0
  H  H8  1  0.02527000  0.61736000  0.93043000  1.0
  H  H9  1  0.97473000  0.88265000  0.43043000  1.0
  H  H10  1  0.97473000  0.38265000  0.06957000  1.0
  H  H11  1  0.02527000  0.11736000  0.56957000  1.0
  H  H12  1  0.64964000  0.84902000  0.31343000  1.0
  H  H13  1  0.35036000  0.65098000  0.81343000  1.0
  H  H14  1  0.35036000  0.15098000  0.68657000  1.0
  H  H15  1  0.64964000  0.34902000  0.18657000  1.0
  H  H16  1  0.83130000  0.01106000  0.98390000  1.0
  H  H17  1  0.16870000  0.48894000  0.48391000  1.0
  H  H18  1  0.16870000  0.98894000  0.01609000  1.0
  H  H19  1  0.83130000  0.51106000  0.51609000  1.0
  C  C20  1  0.53960000  0.80248000  0.93061000  1.0
  C  C21  1  0.46040000  0.69753000  0.43061000  1.0
  C  C22  1  0.46040000  0.19752000  0.06939000  1.0
  C  C23  1  0.53960000  0.30247000  0.56939000  1.0
  C  C24  1  0.62803000  0.85781000  0.03637000  1.0
  C  C25  1  0.37196000  0.64219000  0.53637000  1.0
  C  C26  1  0.37197000  0.14219000  0.96363000  1.0
  C  C27  1  0.62804000  0.35781000  0.46363000  1.0
  C  C28  1  0.76222000  0.95507000  0.05229000  1.0
  C  C29  1  0.23778000  0.54493000  0.55230000  1.0
  C  C30  1  0.23778000  0.04493000  0.94771000  1.0
  C  C31  1  0.76222000  0.45507000  0.44771000  1.0
  C  C32  1  0.78629000  0.96203000  0.17489000  1.0
  C  C33  1  0.21371000  0.53797000  0.67489000  1.0
  C  C34  1  0.21371000  0.03797000  0.82511000  1.0
  C  C35  1  0.78629000  0.46203000  0.32511000  1.0
  C  C36  1  0.92117000  0.03933000  0.24396000  1.0
  C  C37  1  0.07883000  0.46068000  0.74396000  1.0
  C  C38  1  0.07883000  0.96068000  0.75604000  1.0
  C  C39  1  0.92117000  0.53932000  0.25604000  1.0
  N  N40  1  0.57185000  0.80910000  0.14191000  1.0
  N  N41  1  0.42815000  0.69090000  0.64191000  1.0
  N  N42  1  0.42815000  0.19090000  0.85809000  1.0
  N  N43  1  0.57185000  0.30910000  0.35809000  1.0
  N  N44  1  0.66920000  0.87253000  0.22420000  1.0
  N  N45  1  0.33080000  0.62747000  0.72420000  1.0
  N  N46  1  0.33079000  0.12747000  0.77580000  1.0
  N  N47  1  0.66920000  0.37253000  0.27580000  1.0
  O  O48  1  0.35313000  0.52069000  0.11782000  1.0
  O  O49  1  0.64687000  0.97931000  0.61782000  1.0
  O  O50  1  0.64687000  0.47931000  0.88218000  1.0
  O  O51  1  0.35312000  0.02069000  0.38218000  1.0
  O  O52  1  0.16889000  0.83959000  0.16893000  1.0
  O  O53  1  0.83110000  0.66041000  0.66892000  1.0
  O  O54  1  0.83111000  0.16042000  0.83107000  1.0
  O  O55  1  0.16890000  0.33959000  0.33108000  1.0
  O  O56  1  0.02702000  0.69542000  0.98252000  1.0
  O  O57  1  0.97298000  0.80458000  0.48252000  1.0
  O  O58  1  0.97298000  0.30458000  0.01748000  1.0
  O  O59  1  0.02702000  0.19543000  0.51748000  1.0
  O  O60  1  0.40130000  0.72587000  0.94866000  1.0
  O  O61  1  0.59870000  0.77412000  0.44866000  1.0
  O  O62  1  0.59871000  0.27412000  0.05133000  1.0
  O  O63  1  0.40130000  0.22588000  0.55134000  1.0
  O  O64  1  0.59902000  0.83285000  0.82831000  1.0
  O  O65  1  0.40097000  0.66715000  0.32831000  1.0
  O  O66  1  0.40098000  0.16715000  0.17169000  1.0
  O  O67  1  0.59903000  0.33285000  0.67169000  1.0
  O  O68  1  0.95415000  0.01580000  0.35246000  1.0
  O  O69  1  0.04584000  0.48420000  0.85246000  1.0
  O  O70  1  0.04584000  0.98420000  0.64754000  1.0
  O  O71  1  0.95416000  0.51580000  0.14754000  1.0
  O  O72  1  0.01088000  0.13017000  0.19151000  1.0
  O  O73  1  0.98912000  0.36983000  0.69151000  1.0
  O  O74  1  0.98912000  0.86983000  0.80849000  1.0
  O  O75  1  0.01088000  0.63017000  0.30849000  1.0
