# generated using pymatgen
data_CoH24C21(NO)4
_symmetry_space_group_name_H-M   'P 1'
_cell_length_a   9.60105000
_cell_length_b   14.35650000
_cell_length_c   17.65890000
_cell_angle_alpha   90.00070000
_cell_angle_beta   90.00000000
_cell_angle_gamma   96.43700000
_symmetry_Int_Tables_number   1
_chemical_formula_structural   CoH24C21(NO)4
_chemical_formula_sum   'Co4 H96 C84 N16 O16'
_cell_volume   2418.71321149
_cell_formula_units_Z   4
loop_
 _symmetry_equiv_pos_site_id
 _symmetry_equiv_pos_as_xyz
  1  'x, y, z'
loop_
 _atom_site_type_symbol
 _atom_site_label
 _atom_site_symmetry_multiplicity
 _atom_site_fract_x
 _atom_site_fract_y
 _atom_site_fract_z
 _atom_site_occupancy
  Co  Co0  1  0.73420000  0.73636000  0.59684000  1.0
  Co  Co1  1  0.26580000  0.76365000  0.09683000  1.0
  Co  Co2  1  0.26581000  0.26365000  0.40317000  1.0
  Co  Co3  1  0.73420000  0.23635000  0.90317000  1.0
  H  H4  1  0.46397000  0.46970000  0.22073000  1.0
  H  H5  1  0.53602000  0.03030000  0.72073000  1.0
  H  H6  1  0.53603000  0.53030000  0.77927000  1.0
  H  H7  1  0.46397000  0.96969000  0.27927000  1.0
  H  H8  1  0.60176000  0.48511000  0.10201000  1.0
  H  H9  1  0.39824000  0.01490000  0.60201000  1.0
  H  H10  1  0.39824000  0.51488000  0.89799000  1.0
  H  H11  1  0.60176000  0.98510000  0.39799000  1.0
  H  H12  1  0.97656000  0.56622000  0.23110000  1.0
  H  H13  1  0.02344000  0.93378000  0.73109000  1.0
  H  H14  1  0.02343000  0.43378000  0.76890000  1.0
  H  H15  1  0.97656000  0.06622000  0.26890000  1.0
  H  H16  1  0.83816000  0.55233000  0.34940000  1.0
  H  H17  1  0.16184000  0.94768000  0.84941000  1.0
  H  H18  1  0.16183000  0.44768000  0.65059000  1.0
  H  H19  1  0.83815000  0.05233000  0.15059000  1.0
  H  H20  1  0.45704000  0.53432000  0.35552000  1.0
  H  H21  1  0.54296000  0.96567000  0.85551000  1.0
  H  H22  1  0.54297000  0.46568000  0.64449000  1.0
  H  H23  1  0.45703000  0.03433000  0.14449000  1.0
  H  H24  1  0.51548000  0.42324000  0.37213000  1.0
  H  H25  1  0.48455000  0.07674000  0.87212000  1.0
  H  H26  1  0.48453000  0.57675000  0.62788000  1.0
  H  H27  1  0.51545000  0.92325000  0.12787000  1.0
  H  H28  1  0.89646000  0.61448000  0.06977000  1.0
  H  H29  1  0.10354000  0.88552000  0.56977000  1.0
  H  H30  1  0.10353000  0.38553000  0.93023000  1.0
  H  H31  1  0.89648000  0.11446000  0.43022000  1.0
  H  H32  1  0.99255000  0.52277000  0.09854000  1.0
  H  H33  1  0.00744000  0.97723000  0.59854000  1.0
  H  H34  1  0.00743000  0.47723000  0.90146000  1.0
  H  H35  1  0.99257000  0.02276000  0.40146000  1.0
  H  H36  1  0.84864000  0.54349000  0.57064000  1.0
  H  H37  1  0.15136000  0.95651000  0.07063000  1.0
  H  H38  1  0.15138000  0.45652000  0.42936000  1.0
  H  H39  1  0.84863000  0.04348000  0.92936000  1.0
  H  H40  1  0.74500000  0.42019000  0.45690000  1.0
  H  H41  1  0.25502000  0.07980000  0.95690000  1.0
  H  H42  1  0.25502000  0.57981000  0.54310000  1.0
  H  H43  1  0.74497000  0.92019000  0.04310000  1.0
  H  H44  1  0.55139000  0.75634000  0.46534000  1.0
  H  H45  1  0.44859000  0.74365000  0.96534000  1.0
  H  H46  1  0.44860000  0.24366000  0.53466000  1.0
  H  H47  1  0.55140000  0.25634000  0.03466000  1.0
  H  H48  1  0.41342000  0.66547000  0.44792000  1.0
  H  H49  1  0.58658000  0.83451000  0.94792000  1.0
  H  H50  1  0.58658000  0.33452000  0.55208000  1.0
  H  H51  1  0.41342000  0.16549000  0.05208000  1.0
  H  H52  1  0.53183000  0.70112000  0.37432000  1.0
  H  H53  1  0.46816000  0.79886000  0.87431000  1.0
  H  H54  1  0.46817000  0.29887000  0.62568000  1.0
  H  H55  1  0.53184000  0.20113000  0.12568000  1.0
  H  H56  1  0.66855000  0.43618000  0.86204000  1.0
  H  H57  1  0.33143000  0.06381000  0.36203000  1.0
  H  H58  1  0.33143000  0.56382000  0.13797000  1.0
  H  H59  1  0.66856000  0.93619000  0.63796000  1.0
  H  H60  1  0.74820000  0.59192000  0.95595000  1.0
  H  H61  1  0.25179000  0.90808000  0.45595000  1.0
  H  H62  1  0.25179000  0.40808000  0.04405000  1.0
  H  H63  1  0.74822000  0.09192000  0.54405000  1.0
  H  H64  1  0.89783000  0.26125000  0.04640000  1.0
  H  H65  1  0.10218000  0.23876000  0.54640000  1.0
  H  H66  1  0.10217000  0.73875000  0.95360000  1.0
  H  H67  1  0.89781000  0.76124000  0.45361000  1.0
  H  H68  1  0.82085000  0.31983000  0.12329000  1.0
  H  H69  1  0.17916000  0.18017000  0.62329000  1.0
  H  H70  1  0.17914000  0.68017000  0.87671000  1.0
  H  H71  1  0.82084000  0.81982000  0.37672000  1.0
  H  H72  1  0.99126000  0.36038000  0.09117000  1.0
  H  H73  1  0.00874000  0.13962000  0.59117000  1.0
  H  H74  1  0.00874000  0.63962000  0.90883000  1.0
  H  H75  1  0.99125000  0.86037000  0.40883000  1.0
  H  H76  1  0.09930000  0.63734000  0.72473000  1.0
  H  H77  1  0.90069000  0.86268000  0.22474000  1.0
  H  H78  1  0.90070000  0.36266000  0.27527000  1.0
  H  H79  1  0.09931000  0.13734000  0.77527000  1.0
  H  H80  1  0.09407000  0.75595000  0.74686000  1.0
  H  H81  1  0.90594000  0.74407000  0.24685000  1.0
  H  H82  1  0.90594000  0.24406000  0.25315000  1.0
  H  H83  1  0.09408000  0.25594000  0.75315000  1.0
  H  H84  1  0.26465000  0.79485000  0.63342000  1.0
  H  H85  1  0.73534000  0.70516000  0.13342000  1.0
  H  H86  1  0.73535000  0.20516000  0.36658000  1.0
  H  H87  1  0.26466000  0.29484000  0.86658000  1.0
  H  H88  1  0.28667000  0.67554000  0.63058000  1.0
  H  H89  1  0.71332000  0.82447000  0.13058000  1.0
  H  H90  1  0.71333000  0.32446000  0.36942000  1.0
  H  H91  1  0.28668000  0.17553000  0.86943000  1.0
  H  H92  1  0.34509000  0.80303000  0.76896000  1.0
  H  H93  1  0.65489000  0.69698000  0.26896000  1.0
  H  H94  1  0.65491000  0.19698000  0.23104000  1.0
  H  H95  1  0.34510000  0.30302000  0.73104000  1.0
  H  H96  1  0.36971000  0.68239000  0.76509000  1.0
  H  H97  1  0.63029000  0.81763000  0.26509000  1.0
  H  H98  1  0.63030000  0.31762000  0.23491000  1.0
  H  H99  1  0.36970000  0.18237000  0.73491000  1.0
  C  C100  1  0.64109000  0.50977000  0.29317000  1.0
  C  C101  1  0.35891000  0.99023000  0.79318000  1.0
  C  C102  1  0.35891000  0.49023000  0.70682000  1.0
  C  C103  1  0.64108000  0.00977000  0.20682000  1.0
  C  C104  1  0.57665000  0.49063000  0.22288000  1.0
  C  C105  1  0.42334000  0.00938000  0.72288000  1.0
  C  C106  1  0.42334000  0.50937000  0.77712000  1.0
  C  C107  1  0.57665000  0.99062000  0.27712000  1.0
  C  C108  1  0.65446000  0.49913000  0.15625000  1.0
  C  C109  1  0.34554000  0.00088000  0.65626000  1.0
  C  C110  1  0.34553000  0.50087000  0.84374000  1.0
  C  C111  1  0.65446000  0.99912000  0.34374000  1.0
  C  C112  1  0.79908000  0.52641000  0.15853000  1.0
  C  C113  1  0.20092000  0.97360000  0.65853000  1.0
  C  C114  1  0.20091000  0.47360000  0.84147000  1.0
  C  C115  1  0.79908000  0.02640000  0.34147000  1.0
  C  C116  1  0.86383000  0.54483000  0.22864000  1.0
  C  C117  1  0.13616000  0.95518000  0.72864000  1.0
  C  C118  1  0.13616000  0.45518000  0.77136000  1.0
  C  C119  1  0.86382000  0.04483000  0.27136000  1.0
  C  C120  1  0.78542000  0.53712000  0.29538000  1.0
  C  C121  1  0.21458000  0.96289000  0.79539000  1.0
  C  C122  1  0.21457000  0.46289000  0.70462000  1.0
  C  C123  1  0.78542000  0.03711000  0.20462000  1.0
  C  C124  1  0.55095000  0.49815000  0.36341000  1.0
  C  C125  1  0.44907000  0.00184000  0.86341000  1.0
  C  C126  1  0.44906000  0.50185000  0.63659000  1.0
  C  C127  1  0.55093000  0.99816000  0.13659000  1.0
  C  C128  1  0.88594000  0.54038000  0.08737000  1.0
  C  C129  1  0.11406000  0.95962000  0.58737000  1.0
  C  C130  1  0.11405000  0.45962000  0.91263000  1.0
  C  C131  1  0.88595000  0.04037000  0.41263000  1.0
  C  C132  1  0.61731000  0.62087000  0.46244000  1.0
  C  C133  1  0.38270000  0.87912000  0.96244000  1.0
  C  C134  1  0.38270000  0.37913000  0.53756000  1.0
  C  C135  1  0.61731000  0.12088000  0.03756000  1.0
  C  C136  1  0.77102000  0.55108000  0.52723000  1.0
  C  C137  1  0.22899000  0.94891000  0.02723000  1.0
  C  C138  1  0.22899000  0.44892000  0.47277000  1.0
  C  C139  1  0.77100000  0.05108000  0.97277000  1.0
  C  C140  1  0.72010000  0.48965000  0.47185000  1.0
  C  C141  1  0.27992000  0.01035000  0.97185000  1.0
  C  C142  1  0.27991000  0.51035000  0.52815000  1.0
  C  C143  1  0.72008000  0.98964000  0.02815000  1.0
  C  C144  1  0.52387000  0.68974000  0.43573000  1.0
  C  C145  1  0.47612000  0.81025000  0.93573000  1.0
  C  C146  1  0.47613000  0.31026000  0.56427000  1.0
  C  C147  1  0.52387000  0.18975000  0.06426000  1.0
  C  C148  1  0.82682000  0.39002000  0.01610000  1.0
  C  C149  1  0.17318000  0.10999000  0.51610000  1.0
  C  C150  1  0.17318000  0.60998000  0.98390000  1.0
  C  C151  1  0.82682000  0.89001000  0.48390000  1.0
  C  C152  1  0.72081000  0.44181000  0.91663000  1.0
  C  C153  1  0.27919000  0.05819000  0.41664000  1.0
  C  C154  1  0.27917000  0.55819000  0.08337000  1.0
  C  C155  1  0.72081000  0.94181000  0.58336000  1.0
  C  C156  1  0.76035000  0.51809000  0.96168000  1.0
  C  C157  1  0.23965000  0.98191000  0.46168000  1.0
  C  C158  1  0.23964000  0.48191000  0.03832000  1.0
  C  C159  1  0.76034000  0.01809000  0.53831000  1.0
  C  C160  1  0.88713000  0.32928000  0.07241000  1.0
  C  C161  1  0.11287000  0.17072000  0.57241000  1.0
  C  C162  1  0.11287000  0.67072000  0.92759000  1.0
  C  C163  1  0.88713000  0.82927000  0.42759000  1.0
  C  C164  1  0.99714000  0.71563000  0.64262000  1.0
  C  C165  1  0.00285000  0.78440000  0.14261000  1.0
  C  C166  1  0.00287000  0.28439000  0.35738000  1.0
  C  C167  1  0.99714000  0.21561000  0.85739000  1.0
  C  C168  1  0.11319000  0.70831000  0.70006000  1.0
  C  C169  1  0.88682000  0.79172000  0.20005000  1.0
  C  C170  1  0.88683000  0.29170000  0.29995000  1.0
  C  C171  1  0.11319000  0.20830000  0.79995000  1.0
  C  C172  1  0.26044000  0.73146000  0.66852000  1.0
  C  C173  1  0.73956000  0.76855000  0.16852000  1.0
  C  C174  1  0.73956000  0.26855000  0.33148000  1.0
  C  C175  1  0.26044000  0.23145000  0.83149000  1.0
  C  C176  1  0.37039000  0.74679000  0.73099000  1.0
  C  C177  1  0.62961000  0.75323000  0.23100000  1.0
  C  C178  1  0.62961000  0.25322000  0.26900000  1.0
  C  C179  1  0.37039000  0.24678000  0.76901000  1.0
  C  C180  1  0.51925000  0.77165000  0.70198000  1.0
  C  C181  1  0.48076000  0.72837000  0.20197000  1.0
  C  C182  1  0.48075000  0.22836000  0.29802000  1.0
  C  C183  1  0.51925000  0.27163000  0.79803000  1.0
  N  N184  1  0.62306000  0.53430000  0.43157000  1.0
  N  N185  1  0.37697000  0.96570000  0.93157000  1.0
  N  N186  1  0.37696000  0.46570000  0.56844000  1.0
  N  N187  1  0.62303000  0.03430000  0.06843000  1.0
  N  N188  1  0.70635000  0.63219000  0.52111000  1.0
  N  N189  1  0.29365000  0.86780000  0.02110000  1.0
  N  N190  1  0.29366000  0.36781000  0.47889000  1.0
  N  N191  1  0.70635000  0.13219000  0.97890000  1.0
  N  N192  1  0.82761000  0.48460000  0.02368000  1.0
  N  N193  1  0.17239000  0.01539000  0.52368000  1.0
  N  N194  1  0.17239000  0.51540000  0.97632000  1.0
  N  N195  1  0.82760000  0.98460000  0.47631000  1.0
  N  N196  1  0.76287000  0.36269000  0.95090000  1.0
  N  N197  1  0.23715000  0.13731000  0.45090000  1.0
  N  N198  1  0.23713000  0.63731000  0.04910000  1.0
  N  N199  1  0.76286000  0.86269000  0.54910000  1.0
  O  O200  1  0.87092000  0.70467000  0.67041000  1.0
  O  O201  1  0.12908000  0.79537000  0.17040000  1.0
  O  O202  1  0.12909000  0.29536000  0.32960000  1.0
  O  O203  1  0.87092000  0.20464000  0.82959000  1.0
  O  O204  1  0.02257000  0.73324000  0.57403000  1.0
  O  O205  1  0.97742000  0.76677000  0.07403000  1.0
  O  O206  1  0.97745000  0.26676000  0.42597000  1.0
  O  O207  1  0.02257000  0.23324000  0.92597000  1.0
  O  O208  1  0.54945000  0.72331000  0.64242000  1.0
  O  O209  1  0.45055000  0.77670000  0.14241000  1.0
  O  O210  1  0.45055000  0.27670000  0.35759000  1.0
  O  O211  1  0.54944000  0.22328000  0.85759000  1.0
  O  O212  1  0.60216000  0.83248000  0.73366000  1.0
  O  O213  1  0.39785000  0.66754000  0.23365000  1.0
  O  O214  1  0.39784000  0.16752000  0.26635000  1.0
  O  O215  1  0.60217000  0.33246000  0.76636000  1.0
