# generated using pymatgen
data_Mn3H8C12(N7O2)2
_symmetry_space_group_name_H-M   'P 1'
_cell_length_a   6.70069000
_cell_length_b   7.65241000
_cell_length_c   9.63178000
_cell_angle_alpha   104.26600000
_cell_angle_beta   97.27530000
_cell_angle_gamma   97.42440000
_symmetry_Int_Tables_number   1
_chemical_formula_structural   Mn3H8C12(N7O2)2
_chemical_formula_sum   'Mn3 H8 C12 N14 O4'
_cell_volume   468.14199275
_cell_formula_units_Z   1
loop_
 _symmetry_equiv_pos_site_id
 _symmetry_equiv_pos_as_xyz
  1  'x, y, z'
loop_
 _atom_site_type_symbol
 _atom_site_label
 _atom_site_symmetry_multiplicity
 _atom_site_fract_x
 _atom_site_fract_y
 _atom_site_fract_z
 _atom_site_occupancy
  Mn  Mn0  1  0.00000000  0.00000000  0.50000000  1.0
  Mn  Mn1  1  0.63803000  0.51687000  0.36694000  1.0
  Mn  Mn2  1  0.36197000  0.48314000  0.63306000  1.0
  H  H3  1  0.58127000  0.89451000  0.66526000  1.0
  H  H4  1  0.41874000  0.10549000  0.33474000  1.0
  H  H5  1  0.55671000  0.56819000  0.94875000  1.0
  H  H6  1  0.44330000  0.43181000  0.05124000  1.0
  H  H7  1  0.85629000  0.12907000  0.11339000  1.0
  H  H8  1  0.14372000  0.87092000  0.88661000  1.0
  H  H9  1  0.77586000  0.16008000  0.85864000  1.0
  H  H10  1  0.22415000  0.83991000  0.14136000  1.0
  C  C11  1  0.74877000  0.81591000  0.20000000  1.0
  C  C12  1  0.25123000  0.18409000  0.80000000  1.0
  C  C13  1  0.61905000  0.88360000  0.77554000  1.0
  C  C14  1  0.38095000  0.11639000  0.22445000  1.0
  C  C15  1  0.71150000  0.84548000  0.05191000  1.0
  C  C16  1  0.28850000  0.15451000  0.94809000  1.0
  C  C17  1  0.60612000  0.70272000  0.93503000  1.0
  C  C18  1  0.39388000  0.29728000  0.06497000  1.0
  C  C19  1  0.77495000  0.01413000  0.02503000  1.0
  C  C20  1  0.22504000  0.98586000  0.97497000  1.0
  C  C21  1  0.72859000  0.03213000  0.88490000  1.0
  C  C22  1  0.27142000  0.96787000  0.11509000  1.0
  N  N23  1  0.87387000  0.73988000  0.53221000  1.0
  N  N24  1  0.12613000  0.26012000  0.46780000  1.0
  N  N25  1  0.08665000  0.61505000  0.68563000  1.0
  N  N26  1  0.91335000  0.38496000  0.31437000  1.0
  N  N27  1  0.69076000  0.24611000  0.55028000  1.0
  N  N28  1  0.30924000  0.75390000  0.44973000  1.0
  N  N29  1  0.60986000  0.37516000  0.53977000  1.0
  N  N30  1  0.39014000  0.62483000  0.46024000  1.0
  N  N31  1  0.76635000  0.11802000  0.55855000  1.0
  N  N32  1  0.23364000  0.88200000  0.44146000  1.0
  N  N33  1  0.55843000  0.72033000  0.79992000  1.0
  N  N34  1  0.44157000  0.27967000  0.20008000  1.0
  N  N35  1  0.98360000  0.67831000  0.60963000  1.0
  N  N36  1  0.01640000  0.32169000  0.39037000  1.0
  O  O37  1  0.65524000  0.66972000  0.21899000  1.0
  O  O38  1  0.34476000  0.33028000  0.78101000  1.0
  O  O39  1  0.87151000  0.94215000  0.29619000  1.0
  O  O40  1  0.12849000  0.05785000  0.70381000  1.0
