# generated using pymatgen
data_Al2H11C22N2O14F
_symmetry_space_group_name_H-M   'P 1'
_cell_length_a   6.62019000
_cell_length_b   11.00281592
_cell_length_c   11.07140000
_cell_angle_alpha   89.17133591
_cell_angle_beta   73.62020000
_cell_angle_gamma   74.37393249
_symmetry_Int_Tables_number   1
_chemical_formula_structural   Al2H11C22N2O14F
_chemical_formula_sum   'Al2 H11 C22 N2 O14 F1'
_cell_volume   743.46907202
_cell_formula_units_Z   1
loop_
 _symmetry_equiv_pos_site_id
 _symmetry_equiv_pos_as_xyz
  1  'x, y, z'
loop_
 _atom_site_type_symbol
 _atom_site_label
 _atom_site_symmetry_multiplicity
 _atom_site_fract_x
 _atom_site_fract_y
 _atom_site_fract_z
 _atom_site_occupancy
  Al  Al0  1  0.99070000  0.48524000  0.47692000  1.0
  Al  Al1  1  0.48757000  0.48694000  0.48131000  1.0
  H  H2  1  0.35308000  0.40920000  0.32774000  1.0
  H  H3  1  0.62826000  0.59452000  0.61658000  1.0
  H  H4  1  0.81997000  0.36937000  0.85673000  1.0
  H  H5  1  0.25624000  0.70932000  0.86944000  1.0
  H  H6  1  0.47383000  0.57060000  0.86791000  1.0
  H  H7  1  0.34917000  0.58076000  0.10472000  1.0
  H  H8  1  0.13521000  0.72002000  0.10498000  1.0
  H  H9  1  0.52112000  0.22025000  0.68871000  1.0
  H  H10  1  0.86039000  0.76311000  0.71837000  1.0
  H  H11  1  0.32427000  0.87071000  0.34090000  1.0
  H  H12  1  0.18710000  0.10617000  0.34349000  1.0
  C  C13  1  0.82860000  0.26049000  0.48682000  1.0
  C  C14  1  0.84939000  0.49291000  0.25467000  1.0
  C  C15  1  0.14189000  0.71467000  0.49203000  1.0
  C  C16  1  0.12423000  0.47463000  0.70342000  1.0
  C  C17  1  0.05611000  0.47683000  0.84277000  1.0
  C  C18  1  0.91483000  0.48799000  0.11511000  1.0
  C  C19  1  0.14404000  0.53810000  0.91569000  1.0
  C  C20  1  0.82770000  0.42620000  0.03915000  1.0
  C  C21  1  0.07463000  0.54386000  0.04704000  1.0
  C  C22  1  0.89308000  0.42046000  0.90810000  1.0
  C  C23  1  0.29943000  0.61799000  0.91103000  1.0
  C  C24  1  0.22144000  0.62469000  0.06005000  1.0
  C  C25  1  0.90348000  0.12115000  0.49977000  1.0
  C  C26  1  0.78898000  0.05703000  0.59729000  1.0
  C  C27  1  0.09784000  0.05429000  0.41357000  1.0
  C  C28  1  0.59714000  0.12030000  0.69405000  1.0
  C  C29  1  0.50677000  0.05648000  0.79303000  1.0
  C  C30  1  0.06611000  0.85609000  0.50287000  1.0
  C  C31  1  0.17697000  0.92222000  0.41319000  1.0
  C  C32  1  0.87781000  0.92296000  0.60115000  1.0
  C  C33  1  0.78659000  0.86209000  0.70768000  1.0
  C  C34  1  0.60761000  0.92733000  0.80335000  1.0
  N  N35  1  0.29941000  0.12791000  0.88506000  1.0
  N  N36  1  0.53700000  0.86145000  0.91723000  1.0
  O  O37  1  0.97991000  0.31521000  0.45055000  1.0
  O  O38  1  0.66786000  0.47154000  0.31194000  1.0
  O  O39  1  0.34693000  0.66343000  0.46382000  1.0
  O  O40  1  0.99876000  0.44840000  0.64546000  1.0
  O  O41  1  0.99268000  0.65770000  0.51111000  1.0
  O  O42  1  0.30277000  0.50283000  0.65122000  1.0
  O  O43  1  0.62430000  0.31288000  0.50890000  1.0
  O  O44  1  0.98304000  0.51766000  0.30791000  1.0
  O  O45  1  0.29376000  0.43233000  0.41764000  1.0
  O  O46  1  0.68722000  0.54137000  0.53894000  1.0
  O  O47  1  0.12944000  0.11533000  0.86785000  1.0
  O  O48  1  0.31223000  0.19850000  0.96643000  1.0
  O  O49  1  0.65032000  0.75308000  0.92436000  1.0
  O  O50  1  0.36939000  0.91889000  0.00052000  1.0
  F  F51  1  0.67422000  0.36547000  0.09428000  1.0
