# generated using pymatgen
data_CdH15C18(NO)5
_symmetry_space_group_name_H-M   'P 1'
_cell_length_a   8.22343000
_cell_length_b   10.14210000
_cell_length_c   12.62190000
_cell_angle_alpha   109.97400000
_cell_angle_beta   102.49400000
_cell_angle_gamma   94.35700000
_symmetry_Int_Tables_number   1
_chemical_formula_structural   CdH15C18(NO)5
_chemical_formula_sum   'Cd2 H30 C36 N10 O10'
_cell_volume   952.97886167
_cell_formula_units_Z   2
loop_
 _symmetry_equiv_pos_site_id
 _symmetry_equiv_pos_as_xyz
  1  'x, y, z'
loop_
 _atom_site_type_symbol
 _atom_site_label
 _atom_site_symmetry_multiplicity
 _atom_site_fract_x
 _atom_site_fract_y
 _atom_site_fract_z
 _atom_site_occupancy
  Cd  Cd0  1  0.35733000  0.39239000  0.30098000  1.0
  Cd  Cd1  1  0.64267000  0.60762000  0.69902000  1.0
  H  H2  1  0.62501000  0.16305000  0.93967000  1.0
  H  H3  1  0.37498000  0.83694000  0.06033000  1.0
  H  H4  1  0.70278000  0.44341000  0.44554000  1.0
  H  H5  1  0.29722000  0.55660000  0.55446000  1.0
  H  H6  1  0.64916000  0.58187000  0.43716000  1.0
  H  H7  1  0.35084000  0.41813000  0.56284000  1.0
  H  H8  1  0.92361000  0.37867000  0.32256000  1.0
  H  H9  1  0.07639000  0.62133000  0.67744000  1.0
  H  H10  1  0.11170000  0.12339000  0.05032000  1.0
  H  H11  1  0.88831000  0.87661000  0.94968000  1.0
  H  H12  1  0.61602000  0.21050000  0.25284000  1.0
  H  H13  1  0.38397000  0.78950000  0.74716000  1.0
  H  H14  1  0.59441000  0.05123000  0.13299000  1.0
  H  H15  1  0.40559000  0.94876000  0.86701000  1.0
  H  H16  1  0.16969000  0.48793000  0.08618000  1.0
  H  H17  1  0.83032000  0.51206000  0.91383000  1.0
  H  H18  1  0.09383000  0.53010000  0.89834000  1.0
  H  H19  1  0.90618000  0.46990000  0.10167000  1.0
  H  H20  1  0.24071000  0.43147000  0.74426000  1.0
  H  H21  1  0.75928000  0.56853000  0.25574000  1.0
  H  H22  1  0.46136000  0.28243000  0.76724000  1.0
  H  H23  1  0.53864000  0.71757000  0.23276000  1.0
  H  H24  1  0.14847000  0.79556000  0.57836000  1.0
  H  H25  1  0.85153000  0.20444000  0.42164000  1.0
  H  H26  1  0.14168000  0.05626000  0.66938000  1.0
  H  H27  1  0.85832000  0.94374000  0.33062000  1.0
  H  H28  1  0.23095000  0.21966000  0.57701000  1.0
  H  H29  1  0.76905000  0.78034000  0.42299000  1.0
  H  H30  1  0.34271000  0.86965000  0.31039000  1.0
  H  H31  1  0.65730000  0.13036000  0.68961000  1.0
  C  C32  1  0.93597000  0.29671000  0.24386000  1.0
  C  C33  1  0.06403000  0.70330000  0.75614000  1.0
  C  C34  1  0.02681000  0.16693000  0.10337000  1.0
  C  C35  1  0.97319000  0.83307000  0.89664000  1.0
  C  C36  1  0.63298000  0.16689000  0.16465000  1.0
  C  C37  1  0.36702000  0.83311000  0.83535000  1.0
  C  C38  1  0.52842000  0.23124000  0.08900000  1.0
  C  C39  1  0.47158000  0.76875000  0.91100000  1.0
  C  C40  1  0.34771000  0.35162000  0.02678000  1.0
  C  C41  1  0.65230000  0.64838000  0.97322000  1.0
  C  C42  1  0.22627000  0.43852000  0.01494000  1.0
  C  C43  1  0.77373000  0.56148000  0.98507000  1.0
  C  C44  1  0.18772000  0.46285000  0.91099000  1.0
  C  C45  1  0.81228000  0.53715000  0.08902000  1.0
  C  C46  1  0.26989000  0.40538000  0.82247000  1.0
  C  C47  1  0.73010000  0.59462000  0.17754000  1.0
  C  C48  1  0.39289000  0.32020000  0.83376000  1.0
  C  C49  1  0.60711000  0.67980000  0.16624000  1.0
  C  C50  1  0.42800000  0.29263000  0.93664000  1.0
  C  C51  1  0.57201000  0.70737000  0.06337000  1.0
  C  C52  1  0.26286000  0.66329000  0.39076000  1.0
  C  C53  1  0.73715000  0.33672000  0.60923000  1.0
  C  C54  1  0.24909000  0.81714000  0.44044000  1.0
  C  C55  1  0.75091000  0.18286000  0.55955000  1.0
  C  C56  1  0.19131000  0.87011000  0.54128000  1.0
  C  C57  1  0.80870000  0.12988000  0.45872000  1.0
  C  C58  1  0.18714000  0.01481000  0.59127000  1.0
  C  C59  1  0.81286000  0.98519000  0.40873000  1.0
  C  C60  1  0.23719000  0.10692000  0.53946000  1.0
  C  C61  1  0.76281000  0.89308000  0.46054000  1.0
  C  C62  1  0.29177000  0.05500000  0.43724000  1.0
  C  C63  1  0.70823000  0.94501000  0.56276000  1.0
  C  C64  1  0.29826000  0.91000000  0.38876000  1.0
  C  C65  1  0.70174000  0.09000000  0.61123000  1.0
  C  C66  1  0.34008000  0.15131000  0.37760000  1.0
  C  C67  1  0.65993000  0.84869000  0.62240000  1.0
  N  N68  1  0.07486000  0.28204000  0.20528000  1.0
  N  N69  1  0.92514000  0.71797000  0.79472000  1.0
  N  N70  1  0.86554000  0.10951000  0.07640000  1.0
  N  N71  1  0.13446000  0.89049000  0.92361000  1.0
  N  N72  1  0.81036000  0.19281000  0.16743000  1.0
  N  N73  1  0.18964000  0.80719000  0.83257000  1.0
  N  N74  1  0.41444000  0.31166000  0.12013000  1.0
  N  N75  1  0.58556000  0.68833000  0.87987000  1.0
  N  N76  1  0.54044000  0.21545000  0.97897000  1.0
  N  N77  1  0.45955000  0.78455000  0.02103000  1.0
  O  O78  1  0.33320000  0.62153000  0.30675000  1.0
  O  O79  1  0.66679000  0.37847000  0.69324000  1.0
  O  O80  1  0.20644000  0.57831000  0.43436000  1.0
  O  O81  1  0.79356000  0.42170000  0.56564000  1.0
  O  O82  1  0.36502000  0.10055000  0.27780000  1.0
  O  O83  1  0.63498000  0.89945000  0.72220000  1.0
  O  O84  1  0.34979000  0.28691000  0.43290000  1.0
  O  O85  1  0.65020000  0.71310000  0.56710000  1.0
  O  O86  1  0.65036000  0.48251000  0.38545000  1.0
  O  O87  1  0.34965000  0.51750000  0.61455000  1.0
