# generated using pymatgen
data_MnH28C22(N2O3)2
_symmetry_space_group_name_H-M   'P 1'
_cell_length_a   5.40314000
_cell_length_b   20.97490000
_cell_length_c   21.08050000
_cell_angle_alpha   84.66100000
_cell_angle_beta   89.99990000
_cell_angle_gamma   89.99990000
_symmetry_Int_Tables_number   1
_chemical_formula_structural   MnH28C22(N2O3)2
_chemical_formula_sum   'Mn4 H112 C88 N16 O24'
_cell_volume   2378.69512149
_cell_formula_units_Z   4
loop_
 _symmetry_equiv_pos_site_id
 _symmetry_equiv_pos_as_xyz
  1  'x, y, z'
loop_
 _atom_site_type_symbol
 _atom_site_label
 _atom_site_symmetry_multiplicity
 _atom_site_fract_x
 _atom_site_fract_y
 _atom_site_fract_z
 _atom_site_occupancy
  Mn  Mn0  1  0.82887000  0.78737000  0.78343000  1.0
  Mn  Mn1  1  0.32890000  0.71263000  0.21657000  1.0
  Mn  Mn2  1  0.17111000  0.21263000  0.21658000  1.0
  Mn  Mn3  1  0.67108000  0.28737000  0.78342000  1.0
  H  H4  1  0.25593000  0.95570000  0.77089000  1.0
  H  H5  1  0.75593000  0.54429000  0.22912000  1.0
  H  H6  1  0.74407000  0.04429000  0.22912000  1.0
  H  H7  1  0.24405000  0.45571000  0.77088000  1.0
  H  H8  1  0.58529000  0.05427000  0.82734000  1.0
  H  H9  1  0.08531000  0.44573000  0.17266000  1.0
  H  H10  1  0.41470000  0.94573000  0.17266000  1.0
  H  H11  1  0.91469000  0.55427000  0.82734000  1.0
  H  H12  1  0.35090000  0.00754000  0.86891000  1.0
  H  H13  1  0.85093000  0.49246000  0.13110000  1.0
  H  H14  1  0.64908000  0.99246000  0.13109000  1.0
  H  H15  1  0.14908000  0.50754000  0.86890000  1.0
  H  H16  1  0.18885000  0.11679000  0.83158000  1.0
  H  H17  1  0.68886000  0.38322000  0.16842000  1.0
  H  H18  1  0.81116000  0.88322000  0.16842000  1.0
  H  H19  1  0.31113000  0.61678000  0.83158000  1.0
  H  H20  1  0.02769000  0.05442000  0.79833000  1.0
  H  H21  1  0.52771000  0.44558000  0.20167000  1.0
  H  H22  1  0.97229000  0.94558000  0.20167000  1.0
  H  H23  1  0.47228000  0.55442000  0.79833000  1.0
  H  H24  1  0.09378000  0.13641000  0.71465000  1.0
  H  H25  1  0.59380000  0.36359000  0.28535000  1.0
  H  H26  1  0.90621000  0.86359000  0.28535000  1.0
  H  H27  1  0.40619000  0.63641000  0.71465000  1.0
  H  H28  1  0.13398000  0.03342000  0.67944000  1.0
  H  H29  1  0.63399000  0.46657000  0.32056000  1.0
  H  H30  1  0.86600000  0.96658000  0.32056000  1.0
  H  H31  1  0.36598000  0.53342000  0.67943000  1.0
  H  H32  1  0.35909000  0.08272000  0.63838000  1.0
  H  H33  1  0.85910000  0.41727000  0.36162000  1.0
  H  H34  1  0.64090000  0.91727000  0.36162000  1.0
  H  H35  1  0.14088000  0.58273000  0.63838000  1.0
  H  H36  1  0.52905000  0.97417000  0.67528000  1.0
  H  H37  1  0.02906000  0.52583000  0.32473000  1.0
  H  H38  1  0.47093000  0.02583000  0.32472000  1.0
  H  H39  1  0.97091000  0.47417000  0.67527000  1.0
  H  H40  1  0.68767000  0.03494000  0.71192000  1.0
  H  H41  1  0.18768000  0.46506000  0.28809000  1.0
  H  H42  1  0.31232000  0.96506000  0.28809000  1.0
  H  H43  1  0.81230000  0.53494000  0.71191000  1.0
  H  H44  1  0.29870000  0.87750000  0.70685000  1.0
  H  H45  1  0.79873000  0.62250000  0.29315000  1.0
  H  H46  1  0.70130000  0.12249000  0.29315000  1.0
  H  H47  1  0.20129000  0.37751000  0.70684000  1.0
  H  H48  1  0.26450000  0.92692000  0.57963000  1.0
  H  H49  1  0.76453000  0.57308000  0.42037000  1.0
  H  H50  1  0.73550000  0.07308000  0.42037000  1.0
  H  H51  1  0.23552000  0.42693000  0.57962000  1.0
  H  H52  1  0.62266000  0.81810000  0.63256000  1.0
  H  H53  1  0.12268000  0.68190000  0.36744000  1.0
  H  H54  1  0.37734000  0.18190000  0.36744000  1.0
  H  H55  1  0.87733000  0.31810000  0.63256000  1.0
  H  H56  1  0.72368000  0.84555000  0.50970000  1.0
  H  H57  1  0.22371000  0.65445000  0.49031000  1.0
  H  H58  1  0.27633000  0.15444000  0.49031000  1.0
  H  H59  1  0.77636000  0.34556000  0.50969000  1.0
  H  H60  1  0.98385000  0.89450000  0.49015000  1.0
  H  H61  1  0.48390000  0.60550000  0.50985000  1.0
  H  H62  1  0.01615000  0.10550000  0.50985000  1.0
  H  H63  1  0.51618000  0.39450000  0.49014000  1.0
  H  H64  1  0.84016000  0.00171000  0.57939000  1.0
  H  H65  1  0.34021000  0.49829000  0.42061000  1.0
  H  H66  1  0.15983000  0.99828000  0.42061000  1.0
  H  H67  1  0.65985000  0.50172000  0.57938000  1.0
  H  H68  1  0.57060000  0.09630000  0.55751000  1.0
  H  H69  1  0.07062000  0.40371000  0.44249000  1.0
  H  H70  1  0.42941000  0.90369000  0.44250000  1.0
  H  H71  1  0.92942000  0.59631000  0.55750000  1.0
  H  H72  1  0.38599000  0.69552000  0.00679000  1.0
  H  H73  1  0.88599000  0.80448000  0.99322000  1.0
  H  H74  1  0.61403000  0.30447000  0.99322000  1.0
  H  H75  1  0.11401000  0.19552000  0.00678000  1.0
  H  H76  1  0.35828000  0.77762000  0.89525000  1.0
  H  H77  1  0.85830000  0.72238000  0.10475000  1.0
  H  H78  1  0.64172000  0.22237000  0.10475000  1.0
  H  H79  1  0.14171000  0.27762000  0.89524000  1.0
  H  H80  1  0.00919000  0.66726000  0.89047000  1.0
  H  H81  1  0.50921000  0.83274000  0.10953000  1.0
  H  H82  1  0.99082000  0.33274000  0.10953000  1.0
  H  H83  1  0.49078000  0.16726000  0.89047000  1.0
  H  H84  1  0.79116000  0.63050000  0.05612000  1.0
  H  H85  1  0.29113000  0.86951000  0.94388000  1.0
  H  H86  1  0.20888000  0.36950000  0.94388000  1.0
  H  H87  1  0.70882000  0.13050000  0.05612000  1.0
  H  H88  1  0.99871000  0.60460000  0.99814000  1.0
  H  H89  1  0.49868000  0.89541000  0.00186000  1.0
  H  H90  1  0.00133000  0.39540000  0.00187000  1.0
  H  H91  1  0.50129000  0.10461000  0.99813000  1.0
  H  H92  1  0.86232000  0.51932000  0.92868000  1.0
  H  H93  1  0.36228000  0.98068000  0.07132000  1.0
  H  H94  1  0.13773000  0.48068000  0.07132000  1.0
  H  H95  1  0.63769000  0.01932000  0.92868000  1.0
  H  H96  1  0.60013000  0.42448000  0.91981000  1.0
  H  H97  1  0.10007000  0.07552000  0.08019000  1.0
  H  H98  1  0.39992000  0.57552000  0.08019000  1.0
  H  H99  1  0.89989000  0.92448000  0.91981000  1.0
  H  H100  1  0.01062000  0.88518000  0.82728000  1.0
  H  H101  1  0.51062000  0.61483000  0.17272000  1.0
  H  H102  1  0.98936000  0.11482000  0.17271000  1.0
  H  H103  1  0.48935000  0.38518000  0.82727000  1.0
  H  H104  1  0.63708000  0.71086000  0.71280000  1.0
  H  H105  1  0.13710000  0.78914000  0.28721000  1.0
  H  H106  1  0.36289000  0.28913000  0.28721000  1.0
  H  H107  1  0.86287000  0.21086000  0.71279000  1.0
  H  H108  1  0.27203000  0.85105000  0.81608000  1.0
  H  H109  1  0.77205000  0.64894000  0.18392000  1.0
  H  H110  1  0.72794000  0.14894000  0.18392000  1.0
  H  H111  1  0.22793000  0.35106000  0.81607000  1.0
  H  H112  1  0.37975000  0.73295000  0.74517000  1.0
  H  H113  1  0.87978000  0.76705000  0.25484000  1.0
  H  H114  1  0.62022000  0.26705000  0.25484000  1.0
  H  H115  1  0.12019000  0.23295000  0.74517000  1.0
  C  C116  1  0.62714000  0.92844000  0.79665000  1.0
  C  C117  1  0.12715000  0.57156000  0.20335000  1.0
  C  C118  1  0.37285000  0.07156000  0.20335000  1.0
  C  C119  1  0.87285000  0.42843000  0.79665000  1.0
  C  C120  1  0.43631000  0.97917000  0.77513000  1.0
  C  C121  1  0.93632000  0.52083000  0.22487000  1.0
  C  C122  1  0.56369000  0.02083000  0.22487000  1.0
  C  C123  1  0.06367000  0.47917000  0.77513000  1.0
  C  C124  1  0.40546000  0.03053000  0.82191000  1.0
  C  C125  1  0.90547000  0.46947000  0.17809000  1.0
  C  C126  1  0.59453000  0.96947000  0.17809000  1.0
  C  C127  1  0.09452000  0.53053000  0.82191000  1.0
  C  C128  1  0.20705000  0.07926000  0.79875000  1.0
  C  C129  1  0.70706000  0.42074000  0.20126000  1.0
  C  C130  1  0.79295000  0.92074000  0.20125000  1.0
  C  C131  1  0.29293000  0.57925000  0.79875000  1.0
  C  C132  1  0.26175000  0.11035000  0.73111000  1.0
  C  C133  1  0.76178000  0.38965000  0.26889000  1.0
  C  C134  1  0.73823000  0.88965000  0.26889000  1.0
  C  C135  1  0.23821000  0.61035000  0.73111000  1.0
  C  C136  1  0.30928000  0.05927000  0.68527000  1.0
  C  C137  1  0.80928000  0.44073000  0.31473000  1.0
  C  C138  1  0.69071000  0.94073000  0.31473000  1.0
  C  C139  1  0.19070000  0.55927000  0.68527000  1.0
  C  C140  1  0.50773000  0.01093000  0.70891000  1.0
  C  C141  1  0.00773000  0.48907000  0.29109000  1.0
  C  C142  1  0.49227000  0.98907000  0.29109000  1.0
  C  C143  1  0.99225000  0.51093000  0.70891000  1.0
  C  C144  1  0.46604000  0.16107000  0.73149000  1.0
  C  C145  1  0.96608000  0.33893000  0.26851000  1.0
  C  C146  1  0.53394000  0.83893000  0.26851000  1.0
  C  C147  1  0.03391000  0.66107000  0.73150000  1.0
  C  C148  1  0.15111000  0.87340000  0.67262000  1.0
  C  C149  1  0.65115000  0.62660000  0.32738000  1.0
  C  C150  1  0.84888000  0.12660000  0.32738000  1.0
  C  C151  1  0.34889000  0.37341000  0.67261000  1.0
  C  C152  1  0.13938000  0.89733000  0.60976000  1.0
  C  C153  1  0.63942000  0.60267000  0.39025000  1.0
  C  C154  1  0.86061000  0.10267000  0.39025000  1.0
  C  C155  1  0.36063000  0.39734000  0.60974000  1.0
  C  C156  1  0.80156000  0.84100000  0.63605000  1.0
  C  C157  1  0.30158000  0.65899000  0.36395000  1.0
  C  C158  1  0.19844000  0.15899000  0.36395000  1.0
  C  C159  1  0.69844000  0.34101000  0.63605000  1.0
  C  C160  1  0.82294000  0.88835000  0.52211000  1.0
  C  C161  1  0.32297000  0.61164000  0.47789000  1.0
  C  C162  1  0.17708000  0.11164000  0.47789000  1.0
  C  C163  1  0.67710000  0.38837000  0.52211000  1.0
  C  C164  1  0.65571000  0.94624000  0.51183000  1.0
  C  C165  1  0.15575000  0.55376000  0.48817000  1.0
  C  C166  1  0.34429000  0.05375000  0.48817000  1.0
  C  C167  1  0.84431000  0.44625000  0.51183000  1.0
  C  C168  1  0.69226000  0.00075000  0.54425000  1.0
  C  C169  1  0.19230000  0.49925000  0.45574000  1.0
  C  C170  1  0.30774000  0.99925000  0.45575000  1.0
  C  C171  1  0.80776000  0.50076000  0.54424000  1.0
  C  C172  1  0.53824000  0.05391000  0.53226000  1.0
  C  C173  1  0.03826000  0.44610000  0.46774000  1.0
  C  C174  1  0.46176000  0.94609000  0.46775000  1.0
  C  C175  1  0.96180000  0.55392000  0.53225000  1.0
  C  C176  1  0.50845000  0.70204000  0.96591000  1.0
  C  C177  1  0.00845000  0.79796000  0.03410000  1.0
  C  C178  1  0.49157000  0.29796000  0.03409000  1.0
  C  C179  1  0.99155000  0.20204000  0.96590000  1.0
  C  C180  1  0.49947000  0.74286000  0.91092000  1.0
  C  C181  1  0.99949000  0.75714000  0.08908000  1.0
  C  C182  1  0.50053000  0.25713000  0.08908000  1.0
  C  C183  1  0.00052000  0.24286000  0.91091000  1.0
  C  C184  1  0.83571000  0.68665000  0.90605000  1.0
  C  C185  1  0.33572000  0.81336000  0.09395000  1.0
  C  C186  1  0.16430000  0.31335000  0.09395000  1.0
  C  C187  1  0.66428000  0.18665000  0.90605000  1.0
  C  C188  1  0.80353000  0.61404000  0.00825000  1.0
  C  C189  1  0.30351000  0.88597000  0.99176000  1.0
  C  C190  1  0.19649000  0.38596000  0.99176000  1.0
  C  C191  1  0.69646000  0.11404000  0.00825000  1.0
  C  C192  1  0.64837000  0.55460000  0.00443000  1.0
  C  C193  1  0.14833000  0.94540000  0.99557000  1.0
  C  C194  1  0.35166000  0.44540000  0.99557000  1.0
  C  C195  1  0.85163000  0.05460000  0.00444000  1.0
  C  C196  1  0.70394000  0.51093000  0.96025000  1.0
  C  C197  1  0.20390000  0.98907000  0.03975000  1.0
  C  C198  1  0.29610000  0.48907000  0.03975000  1.0
  C  C199  1  0.79606000  0.01093000  0.96025000  1.0
  C  C200  1  0.55716000  0.45687000  0.95576000  1.0
  C  C201  1  0.05711000  0.04313000  0.04425000  1.0
  C  C202  1  0.44288000  0.54313000  0.04425000  1.0
  C  C203  1  0.94284000  0.95687000  0.95576000  1.0
  N  N204  1  0.93950000  0.83865000  0.68844000  1.0
  N  N205  1  0.43953000  0.66135000  0.31156000  1.0
  N  N206  1  0.06050000  0.16135000  0.31156000  1.0
  N  N207  1  0.56049000  0.33865000  0.68843000  1.0
  N  N208  1  0.91683000  0.87588000  0.58685000  1.0
  N  N209  1  0.41687000  0.62412000  0.41315000  1.0
  N  N210  1  0.08316000  0.12411000  0.41315000  1.0
  N  N211  1  0.58318000  0.37589000  0.58685000  1.0
  N  N212  1  0.70531000  0.73300000  0.87402000  1.0
  N  N213  1  0.20533000  0.76700000  0.12599000  1.0
  N  N214  1  0.29469000  0.26699000  0.12598000  1.0
  N  N215  1  0.79467000  0.23300000  0.87401000  1.0
  N  N216  1  0.72330000  0.66674000  0.96213000  1.0
  N  N217  1  0.22329000  0.83326000  0.03788000  1.0
  N  N218  1  0.27675000  0.33326000  0.03788000  1.0
  N  N219  1  0.77670000  0.16674000  0.96212000  1.0
  O  O220  1  0.56380000  0.86886000  0.79696000  1.0
  O  O221  1  0.06381000  0.63114000  0.20303000  1.0
  O  O222  1  0.43620000  0.13114000  0.20303000  1.0
  O  O223  1  0.93618000  0.36886000  0.79696000  1.0
  O  O224  1  0.84111000  0.94632000  0.81131000  1.0
  O  O225  1  0.34111000  0.55368000  0.18868000  1.0
  O  O226  1  0.15889000  0.05368000  0.18868000  1.0
  O  O227  1  0.65889000  0.44631000  0.81132000  1.0
  O  O228  1  0.42127000  0.20747000  0.76639000  1.0
  O  O229  1  0.92131000  0.29253000  0.23360000  1.0
  O  O230  1  0.57869000  0.79253000  0.23360000  1.0
  O  O231  1  0.07867000  0.70748000  0.76640000  1.0
  O  O232  1  0.65958000  0.15685000  0.69854000  1.0
  O  O233  1  0.15961000  0.34314000  0.30145000  1.0
  O  O234  1  0.34043000  0.84314000  0.30146000  1.0
  O  O235  1  0.84038000  0.65685000  0.69855000  1.0
  O  O236  1  0.10101000  0.84231000  0.83348000  1.0
  O  O237  1  0.60101000  0.65769000  0.16654000  1.0
  O  O238  1  0.89898000  0.15769000  0.16653000  1.0
  O  O239  1  0.39895000  0.34231000  0.83346000  1.0
  O  O240  1  0.53834000  0.74881000  0.72554000  1.0
  O  O241  1  0.03836000  0.75119000  0.27446000  1.0
  O  O242  1  0.46164000  0.25118000  0.27445000  1.0
  O  O243  1  0.96160000  0.24881000  0.72554000  1.0
