# generated using pymatgen
data_CuH11C13NO4
_symmetry_space_group_name_H-M   'P 1'
_cell_length_a   4.96585000
_cell_length_b   7.22375000
_cell_length_c   16.78176355
_cell_angle_alpha   77.59424076
_cell_angle_beta   87.17359113
_cell_angle_gamma   76.63840000
_symmetry_Int_Tables_number   1
_chemical_formula_structural   CuH11C13NO4
_chemical_formula_sum   'Cu2 H22 C26 N2 O8'
_cell_volume   572.02520750
_cell_formula_units_Z   2
loop_
 _symmetry_equiv_pos_site_id
 _symmetry_equiv_pos_as_xyz
  1  'x, y, z'
loop_
 _atom_site_type_symbol
 _atom_site_label
 _atom_site_symmetry_multiplicity
 _atom_site_fract_x
 _atom_site_fract_y
 _atom_site_fract_z
 _atom_site_occupancy
  Cu  Cu0  1  0.10515000  0.26633000  0.88913000  1.0
  Cu  Cu1  1  0.60619000  0.15535000  0.11070000  1.0
  H  H2  1  0.88759000  0.59638000  0.94229000  1.0
  H  H3  1  0.38796000  0.53884000  0.05749000  1.0
  H  H4  1  0.77326000  0.41201000  0.98778000  1.0
  H  H5  1  0.27353000  0.39965000  0.01214000  1.0
  H  H6  1  0.67448000  0.65177000  0.79215000  1.0
  H  H7  1  0.17610000  0.44327000  0.20781000  1.0
  H  H8  1  0.00784000  0.63214000  0.67715000  1.0
  H  H9  1  0.50912000  0.30878000  0.32297000  1.0
  H  H10  1  0.22992000  0.47279000  0.57134000  1.0
  H  H11  1  0.73044000  0.04388000  0.42896000  1.0
  H  H12  1  0.30903000  0.19865000  0.49795000  1.0
  H  H13  1  0.80911000  0.69648000  0.50245000  1.0
  H  H14  1  0.04205000  0.94148000  0.53904000  1.0
  H  H15  1  0.54154000  0.48065000  0.46135000  1.0
  H  H16  1  0.69603000  0.95781000  0.64673000  1.0
  H  H17  1  0.19563000  0.60463000  0.35355000  1.0
  H  H18  1  0.47889000  0.95974000  0.73990000  1.0
  H  H19  1  0.97982000  0.69943000  0.25990000  1.0
  H  H20  1  0.30945000  0.78324000  0.89463000  1.0
  H  H21  1  0.81037000  0.67762000  0.10511000  1.0
  H  H22  1  0.09586000  0.83799000  0.80677000  1.0
  H  H23  1  0.59663000  0.64486000  0.19292000  1.0
  C  C24  1  0.56710000  0.23767000  0.74270000  1.0
  C  C25  1  0.06803000  0.98003000  0.25729000  1.0
  C  C26  1  0.52701000  0.39844000  0.78263000  1.0
  C  C27  1  0.02835000  0.18059000  0.21731000  1.0
  C  C28  1  0.69619000  0.53780000  0.75747000  1.0
  C  C29  1  0.19765000  0.29475000  0.24254000  1.0
  C  C30  1  0.87980000  0.52554000  0.69440000  1.0
  C  C31  1  0.38106000  0.21946000  0.30568000  1.0
  C  C32  1  0.11151000  0.36024000  0.58721000  1.0
  C  C33  1  0.61192000  0.94722000  0.41310000  1.0
  C  C34  1  0.15710000  0.20839000  0.54678000  1.0
  C  C35  1  0.65722000  0.75505000  0.45357000  1.0
  C  C36  1  0.00606000  0.06273000  0.57034000  1.0
  C  C37  1  0.50581000  0.63310000  0.43002000  1.0
  C  C38  1  0.81265000  0.07126000  0.63262000  1.0
  C  C39  1  0.31244000  0.70387000  0.36769000  1.0
  C  C40  1  0.76215000  0.22470000  0.67589000  1.0
  C  C41  1  0.26253000  0.90037000  0.32428000  1.0
  C  C42  1  0.91724000  0.37159000  0.65140000  1.0
  C  C43  1  0.41791000  0.02266000  0.34880000  1.0
  C  C44  1  0.42885000  0.08311000  0.77040000  1.0
  C  C45  1  0.92997000  0.85328000  0.22941000  1.0
  C  C46  1  0.14893000  0.89665000  0.85783000  1.0
  C  C47  1  0.64989000  0.75438000  0.14186000  1.0
  C  C48  1  0.89986000  0.93719000  0.91309000  1.0
  C  C49  1  0.40086000  0.85033000  0.08657000  1.0
  N  N50  1  0.25286000  0.07135000  0.83000000  1.0
  N  N51  1  0.75402000  0.90119000  0.16976000  1.0
  O  O52  1  0.35115000  0.42997000  0.84105000  1.0
  O  O53  1  0.85270000  0.27060000  0.15883000  1.0
  O  O54  1  0.84247000  0.10196000  0.93457000  1.0
  O  O55  1  0.34351000  0.03657000  0.06519000  1.0
  O  O56  1  0.94399000  0.44623000  0.96145000  1.0
  O  O57  1  0.44432000  0.40764000  0.03845000  1.0
  O  O58  1  0.76168000  0.80902000  0.93524000  1.0
  O  O59  1  0.26241000  0.74451000  0.06435000  1.0
