# generated using pymatgen
data_CdH8C8NClO3
_symmetry_space_group_name_H-M   'P 1'
_cell_length_a   6.87246000
_cell_length_b   16.01380000
_cell_length_c   20.54550000
_cell_angle_alpha   89.99980000
_cell_angle_beta   89.99980000
_cell_angle_gamma   89.99980000
_symmetry_Int_Tables_number   1
_chemical_formula_structural   CdH8C8NClO3
_chemical_formula_sum   'Cd8 H64 C64 N8 Cl8 O24'
_cell_volume   2261.11856499
_cell_formula_units_Z   8
loop_
 _symmetry_equiv_pos_site_id
 _symmetry_equiv_pos_as_xyz
  1  'x, y, z'
loop_
 _atom_site_type_symbol
 _atom_site_label
 _atom_site_symmetry_multiplicity
 _atom_site_fract_x
 _atom_site_fract_y
 _atom_site_fract_z
 _atom_site_occupancy
  Cd  Cd0  1  0.13510000  0.90431000  0.53329000  1.0
  Cd  Cd1  1  0.63511000  0.09570000  0.96671000  1.0
  Cd  Cd2  1  0.86490000  0.59570000  0.03329000  1.0
  Cd  Cd3  1  0.36491000  0.40431000  0.46671000  1.0
  Cd  Cd4  1  0.86491000  0.09569000  0.46671000  1.0
  Cd  Cd5  1  0.36490000  0.90431000  0.03329000  1.0
  Cd  Cd6  1  0.13509000  0.40431000  0.96671000  1.0
  Cd  Cd7  1  0.63510000  0.59570000  0.53329000  1.0
  H  H8  1  0.47155000  0.81667000  0.58135000  1.0
  H  H9  1  0.97155000  0.18332000  0.91864000  1.0
  H  H10  1  0.52845000  0.68333000  0.08136000  1.0
  H  H11  1  0.02845000  0.31667000  0.41864000  1.0
  H  H12  1  0.52845000  0.18332000  0.41864000  1.0
  H  H13  1  0.02845000  0.81668000  0.08136000  1.0
  H  H14  1  0.47154000  0.31667000  0.91865000  1.0
  H  H15  1  0.97155000  0.68332000  0.58136000  1.0
  H  H16  1  0.54093000  0.90668000  0.55714000  1.0
  H  H17  1  0.04095000  0.09333000  0.94286000  1.0
  H  H18  1  0.45906000  0.59333000  0.05714000  1.0
  H  H19  1  0.95907000  0.40667000  0.44286000  1.0
  H  H20  1  0.45907000  0.09332000  0.44286000  1.0
  H  H21  1  0.95906000  0.90667000  0.05714000  1.0
  H  H22  1  0.54093000  0.40667000  0.94286000  1.0
  H  H23  1  0.04094000  0.59332000  0.55714000  1.0
  H  H24  1  0.87280000  0.55431000  0.87858000  1.0
  H  H25  1  0.37281000  0.44569000  0.62142000  1.0
  H  H26  1  0.12720000  0.94569000  0.37858000  1.0
  H  H27  1  0.62721000  0.05431000  0.12141000  1.0
  H  H28  1  0.12720000  0.44570000  0.12142000  1.0
  H  H29  1  0.62720000  0.55431000  0.37858000  1.0
  H  H30  1  0.87281000  0.05431000  0.62142000  1.0
  H  H31  1  0.37281000  0.94570000  0.87858000  1.0
  H  H32  1  0.91788000  0.62795000  0.77376000  1.0
  H  H33  1  0.41791000  0.37205000  0.72624000  1.0
  H  H34  1  0.08214000  0.87205000  0.27376000  1.0
  H  H35  1  0.58212000  0.12794000  0.22623000  1.0
  H  H36  1  0.08210000  0.37206000  0.22624000  1.0
  H  H37  1  0.58211000  0.62795000  0.27376000  1.0
  H  H38  1  0.91791000  0.12796000  0.72623000  1.0
  H  H39  1  0.41790000  0.87205000  0.77376000  1.0
  H  H40  1  0.86310000  0.86139000  0.87915000  1.0
  H  H41  1  0.36311000  0.13862000  0.62085000  1.0
  H  H42  1  0.13691000  0.63861000  0.37915000  1.0
  H  H43  1  0.63690000  0.36139000  0.12085000  1.0
  H  H44  1  0.13692000  0.13862000  0.12085000  1.0
  H  H45  1  0.63689000  0.86139000  0.37915000  1.0
  H  H46  1  0.86310000  0.36139000  0.62085000  1.0
  H  H47  1  0.36310000  0.63862000  0.87915000  1.0
  H  H48  1  0.81589000  0.77794000  0.97939000  1.0
  H  H49  1  0.31590000  0.22207000  0.52062000  1.0
  H  H50  1  0.18412000  0.72207000  0.47938000  1.0
  H  H51  1  0.68411000  0.27794000  0.02061000  1.0
  H  H52  1  0.18412000  0.22206000  0.02062000  1.0
  H  H53  1  0.68411000  0.77794000  0.47938000  1.0
  H  H54  1  0.81590000  0.27794000  0.52061000  1.0
  H  H55  1  0.31588000  0.72207000  0.97938000  1.0
  H  H56  1  0.94510000  0.86867000  0.76402000  1.0
  H  H57  1  0.44513000  0.13133000  0.73598000  1.0
  H  H58  1  0.05491000  0.63132000  0.26403000  1.0
  H  H59  1  0.55491000  0.36867000  0.23597000  1.0
  H  H60  1  0.05492000  0.13133000  0.23598000  1.0
  H  H61  1  0.55489000  0.86868000  0.26402000  1.0
  H  H62  1  0.94511000  0.36868000  0.73598000  1.0
  H  H63  1  0.44510000  0.63133000  0.76402000  1.0
  H  H64  1  0.92516000  0.70282000  0.68802000  1.0
  H  H65  1  0.42515000  0.29717000  0.81198000  1.0
  H  H66  1  0.07484000  0.79717000  0.18803000  1.0
  H  H67  1  0.57480000  0.20282000  0.31197000  1.0
  H  H68  1  0.07482000  0.29718000  0.31198000  1.0
  H  H69  1  0.57482000  0.70283000  0.18803000  1.0
  H  H70  1  0.92515000  0.20283000  0.81198000  1.0
  H  H71  1  0.42517000  0.79718000  0.68802000  1.0
  C  C72  1  0.86893000  0.62244000  0.87645000  1.0
  C  C73  1  0.36894000  0.37755000  0.62355000  1.0
  C  C74  1  0.13107000  0.87756000  0.37645000  1.0
  C  C75  1  0.63107000  0.12244000  0.12354000  1.0
  C  C76  1  0.13107000  0.37756000  0.12354000  1.0
  C  C77  1  0.63106000  0.62245000  0.37646000  1.0
  C  C78  1  0.86893000  0.12245000  0.62355000  1.0
  C  C79  1  0.36893000  0.87755000  0.87646000  1.0
  C  C80  1  0.89421000  0.66424000  0.81789000  1.0
  C  C81  1  0.39423000  0.33575000  0.68211000  1.0
  C  C82  1  0.10580000  0.83576000  0.31789000  1.0
  C  C83  1  0.60579000  0.16423000  0.18210000  1.0
  C  C84  1  0.10578000  0.33575000  0.18210000  1.0
  C  C85  1  0.60577000  0.66425000  0.31790000  1.0
  C  C86  1  0.89422000  0.16425000  0.68211000  1.0
  C  C87  1  0.39422000  0.83575000  0.81789000  1.0
  C  C88  1  0.89465000  0.75224000  0.81680000  1.0
  C  C89  1  0.39466000  0.24775000  0.68320000  1.0
  C  C90  1  0.10535000  0.74776000  0.31680000  1.0
  C  C91  1  0.60535000  0.25223000  0.18320000  1.0
  C  C92  1  0.10535000  0.24775000  0.18320000  1.0
  C  C93  1  0.60534000  0.75225000  0.31680000  1.0
  C  C94  1  0.89465000  0.25225000  0.68320000  1.0
  C  C95  1  0.39464000  0.74775000  0.81680000  1.0
  C  C96  1  0.86521000  0.79341000  0.87631000  1.0
  C  C97  1  0.36522000  0.20659000  0.62368000  1.0
  C  C98  1  0.13479000  0.70659000  0.37632000  1.0
  C  C99  1  0.63480000  0.29341000  0.12368000  1.0
  C  C100  1  0.13479000  0.20659000  0.12368000  1.0
  C  C101  1  0.63478000  0.79342000  0.37632000  1.0
  C  C102  1  0.86521000  0.29342000  0.62368000  1.0
  C  C103  1  0.36521000  0.70659000  0.87632000  1.0
  C  C104  1  0.83896000  0.74706000  0.93278000  1.0
  C  C105  1  0.33897000  0.25293000  0.56722000  1.0
  C  C106  1  0.16103000  0.75294000  0.43278000  1.0
  C  C107  1  0.66104000  0.24706000  0.06722000  1.0
  C  C108  1  0.16104000  0.25294000  0.06722000  1.0
  C  C109  1  0.66103000  0.74707000  0.43278000  1.0
  C  C110  1  0.83896000  0.24707000  0.56722000  1.0
  C  C111  1  0.33895000  0.75293000  0.93278000  1.0
  C  C112  1  0.92785000  0.80120000  0.75798000  1.0
  C  C113  1  0.42788000  0.19879000  0.74203000  1.0
  C  C114  1  0.07215000  0.69879000  0.25798000  1.0
  C  C115  1  0.57214000  0.30120000  0.24202000  1.0
  C  C116  1  0.07214000  0.19880000  0.24203000  1.0
  C  C117  1  0.57213000  0.80121000  0.25797000  1.0
  C  C118  1  0.92787000  0.30121000  0.74202000  1.0
  C  C119  1  0.42786000  0.69880000  0.75797000  1.0
  C  C120  1  0.94171000  0.76948000  0.69751000  1.0
  C  C121  1  0.44173000  0.23051000  0.80250000  1.0
  C  C122  1  0.05827000  0.73051000  0.19751000  1.0
  C  C123  1  0.55825000  0.26949000  0.30249000  1.0
  C  C124  1  0.05827000  0.23052000  0.30249000  1.0
  C  C125  1  0.55826000  0.76948000  0.19750000  1.0
  C  C126  1  0.94173000  0.26949000  0.80249000  1.0
  C  C127  1  0.44173000  0.73052000  0.69750000  1.0
  C  C128  1  0.99183000  0.82130000  0.64016000  1.0
  C  C129  1  0.49184000  0.17869000  0.85984000  1.0
  C  C130  1  0.00815000  0.67869000  0.14016000  1.0
  C  C131  1  0.50815000  0.32131000  0.35983000  1.0
  C  C132  1  0.00816000  0.17869000  0.35984000  1.0
  C  C133  1  0.50815000  0.82131000  0.14016000  1.0
  C  C134  1  0.99184000  0.32131000  0.85984000  1.0
  C  C135  1  0.49184000  0.67869000  0.64016000  1.0
  N  N136  1  0.84236000  0.66305000  0.93333000  1.0
  N  N137  1  0.34237000  0.33695000  0.56667000  1.0
  N  N138  1  0.15763000  0.83695000  0.43333000  1.0
  N  N139  1  0.65765000  0.16304000  0.06667000  1.0
  N  N140  1  0.15764000  0.33695000  0.06667000  1.0
  N  N141  1  0.65764000  0.66306000  0.43333000  1.0
  N  N142  1  0.84236000  0.16305000  0.56667000  1.0
  N  N143  1  0.34236000  0.83694000  0.93333000  1.0
  Cl  Cl144  1  0.23114000  0.05331000  0.50637000  1.0
  Cl  Cl145  1  0.73114000  0.94669000  0.99363000  1.0
  Cl  Cl146  1  0.76885000  0.44669000  0.00637000  1.0
  Cl  Cl147  1  0.26887000  0.55331000  0.49363000  1.0
  Cl  Cl148  1  0.76886000  0.94669000  0.49363000  1.0
  Cl  Cl149  1  0.26886000  0.05331000  0.00637000  1.0
  Cl  Cl150  1  0.23113000  0.55331000  0.99363000  1.0
  Cl  Cl151  1  0.73114000  0.44670000  0.50636000  1.0
  O  O152  1  0.43449000  0.87774000  0.58005000  1.0
  O  O153  1  0.93450000  0.12225000  0.91995000  1.0
  O  O154  1  0.56550000  0.62226000  0.08005000  1.0
  O  O155  1  0.06551000  0.37774000  0.41995000  1.0
  O  O156  1  0.56551000  0.12225000  0.41995000  1.0
  O  O157  1  0.06551000  0.87775000  0.08005000  1.0
  O  O158  1  0.43449000  0.37774000  0.91996000  1.0
  O  O159  1  0.93450000  0.62225000  0.58005000  1.0
  O  O160  1  0.01250000  0.89966000  0.64429000  1.0
  O  O161  1  0.51252000  0.10033000  0.85571000  1.0
  O  O162  1  0.98748000  0.60033000  0.14428000  1.0
  O  O163  1  0.48748000  0.39966000  0.35571000  1.0
  O  O164  1  0.98750000  0.10033000  0.35571000  1.0
  O  O165  1  0.48749000  0.89967000  0.14429000  1.0
  O  O166  1  0.01250000  0.39967000  0.85571000  1.0
  O  O167  1  0.51251000  0.60033000  0.64429000  1.0
  O  O168  1  0.02125000  0.78156000  0.58608000  1.0
  O  O169  1  0.52126000  0.21844000  0.91391000  1.0
  O  O170  1  0.97874000  0.71845000  0.08609000  1.0
  O  O171  1  0.47873000  0.28157000  0.41391000  1.0
  O  O172  1  0.97874000  0.21844000  0.41392000  1.0
  O  O173  1  0.47874000  0.78155000  0.08609000  1.0
  O  O174  1  0.02124000  0.28155000  0.91391000  1.0
  O  O175  1  0.52125000  0.71845000  0.58608000  1.0
