# generated using pymatgen
data_CdH6C8Br2(N2Cl)2
_symmetry_space_group_name_H-M   'P 1'
_cell_length_a   3.83582000
_cell_length_b   10.17480000
_cell_length_c   16.43770000
_cell_angle_alpha   89.99940000
_cell_angle_beta   89.99920000
_cell_angle_gamma   90.90050000
_symmetry_Int_Tables_number   1
_chemical_formula_structural   CdH6C8Br2(N2Cl)2
_chemical_formula_sum   'Cd2 H12 C16 Br4 N8 Cl4'
_cell_volume   641.46285043
_cell_formula_units_Z   2
loop_
 _symmetry_equiv_pos_site_id
 _symmetry_equiv_pos_as_xyz
  1  'x, y, z'
loop_
 _atom_site_type_symbol
 _atom_site_label
 _atom_site_symmetry_multiplicity
 _atom_site_fract_x
 _atom_site_fract_y
 _atom_site_fract_z
 _atom_site_occupancy
  Cd  Cd0  1  0.49999000  0.00000000  0.50000000  1.0
  Cd  Cd1  1  0.50000000  0.50000000  0.00000000  1.0
  H  H2  1  0.74219000  0.30794000  0.52017000  1.0
  H  H3  1  0.25783000  0.19205000  0.02016000  1.0
  H  H4  1  0.25786000  0.69206000  0.47984000  1.0
  H  H5  1  0.74220000  0.80795000  0.97983000  1.0
  H  H6  1  0.22480000  0.24955000  0.78874000  1.0
  H  H7  1  0.77518000  0.25044000  0.28873000  1.0
  H  H8  1  0.77520000  0.75044000  0.21127000  1.0
  H  H9  1  0.22479000  0.74957000  0.71127000  1.0
  H  H10  1  0.27225000  0.05830000  0.68987000  1.0
  H  H11  1  0.72769000  0.44170000  0.18986000  1.0
  H  H12  1  0.72770000  0.94170000  0.31013000  1.0
  H  H13  1  0.27228000  0.55831000  0.81013000  1.0
  C  C14  1  0.62528000  0.29514000  0.58010000  1.0
  C  C15  1  0.37474000  0.20485000  0.08009000  1.0
  C  C16  1  0.37476000  0.70486000  0.41991000  1.0
  C  C17  1  0.62528000  0.79515000  0.91990000  1.0
  C  C18  1  0.59726000  0.39805000  0.63612000  1.0
  C  C19  1  0.40275000  0.10194000  0.13610000  1.0
  C  C20  1  0.40276000  0.60194000  0.36390000  1.0
  C  C21  1  0.59725000  0.89806000  0.86389000  1.0
  C  C22  1  0.34026000  0.26188000  0.72850000  1.0
  C  C23  1  0.65973000  0.23812000  0.22850000  1.0
  C  C24  1  0.65975000  0.73812000  0.27150000  1.0
  C  C25  1  0.34025000  0.76189000  0.77150000  1.0
  C  C26  1  0.36378000  0.15704000  0.67418000  1.0
  C  C27  1  0.63619000  0.34295000  0.17418000  1.0
  C  C28  1  0.63620000  0.84295000  0.32582000  1.0
  C  C29  1  0.36380000  0.65705000  0.82582000  1.0
  Br  Br30  1  0.76347000  0.56949000  0.60736000  1.0
  Br  Br31  1  0.23655000  0.93049000  0.10736000  1.0
  Br  Br32  1  0.23656000  0.43050000  0.39265000  1.0
  Br  Br33  1  0.76346000  0.06951000  0.89264000  1.0
  N  N34  1  0.50459000  0.17510000  0.60005000  1.0
  N  N35  1  0.49538000  0.32490000  0.10004000  1.0
  N  N36  1  0.49540000  0.82490000  0.39995000  1.0
  N  N37  1  0.50461000  0.67511000  0.89995000  1.0
  N  N38  1  0.45560000  0.38308000  0.70902000  1.0
  N  N39  1  0.54441000  0.11691000  0.20901000  1.0
  N  N40  1  0.54443000  0.61691000  0.29099000  1.0
  N  N41  1  0.45558000  0.88310000  0.79099000  1.0
  Cl  Cl42  1  0.00360000  0.12278000  0.41966000  1.0
  Cl  Cl43  1  0.99639000  0.37723000  0.91966000  1.0
  Cl  Cl44  1  0.99637000  0.87722000  0.58034000  1.0
  Cl  Cl45  1  0.00361000  0.62277000  0.08034000  1.0
