# generated using pymatgen
data_NaDyH20C24(NO)8
_symmetry_space_group_name_H-M   'P 1'
_cell_length_a   8.05964000
_cell_length_b   13.26330000
_cell_length_c   13.43529475
_cell_angle_alpha   85.10670110
_cell_angle_beta   72.54587119
_cell_angle_gamma   73.47750000
_symmetry_Int_Tables_number   1
_chemical_formula_structural   NaDyH20C24(NO)8
_chemical_formula_sum   'Na2 Dy2 H40 C48 N16 O16'
_cell_volume   1313.49922835
_cell_formula_units_Z   2
loop_
 _symmetry_equiv_pos_site_id
 _symmetry_equiv_pos_as_xyz
  1  'x, y, z'
loop_
 _atom_site_type_symbol
 _atom_site_label
 _atom_site_symmetry_multiplicity
 _atom_site_fract_x
 _atom_site_fract_y
 _atom_site_fract_z
 _atom_site_occupancy
  Na  Na0  1  0.87596000  0.24905000  0.24839000  1.0
  Na  Na1  1  0.12405000  0.75095000  0.75161000  1.0
  Dy  Dy2  1  0.37479000  0.25041000  0.24928000  1.0
  Dy  Dy3  1  0.62521000  0.74959000  0.75072000  1.0
  H  H4  1  0.68950000  0.39712000  0.86503000  1.0
  H  H5  1  0.55633000  0.13723000  0.89749000  1.0
  H  H6  1  0.44880000  0.10276000  0.63251000  1.0
  H  H7  1  0.07862000  0.36507000  0.60139000  1.0
  H  H8  1  0.31050000  0.60289000  0.13497000  1.0
  H  H9  1  0.44366000  0.86277000  0.10251000  1.0
  H  H10  1  0.55121000  0.89723000  0.36749000  1.0
  H  H11  1  0.92137000  0.63494000  0.39861000  1.0
  H  H12  1  0.42705000  0.44355000  0.79026000  1.0
  H  H13  1  0.21974000  0.21135000  0.94366000  1.0
  H  H14  1  0.15360000  0.05820000  0.70915000  1.0
  H  H15  1  0.85938000  0.28917000  0.55519000  1.0
  H  H16  1  0.57295000  0.55645000  0.20974000  1.0
  H  H17  1  0.78025000  0.78865000  0.05634000  1.0
  H  H18  1  0.84641000  0.94179000  0.29085000  1.0
  H  H19  1  0.14061000  0.71084000  0.44481000  1.0
  H  H20  1  0.10511000  0.35281000  0.08496000  1.0
  H  H21  1  0.19053000  0.91464000  0.85061000  1.0
  H  H22  1  0.03658000  0.15103000  0.41586000  1.0
  H  H23  1  0.45465000  0.58403000  0.64977000  1.0
  H  H24  1  0.89488000  0.64719000  0.91505000  1.0
  H  H25  1  0.80947000  0.08536000  0.14939000  1.0
  H  H26  1  0.96342000  0.84897000  0.58414000  1.0
  H  H27  1  0.54534000  0.41598000  0.35023000  1.0
  H  H28  1  0.11899000  0.44526000  0.81621000  1.0
  H  H29  1  0.93803000  0.18456000  0.94515000  1.0
  H  H30  1  0.87167000  0.05827000  0.68450000  1.0
  H  H31  1  0.55327000  0.31390000  0.55625000  1.0
  H  H32  1  0.88101000  0.55474000  0.18379000  1.0
  H  H33  1  0.06198000  0.81544000  0.05484000  1.0
  H  H34  1  0.12834000  0.94172000  0.31550000  1.0
  H  H35  1  0.44674000  0.68610000  0.44375000  1.0
  H  H36  1  0.98842000  0.39959000  0.93252000  1.0
  H  H37  1  0.92248000  0.06772000  0.89882000  1.0
  H  H38  1  0.81390000  0.10250000  0.56787000  1.0
  H  H39  1  0.38038000  0.43054000  0.60229000  1.0
  H  H40  1  0.01157000  0.60041000  0.06749000  1.0
  H  H41  1  0.07752000  0.93228000  0.10118000  1.0
  H  H42  1  0.18610000  0.89750000  0.43213000  1.0
  H  H43  1  0.61962000  0.56946000  0.39771000  1.0
  C  C44  1  0.68475000  0.32094000  0.06190000  1.0
  C  C45  1  0.74705000  0.93953000  0.82067000  1.0
  C  C46  1  0.56754000  0.17923000  0.43549000  1.0
  C  C47  1  0.00270000  0.56266000  0.68033000  1.0
  C  C48  1  0.31525000  0.67906000  0.93810000  1.0
  C  C49  1  0.25295000  0.06047000  0.17933000  1.0
  C  C50  1  0.43245000  0.82077000  0.56452000  1.0
  C  C51  1  0.99730000  0.43734000  0.31967000  1.0
  C  C52  1  0.53503000  0.35074000  0.01320000  1.0
  C  C53  1  0.54904000  0.98790000  0.85022000  1.0
  C  C54  1  0.39661000  0.15023000  0.48510000  1.0
  C  C55  1  0.88162000  0.51331000  0.64980000  1.0
  C  C56  1  0.46498000  0.64927000  0.98680000  1.0
  C  C57  1  0.45095000  0.01210000  0.14978000  1.0
  C  C58  1  0.60340000  0.84977000  0.51490000  1.0
  C  C59  1  0.11838000  0.48670000  0.35019000  1.0
  C  C60  1  0.55746000  0.38871000  0.91088000  1.0
  C  C61  1  0.46995000  0.09075000  0.88854000  1.0
  C  C62  1  0.35331000  0.11218000  0.58742000  1.0
  C  C63  1  0.93916000  0.41070000  0.61069000  1.0
  C  C64  1  0.44254000  0.61129000  0.08912000  1.0
  C  C65  1  0.53005000  0.90925000  0.11146000  1.0
  C  C66  1  0.64668000  0.88782000  0.41258000  1.0
  C  C67  1  0.06084000  0.58930000  0.38930000  1.0
  C  C68  1  0.41301000  0.41451000  0.86966000  1.0
  C  C69  1  0.28465000  0.13165000  0.91411000  1.0
  C  C70  1  0.19103000  0.08742000  0.62971000  1.0
  C  C71  1  0.81879000  0.36881000  0.58509000  1.0
  C  C72  1  0.58700000  0.58549000  0.13034000  1.0
  C  C73  1  0.71534000  0.86835000  0.08589000  1.0
  C  C74  1  0.80898000  0.91257000  0.37029000  1.0
  C  C75  1  0.18121000  0.63120000  0.41490000  1.0
  C  C76  1  0.24408000  0.40155000  0.93081000  1.0
  C  C77  1  0.17642000  0.06978000  0.90047000  1.0
  C  C78  1  0.06970000  0.10128000  0.56927000  1.0
  C  C79  1  0.63812000  0.42957000  0.59959000  1.0
  C  C80  1  0.75593000  0.59845000  0.06918000  1.0
  C  C81  1  0.82357000  0.93022000  0.09953000  1.0
  C  C82  1  0.93030000  0.89871000  0.43073000  1.0
  C  C83  1  0.36188000  0.57044000  0.40040000  1.0
  C  C84  1  0.23273000  0.36364000  0.03436000  1.0
  C  C85  1  0.26786000  0.96584000  0.86192000  1.0
  C  C86  1  0.12515000  0.13942000  0.46573000  1.0
  C  C87  1  0.59188000  0.53355000  0.63813000  1.0
  C  C88  1  0.76728000  0.63636000  0.96564000  1.0
  C  C89  1  0.73213000  0.03416000  0.13809000  1.0
  C  C90  1  0.87484000  0.86057000  0.53428000  1.0
  C  C91  1  0.40812000  0.46646000  0.36187000  1.0
  N  N92  1  0.37300000  0.33885000  0.07337000  1.0
  N  N93  1  0.44678000  0.92704000  0.83760000  1.0
  N  N94  1  0.28179000  0.16331000  0.42587000  1.0
  N  N95  1  0.70903000  0.57312000  0.66264000  1.0
  N  N96  1  0.62701000  0.66115000  0.92663000  1.0
  N  N97  1  0.55321000  0.07296000  0.16240000  1.0
  N  N98  1  0.71821000  0.83669000  0.57413000  1.0
  N  N99  1  0.29097000  0.42688000  0.33736000  1.0
  N  N100  1  0.10104000  0.42307000  0.89257000  1.0
  N  N101  1  0.99552000  0.10776000  0.92253000  1.0
  N  N102  1  0.90824000  0.08027000  0.60808000  1.0
  N  N103  1  0.51464000  0.39063000  0.57886000  1.0
  N  N104  1  0.89896000  0.57693000  0.10743000  1.0
  N  N105  1  0.00448000  0.89224000  0.07747000  1.0
  N  N106  1  0.09176000  0.91972000  0.39192000  1.0
  N  N107  1  0.48536000  0.60937000  0.42114000  1.0
  O  O108  1  0.64406000  0.29268000  0.15866000  1.0
  O  O109  1  0.80279000  0.84200000  0.79258000  1.0
  O  O110  1  0.59488000  0.20868000  0.33914000  1.0
  O  O111  1  0.93487000  0.65960000  0.71018000  1.0
  O  O112  1  0.35593000  0.70733000  0.84135000  1.0
  O  O113  1  0.19720000  0.15800000  0.20742000  1.0
  O  O114  1  0.40512000  0.79131000  0.66087000  1.0
  O  O115  1  0.06512000  0.34040000  0.28983000  1.0
  O  O116  1  0.84348000  0.32108000  0.00933000  1.0
  O  O117  1  0.85357000  0.99334000  0.82054000  1.0
  O  O118  1  0.67593000  0.17766000  0.48709000  1.0
  O  O119  1  0.16094000  0.51050000  0.67942000  1.0
  O  O120  1  0.15652000  0.67892000  0.99068000  1.0
  O  O121  1  0.14642000  0.00666000  0.17946000  1.0
  O  O122  1  0.32406000  0.82234000  0.51292000  1.0
  O  O123  1  0.83906000  0.48950000  0.32058000  1.0
