# generated using pymatgen
data_CdH6C6(N2O)4
_symmetry_space_group_name_H-M   'P 1'
_cell_length_a   8.61282000
_cell_length_b   8.61281000
_cell_length_c   9.55776000
_cell_angle_alpha   66.07490000
_cell_angle_beta   66.07520000
_cell_angle_gamma   61.84870000
_symmetry_Int_Tables_number   1
_chemical_formula_structural   CdH6C6(N2O)4
_chemical_formula_sum   'Cd2 H12 C12 N16 O8'
_cell_volume   550.86428904
_cell_formula_units_Z   2
loop_
 _symmetry_equiv_pos_site_id
 _symmetry_equiv_pos_as_xyz
  1  'x, y, z'
loop_
 _atom_site_type_symbol
 _atom_site_label
 _atom_site_symmetry_multiplicity
 _atom_site_fract_x
 _atom_site_fract_y
 _atom_site_fract_z
 _atom_site_occupancy
  Cd  Cd0  1  0.53548000  0.46452000  0.25000000  1.0
  Cd  Cd1  1  0.46451000  0.53549000  0.75000000  1.0
  H  H2  1  0.86843000  0.50570000  0.35458000  1.0
  H  H3  1  0.49430000  0.13156000  0.14542000  1.0
  H  H4  1  0.13157000  0.49430000  0.64542000  1.0
  H  H5  1  0.50570000  0.86843000  0.85458000  1.0
  H  H6  1  0.08042000  0.68566000  0.29590000  1.0
  H  H7  1  0.31434000  0.91958000  0.20410000  1.0
  H  H8  1  0.91958000  0.31434000  0.70410000  1.0
  H  H9  1  0.68567000  0.08042000  0.79591000  1.0
  H  H10  1  0.02472000  0.90788000  0.16177000  1.0
  H  H11  1  0.09212000  0.97528000  0.33823000  1.0
  H  H12  1  0.97528000  0.09212000  0.83823000  1.0
  H  H13  1  0.90788000  0.02472000  0.66177000  1.0
  C  C14  1  0.83224000  0.61489000  0.25133000  1.0
  C  C15  1  0.38511000  0.16776000  0.24867000  1.0
  C  C16  1  0.16776000  0.38510000  0.74867000  1.0
  C  C17  1  0.61489000  0.83224000  0.75133000  1.0
  C  C18  1  0.23354000  0.69811000  0.04869000  1.0
  C  C19  1  0.30189000  0.76647000  0.45131000  1.0
  C  C20  1  0.76646000  0.30189000  0.95129000  1.0
  C  C21  1  0.69811000  0.23355000  0.54871000  1.0
  C  C22  1  0.05817000  0.76294000  0.17777000  1.0
  C  C23  1  0.23706000  0.94182000  0.32223000  1.0
  C  C24  1  0.94182000  0.23705000  0.82223000  1.0
  C  C25  1  0.76295000  0.05817000  0.67777000  1.0
  N  N26  1  0.69518000  0.80453000  0.06794000  1.0
  N  N27  1  0.19548000  0.30482000  0.43206000  1.0
  N  N28  1  0.30482000  0.19547000  0.93206000  1.0
  N  N29  1  0.80453000  0.69518000  0.56794000  1.0
  N  N30  1  0.70163000  0.65037000  0.19023000  1.0
  N  N31  1  0.34963000  0.29837000  0.30977000  1.0
  N  N32  1  0.29837000  0.34963000  0.80977000  1.0
  N  N33  1  0.65037000  0.70163000  0.69023000  1.0
  N  N34  1  0.90369000  0.74528000  0.16826000  1.0
  N  N35  1  0.25472000  0.09631000  0.33174000  1.0
  N  N36  1  0.09631000  0.25472000  0.83173000  1.0
  N  N37  1  0.74528000  0.90369000  0.66827000  1.0
  N  N38  1  0.81658000  0.86257000  0.05396000  1.0
  N  N39  1  0.13743000  0.18342000  0.44604000  1.0
  N  N40  1  0.18342000  0.13743000  0.94604000  1.0
  N  N41  1  0.86257000  0.81658000  0.55396000  1.0
  O  O42  1  0.37818000  0.68894000  0.06236000  1.0
  O  O43  1  0.31106000  0.62182000  0.43764000  1.0
  O  O44  1  0.62183000  0.31106000  0.93763000  1.0
  O  O45  1  0.68894000  0.37817000  0.56237000  1.0
  O  O46  1  0.21807000  0.66522000  0.93865000  1.0
  O  O47  1  0.33478000  0.78192000  0.56134000  1.0
  O  O48  1  0.78192000  0.33479000  0.06134000  1.0
  O  O49  1  0.66521000  0.21808000  0.43866000  1.0
