# generated using pymatgen
data_ZnH13C8S2N2ClO4
_symmetry_space_group_name_H-M   'P 1'
_cell_length_a   5.81949000
_cell_length_b   9.63157000
_cell_length_c   22.19400000
_cell_angle_alpha   90.00000000
_cell_angle_beta   90.00000000
_cell_angle_gamma   90.00000000
_symmetry_Int_Tables_number   1
_chemical_formula_structural   ZnH13C8S2N2ClO4
_chemical_formula_sum   'Zn4 H52 C32 S8 N8 Cl4 O16'
_cell_volume   1243.99201669
_cell_formula_units_Z   4
loop_
 _symmetry_equiv_pos_site_id
 _symmetry_equiv_pos_as_xyz
  1  'x, y, z'
loop_
 _atom_site_type_symbol
 _atom_site_label
 _atom_site_symmetry_multiplicity
 _atom_site_fract_x
 _atom_site_fract_y
 _atom_site_fract_z
 _atom_site_occupancy
  Zn  Zn0  1  0.15436000  0.11576000  0.91400000  1.0
  Zn  Zn1  1  0.65437000  0.38423000  0.08600000  1.0
  Zn  Zn2  1  0.84564000  0.61577000  0.58600000  1.0
  Zn  Zn3  1  0.34563000  0.88424000  0.41400000  1.0
  H  H4  1  0.39360000  0.40209000  0.71208000  1.0
  H  H5  1  0.89360000  0.09790000  0.28792000  1.0
  H  H6  1  0.60640000  0.90210000  0.78792000  1.0
  H  H7  1  0.10640000  0.59790000  0.21208000  1.0
  H  H8  1  0.69798000  0.42605000  0.70289000  1.0
  H  H9  1  0.19798000  0.07394000  0.29711000  1.0
  H  H10  1  0.30202000  0.92605000  0.79711000  1.0
  H  H11  1  0.80202000  0.57395000  0.20289000  1.0
  H  H12  1  0.86387000  0.04501000  0.73615000  1.0
  H  H13  1  0.36386000  0.45499000  0.26385000  1.0
  H  H14  1  0.13612000  0.54502000  0.76385000  1.0
  H  H15  1  0.63613000  0.95499000  0.23615000  1.0
  H  H16  1  0.98511000  0.20884000  0.71164000  1.0
  H  H17  1  0.48512000  0.29116000  0.28836000  1.0
  H  H18  1  0.01489000  0.70885000  0.78836000  1.0
  H  H19  1  0.51489000  0.79116000  0.21164000  1.0
  H  H20  1  0.65567000  0.42135000  0.81191000  1.0
  H  H21  1  0.15569000  0.07865000  0.18809000  1.0
  H  H22  1  0.34433000  0.92136000  0.68809000  1.0
  H  H23  1  0.84433000  0.57865000  0.31191000  1.0
  H  H24  1  0.94510000  0.26848000  0.80669000  1.0
  H  H25  1  0.44510000  0.23151000  0.19331000  1.0
  H  H26  1  0.05491000  0.76849000  0.69331000  1.0
  H  H27  1  0.55490000  0.73151000  0.30669000  1.0
  H  H28  1  0.74554000  0.14631000  0.82312000  1.0
  H  H29  1  0.24554000  0.35369000  0.17688000  1.0
  H  H30  1  0.25446000  0.64632000  0.67687000  1.0
  H  H31  1  0.75446000  0.85369000  0.32313000  1.0
  H  H32  1  0.16094000  0.88183000  0.97542000  1.0
  H  H33  1  0.66095000  0.61817000  0.02458000  1.0
  H  H34  1  0.83905000  0.38183000  0.52458000  1.0
  H  H35  1  0.33905000  0.11818000  0.47542000  1.0
  H  H36  1  0.30800000  0.84858000  0.09618000  1.0
  H  H37  1  0.80800000  0.65142000  0.90382000  1.0
  H  H38  1  0.69200000  0.34858000  0.40382000  1.0
  H  H39  1  0.19200000  0.15143000  0.59618000  1.0
  H  H40  1  0.48330000  0.99544000  0.11579000  1.0
  H  H41  1  0.98330000  0.50456000  0.88420000  1.0
  H  H42  1  0.51670000  0.49544000  0.38421000  1.0
  H  H43  1  0.01670000  0.00457000  0.61580000  1.0
  H  H44  1  0.59679000  0.01491000  0.94312000  1.0
  H  H45  1  0.09680000  0.48508000  0.05688000  1.0
  H  H46  1  0.40320000  0.51492000  0.55688000  1.0
  H  H47  1  0.90320000  0.98508000  0.44312000  1.0
  H  H48  1  0.49490000  0.84318000  0.92809000  1.0
  H  H49  1  0.99492000  0.65682000  0.07191000  1.0
  H  H50  1  0.50509000  0.34318000  0.57191000  1.0
  H  H51  1  0.00508000  0.15682000  0.42809000  1.0
  H  H52  1  0.08516000  0.03650000  0.05318000  1.0
  H  H53  1  0.58517000  0.46350000  0.94682000  1.0
  H  H54  1  0.91483000  0.53650000  0.44682000  1.0
  H  H55  1  0.41483000  0.96350000  0.55318000  1.0
  C  C56  1  0.83495000  0.15659000  0.73115000  1.0
  C  C57  1  0.33495000  0.34341000  0.26885000  1.0
  C  C58  1  0.16505000  0.65660000  0.76885000  1.0
  C  C59  1  0.66505000  0.84341000  0.23115000  1.0
  C  C60  1  0.60044000  0.32736000  0.78771000  1.0
  C  C61  1  0.10044000  0.17263000  0.21230000  1.0
  C  C62  1  0.39956000  0.82737000  0.71229000  1.0
  C  C63  1  0.89956000  0.67263000  0.28771000  1.0
  C  C64  1  0.56339000  0.35819000  0.72111000  1.0
  C  C65  1  0.06339000  0.14181000  0.27889000  1.0
  C  C66  1  0.43661000  0.85819000  0.77889000  1.0
  C  C67  1  0.93661000  0.64181000  0.22111000  1.0
  C  C68  1  0.38074000  0.27414000  0.81882000  1.0
  C  C69  1  0.88073000  0.22584000  0.18118000  1.0
  C  C70  1  0.61927000  0.77415000  0.68118000  1.0
  C  C71  1  0.11926000  0.72586000  0.31883000  1.0
  C  C72  1  0.49971000  0.92719000  0.96135000  1.0
  C  C73  1  0.99972000  0.57281000  0.03864000  1.0
  C  C74  1  0.50028000  0.42719000  0.53864000  1.0
  C  C75  1  0.00028000  0.07281000  0.46136000  1.0
  C  C76  1  0.26451000  0.02988000  0.03752000  1.0
  C  C77  1  0.76451000  0.47012000  0.96248000  1.0
  C  C78  1  0.73549000  0.52988000  0.46248000  1.0
  C  C79  1  0.23548000  0.97012000  0.53752000  1.0
  C  C80  1  0.40870000  0.93592000  0.07855000  1.0
  C  C81  1  0.90870000  0.56408000  0.92145000  1.0
  C  C82  1  0.59130000  0.43592000  0.42145000  1.0
  C  C83  1  0.09129000  0.06409000  0.57855000  1.0
  C  C84  1  0.35624000  0.17969000  0.03346000  1.0
  C  C85  1  0.85624000  0.32031000  0.96654000  1.0
  C  C86  1  0.64376000  0.67969000  0.46654000  1.0
  C  C87  1  0.14376000  0.82031000  0.53346000  1.0
  S  S88  1  0.58426000  0.18909000  0.68563000  1.0
  S  S89  1  0.08426000  0.31090000  0.31437000  1.0
  S  S90  1  0.41574000  0.68910000  0.81436000  1.0
  S  S91  1  0.91575000  0.81090000  0.18564000  1.0
  S  S92  1  0.63993000  0.86867000  0.03138000  1.0
  S  S93  1  0.13994000  0.63133000  0.96862000  1.0
  S  S94  1  0.36007000  0.36867000  0.46862000  1.0
  S  S95  1  0.86006000  0.13133000  0.53138000  1.0
  N  N96  1  0.78965000  0.22186000  0.79160000  1.0
  N  N97  1  0.28965000  0.27813000  0.20840000  1.0
  N  N98  1  0.21035000  0.72187000  0.70840000  1.0
  N  N99  1  0.71035000  0.77813000  0.29160000  1.0
  N  N100  1  0.26409000  0.96914000  0.97662000  1.0
  N  N101  1  0.76410000  0.53086000  0.02338000  1.0
  N  N102  1  0.73590000  0.46914000  0.52338000  1.0
  N  N103  1  0.23590000  0.03087000  0.47662000  1.0
  Cl  Cl104  1  0.93966000  0.94861000  0.85917000  1.0
  Cl  Cl105  1  0.43966000  0.55138000  0.14083000  1.0
  Cl  Cl106  1  0.06034000  0.44862000  0.64083000  1.0
  Cl  Cl107  1  0.56034000  0.05138000  0.35917000  1.0
  O  O108  1  0.40205000  0.16803000  0.85284000  1.0
  O  O109  1  0.90205000  0.33197000  0.14715000  1.0
  O  O110  1  0.59795000  0.66803000  0.64716000  1.0
  O  O111  1  0.09795000  0.83197000  0.35284000  1.0
  O  O112  1  0.20065000  0.34230000  0.80853000  1.0
  O  O113  1  0.70066000  0.15769000  0.19147000  1.0
  O  O114  1  0.79934000  0.84232000  0.69146000  1.0
  O  O115  1  0.29935000  0.65769000  0.30853000  1.0
  O  O116  1  0.35804000  0.23915000  0.98312000  1.0
  O  O117  1  0.85805000  0.26085000  0.01688000  1.0
  O  O118  1  0.64196000  0.73915000  0.51688000  1.0
  O  O119  1  0.14195000  0.76086000  0.48313000  1.0
  O  O120  1  0.92289000  0.26774000  0.91654000  1.0
  O  O121  1  0.42289000  0.23226000  0.08346000  1.0
  O  O122  1  0.07711000  0.76774000  0.58346000  1.0
  O  O123  1  0.57711000  0.73225000  0.41654000  1.0
