# generated using pymatgen
data_CoH6C14N4(ClO2)2
_symmetry_space_group_name_H-M   'P 1'
_cell_length_a   9.73760000
_cell_length_b   9.73727000
_cell_length_c   9.92620000
_cell_angle_alpha   68.84050000
_cell_angle_beta   68.86770000
_cell_angle_gamma   67.10540000
_symmetry_Int_Tables_number   1
_chemical_formula_structural   CoH6C14N4(ClO2)2
_chemical_formula_sum   'Co2 H12 C28 N8 Cl4 O8'
_cell_volume   781.59399108
_cell_formula_units_Z   2
loop_
 _symmetry_equiv_pos_site_id
 _symmetry_equiv_pos_as_xyz
  1  'x, y, z'
loop_
 _atom_site_type_symbol
 _atom_site_label
 _atom_site_symmetry_multiplicity
 _atom_site_fract_x
 _atom_site_fract_y
 _atom_site_fract_z
 _atom_site_occupancy
  Co  Co0  1  0.40073000  0.59907000  0.25017000  1.0
  Co  Co1  1  0.60717000  0.39291000  0.75006000  1.0
  H  H2  1  0.36675000  0.25315000  0.35239000  1.0
  H  H3  1  0.74736000  0.63320000  0.14719000  1.0
  H  H4  1  0.62959000  0.72423000  0.63509000  1.0
  H  H5  1  0.27594000  0.37042000  0.86480000  1.0
  H  H6  1  0.39414000  0.04269000  0.58686000  1.0
  H  H7  1  0.95758000  0.60577000  0.91262000  1.0
  H  H8  1  0.59504000  0.92722000  0.39669000  1.0
  H  H9  1  0.07293000  0.40491000  0.10307000  1.0
  H  H10  1  0.48258000  0.87950000  0.22717000  1.0
  H  H11  1  0.12064000  0.51722000  0.27271000  1.0
  H  H12  1  0.50072000  0.07928000  0.76795000  1.0
  H  H13  1  0.92052000  0.49933000  0.73175000  1.0
  C  C14  1  0.40393000  0.26529000  0.43734000  1.0
  C  C15  1  0.73511000  0.59601000  0.06230000  1.0
  C  C16  1  0.58527000  0.70966000  0.55679000  1.0
  C  C17  1  0.29049000  0.41467000  0.94316000  1.0
  C  C18  1  0.42204000  0.14765000  0.56660000  1.0
  C  C19  1  0.85258000  0.57790000  0.93302000  1.0
  C  C20  1  0.56510000  0.82173000  0.42469000  1.0
  C  C21  1  0.17841000  0.43480000  0.07517000  1.0
  C  C22  1  0.47714000  0.16849000  0.66746000  1.0
  C  C23  1  0.83148000  0.52283000  0.83231000  1.0
  C  C24  1  0.50568000  0.79636000  0.33063000  1.0
  C  C25  1  0.20378000  0.49412000  0.16931000  1.0
  C  C26  1  0.47598000  0.41125000  0.52019000  1.0
  C  C27  1  0.58890000  0.52394000  0.97981000  1.0
  C  C28  1  0.50130000  0.55682000  0.49327000  1.0
  C  C29  1  0.44330000  0.49856000  0.00687000  1.0
  C  C30  1  0.18041000  0.89879000  0.17285000  1.0
  C  C31  1  0.10057000  0.81939000  0.32799000  1.0
  C  C32  1  0.81356000  0.11551000  0.82879000  1.0
  C  C33  1  0.88444000  0.18652000  0.67126000  1.0
  C  C34  1  0.09822000  0.04163000  0.09876000  1.0
  C  C35  1  0.95785000  0.90215000  0.40165000  1.0
  C  C36  1  0.89217000  0.97277000  0.90479000  1.0
  C  C37  1  0.02713000  0.10796000  0.59529000  1.0
  C  C38  1  0.94966000  0.12793000  0.16889000  1.0
  C  C39  1  0.87194000  0.05072000  0.33106000  1.0
  C  C40  1  0.03975000  0.88563000  0.83272000  1.0
  C  C41  1  0.11434000  0.96033000  0.66736000  1.0
  N  N42  1  0.43085000  0.39895000  0.41278000  1.0
  N  N43  1  0.60146000  0.56915000  0.08695000  1.0
  N  N44  1  0.55433000  0.57577000  0.59110000  1.0
  N  N45  1  0.42434000  0.44561000  0.90897000  1.0
  N  N46  1  0.50120000  0.30252000  0.64482000  1.0
  N  N47  1  0.69744000  0.49871000  0.85513000  1.0
  N  N48  1  0.47454000  0.66247000  0.36502000  1.0
  N  N49  1  0.33766000  0.52517000  0.13510000  1.0
  Cl  Cl50  1  0.18184000  0.12422000  0.91541000  1.0
  Cl  Cl51  1  0.87491000  0.81892000  0.58503000  1.0
  Cl  Cl52  1  0.81023000  0.89810000  0.09058000  1.0
  Cl  Cl53  1  0.10173000  0.19003000  0.40950000  1.0
  O  O54  1  0.32155000  0.82758000  0.11957000  1.0
  O  O55  1  0.17125000  0.67820000  0.38159000  1.0
  O  O56  1  0.67585000  0.19775000  0.88450000  1.0
  O  O57  1  0.80215000  0.32427000  0.61555000  1.0
  O  O58  1  0.87975000  0.26137000  0.10966000  1.0
  O  O59  1  0.73854000  0.12100000  0.38979000  1.0
  O  O60  1  0.11205000  0.75383000  0.89301000  1.0
  O  O61  1  0.24610000  0.88809000  0.60709000  1.0
