# generated using pymatgen
data_CuH4C6N2(ClO2)2
_symmetry_space_group_name_H-M   'P 1'
_cell_length_a   6.51006000
_cell_length_b   6.51006000
_cell_length_c   13.73950000
_cell_angle_alpha   86.79930000
_cell_angle_beta   86.79850000
_cell_angle_gamma   62.07950000
_symmetry_Int_Tables_number   1
_chemical_formula_structural   CuH4C6N2(ClO2)2
_chemical_formula_sum   'Cu2 H8 C12 N4 Cl4 O8'
_cell_volume   513.41838274
_cell_formula_units_Z   2
loop_
 _symmetry_equiv_pos_site_id
 _symmetry_equiv_pos_as_xyz
  1  'x, y, z'
loop_
 _atom_site_type_symbol
 _atom_site_label
 _atom_site_symmetry_multiplicity
 _atom_site_fract_x
 _atom_site_fract_y
 _atom_site_fract_z
 _atom_site_occupancy
  Cu  Cu0  1  0.10297000  0.89702000  0.25000000  1.0
  Cu  Cu1  1  0.89701000  0.10299000  0.75000000  1.0
  H  H2  1  0.48054000  0.65381000  0.10474000  1.0
  H  H3  1  0.34618000  0.51947000  0.39526000  1.0
  H  H4  1  0.51947000  0.34617000  0.89525000  1.0
  H  H5  1  0.65382000  0.48055000  0.60475000  1.0
  H  H6  1  0.93158000  0.33587000  0.94500000  1.0
  H  H7  1  0.66415000  0.06843000  0.55499000  1.0
  H  H8  1  0.06843000  0.66412000  0.05500000  1.0
  H  H9  1  0.33588000  0.93156000  0.44500000  1.0
  C  C10  1  0.53477000  0.53970000  0.16943000  1.0
  C  C11  1  0.46030000  0.46522000  0.33056000  1.0
  C  C12  1  0.46522000  0.46030000  0.83056000  1.0
  C  C13  1  0.53970000  0.53477000  0.66944000  1.0
  C  C14  1  0.74301000  0.33162000  0.16958000  1.0
  C  C15  1  0.66837000  0.25700000  0.33042000  1.0
  C  C16  1  0.25701000  0.66837000  0.83042000  1.0
  C  C17  1  0.33163000  0.74299000  0.66959000  1.0
  C  C18  1  0.90821000  0.25268000  0.08237000  1.0
  C  C19  1  0.74732000  0.09180000  0.41763000  1.0
  C  C20  1  0.09180000  0.74732000  0.91763000  1.0
  C  C21  1  0.25269000  0.90821000  0.58237000  1.0
  N  N22  1  0.39634000  0.60366000  0.25000000  1.0
  N  N23  1  0.60366000  0.39633000  0.75001000  1.0
  N  N24  1  0.80626000  0.19373000  0.25000000  1.0
  N  N25  1  0.19374000  0.80627000  0.74999000  1.0
  Cl  Cl26  1  0.28254000  0.08713000  0.31696000  1.0
  Cl  Cl27  1  0.91285000  0.71747000  0.18304000  1.0
  Cl  Cl28  1  0.71746000  0.91287000  0.68304000  1.0
  Cl  Cl29  1  0.08714000  0.28254000  0.81696000  1.0
  O  O30  1  0.09924000  0.07957000  0.08672000  1.0
  O  O31  1  0.92042000  0.90076000  0.41327000  1.0
  O  O32  1  0.90076000  0.92041000  0.91328000  1.0
  O  O33  1  0.07958000  0.09924000  0.58672000  1.0
  O  O34  1  0.82080000  0.39071000  0.00475000  1.0
  O  O35  1  0.60929000  0.17921000  0.49526000  1.0
  O  O36  1  0.17918000  0.60929000  0.99525000  1.0
  O  O37  1  0.39070000  0.82080000  0.50475000  1.0
