# generated using pymatgen
data_Zn4H10C24S4N2O13
_symmetry_space_group_name_H-M   'P 1'
_cell_length_a   19.66280000
_cell_length_b   19.66350000
_cell_length_c   33.34600000
_cell_angle_alpha   79.23870000
_cell_angle_beta   79.24020000
_cell_angle_gamma   63.91650000
_symmetry_Int_Tables_number   1
_chemical_formula_structural   Zn4H10C24S4N2O13
_chemical_formula_sum   'Zn16 H40 C96 S16 N8 O52'
_cell_volume   11295.93577031
_cell_formula_units_Z   4
loop_
 _symmetry_equiv_pos_site_id
 _symmetry_equiv_pos_as_xyz
  1  'x, y, z'
loop_
 _atom_site_type_symbol
 _atom_site_label
 _atom_site_symmetry_multiplicity
 _atom_site_fract_x
 _atom_site_fract_y
 _atom_site_fract_z
 _atom_site_occupancy
  Zn  Zn0  1  0.59928000  0.94382000  0.52156000  1.0
  Zn  Zn1  1  0.51634000  0.01635000  0.43998000  1.0
  Zn  Zn2  1  0.43905000  0.94079000  0.51663000  1.0
  Zn  Zn3  1  0.44528000  0.09903000  0.52110000  1.0
  Zn  Zn4  1  0.65053000  0.30530000  0.72858000  1.0
  Zn  Zn5  1  0.80996000  0.31124000  0.73312000  1.0
  Zn  Zn6  1  0.73449000  0.23248000  0.80978000  1.0
  Zn  Zn7  1  0.80558000  0.15177000  0.72788000  1.0
  Zn  Zn8  1  0.23282000  0.73319000  0.31041000  1.0
  Zn  Zn9  1  0.30460000  0.65180000  0.22805000  1.0
  Zn  Zn10  1  0.15116000  0.80623000  0.22776000  1.0
  Zn  Zn11  1  0.31079000  0.80890000  0.23304000  1.0
  Zn  Zn12  1  0.94033000  0.43919000  0.01672000  1.0
  Zn  Zn13  1  0.94441000  0.59895000  0.02162000  1.0
  Zn  Zn14  1  0.09883000  0.44495000  0.02182000  1.0
  Zn  Zn15  1  0.01727000  0.51612000  0.93959000  1.0
  H  H16  1  0.49790000  0.20408000  0.60077000  1.0
  H  H17  1  0.75232000  0.04548000  0.64895000  1.0
  H  H18  1  0.54601000  0.25199000  0.64909000  1.0
  H  H19  1  0.70410000  0.99753000  0.60069000  1.0
  H  H20  1  0.34700000  0.84788000  0.45047000  1.0
  H  H21  1  0.40245000  0.90212000  0.29910000  1.0
  H  H22  1  0.29894000  0.79953000  0.40227000  1.0
  H  H23  1  0.45083000  0.95012000  0.34732000  1.0
  H  H24  1  0.75879000  0.53740000  0.65918000  1.0
  H  H25  1  0.29867000  0.52041000  0.39817000  1.0
  H  H26  1  0.02015000  0.79614000  0.39804000  1.0
  H  H27  1  0.03089000  0.05147000  0.65245000  1.0
  H  H28  1  0.80000000  0.29882000  0.90234000  1.0
  H  H29  1  0.95052000  0.45091000  0.84758000  1.0
  H  H30  1  0.84747000  0.34755000  0.95064000  1.0
  H  H31  1  0.90270000  0.40250000  0.79930000  1.0
  H  H32  1  0.23026000  0.45149000  0.85175000  1.0
  H  H33  1  0.85735000  0.83701000  0.95915000  1.0
  H  H34  1  0.04526000  0.75277000  0.14906000  1.0
  H  H35  1  0.20354000  0.49820000  0.10083000  1.0
  H  H36  1  0.99715000  0.70465000  0.10078000  1.0
  H  H37  1  0.25143000  0.54620000  0.14926000  1.0
  H  H38  1  0.72034000  0.69804000  0.09823000  1.0
  H  H39  1  0.99021000  0.21377000  0.09180000  1.0
  H  H40  1  0.44173000  0.68755000  0.60466000  1.0
  H  H41  1  0.44656000  0.76697000  0.57306000  1.0
  H  H42  1  0.47806000  0.23220000  0.31471000  1.0
  H  H43  1  0.48175000  0.16374000  0.35676000  1.0
  H  H44  1  0.73116000  0.95415000  0.31428000  1.0
  H  H45  1  0.66350000  0.97961000  0.35699000  1.0
  H  H46  1  0.19758000  0.25758000  0.61461000  1.0
  H  H47  1  0.27483000  0.20559000  0.58086000  1.0
  H  H48  1  0.51833000  0.27220000  0.93549000  1.0
  H  H49  1  0.58706000  0.26671000  0.89333000  1.0
  H  H50  1  0.91465000  0.85524000  0.77270000  1.0
  H  H51  1  0.88405000  0.95347000  0.76007000  1.0
  H  H52  1  0.56372000  0.48314000  0.14556000  1.0
  H  H53  1  0.47660000  0.54365000  0.16957000  1.0
  H  H54  1  0.29880000  0.07342000  0.15612000  1.0
  H  H55  1  0.30257000  0.98415000  0.17781000  1.0
  C  C56  1  0.68393000  0.94116000  0.43734000  1.0
  C  C57  1  0.43052000  0.93039000  0.43027000  1.0
  C  C58  1  0.56037000  0.81434000  0.56043000  1.0
  C  C59  1  0.31465000  0.06424000  0.56087000  1.0
  C  C60  1  0.56927000  0.06938000  0.56932000  1.0
  C  C61  1  0.43733000  0.18401000  0.43708000  1.0
  C  C62  1  0.68749000  0.43510000  0.68912000  1.0
  C  C63  1  0.82044000  0.31884000  0.81935000  1.0
  C  C64  1  0.56659000  0.31191000  0.81277000  1.0
  C  C65  1  0.81391000  0.06413000  0.81065000  1.0
  C  C66  1  0.68073000  0.17999000  0.68062000  1.0
  C  C67  1  0.93470000  0.18894000  0.68871000  1.0
  C  C68  1  0.31289000  0.56590000  0.31129000  1.0
  C  C69  1  0.17971000  0.68060000  0.18075000  1.0
  C  C70  1  0.06561000  0.81058000  0.31117000  1.0
  C  C71  1  0.19128000  0.93410000  0.18756000  1.0
  C  C72  1  0.31917000  0.81941000  0.31929000  1.0
  C  C73  1  0.43452000  0.68670000  0.18761000  1.0
  C  C74  1  0.81646000  0.56069000  0.06183000  1.0
  C  C75  1  0.06908000  0.57002000  0.06930000  1.0
  C  C76  1  0.06137000  0.31623000  0.06202000  1.0
  C  C77  1  0.18456000  0.43724000  0.93862000  1.0
  C  C78  1  0.93062000  0.43038000  0.93055000  1.0
  C  C79  1  0.93763000  0.68391000  0.93844000  1.0
  C  C80  1  0.59809000  0.09793000  0.59809000  1.0
  C  C81  1  0.65186000  0.15137000  0.65193000  1.0
  C  C82  1  0.55341000  0.16976000  0.61162000  1.0
  C  C83  1  0.69661000  0.07962000  0.63831000  1.0
  C  C84  1  0.58009000  0.19632000  0.63839000  1.0
  C  C85  1  0.66991000  0.05305000  0.61156000  1.0
  C  C86  1  0.40172000  0.90168000  0.40161000  1.0
  C  C87  1  0.34790000  0.84813000  0.34796000  1.0
  C  C88  1  0.35886000  0.85932000  0.41728000  1.0
  C  C89  1  0.39070000  0.89057000  0.33228000  1.0
  C  C90  1  0.33218000  0.83262000  0.39060000  1.0
  C  C91  1  0.41750000  0.91712000  0.35897000  1.0
  C  C92  1  0.54379000  0.69590000  0.59778000  1.0
  C  C93  1  0.70184000  0.55460000  0.65127000  1.0
  C  C94  1  0.58526000  0.74056000  0.58479000  1.0
  C  C95  1  0.66182000  0.50995000  0.66417000  1.0
  C  C96  1  0.65919000  0.62248000  0.62727000  1.0
  C  C97  1  0.58731000  0.62814000  0.62232000  1.0
  C  C98  1  0.42296000  0.27247000  0.36963000  1.0
  C  C99  1  0.32765000  0.47548000  0.37824000  1.0
  C  C100  1  0.41192000  0.25778000  0.41270000  1.0
  C  C101  1  0.33811000  0.49077000  0.33590000  1.0
  C  C102  1  0.35876000  0.39621000  0.39077000  1.0
  C  C103  1  0.39216000  0.35260000  0.35758000  1.0
  C  C104  1  0.77235000  0.92731000  0.36988000  1.0
  C  C105  1  0.97521000  0.82569000  0.37813000  1.0
  C  C106  1  0.75777000  0.91710000  0.41297000  1.0
  C  C107  1  0.99043000  0.83575000  0.33577000  1.0
  C  C108  1  0.89602000  0.85862000  0.39078000  1.0
  C  C109  1  0.85237000  0.89321000  0.35765000  1.0
  C  C110  1  0.19962000  0.15862000  0.60160000  1.0
  C  C111  1  0.05125000  0.09591000  0.64784000  1.0
  C  C112  1  0.24087000  0.08879000  0.58516000  1.0
  C  C113  1  0.00981000  0.16447000  0.66403000  1.0
  C  C114  1  0.12056000  0.09311000  0.62534000  1.0
  C  C115  1  0.13050000  0.15991000  0.62477000  1.0
  C  C116  1  0.84877000  0.34780000  0.84810000  1.0
  C  C117  1  0.90181000  0.40185000  0.90185000  1.0
  C  C118  1  0.83299000  0.33217000  0.89073000  1.0
  C  C119  1  0.91750000  0.41760000  0.85921000  1.0
  C  C120  1  0.85930000  0.35913000  0.91747000  1.0
  C  C121  1  0.89106000  0.39076000  0.83248000  1.0
  C  C122  1  0.47820000  0.32625000  0.88033000  1.0
  C  C123  1  0.27514000  0.42246000  0.87171000  1.0
  C  C124  1  0.49289000  0.33735000  0.83724000  1.0
  C  C125  1  0.25975000  0.41203000  0.91406000  1.0
  C  C126  1  0.35441000  0.39118000  0.85920000  1.0
  C  C127  1  0.39800000  0.35754000  0.89240000  1.0
  C  C128  1  0.87796000  0.91867000  0.82114000  1.0
  C  C129  1  0.87416000  0.82961000  0.92674000  1.0
  C  C130  1  0.83882000  0.99068000  0.83537000  1.0
  C  C131  1  0.91292000  0.75841000  0.91316000  1.0
  C  C132  1  0.86090000  0.88819000  0.89347000  1.0
  C  C133  1  0.89000000  0.86033000  0.85508000  1.0
  C  C134  1  0.15099000  0.65209000  0.15198000  1.0
  C  C135  1  0.09756000  0.59867000  0.09811000  1.0
  C  C136  1  0.07930000  0.69708000  0.13837000  1.0
  C  C137  1  0.16934000  0.55375000  0.11164000  1.0
  C  C138  1  0.05269000  0.67046000  0.11162000  1.0
  C  C139  1  0.19586000  0.58031000  0.13845000  1.0
  C  C140  1  0.54941000  0.59270000  0.14661000  1.0
  C  C141  1  0.69994000  0.65364000  0.10277000  1.0
  C  C142  1  0.50773000  0.66277000  0.16275000  1.0
  C  C143  1  0.74161000  0.58496000  0.08674000  1.0
  C  C144  1  0.63016000  0.65676000  0.12477000  1.0
  C  C145  1  0.61996000  0.59023000  0.12494000  1.0
  C  C146  1  0.20771000  0.05266000  0.15037000  1.0
  C  C147  1  0.04727000  0.19650000  0.09957000  1.0
  C  C148  1  0.16677000  0.00741000  0.16277000  1.0
  C  C149  1  0.08696000  0.24150000  0.08701000  1.0
  C  C150  1  0.09065000  0.12788000  0.12278000  1.0
  C  C151  1  0.16279000  0.12196000  0.12740000  1.0
  S  S152  1  0.67526000  0.69982000  0.60198000  1.0
  S  S153  1  0.57229000  0.54998000  0.64713000  1.0
  S  S154  1  0.36441000  0.34016000  0.43746000  1.0
  S  S155  1  0.38537000  0.40909000  0.31101000  1.0
  S  S156  1  0.84014000  0.86737000  0.43760000  1.0
  S  S157  1  0.90874000  0.88547000  0.31101000  1.0
  S  S158  1  0.19552000  0.02715000  0.59759000  1.0
  S  S159  1  0.05461000  0.22606000  0.65191000  1.0
  S  S160  1  0.41048000  0.38548000  0.81251000  1.0
  S  S161  1  0.34144000  0.36445000  0.93896000  1.0
  S  S162  1  0.81822000  0.98642000  0.88891000  1.0
  S  S163  1  0.93380000  0.76219000  0.85994000  1.0
  S  S164  1  0.55373000  0.72384000  0.15114000  1.0
  S  S165  1  0.69620000  0.52390000  0.09809000  1.0
  S  S166  1  0.07615000  0.04877000  0.14632000  1.0
  S  S167  1  0.17727000  0.20068000  0.10315000  1.0
  N  N168  1  0.47371000  0.71337000  0.58733000  1.0
  N  N169  1  0.45586000  0.21821000  0.34324000  1.0
  N  N170  1  0.71810000  0.96637000  0.34369000  1.0
  N  N171  1  0.22117000  0.21715000  0.59519000  1.0
  N  N172  1  0.53248000  0.29293000  0.90664000  1.0
  N  N173  1  0.90293000  0.90649000  0.78105000  1.0
  N  N174  1  0.52495000  0.53669000  0.15002000  1.0
  N  N175  1  0.28029000  0.03228000  0.15799000  1.0
  O  O176  1  0.50010000  0.99999000  0.49984000  1.0
  O  O177  1  0.68269000  0.92456000  0.47642000  1.0
  O  O178  1  0.47142000  0.96628000  0.41390000  1.0
  O  O179  1  0.49312000  0.84245000  0.54870000  1.0
  O  O180  1  0.62470000  0.97746000  0.41763000  1.0
  O  O181  1  0.60661000  0.84643000  0.55241000  1.0
  O  O182  1  0.41197000  0.91674000  0.46865000  1.0
  O  O183  1  0.34361000  0.99702000  0.54980000  1.0
  O  O184  1  0.50326000  0.11307000  0.55847000  1.0
  O  O185  1  0.34593000  0.11176000  0.55228000  1.0
  O  O186  1  0.61292000  0.00380000  0.55803000  1.0
  O  O187  1  0.47188000  0.12468000  0.41740000  1.0
  O  O188  1  0.42404000  0.18300000  0.47627000  1.0
  O  O189  1  0.75039000  0.25031000  0.74955000  1.0
  O  O190  1  0.64068000  0.40389000  0.69727000  1.0
  O  O191  1  0.83556000  0.33644000  0.78094000  1.0
  O  O192  1  0.62610000  0.27597000  0.83222000  1.0
  O  O193  1  0.75420000  0.40796000  0.70024000  1.0
  O  O194  1  0.56728000  0.32667000  0.77358000  1.0
  O  O195  1  0.78346000  0.27902000  0.83551000  1.0
  O  O196  1  0.77677000  0.12339000  0.82965000  1.0
  O  O197  1  0.74648000  0.13607000  0.69181000  1.0
  O  O198  1  0.83071000  0.06443000  0.77122000  1.0
  O  O199  1  0.63743000  0.24592000  0.69158000  1.0
  O  O200  1  0.90700000  0.25544000  0.70032000  1.0
  O  O201  1  0.90392000  0.14194000  0.69617000  1.0
  O  O202  1  0.24952000  0.74987000  0.25018000  1.0
  O  O203  1  0.27633000  0.62392000  0.33096000  1.0
  O  O204  1  0.24498000  0.63624000  0.19236000  1.0
  O  O205  1  0.06586000  0.82730000  0.27218000  1.0
  O  O206  1  0.32983000  0.56602000  0.27228000  1.0
  O  O207  1  0.12366000  0.77461000  0.33094000  1.0
  O  O208  1  0.13674000  0.74685000  0.19136000  1.0
  O  O209  1  0.14433000  0.90281000  0.19623000  1.0
  O  O210  1  0.33514000  0.83582000  0.28086000  1.0
  O  O211  1  0.25851000  0.90582000  0.19925000  1.0
  O  O212  1  0.28100000  0.78079000  0.33567000  1.0
  O  O213  1  0.40255000  0.63973000  0.19537000  1.0
  O  O214  1  0.40686000  0.75250000  0.20025000  1.0
  O  O215  1  0.00004000  0.50004000  0.99992000  1.0
  O  O216  1  0.84434000  0.49397000  0.05051000  1.0
  O  O217  1  0.00333000  0.61361000  0.05812000  1.0
  O  O218  1  0.10832000  0.34730000  0.05390000  1.0
  O  O219  1  0.84666000  0.60821000  0.05371000  1.0
  O  O220  1  0.99496000  0.34323000  0.05060000  1.0
  O  O221  1  0.11289000  0.50427000  0.05822000  1.0
  O  O222  1  0.18435000  0.42095000  0.97766000  1.0
  O  O223  1  0.96919000  0.46861000  0.91426000  1.0
  O  O224  1  0.12643000  0.47318000  0.91894000  1.0
  O  O225  1  0.91443000  0.41409000  0.96900000  1.0
  O  O226  1  0.92075000  0.68444000  0.97733000  1.0
  O  O227  1  0.97406000  0.62529000  0.91904000  1.0
