# generated using pymatgen
data_Nd3H27C21N4O23
_symmetry_space_group_name_H-M   'P 1'
_cell_length_a   12.46150000
_cell_length_b   13.00940000
_cell_length_c   22.29760000
_cell_angle_alpha   89.99960000
_cell_angle_beta   90.00050000
_cell_angle_gamma   89.99950000
_symmetry_Int_Tables_number   1
_chemical_formula_structural   Nd3H27C21N4O23
_chemical_formula_sum   'Nd12 H108 C84 N16 O92'
_cell_volume   3614.81194934
_cell_formula_units_Z   4
loop_
 _symmetry_equiv_pos_site_id
 _symmetry_equiv_pos_as_xyz
  1  'x, y, z'
loop_
 _atom_site_type_symbol
 _atom_site_label
 _atom_site_symmetry_multiplicity
 _atom_site_fract_x
 _atom_site_fract_y
 _atom_site_fract_z
 _atom_site_occupancy
  Nd  Nd0  1  0.98926000  0.15932000  0.49072000  1.0
  Nd  Nd1  1  0.48925000  0.34068000  0.50927000  1.0
  Nd  Nd2  1  0.01074000  0.84069000  0.99072000  1.0
  Nd  Nd3  1  0.51074000  0.65931000  0.00928000  1.0
  Nd  Nd4  1  0.01075000  0.84069000  0.50927000  1.0
  Nd  Nd5  1  0.51075000  0.65932000  0.49073000  1.0
  Nd  Nd6  1  0.98925000  0.15931000  0.00928000  1.0
  Nd  Nd7  1  0.48925000  0.34068000  0.99072000  1.0
  Nd  Nd8  1  0.17041000  0.29315000  0.75000000  1.0
  Nd  Nd9  1  0.67042000  0.20685000  0.25000000  1.0
  Nd  Nd10  1  0.82960000  0.70685000  0.25000000  1.0
  Nd  Nd11  1  0.32958000  0.79314000  0.75001000  1.0
  H  H12  1  0.00952000  0.02065000  0.38160000  1.0
  H  H13  1  0.50952000  0.47936000  0.61840000  1.0
  H  H14  1  0.99047000  0.97936000  0.88160000  1.0
  H  H15  1  0.49047000  0.52064000  0.11840000  1.0
  H  H16  1  0.99047000  0.97935000  0.61840000  1.0
  H  H17  1  0.49048000  0.52065000  0.38160000  1.0
  H  H18  1  0.00953000  0.02064000  0.11840000  1.0
  H  H19  1  0.50952000  0.47936000  0.88161000  1.0
  H  H20  1  0.10344000  0.10182000  0.37972000  1.0
  H  H21  1  0.60344000  0.39819000  0.62028000  1.0
  H  H22  1  0.89655000  0.89818000  0.87971000  1.0
  H  H23  1  0.39656000  0.60182000  0.12029000  1.0
  H  H24  1  0.89655000  0.89818000  0.62028000  1.0
  H  H25  1  0.39656000  0.60181000  0.37972000  1.0
  H  H26  1  0.10344000  0.10182000  0.12028000  1.0
  H  H27  1  0.60344000  0.39818000  0.87971000  1.0
  H  H28  1  0.31049000  0.36452000  0.63928000  1.0
  H  H29  1  0.81050000  0.13547000  0.36072000  1.0
  H  H30  1  0.68951000  0.63547000  0.13928000  1.0
  H  H31  1  0.18950000  0.86453000  0.86072000  1.0
  H  H32  1  0.68950000  0.63547000  0.36072000  1.0
  H  H33  1  0.18950000  0.86453000  0.63928000  1.0
  H  H34  1  0.31050000  0.36453000  0.86072000  1.0
  H  H35  1  0.81050000  0.13548000  0.13928000  1.0
  H  H36  1  0.39951000  0.32991000  0.68361000  1.0
  H  H37  1  0.89952000  0.17009000  0.31639000  1.0
  H  H38  1  0.60050000  0.67009000  0.18361000  1.0
  H  H39  1  0.10048000  0.82992000  0.81639000  1.0
  H  H40  1  0.60050000  0.67010000  0.31638000  1.0
  H  H41  1  0.10049000  0.82990000  0.68361000  1.0
  H  H42  1  0.39951000  0.32992000  0.81639000  1.0
  H  H43  1  0.89951000  0.17009000  0.18361000  1.0
  H  H44  1  0.92523000  0.30001000  0.71531000  1.0
  H  H45  1  0.42522000  0.19999000  0.28469000  1.0
  H  H46  1  0.07477000  0.70001000  0.21532000  1.0
  H  H47  1  0.57479000  0.80000000  0.78469000  1.0
  H  H48  1  0.07479000  0.69999000  0.28469000  1.0
  H  H49  1  0.57477000  0.80001000  0.71531000  1.0
  H  H50  1  0.92522000  0.30000000  0.78469000  1.0
  H  H51  1  0.42523000  0.19999000  0.21532000  1.0
  H  H52  1  0.85485000  0.53657000  0.38602000  1.0
  H  H53  1  0.35484000  0.96344000  0.61398000  1.0
  H  H54  1  0.14516000  0.46343000  0.88603000  1.0
  H  H55  1  0.64515000  0.03657000  0.11398000  1.0
  H  H56  1  0.14515000  0.46344000  0.61398000  1.0
  H  H57  1  0.64515000  0.03656000  0.38602000  1.0
  H  H58  1  0.85485000  0.53656000  0.11398000  1.0
  H  H59  1  0.35484000  0.96343000  0.88602000  1.0
  H  H60  1  0.00707000  0.43716000  0.32902000  1.0
  H  H61  1  0.50707000  0.06284000  0.67098000  1.0
  H  H62  1  0.99293000  0.56284000  0.82902000  1.0
  H  H63  1  0.49293000  0.93716000  0.17098000  1.0
  H  H64  1  0.99293000  0.56285000  0.67098000  1.0
  H  H65  1  0.49293000  0.93716000  0.32902000  1.0
  H  H66  1  0.00707000  0.43715000  0.17098000  1.0
  H  H67  1  0.50707000  0.06285000  0.82902000  1.0
  H  H68  1  0.05960000  0.32586000  0.36545000  1.0
  H  H69  1  0.55959000  0.17415000  0.63455000  1.0
  H  H70  1  0.94041000  0.67414000  0.86545000  1.0
  H  H71  1  0.44041000  0.82585000  0.13455000  1.0
  H  H72  1  0.94041000  0.67415000  0.63455000  1.0
  H  H73  1  0.44041000  0.82585000  0.36544000  1.0
  H  H74  1  0.05959000  0.32585000  0.13455000  1.0
  H  H75  1  0.55959000  0.17415000  0.86545000  1.0
  H  H76  1  0.06605000  0.54207000  0.42071000  1.0
  H  H77  1  0.56605000  0.95793000  0.57929000  1.0
  H  H78  1  0.93395000  0.45793000  0.92071000  1.0
  H  H79  1  0.43395000  0.04207000  0.07929000  1.0
  H  H80  1  0.93396000  0.45794000  0.57929000  1.0
  H  H81  1  0.43395000  0.04206000  0.42071000  1.0
  H  H82  1  0.06605000  0.54206000  0.07929000  1.0
  H  H83  1  0.56605000  0.95794000  0.92071000  1.0
  H  H84  1  0.12649000  0.42995000  0.44991000  1.0
  H  H85  1  0.62648000  0.07006000  0.55008000  1.0
  H  H86  1  0.87352000  0.57006000  0.94992000  1.0
  H  H87  1  0.37351000  0.92994000  0.05008000  1.0
  H  H88  1  0.87352000  0.57006000  0.55008000  1.0
  H  H89  1  0.37352000  0.92994000  0.44991000  1.0
  H  H90  1  0.12649000  0.42994000  0.05008000  1.0
  H  H91  1  0.62648000  0.07006000  0.94992000  1.0
  H  H92  1  0.25313000  0.42158000  0.36356000  1.0
  H  H93  1  0.75313000  0.07842000  0.63643000  1.0
  H  H94  1  0.74687000  0.57842000  0.86357000  1.0
  H  H95  1  0.24687000  0.92158000  0.13643000  1.0
  H  H96  1  0.74688000  0.57842000  0.63643000  1.0
  H  H97  1  0.24687000  0.92158000  0.36356000  1.0
  H  H98  1  0.25313000  0.42158000  0.13643000  1.0
  H  H99  1  0.75313000  0.07842000  0.86357000  1.0
  H  H100  1  0.25898000  0.54363000  0.39860000  1.0
  H  H101  1  0.75897000  0.95638000  0.60139000  1.0
  H  H102  1  0.74103000  0.45638000  0.89861000  1.0
  H  H103  1  0.24102000  0.04362000  0.10139000  1.0
  H  H104  1  0.74103000  0.45638000  0.60139000  1.0
  H  H105  1  0.24103000  0.04362000  0.39860000  1.0
  H  H106  1  0.25897000  0.54362000  0.10139000  1.0
  H  H107  1  0.75897000  0.95638000  0.89861000  1.0
  H  H108  1  0.18855000  0.52942000  0.32919000  1.0
  H  H109  1  0.68856000  0.97058000  0.67081000  1.0
  H  H110  1  0.81144000  0.47058000  0.82919000  1.0
  H  H111  1  0.31144000  0.02942000  0.17081000  1.0
  H  H112  1  0.81145000  0.47058000  0.67081000  1.0
  H  H113  1  0.31144000  0.02942000  0.32919000  1.0
  H  H114  1  0.18856000  0.52942000  0.17081000  1.0
  H  H115  1  0.68856000  0.97058000  0.82919000  1.0
  H  H116  1  0.31151000  0.52879000  0.75000000  1.0
  H  H117  1  0.81153000  0.97123000  0.24999000  1.0
  H  H118  1  0.68848000  0.47122000  0.25000000  1.0
  H  H119  1  0.18847000  0.02877000  0.75000000  1.0
  C  C120  1  0.80373000  0.34658000  0.47419000  1.0
  C  C121  1  0.30372000  0.15342000  0.52581000  1.0
  C  C122  1  0.19627000  0.65342000  0.97419000  1.0
  C  C123  1  0.69628000  0.84658000  0.02581000  1.0
  C  C124  1  0.19628000  0.65342000  0.52581000  1.0
  C  C125  1  0.69628000  0.84658000  0.47419000  1.0
  C  C126  1  0.80373000  0.34657000  0.02581000  1.0
  C  C127  1  0.30372000  0.15342000  0.97419000  1.0
  C  C128  1  0.77104000  0.44091000  0.45028000  1.0
  C  C129  1  0.27104000  0.05910000  0.54971000  1.0
  C  C130  1  0.22896000  0.55909000  0.95029000  1.0
  C  C131  1  0.72896000  0.94090000  0.04971000  1.0
  C  C132  1  0.22896000  0.55910000  0.54971000  1.0
  C  C133  1  0.72896000  0.94091000  0.45029000  1.0
  C  C134  1  0.77104000  0.44090000  0.04971000  1.0
  C  C135  1  0.27103000  0.05910000  0.95028000  1.0
  C  C136  1  0.92401000  0.39265000  0.40770000  1.0
  C  C137  1  0.42400000  0.10736000  0.59230000  1.0
  C  C138  1  0.07600000  0.60736000  0.90770000  1.0
  C  C139  1  0.57600000  0.89264000  0.09230000  1.0
  C  C140  1  0.07600000  0.60736000  0.59230000  1.0
  C  C141  1  0.57600000  0.89264000  0.40770000  1.0
  C  C142  1  0.92400000  0.39264000  0.09230000  1.0
  C  C143  1  0.42400000  0.10736000  0.90770000  1.0
  C  C144  1  0.76203000  0.28074000  0.52410000  1.0
  C  C145  1  0.26202000  0.21927000  0.47589000  1.0
  C  C146  1  0.23797000  0.71926000  0.02410000  1.0
  C  C147  1  0.73798000  0.78074000  0.97590000  1.0
  C  C148  1  0.23798000  0.71926000  0.47590000  1.0
  C  C149  1  0.73798000  0.78074000  0.52410000  1.0
  C  C150  1  0.76203000  0.28073000  0.97590000  1.0
  C  C151  1  0.26202000  0.21926000  0.02410000  1.0
  C  C152  1  0.68460000  0.51354000  0.46294000  1.0
  C  C153  1  0.18460000  0.98646000  0.53706000  1.0
  C  C154  1  0.31540000  0.48646000  0.96295000  1.0
  C  C155  1  0.81540000  0.01354000  0.03706000  1.0
  C  C156  1  0.31540000  0.48646000  0.53706000  1.0
  C  C157  1  0.81540000  0.01354000  0.46294000  1.0
  C  C158  1  0.68460000  0.51354000  0.03706000  1.0
  C  C159  1  0.18459000  0.98646000  0.96294000  1.0
  C  C160  1  0.02508000  0.40251000  0.37295000  1.0
  C  C161  1  0.52508000  0.09750000  0.62705000  1.0
  C  C162  1  0.97492000  0.59749000  0.87295000  1.0
  C  C163  1  0.47492000  0.90250000  0.12705000  1.0
  C  C164  1  0.97493000  0.59750000  0.62705000  1.0
  C  C165  1  0.47492000  0.90250000  0.37295000  1.0
  C  C166  1  0.02508000  0.40250000  0.12705000  1.0
  C  C167  1  0.52508000  0.09750000  0.87295000  1.0
  C  C168  1  0.10575000  0.46972000  0.40794000  1.0
  C  C169  1  0.60574000  0.03029000  0.59206000  1.0
  C  C170  1  0.89426000  0.53028000  0.90794000  1.0
  C  C171  1  0.39426000  0.96971000  0.09206000  1.0
  C  C172  1  0.89426000  0.53029000  0.59206000  1.0
  C  C173  1  0.39426000  0.96971000  0.40793000  1.0
  C  C174  1  0.10575000  0.46971000  0.09206000  1.0
  C  C175  1  0.60574000  0.03029000  0.90794000  1.0
  C  C176  1  0.20734000  0.49219000  0.37225000  1.0
  C  C177  1  0.70733000  0.00782000  0.62774000  1.0
  C  C178  1  0.79266000  0.50782000  0.87225000  1.0
  C  C179  1  0.29266000  0.99218000  0.12774000  1.0
  C  C180  1  0.79267000  0.50782000  0.62774000  1.0
  C  C181  1  0.29267000  0.99218000  0.37225000  1.0
  C  C182  1  0.20734000  0.49218000  0.12775000  1.0
  C  C183  1  0.70733000  0.00782000  0.87226000  1.0
  C  C184  1  0.05688000  0.17142000  0.63395000  1.0
  C  C185  1  0.55689000  0.32858000  0.36606000  1.0
  C  C186  1  0.94315000  0.82857000  0.13394000  1.0
  C  C187  1  0.44312000  0.67141000  0.86606000  1.0
  C  C188  1  0.94312000  0.82859000  0.36605000  1.0
  C  C189  1  0.44313000  0.67141000  0.63394000  1.0
  C  C190  1  0.05687000  0.17142000  0.86606000  1.0
  C  C191  1  0.55686000  0.32858000  0.13395000  1.0
  C  C192  1  0.07419000  0.28211000  0.60949000  1.0
  C  C193  1  0.57420000  0.21789000  0.39051000  1.0
  C  C194  1  0.92583000  0.71789000  0.10948000  1.0
  C  C195  1  0.42580000  0.78210000  0.89052000  1.0
  C  C196  1  0.92582000  0.71790000  0.39051000  1.0
  C  C197  1  0.42581000  0.78211000  0.60948000  1.0
  C  C198  1  0.07419000  0.28211000  0.89052000  1.0
  C  C199  1  0.57419000  0.21789000  0.10949000  1.0
  C  C200  1  0.22588000  0.55188000  0.75000000  1.0
  C  C201  1  0.72591000  0.94813000  0.24999000  1.0
  C  C202  1  0.77410000  0.44812000  0.25000000  1.0
  C  C203  1  0.27409000  0.05187000  0.75000000  1.0
  N  N204  1  0.89887000  0.31862000  0.44703000  1.0
  N  N205  1  0.39886000  0.18138000  0.55296000  1.0
  N  N206  1  0.10113000  0.68138000  0.94704000  1.0
  N  N207  1  0.60114000  0.81862000  0.05297000  1.0
  N  N208  1  0.10114000  0.68139000  0.55296000  1.0
  N  N209  1  0.60114000  0.81862000  0.44704000  1.0
  N  N210  1  0.89886000  0.31862000  0.05296000  1.0
  N  N211  1  0.39886000  0.18138000  0.94703000  1.0
  N  N212  1  0.84818000  0.46662000  0.40864000  1.0
  N  N213  1  0.34818000  0.03339000  0.59136000  1.0
  N  N214  1  0.15182000  0.53338000  0.90864000  1.0
  N  N215  1  0.65182000  0.96662000  0.09136000  1.0
  N  N216  1  0.15182000  0.53339000  0.59136000  1.0
  N  N217  1  0.65182000  0.96661000  0.40864000  1.0
  N  N218  1  0.84818000  0.46662000  0.09136000  1.0
  N  N219  1  0.34817000  0.03339000  0.90864000  1.0
  O  O220  1  0.82807000  0.21607000  0.54545000  1.0
  O  O221  1  0.32807000  0.28394000  0.45454000  1.0
  O  O222  1  0.17193000  0.78393000  0.04545000  1.0
  O  O223  1  0.67193000  0.71606000  0.95455000  1.0
  O  O224  1  0.17193000  0.78393000  0.45454000  1.0
  O  O225  1  0.67194000  0.71606000  0.54546000  1.0
  O  O226  1  0.82806000  0.21607000  0.95454000  1.0
  O  O227  1  0.32806000  0.28393000  0.04545000  1.0
  O  O228  1  0.66666667  0.29256000  0.54350000  1.0
  O  O229  1  0.16669000  0.20744000  0.45649000  1.0
  O  O230  1  0.33333333  0.70743000  0.04351000  1.0
  O  O231  1  0.83330000  0.79257000  0.95650000  1.0
  O  O232  1  0.33333333  0.70744000  0.45650000  1.0
  O  O233  1  0.83332000  0.79257000  0.54350000  1.0
  O  O234  1  0.66666667  0.29256000  0.95650000  1.0
  O  O235  1  0.16669000  0.20743000  0.04350000  1.0
  O  O236  1  0.61316000  0.49374000  0.50309000  1.0
  O  O237  1  0.11316000  0.00626000  0.49690000  1.0
  O  O238  1  0.38684000  0.50625000  0.00310000  1.0
  O  O239  1  0.88684000  0.99374000  0.99691000  1.0
  O  O240  1  0.38685000  0.50626000  0.49691000  1.0
  O  O241  1  0.88684000  0.99374000  0.50309000  1.0
  O  O242  1  0.61315000  0.49374000  0.99690000  1.0
  O  O243  1  0.11315000  0.00626000  0.00309000  1.0
  O  O244  1  0.68163000  0.59814000  0.43429000  1.0
  O  O245  1  0.18163000  0.90187000  0.56570000  1.0
  O  O246  1  0.31837000  0.40187000  0.93430000  1.0
  O  O247  1  0.81836000  0.09814000  0.06570000  1.0
  O  O248  1  0.31836000  0.40186000  0.56570000  1.0
  O  O249  1  0.81837000  0.09814000  0.43429000  1.0
  O  O250  1  0.68163000  0.59813000  0.06571000  1.0
  O  O251  1  0.18163000  0.90186000  0.93429000  1.0
  O  O252  1  0.08041000  0.15543000  0.68778000  1.0
  O  O253  1  0.58043000  0.34457000  0.31222000  1.0
  O  O254  1  0.91964000  0.84456000  0.18779000  1.0
  O  O255  1  0.41958000  0.65542000  0.81222000  1.0
  O  O256  1  0.91959000  0.84458000  0.31221000  1.0
  O  O257  1  0.41958000  0.65542000  0.68779000  1.0
  O  O258  1  0.08040000  0.15543000  0.81221000  1.0
  O  O259  1  0.58039000  0.34457000  0.18779000  1.0
  O  O260  1  0.01939000  0.10554000  0.59700000  1.0
  O  O261  1  0.51940000  0.39445000  0.40300000  1.0
  O  O262  1  0.98063000  0.89444000  0.09700000  1.0
  O  O263  1  0.48061000  0.60555000  0.90301000  1.0
  O  O264  1  0.98061000  0.89446000  0.40300000  1.0
  O  O265  1  0.48062000  0.60555000  0.59701000  1.0
  O  O266  1  0.01938000  0.10555000  0.90300000  1.0
  O  O267  1  0.51937000  0.39445000  0.09700000  1.0
  O  O268  1  0.05372000  0.29974000  0.55525000  1.0
  O  O269  1  0.55372000  0.20025000  0.44475000  1.0
  O  O270  1  0.94628000  0.70026000  0.05525000  1.0
  O  O271  1  0.44627000  0.79974000  0.94476000  1.0
  O  O272  1  0.94629000  0.70026000  0.44474000  1.0
  O  O273  1  0.44627000  0.79974000  0.55526000  1.0
  O  O274  1  0.05373000  0.29974000  0.94475000  1.0
  O  O275  1  0.55372000  0.20026000  0.05525000  1.0
  O  O276  1  0.10787000  0.34767000  0.64755000  1.0
  O  O277  1  0.60788000  0.15232000  0.35244000  1.0
  O  O278  1  0.89213000  0.65232000  0.14755000  1.0
  O  O279  1  0.39211000  0.84767000  0.85245000  1.0
  O  O280  1  0.89213000  0.65233000  0.35244000  1.0
  O  O281  1  0.39212000  0.84768000  0.64756000  1.0
  O  O282  1  0.10789000  0.34767000  0.85245000  1.0
  O  O283  1  0.60788000  0.15233000  0.14755000  1.0
  O  O284  1  0.15567000  0.48110000  0.74999000  1.0
  O  O285  1  0.65570000  0.01891000  0.25000000  1.0
  O  O286  1  0.84432000  0.51890000  0.25001000  1.0
  O  O287  1  0.34431000  0.98108000  0.75001000  1.0
  O  O288  1  0.20482000  0.64748000  0.75000000  1.0
  O  O289  1  0.70486000  0.85253000  0.24999000  1.0
  O  O290  1  0.79515000  0.35253000  0.25000000  1.0
  O  O291  1  0.29515000  0.14746000  0.75000000  1.0
  O  O292  1  0.02540000  0.09623000  0.38183000  1.0
  O  O293  1  0.52539000  0.40377000  0.61816000  1.0
  O  O294  1  0.97460000  0.90377000  0.88183000  1.0
  O  O295  1  0.47460000  0.59623000  0.11817000  1.0
  O  O296  1  0.97460000  0.90376000  0.61816000  1.0
  O  O297  1  0.47460000  0.59623000  0.38184000  1.0
  O  O298  1  0.02540000  0.09623000  0.11816000  1.0
  O  O299  1  0.52539000  0.40377000  0.88184000  1.0
  O  O300  1  0.32203000  0.33736000  0.68039000  1.0
  O  O301  1  0.82203000  0.16264000  0.31961000  1.0
  O  O302  1  0.67798000  0.66263000  0.18039000  1.0
  O  O303  1  0.17796000  0.83736000  0.81961000  1.0
  O  O304  1  0.67798000  0.66264000  0.31961000  1.0
  O  O305  1  0.17797000  0.83736000  0.68040000  1.0
  O  O306  1  0.32203000  0.33737000  0.81961000  1.0
  O  O307  1  0.82203000  0.16264000  0.18039000  1.0
  O  O308  1  0.95919000  0.33174000  0.75000000  1.0
  O  O309  1  0.45920000  0.16826000  0.25000000  1.0
  O  O310  1  0.04082000  0.66825000  0.25000000  1.0
  O  O311  1  0.54080000  0.83173000  0.75000000  1.0
