# generated using pymatgen
data_Zn2H22C40IN6ClO8
_symmetry_space_group_name_H-M   'P 1'
_cell_length_a   13.59410000
_cell_length_b   15.96890000
_cell_length_c   17.25550000
_cell_angle_alpha   94.46360000
_cell_angle_beta   90.05870000
_cell_angle_gamma   111.30130000
_symmetry_Int_Tables_number   1
_chemical_formula_structural   Zn2H22C40IN6ClO8
_chemical_formula_sum   'Zn2 H22 C40 I1 N6 Cl1 O8'
_cell_volume   3477.64961927
_cell_formula_units_Z   1
loop_
 _symmetry_equiv_pos_site_id
 _symmetry_equiv_pos_as_xyz
  1  'x, y, z'
loop_
 _atom_site_type_symbol
 _atom_site_label
 _atom_site_symmetry_multiplicity
 _atom_site_fract_x
 _atom_site_fract_y
 _atom_site_fract_z
 _atom_site_occupancy
  Zn  Zn0  1  0.48852000  0.40811000  0.49553000  1.0
  Zn  Zn1  1  0.51135000  0.59132000  0.50265000  1.0
  H  H2  1  0.84507000  0.71040000  0.56849000  1.0
  H  H3  1  0.38370000  0.06745000  0.41578000  1.0
  H  H4  1  0.36177000  0.80789000  0.39634000  1.0
  H  H5  1  0.18738000  0.69821000  0.61180000  1.0
  H  H6  1  0.39363000  0.66388000  0.41411000  1.0
  H  H7  1  0.61675000  0.33237000  0.58015000  1.0
  H  H8  1  0.58583000  0.93512000  0.58634000  1.0
  H  H9  1  0.63956000  0.18195000  0.58640000  1.0
  H  H10  1  0.03520000  0.74533000  0.60400000  1.0
  H  H11  1  0.81072000  0.44175000  0.48616000  1.0
  H  H12  1  0.15361000  0.28344000  0.46388000  1.0
  H  H13  1  0.59911000  0.45708000  0.90149000  1.0
  H  H14  1  0.87270000  0.34758000  0.47640000  1.0
  H  H15  1  0.95704000  0.23638000  0.44843000  1.0
  H  H16  1  0.27126000  0.58773000  0.57864000  1.0
  H  H17  1  0.53756000  0.36359000  0.10485000  1.0
  H  H18  1  0.53030000  0.36844000  0.25131000  1.0
  H  H19  1  0.38589000  0.57265000  0.73607000  1.0
  H  H20  1  0.43638000  0.58932000  0.10760000  1.0
  H  H21  1  0.36375000  0.57613000  0.88097000  1.0
  H  H22  1  0.43790000  0.59870000  0.25381000  1.0
  H  H23  1  0.37410000  0.22271000  0.41457000  1.0
  C  C24  1  0.48745000  0.49054000  0.34785000  1.0
  C  C25  1  0.17698000  0.41900000  0.50534000  1.0
  C  C26  1  0.48411000  0.48399000  0.26073000  1.0
  C  C27  1  0.29457000  0.44457000  0.50348000  1.0
  C  C28  1  0.45768000  0.54647000  0.22043000  1.0
  C  C29  1  0.45736000  0.54191000  0.13983000  1.0
  C  C30  1  0.48707000  0.47577000  0.09829000  1.0
  C  C31  1  0.51392000  0.41348000  0.13848000  1.0
  C  C32  1  0.51048000  0.41656000  0.21915000  1.0
  C  C33  1  0.55117000  0.48077000  0.86479000  1.0
  C  C34  1  0.56289000  0.47944000  0.78477000  1.0
  C  C35  1  0.01768000  0.45776000  0.51447000  1.0
  C  C36  1  0.47765000  0.51407000  0.89924000  1.0
  C  C37  1  0.50158000  0.51096000  0.73712000  1.0
  C  C38  1  0.43111000  0.54665000  0.77322000  1.0
  C  C39  1  0.50473000  0.50754000  0.65007000  1.0
  C  C40  1  0.41885000  0.54878000  0.85314000  1.0
  C  C41  1  0.55501000  0.79406000  0.55272000  1.0
  C  C42  1  0.54314000  0.87640000  0.54702000  1.0
  C  C43  1  0.47428000  0.88224000  0.48918000  1.0
  C  C44  1  0.41741000  0.80523000  0.44064000  1.0
  C  C45  1  0.43483000  0.72614000  0.45015000  1.0
  C  C46  1  0.12904000  0.48308000  0.52740000  1.0
  C  C47  1  0.43625000  0.12471000  0.45259000  1.0
  C  C48  1  0.43077000  0.20973000  0.45201000  1.0
  C  C49  1  0.51225000  0.11441000  0.50217000  1.0
  C  C50  1  0.56790000  0.27184000  0.54477000  1.0
  C  C51  1  0.70365000  0.54975000  0.50610000  1.0
  C  C52  1  0.57982000  0.18931000  0.54826000  1.0
  C  C53  1  0.98598000  0.67864000  0.57785000  1.0
  C  C54  1  0.81835000  0.57305000  0.52532000  1.0
  C  C55  1  0.11477000  0.33115000  0.47881000  1.0
  C  C56  1  0.00494000  0.30542000  0.46973000  1.0
  C  C57  1  0.96940000  0.52483000  0.53030000  1.0
  C  C58  1  0.95776000  0.36815000  0.48583000  1.0
  C  C59  1  0.03238000  0.61275000  0.56393000  1.0
  C  C60  1  0.14125000  0.63221000  0.58269000  1.0
  C  C61  1  0.18795000  0.57088000  0.56454000  1.0
  C  C62  1  0.86239000  0.50732000  0.51223000  1.0
  C  C63  1  0.88113000  0.65984000  0.55851000  1.0
  I  I64  1  0.65921000  0.78838000  0.64025000  1.0
  N  N65  1  0.49641000  0.46847000  0.01682000  1.0
  N  N66  1  0.46114000  0.51787000  0.98004000  1.0
  N  N67  1  0.50295000  0.72033000  0.50487000  1.0
  N  N68  1  0.45636000  0.96295000  0.47864000  1.0
  N  N69  1  0.52830000  0.03258000  0.50958000  1.0
  N  N70  1  0.49481000  0.28145000  0.49736000  1.0
  Cl  Cl71  1  0.66006000  0.44254000  0.74721000  1.0
  O  O72  1  0.46699000  0.41685000  0.37959000  1.0
  O  O73  1  0.51148000  0.56903000  0.38266000  1.0
  O  O74  1  0.33179000  0.38346000  0.51407000  1.0
  O  O75  1  0.34867000  0.52490000  0.48820000  1.0
  O  O76  1  0.51989000  0.44110000  0.61412000  1.0
  O  O77  1  0.48803000  0.57115000  0.61898000  1.0
  O  O78  1  0.64983000  0.46799000  0.48312000  1.0
  O  O79  1  0.66734000  0.61316000  0.51549000  1.0
