# generated using pymatgen
data_CuH3C4SN2
_symmetry_space_group_name_H-M   'P 1'
_cell_length_a   7.72876000
_cell_length_b   11.77990000
_cell_length_c   17.31020000
_cell_angle_alpha   90.00010000
_cell_angle_beta   90.00020000
_cell_angle_gamma   89.99980000
_symmetry_Int_Tables_number   1
_chemical_formula_structural   CuH3C4SN2
_chemical_formula_sum   'Cu12 H36 C48 S12 N24'
_cell_volume   1575.99019367
_cell_formula_units_Z   12
loop_
 _symmetry_equiv_pos_site_id
 _symmetry_equiv_pos_as_xyz
  1  'x, y, z'
loop_
 _atom_site_type_symbol
 _atom_site_label
 _atom_site_symmetry_multiplicity
 _atom_site_fract_x
 _atom_site_fract_y
 _atom_site_fract_z
 _atom_site_occupancy
  Cu  Cu0  1  0.05525000  0.11609000  0.85539000  1.0
  Cu  Cu1  1  0.94475000  0.38391000  0.35539000  1.0
  Cu  Cu2  1  0.44475000  0.61609000  0.14461000  1.0
  Cu  Cu3  1  0.55524000  0.88391000  0.64461000  1.0
  Cu  Cu4  1  0.82224000  0.94130000  0.73938000  1.0
  Cu  Cu5  1  0.17775000  0.55870000  0.23937000  1.0
  Cu  Cu6  1  0.67775000  0.44130000  0.26062000  1.0
  Cu  Cu7  1  0.32225000  0.05870000  0.76063000  1.0
  Cu  Cu8  1  0.05016000  0.15926000  0.67126000  1.0
  Cu  Cu9  1  0.94984000  0.34074000  0.17126000  1.0
  Cu  Cu10  1  0.44984000  0.65926000  0.32874000  1.0
  Cu  Cu11  1  0.55016000  0.84074000  0.82874000  1.0
  H  H12  1  0.52821000  0.53111000  0.78411000  1.0
  H  H13  1  0.47179000  0.96890000  0.28411000  1.0
  H  H14  1  0.97179000  0.03110000  0.21589000  1.0
  H  H15  1  0.02821000  0.46889000  0.71588000  1.0
  H  H16  1  0.76504000  0.38242000  0.78274000  1.0
  H  H17  1  0.23496000  0.11758000  0.28274000  1.0
  H  H18  1  0.73496000  0.88241000  0.21726000  1.0
  H  H19  1  0.26503000  0.61758000  0.71726000  1.0
  H  H20  1  0.67045000  0.17703000  0.77405000  1.0
  H  H21  1  0.32955000  0.32297000  0.27405000  1.0
  H  H22  1  0.82955000  0.67703000  0.22595000  1.0
  H  H23  1  0.17045000  0.82297000  0.72595000  1.0
  H  H24  1  0.05379000  0.83232000  0.07542000  1.0
  H  H25  1  0.94621000  0.66768000  0.57543000  1.0
  H  H26  1  0.44621000  0.33232000  0.92457000  1.0
  H  H27  1  0.55379000  0.16768000  0.42458000  1.0
  H  H28  1  0.87325000  0.65375000  0.05782000  1.0
  H  H29  1  0.12676000  0.84625000  0.55783000  1.0
  H  H30  1  0.62675000  0.15375000  0.94217000  1.0
  H  H31  1  0.37325000  0.34625000  0.44218000  1.0
  H  H32  1  0.65576000  0.65437000  0.94918000  1.0
  H  H33  1  0.34425000  0.84563000  0.44918000  1.0
  H  H34  1  0.84424000  0.15436000  0.05082000  1.0
  H  H35  1  0.15575000  0.34564000  0.55082000  1.0
  H  H36  1  0.44466000  0.96365000  0.11793000  1.0
  H  H37  1  0.55534000  0.53635000  0.61793000  1.0
  H  H38  1  0.05534000  0.46366000  0.88207000  1.0
  H  H39  1  0.94466000  0.03635000  0.38207000  1.0
  H  H40  1  0.29110000  0.15316000  0.13168000  1.0
  H  H41  1  0.70890000  0.34684000  0.63168000  1.0
  H  H42  1  0.20890000  0.65316000  0.86832000  1.0
  H  H43  1  0.79111000  0.84684000  0.36832000  1.0
  H  H44  1  0.14437000  0.23220000  0.01263000  1.0
  H  H45  1  0.85563000  0.26779000  0.51263000  1.0
  H  H46  1  0.35563000  0.73220000  0.98737000  1.0
  H  H47  1  0.64438000  0.76780000  0.48737000  1.0
  C  C48  1  0.29045000  0.30187000  0.77758000  1.0
  C  C49  1  0.70955000  0.19813000  0.27758000  1.0
  C  C50  1  0.20955000  0.80187000  0.22242000  1.0
  C  C51  1  0.79045000  0.69813000  0.72242000  1.0
  C  C52  1  0.49837000  0.44050000  0.78234000  1.0
  C  C53  1  0.50163000  0.05950000  0.28235000  1.0
  C  C54  1  0.00163000  0.94050000  0.21766000  1.0
  C  C55  1  0.99837000  0.55950000  0.71765000  1.0
  C  C56  1  0.62904000  0.35918000  0.78101000  1.0
  C  C57  1  0.37096000  0.14082000  0.28101000  1.0
  C  C58  1  0.87095000  0.85918000  0.21899000  1.0
  C  C59  1  0.12904000  0.64082000  0.71899000  1.0
  C  C60  1  0.57747000  0.24645000  0.77623000  1.0
  C  C61  1  0.42254000  0.25356000  0.27623000  1.0
  C  C62  1  0.92253000  0.74644000  0.22377000  1.0
  C  C63  1  0.07746000  0.75355000  0.72377000  1.0
  C  C64  1  0.83154000  0.90617000  0.92388000  1.0
  C  C65  1  0.16846000  0.59383000  0.42388000  1.0
  C  C66  1  0.66846000  0.40617000  0.07612000  1.0
  C  C67  1  0.33154000  0.09383000  0.57612000  1.0
  C  C68  1  0.95834000  0.82494000  0.02925000  1.0
  C  C69  1  0.04166000  0.67507000  0.52925000  1.0
  C  C70  1  0.54166000  0.32494000  0.97075000  1.0
  C  C71  1  0.45834000  0.17507000  0.47075000  1.0
  C  C72  1  0.86062000  0.72659000  0.01957000  1.0
  C  C73  1  0.13939000  0.77341000  0.51957000  1.0
  C  C74  1  0.63939000  0.22659000  0.98043000  1.0
  C  C75  1  0.36061000  0.27342000  0.48043000  1.0
  C  C76  1  0.74130000  0.72652000  0.95954000  1.0
  C  C77  1  0.25870000  0.77348000  0.45954000  1.0
  C  C78  1  0.75870000  0.22652000  0.04046000  1.0
  C  C79  1  0.24130000  0.27348000  0.54047000  1.0
  C  C80  1  0.30767000  0.99625000  0.94118000  1.0
  C  C81  1  0.69233000  0.50375000  0.44118000  1.0
  C  C82  1  0.19233000  0.49625000  0.05882000  1.0
  C  C83  1  0.80767000  0.00375000  0.55882000  1.0
  C  C84  1  0.38112000  0.00442000  0.06885000  1.0
  C  C85  1  0.61888000  0.49558000  0.56884000  1.0
  C  C86  1  0.11888000  0.50442000  0.93115000  1.0
  C  C87  1  0.88112000  0.99558000  0.43116000  1.0
  C  C88  1  0.29506000  0.10789000  0.07698000  1.0
  C  C89  1  0.70493000  0.39211000  0.57698000  1.0
  C  C90  1  0.20494000  0.60789000  0.92302000  1.0
  C  C91  1  0.79507000  0.89211000  0.42303000  1.0
  C  C92  1  0.21353000  0.15123000  0.01182000  1.0
  C  C93  1  0.78647000  0.34877000  0.51182000  1.0
  C  C94  1  0.28647000  0.65123000  0.98818000  1.0
  C  C95  1  0.71353000  0.84877000  0.48818000  1.0
  S  S96  1  0.07034000  0.26492000  0.77769000  1.0
  S  S97  1  0.92966000  0.23508000  0.27769000  1.0
  S  S98  1  0.42966000  0.76491000  0.22231000  1.0
  S  S99  1  0.57034000  0.73509000  0.72231000  1.0
  S  S100  1  0.81085000  0.01753000  0.85728000  1.0
  S  S101  1  0.18915000  0.48247000  0.35728000  1.0
  S  S102  1  0.68915000  0.51752000  0.14272000  1.0
  S  S103  1  0.31085000  0.98248000  0.64272000  1.0
  S  S104  1  0.30103000  0.92556000  0.85174000  1.0
  S  S105  1  0.69898000  0.57444000  0.35174000  1.0
  S  S106  1  0.19897000  0.42556000  0.14826000  1.0
  S  S107  1  0.80103000  0.07444000  0.64826000  1.0
  N  N108  1  0.40947000  0.21627000  0.77422000  1.0
  N  N109  1  0.59053000  0.28373000  0.27423000  1.0
  N  N110  1  0.09053000  0.71626000  0.22578000  1.0
  N  N111  1  0.90947000  0.78373000  0.72577000  1.0
  N  N112  1  0.33023000  0.41246000  0.78071000  1.0
  N  N113  1  0.66976000  0.08754000  0.28071000  1.0
  N  N114  1  0.16977000  0.91246000  0.21929000  1.0
  N  N115  1  0.83023000  0.58754000  0.71929000  1.0
  N  N116  1  0.94310000  0.91510000  0.98264000  1.0
  N  N117  1  0.05690000  0.58490000  0.48264000  1.0
  N  N118  1  0.55691000  0.41510000  0.01736000  1.0
  N  N119  1  0.44310000  0.08490000  0.51736000  1.0
  N  N120  1  0.72561000  0.81554000  0.91126000  1.0
  N  N121  1  0.27439000  0.68446000  0.41126000  1.0
  N  N122  1  0.77438000  0.31554000  0.08874000  1.0
  N  N123  1  0.22561000  0.18446000  0.58874000  1.0
  N  N124  1  0.21705000  0.09533000  0.94402000  1.0
  N  N125  1  0.78295000  0.40466000  0.44402000  1.0
  N  N126  1  0.28295000  0.59533000  0.05598000  1.0
  N  N127  1  0.71705000  0.90467000  0.55598000  1.0
  N  N128  1  0.38965000  0.94882000  0.00124000  1.0
  N  N129  1  0.61035000  0.55118000  0.50124000  1.0
  N  N130  1  0.11035000  0.44882000  0.99876000  1.0
  N  N131  1  0.88965000  0.05118000  0.49876000  1.0
