# generated using pymatgen
data_Zn3H12C30(NO5)4
_symmetry_space_group_name_H-M   'P 1'
_cell_length_a   21.75369633
_cell_length_b   21.75380000
_cell_length_c   21.75380000
_cell_angle_alpha   60.86200000
_cell_angle_beta   88.50036600
_cell_angle_gamma   119.13783960
_symmetry_Int_Tables_number   1
_chemical_formula_structural   Zn3H12C30(NO5)4
_chemical_formula_sum   'Zn6 H24 C60 N8 O40'
_cell_volume   7371.40562938
_cell_formula_units_Z   2
loop_
 _symmetry_equiv_pos_site_id
 _symmetry_equiv_pos_as_xyz
  1  'x, y, z'
loop_
 _atom_site_type_symbol
 _atom_site_label
 _atom_site_symmetry_multiplicity
 _atom_site_fract_x
 _atom_site_fract_y
 _atom_site_fract_z
 _atom_site_occupancy
  Zn  Zn0  1  0.94136000  0.44136000  0.50000000  1.0
  Zn  Zn1  1  0.50000000  0.44136000  0.05864000  1.0
  Zn  Zn2  1  0.05864000  0.55864000  0.50000000  1.0
  Zn  Zn3  1  0.50000000  0.55864000  0.94136000  1.0
  Zn  Zn4  1  0.04244000  0.00000000  0.95756000  1.0
  Zn  Zn5  1  0.95756000  0.00000000  0.04244000  1.0
  H  H6  1  0.87176000  0.62522000  0.68677000  1.0
  H  H7  1  0.24654000  0.55853000  0.12823000  1.0
  H  H8  1  0.68801000  0.37477000  0.75346000  1.0
  H  H9  1  0.31324000  0.44147000  0.31199000  1.0
  H  H10  1  0.12824000  0.44152000  0.24651000  1.0
  H  H11  1  0.75350000  0.62525000  0.68803000  1.0
  H  H12  1  0.31198000  0.55847000  0.31327000  1.0
  H  H13  1  0.68672000  0.37474000  0.87176000  1.0
  H  H14  1  0.95420000  0.62391000  0.60626000  1.0
  H  H15  1  0.33029000  0.56046000  0.04579000  1.0
  H  H16  1  0.76983000  0.37608000  0.66971000  1.0
  H  H17  1  0.39375000  0.43954000  0.23016000  1.0
  H  H18  1  0.04581000  0.43960000  0.33025000  1.0
  H  H19  1  0.66975000  0.62394000  0.76985000  1.0
  H  H20  1  0.23016000  0.56041000  0.39379000  1.0
  H  H21  1  0.60621000  0.37605000  0.95420000  1.0
  H  H22  1  0.10892000  0.85414000  0.12939000  1.0
  H  H23  1  0.25478000  0.23831000  0.89107000  1.0
  H  H24  1  0.01647000  0.14586000  0.74522000  1.0
  H  H25  1  0.87062000  0.76170000  0.98352000  1.0
  H  H26  1  0.89108000  0.76170000  0.25477000  1.0
  H  H27  1  0.74522000  0.85414000  0.01648000  1.0
  H  H28  1  0.98353000  0.23831000  0.87062000  1.0
  H  H29  1  0.12938000  0.14585000  0.10893000  1.0
  C  C30  1  1.00000000  0.61852000  0.38148000  1.0
  C  C31  1  0.38148000  0.38148000  1.00000000  1.0
  C  C32  1  1.00000000  0.38148000  0.61852000  1.0
  C  C33  1  0.61852000  0.61852000  1.00000000  1.0
  C  C34  1  0.06101000  0.80966000  0.18109000  1.0
  C  C35  1  0.25135000  0.24210000  0.93899000  1.0
  C  C36  1  0.00925000  0.19034000  0.74865000  1.0
  C  C37  1  0.81891000  0.75790000  0.99075000  1.0
  C  C38  1  0.93900000  0.75791000  0.25134000  1.0
  C  C39  1  0.74865000  0.80965000  0.00926000  1.0
  C  C40  1  0.99075000  0.24210000  0.81891000  1.0
  C  C41  1  0.18110000  0.19034000  0.06100000  1.0
  C  C42  1  0.91574000  0.49999000  0.58426000  1.0
  C  C43  1  0.41575000  0.50001000  0.08424000  1.0
  C  C44  1  0.08426000  0.50001000  0.41574000  1.0
  C  C45  1  0.58425000  0.49999000  0.91575000  1.0
  C  C46  1  1.00000000  0.68709000  0.31291000  1.0
  C  C47  1  0.31291000  0.31291000  0.00000000  1.0
  C  C48  1  1.00000000  0.31292000  0.68709000  1.0
  C  C49  1  0.68708000  0.68708000  0.00001000  1.0
  C  C50  1  0.05965000  0.74579000  0.24460000  1.0
  C  C51  1  0.31386000  0.30425000  0.94035000  1.0
  C  C52  1  0.00961000  0.25421000  0.68614000  1.0
  C  C53  1  0.75540000  0.69575000  0.99039000  1.0
  C  C54  1  0.94035000  0.69575000  0.31386000  1.0
  C  C55  1  0.68614000  0.74578000  0.00962000  1.0
  C  C56  1  0.99039000  0.30425000  0.75540000  1.0
  C  C57  1  0.24460000  0.25421000  0.05965000  1.0
  C  C58  1  0.84936000  0.57062000  0.68296000  1.0
  C  C59  1  0.27874000  0.53231000  0.15063000  1.0
  C  C60  1  0.74642000  0.42936000  0.72126000  1.0
  C  C61  1  0.31705000  0.46768000  0.25357000  1.0
  C  C62  1  0.15064000  0.46771000  0.27872000  1.0
  C  C63  1  0.72128000  0.57064000  0.74644000  1.0
  C  C64  1  0.25357000  0.53228000  0.31707000  1.0
  C  C65  1  0.68292000  0.42935000  0.84937000  1.0
  C  C66  1  0.89558000  0.57010000  0.63811000  1.0
  C  C67  1  0.32547000  0.53368000  0.10441000  1.0
  C  C68  1  0.79179000  0.42989000  0.67452000  1.0
  C  C69  1  0.36190000  0.46631000  0.20821000  1.0
  C  C70  1  0.10442000  0.46634000  0.32545000  1.0
  C  C71  1  0.67455000  0.57013000  0.79180000  1.0
  C  C72  1  0.20821000  0.53366000  0.36192000  1.0
  C  C73  1  0.63808000  0.42987000  0.89558000  1.0
  C  C74  1  0.86690000  0.50000000  0.63310000  1.0
  C  C75  1  0.36690000  0.50000000  0.13310000  1.0
  C  C76  1  0.13310000  0.50000000  0.36690000  1.0
  C  C77  1  0.63310000  0.49999000  0.86690000  1.0
  C  C78  1  0.77432000  0.49999000  0.72568000  1.0
  C  C79  1  0.27432000  0.49999000  0.22568000  1.0
  C  C80  1  0.22567000  0.49999000  0.27433000  1.0
  C  C81  1  0.72567000  0.49999000  0.77433000  1.0
  C  C82  1  0.88336000  0.88335000  0.99999000  1.0
  C  C83  1  0.00001000  0.88335000  0.11664000  1.0
  C  C84  1  0.11666000  0.11665000  0.99999000  1.0
  C  C85  1  0.00000000  0.11665000  0.88335000  1.0
  C  C86  1  1.00000000  0.81559000  0.18441000  1.0
  C  C87  1  0.18441000  0.18441000  1.00000000  1.0
  C  C88  1  0.00000000  0.18442000  0.81559000  1.0
  C  C89  1  0.81559000  0.81559000  1.00000000  1.0
  N  N90  1  0.12398000  0.73962000  0.23728000  1.0
  N  N91  1  0.38436000  0.36128000  0.87601000  1.0
  N  N92  1  0.02309000  0.26037000  0.61565000  1.0
  N  N93  1  0.76272000  0.63874000  0.97690000  1.0
  N  N94  1  0.87601000  0.63874000  0.38436000  1.0
  N  N95  1  0.61564000  0.73962000  0.02311000  1.0
  N  N96  1  0.97692000  0.36128000  0.76271000  1.0
  N  N97  1  0.23728000  0.26037000  0.12399000  1.0
  O  O98  1  0.94764000  0.54193000  0.40659000  1.0
  O  O99  1  0.40571000  0.35423000  0.05236000  1.0
  O  O100  1  0.05148000  0.45807000  0.59429000  1.0
  O  O101  1  0.59341000  0.64577000  0.94853000  1.0
  O  O102  1  0.05236000  0.64576000  0.40571000  1.0
  O  O103  1  0.59429000  0.54193000  0.05148000  1.0
  O  O104  1  0.94853000  0.35424000  0.59340000  1.0
  O  O105  1  0.40660000  0.45808000  0.94763000  1.0
  O  O106  1  0.88359000  0.44621000  0.56696000  1.0
  O  O107  1  0.43738000  0.45055000  0.11640000  1.0
  O  O108  1  0.98683000  0.55379000  0.56261000  1.0
  O  O109  1  0.43304000  0.54945000  0.01317000  1.0
  O  O110  1  0.11641000  0.54945000  0.43738000  1.0
  O  O111  1  0.56261000  0.44620000  0.98684000  1.0
  O  O112  1  0.01318000  0.45057000  0.43303000  1.0
  O  O113  1  0.56696000  0.55378000  0.88360000  1.0
  O  O114  1  0.94583000  0.89603000  0.97743000  1.0
  O  O115  1  0.04980000  0.92326000  0.05417000  1.0
  O  O116  1  0.12655000  0.10397000  0.95020000  1.0
  O  O117  1  0.02257000  0.07674000  0.87346000  1.0
  O  O118  1  0.05416000  0.07674000  0.04981000  1.0
  O  O119  1  0.95019000  0.89603000  0.12654000  1.0
  O  O120  1  0.87346000  0.92327000  0.02257000  1.0
  O  O121  1  0.97742000  0.10397000  0.94584000  1.0
  O  O122  1  0.18687000  0.80806000  0.19908000  1.0
  O  O123  1  0.10966000  0.66680000  0.26849000  1.0
  O  O124  1  0.37881000  0.38596000  0.81313000  1.0
  O  O125  1  0.44286000  0.37816000  0.89033000  1.0
  O  O126  1  0.99287000  0.19194000  0.62119000  1.0
  O  O127  1  0.06470000  0.33319000  0.55714000  1.0
  O  O128  1  0.80094000  0.61408000  0.00711000  1.0
  O  O129  1  0.73150000  0.62184000  0.93530000  1.0
  O  O130  1  0.81313000  0.61406000  0.37881000  1.0
  O  O131  1  0.89034000  0.62185000  0.44285000  1.0
  O  O132  1  0.62118000  0.80804000  0.99290000  1.0
  O  O133  1  0.55713000  0.66679000  0.06472000  1.0
  O  O134  1  0.00715000  0.38596000  0.80091000  1.0
  O  O135  1  0.93530000  0.37816000  0.73150000  1.0
  O  O136  1  0.19908000  0.19195000  0.18687000  1.0
  O  O137  1  0.26849000  0.33319000  0.10967000  1.0
