# generated using pymatgen
data_CdH7C6N7O2
_symmetry_space_group_name_H-M   'P 1'
_cell_length_a   6.31067000
_cell_length_b   8.26222000
_cell_length_c   10.50880000
_cell_angle_alpha   71.11860000
_cell_angle_beta   81.59810000
_cell_angle_gamma   86.25950000
_symmetry_Int_Tables_number   1
_chemical_formula_structural   CdH7C6N7O2
_chemical_formula_sum   'Cd2 H14 C12 N14 O4'
_cell_volume   512.78788736
_cell_formula_units_Z   2
loop_
 _symmetry_equiv_pos_site_id
 _symmetry_equiv_pos_as_xyz
  1  'x, y, z'
loop_
 _atom_site_type_symbol
 _atom_site_label
 _atom_site_symmetry_multiplicity
 _atom_site_fract_x
 _atom_site_fract_y
 _atom_site_fract_z
 _atom_site_occupancy
  Cd  Cd0  1  0.26679000  0.46049000  0.41732000  1.0
  Cd  Cd1  1  0.73322000  0.53951000  0.58268000  1.0
  H  H2  1  0.19233000  0.13259000  0.39511000  1.0
  H  H3  1  0.80768000  0.86741000  0.60489000  1.0
  H  H4  1  0.06688000  0.26696000  0.28185000  1.0
  H  H5  1  0.93312000  0.73304000  0.71815000  1.0
  H  H6  1  0.15862000  0.55610000  0.10071000  1.0
  H  H7  1  0.84137000  0.44390000  0.89929000  1.0
  H  H8  1  0.62908000  0.91037000  0.83158000  1.0
  H  H9  1  0.37091000  0.08962000  0.16842000  1.0
  H  H10  1  0.82702000  0.86990000  0.02991000  1.0
  H  H11  1  0.17297000  0.13010000  0.97009000  1.0
  H  H12  1  0.67561000  0.67084000  0.25707000  1.0
  H  H13  1  0.32439000  0.32915000  0.74293000  1.0
  H  H14  1  0.32392000  0.85417000  0.74023000  1.0
  H  H15  1  0.67608000  0.14584000  0.25976000  1.0
  C  C16  1  0.30602000  0.62718000  0.08245000  1.0
  C  C17  1  0.69398000  0.37282000  0.91755000  1.0
  C  C18  1  0.37977000  0.73433000  0.95163000  1.0
  C  C19  1  0.62023000  0.26568000  0.04837000  1.0
  C  C20  1  0.56823000  0.82527000  0.93175000  1.0
  C  C21  1  0.43177000  0.17473000  0.06825000  1.0
  C  C22  1  0.67925000  0.80257000  0.04144000  1.0
  C  C23  1  0.32075000  0.19743000  0.95857000  1.0
  C  C24  1  0.59533000  0.69336000  0.16772000  1.0
  C  C25  1  0.40467000  0.30664000  0.83227000  1.0
  C  C26  1  0.26408000  0.75362000  0.83571000  1.0
  C  C27  1  0.73591000  0.24638000  0.16430000  1.0
  N  N28  1  0.02908000  0.34973000  0.61875000  1.0
  N  N29  1  0.97092000  0.65027000  0.38125000  1.0
  N  N30  1  0.00754000  0.20736000  0.69863000  1.0
  N  N31  1  0.99247000  0.79263000  0.30137000  1.0
  N  N32  1  0.98597000  0.07182000  0.77900000  1.0
  N  N33  1  0.01404000  0.92818000  0.22100000  1.0
  N  N34  1  0.42634000  0.67075000  0.49374000  1.0
  N  N35  1  0.57366000  0.32925000  0.50626000  1.0
  N  N36  1  0.34031000  0.80203000  0.50082000  1.0
  N  N37  1  0.65969000  0.19797000  0.49918000  1.0
  N  N38  1  0.25373000  0.92799000  0.50977000  1.0
  N  N39  1  0.74628000  0.07201000  0.49023000  1.0
  N  N40  1  0.41102000  0.60858000  0.18844000  1.0
  N  N41  1  0.58898000  0.39143000  0.81156000  1.0
  O  O42  1  0.19552000  0.25012000  0.32938000  1.0
  O  O43  1  0.80448000  0.74988000  0.67062000  1.0
  O  O44  1  0.11112000  0.66520000  0.84020000  1.0
  O  O45  1  0.88888000  0.33480000  0.15980000  1.0
