# generated using pymatgen
data_RbH6C8O3F
_symmetry_space_group_name_H-M   'P 1'
_cell_length_a   6.91299000
_cell_length_b   7.11431000
_cell_length_c   18.12870000
_cell_angle_alpha   89.99990000
_cell_angle_beta   92.10580000
_cell_angle_gamma   89.99990000
_symmetry_Int_Tables_number   1
_chemical_formula_structural   RbH6C8O3F
_chemical_formula_sum   'Rb4 H24 C32 O12 F4'
_cell_volume   890.98827498
_cell_formula_units_Z   4
loop_
 _symmetry_equiv_pos_site_id
 _symmetry_equiv_pos_as_xyz
  1  'x, y, z'
loop_
 _atom_site_type_symbol
 _atom_site_label
 _atom_site_symmetry_multiplicity
 _atom_site_fract_x
 _atom_site_fract_y
 _atom_site_fract_z
 _atom_site_occupancy
  Rb  Rb0  1  0.75572000  0.52230000  0.43231000  1.0
  Rb  Rb1  1  0.74428000  0.02230000  0.56769000  1.0
  Rb  Rb2  1  0.24428000  0.47770000  0.56769000  1.0
  Rb  Rb3  1  0.25571000  0.97770000  0.43231000  1.0
  H  H4  1  0.35473000  0.30946000  0.17295000  1.0
  H  H5  1  0.14527000  0.80947000  0.82705000  1.0
  H  H6  1  0.64527000  0.69053000  0.82705000  1.0
  H  H7  1  0.85473000  0.19054000  0.17295000  1.0
  H  H8  1  0.49578000  0.30102000  0.04908000  1.0
  H  H9  1  0.00423000  0.80103000  0.95092000  1.0
  H  H10  1  0.50423000  0.69897000  0.95092000  1.0
  H  H11  1  0.99578000  0.19898000  0.04908000  1.0
  H  H12  1  0.94379000  0.68524000  0.12169000  1.0
  H  H13  1  0.55620000  0.18524000  0.87831000  1.0
  H  H14  1  0.05620000  0.31476000  0.87831000  1.0
  H  H15  1  0.44379000  0.81476000  0.12169000  1.0
  H  H16  1  0.80604000  0.69317000  0.24773000  1.0
  H  H17  1  0.69395000  0.19317000  0.75227000  1.0
  H  H18  1  0.19395000  0.30683000  0.75227000  1.0
  H  H19  1  0.30604000  0.80683000  0.24773000  1.0
  H  H20  1  0.35596000  0.26834000  0.29989000  1.0
  H  H21  1  0.14404000  0.76834000  0.70011000  1.0
  H  H22  1  0.64404000  0.73166000  0.70011000  1.0
  H  H23  1  0.85596000  0.23166000  0.29989000  1.0
  H  H24  1  0.21080000  0.45742000  0.26394000  1.0
  H  H25  1  0.28919000  0.95743000  0.73606000  1.0
  H  H26  1  0.78920000  0.54257000  0.73606000  1.0
  H  H27  1  0.71080000  0.04258000  0.26394000  1.0
  C  C28  1  0.57093000  0.50396000  0.21834000  1.0
  C  C29  1  0.92907000  0.00396000  0.78166000  1.0
  C  C30  1  0.42907000  0.49604000  0.78166000  1.0
  C  C31  1  0.07093000  0.99604000  0.21834000  1.0
  C  C32  1  0.48337000  0.39227000  0.16292000  1.0
  C  C33  1  0.01663000  0.89228000  0.83707000  1.0
  C  C34  1  0.51663000  0.60772000  0.83708000  1.0
  C  C35  1  0.98337000  0.10773000  0.16292000  1.0
  C  C36  1  0.56116000  0.38727000  0.09283000  1.0
  C  C37  1  0.93884000  0.88727000  0.90717000  1.0
  C  C38  1  0.43884000  0.61273000  0.90717000  1.0
  C  C39  1  0.06116000  0.11273000  0.09283000  1.0
  C  C40  1  0.72373000  0.49437000  0.07955000  1.0
  C  C41  1  0.77626000  0.99437000  0.92045000  1.0
  C  C42  1  0.27626000  0.50563000  0.92044000  1.0
  C  C43  1  0.22373000  0.00564000  0.07955000  1.0
  C  C44  1  0.81535000  0.60398000  0.13401000  1.0
  C  C45  1  0.68464000  0.10399000  0.86599000  1.0
  C  C46  1  0.18465000  0.39601000  0.86599000  1.0
  C  C47  1  0.31536000  0.89602000  0.13401000  1.0
  C  C48  1  0.73834000  0.60771000  0.20400000  1.0
  C  C49  1  0.76165000  0.10771000  0.79600000  1.0
  C  C50  1  0.26166000  0.39229000  0.79600000  1.0
  C  C51  1  0.23834000  0.89229000  0.20400000  1.0
  C  C52  1  0.32915000  0.42039000  0.30388000  1.0
  C  C53  1  0.17085000  0.92039000  0.69613000  1.0
  C  C54  1  0.67085000  0.57961000  0.69613000  1.0
  C  C55  1  0.82916000  0.07961000  0.30387000  1.0
  C  C56  1  0.26297000  0.46576000  0.38162000  1.0
  C  C57  1  0.23703000  0.96576000  0.61838000  1.0
  C  C58  1  0.73703000  0.53424000  0.61838000  1.0
  C  C59  1  0.76297000  0.03424000  0.38161000  1.0
  O  O60  1  0.50156000  0.52251000  0.28815000  1.0
  O  O61  1  0.99844000  0.02251000  0.71185000  1.0
  O  O62  1  0.49844000  0.47749000  0.71185000  1.0
  O  O63  1  0.00156000  0.97750000  0.28815000  1.0
  O  O64  1  0.34687000  0.59569000  0.41820000  1.0
  O  O65  1  0.15313000  0.09569000  0.58180000  1.0
  O  O66  1  0.65313000  0.40431000  0.58180000  1.0
  O  O67  1  0.84688000  0.90430000  0.41820000  1.0
  O  O68  1  0.12410000  0.36475000  0.40297000  1.0
  O  O69  1  0.37590000  0.86476000  0.59703000  1.0
  O  O70  1  0.87591000  0.63524000  0.59703000  1.0
  O  O71  1  0.62410000  0.13524000  0.40296000  1.0
  F  F72  1  0.79775000  0.49085000  0.01046000  1.0
  F  F73  1  0.70225000  0.99085000  0.98954000  1.0
  F  F74  1  0.20224000  0.50915000  0.98954000  1.0
  F  F75  1  0.29775000  0.00916000  0.01045000  1.0
