# generated using pymatgen
data_CoH24C24S2(N3O4)2
_symmetry_space_group_name_H-M   'P 1'
_cell_length_a   5.66271000
_cell_length_b   7.01290000
_cell_length_c   15.39368599
_cell_angle_alpha   102.49161447
_cell_angle_beta   98.46743179
_cell_angle_gamma   93.74750000
_symmetry_Int_Tables_number   1
_chemical_formula_structural   CoH24C24S2(N3O4)2
_chemical_formula_sum   'Co1 H24 C24 S2 N6 O8'
_cell_volume   587.33879666
_cell_formula_units_Z   1
loop_
 _symmetry_equiv_pos_site_id
 _symmetry_equiv_pos_as_xyz
  1  'x, y, z'
loop_
 _atom_site_type_symbol
 _atom_site_label
 _atom_site_symmetry_multiplicity
 _atom_site_fract_x
 _atom_site_fract_y
 _atom_site_fract_z
 _atom_site_occupancy
  Co  Co0  1  1.00000000  1.00000000  0.50000000  1.0
  H  H1  1  0.98742000  0.39601000  0.75008000  1.0
  H  H2  1  0.01258000  0.60400000  0.24992000  1.0
  H  H3  1  0.70607000  0.24936000  0.55576000  1.0
  H  H4  1  0.29393000  0.75063000  0.44424000  1.0
  H  H5  1  0.33143000  0.16447000  0.45027000  1.0
  H  H6  1  0.66858000  0.83552000  0.54973000  1.0
  H  H7  1  0.08774000  0.27297000  0.42267000  1.0
  H  H8  1  0.91226000  0.72703000  0.57733000  1.0
  H  H9  1  0.50973000  0.80129000  0.18914000  1.0
  H  H10  1  0.49027000  0.19872000  0.81086000  1.0
  H  H11  1  0.74751000  0.26519000  0.45995000  1.0
  H  H12  1  0.25249000  0.73480000  0.54005000  1.0
  H  H13  1  0.80242000  0.96846000  0.11757000  1.0
  H  H14  1  0.19758000  0.03154000  0.88243000  1.0
  H  H15  1  0.79819000  0.12360000  0.27910000  1.0
  H  H16  1  0.20181000  0.87639000  0.72090000  1.0
  H  H17  1  0.98945000  0.53558000  0.91433000  1.0
  H  H18  1  0.01054000  0.46444000  0.08567000  1.0
  H  H19  1  0.71405000  0.79521000  0.94261000  1.0
  H  H20  1  0.28595000  0.20479000  0.05740000  1.0
  H  H21  1  0.50293000  0.94813000  0.35047000  1.0
  H  H22  1  0.49708000  0.05188000  0.64953000  1.0
  H  H23  1  0.70921000  0.66564000  0.77703000  1.0
  H  H24  1  0.29080000  0.33435000  0.22297000  1.0
  C  C25  1  0.14345000  0.48718000  0.79220000  1.0
  C  C26  1  0.85654000  0.51281000  0.20779000  1.0
  C  C27  1  0.15157000  0.04827000  0.32480000  1.0
  C  C28  1  0.84843000  0.95173000  0.67520000  1.0
  C  C29  1  0.35552000  0.87295000  0.20954000  1.0
  C  C30  1  0.64449000  0.12705000  0.79046000  1.0
  C  C31  1  0.34674000  0.52746000  0.75467000  1.0
  C  C32  1  0.65326000  0.47254000  0.24533000  1.0
  C  C33  1  0.34741000  0.68077000  0.93652000  1.0
  C  C34  1  0.65258000  0.31922000  0.06347000  1.0
  C  C35  1  0.95664000  0.96819000  0.16910000  1.0
  C  C36  1  0.04336000  0.03180000  0.83090000  1.0
  C  C37  1  0.95337000  0.05286000  0.25936000  1.0
  C  C38  1  0.04663000  0.94714000  0.74064000  1.0
  C  C39  1  0.14389000  0.56462000  0.88307000  1.0
  C  C40  1  0.85610000  0.43539000  0.11693000  1.0
  C  C41  1  0.15995000  0.88150000  0.14327000  1.0
  C  C42  1  0.84005000  0.11850000  0.85673000  1.0
  C  C43  1  0.55457000  0.71150000  0.89929000  1.0
  C  C44  1  0.44543000  0.28849000  0.10071000  1.0
  C  C45  1  0.35050000  0.95504000  0.29951000  1.0
  C  C46  1  0.64951000  0.04496000  0.70049000  1.0
  C  C47  1  0.55257000  0.63812000  0.80756000  1.0
  C  C48  1  0.44743000  0.36187000  0.19244000  1.0
  S  S49  1  0.33616000  0.43746000  0.63726000  1.0
  S  S50  1  0.66384000  0.56254000  0.36274000  1.0
  N  N51  1  0.15617000  0.13926000  0.41809000  1.0
  N  N52  1  0.84383000  0.86074000  0.58191000  1.0
  N  N53  1  0.35706000  0.77029000  0.02837000  1.0
  N  N54  1  0.64293000  0.22971000  0.97163000  1.0
  N  N55  1  0.15320000  0.80263000  0.05057000  1.0
  N  N56  1  0.84680000  0.19736000  0.94943000  1.0
  O  O57  1  0.19219000  0.56960000  0.59292000  1.0
  O  O58  1  0.80781000  0.43039000  0.40708000  1.0
  O  O59  1  0.58540000  0.44644000  0.62069000  1.0
  O  O60  1  0.41461000  0.55356000  0.37931000  1.0
  O  O61  1  0.21280000  0.23754000  0.61572000  1.0
  O  O62  1  0.78721000  0.76246000  0.38428000  1.0
  O  O63  1  0.72873000  0.16511000  0.49716000  1.0
  O  O64  1  0.27127000  0.83490000  0.50285000  1.0
