# generated using pymatgen
data_PrH3(C5O4)2
_symmetry_space_group_name_H-M   'P 1'
_cell_length_a   7.36027000
_cell_length_b   8.23537000
_cell_length_c   8.70449000
_cell_angle_alpha   65.59120000
_cell_angle_beta   85.38240000
_cell_angle_gamma   83.77650000
_symmetry_Int_Tables_number   1
_chemical_formula_structural   PrH3(C5O4)2
_chemical_formula_sum   'Pr2 H6 C20 O16'
_cell_volume   477.25701740
_cell_formula_units_Z   2
loop_
 _symmetry_equiv_pos_site_id
 _symmetry_equiv_pos_as_xyz
  1  'x, y, z'
loop_
 _atom_site_type_symbol
 _atom_site_label
 _atom_site_symmetry_multiplicity
 _atom_site_fract_x
 _atom_site_fract_y
 _atom_site_fract_z
 _atom_site_occupancy
  Pr  Pr0  1  0.92998000  0.25732000  0.99406000  1.0
  Pr  Pr1  1  0.07002000  0.74267000  0.00594000  1.0
  H  H2  1  0.49252000  0.21788000  0.00540000  1.0
  H  H3  1  0.50748000  0.78211000  0.99461000  1.0
  H  H4  1  0.07146000  0.69530000  0.54356000  1.0
  H  H5  1  0.92854000  0.30470000  0.45645000  1.0
  H  H6  1  0.73458000  0.78054000  0.47783000  1.0
  H  H7  1  0.26542000  0.21946000  0.52217000  1.0
  C  C8  1  0.66169000  0.49134000  0.75044000  1.0
  C  C9  1  0.33831000  0.50866000  0.24956000  1.0
  C  C10  1  0.24116000  0.45522000  0.79668000  1.0
  C  C11  1  0.75884000  0.54478000  0.20331000  1.0
  C  C12  1  0.14915000  0.98354000  0.26355000  1.0
  C  C13  1  0.85085000  0.01646000  0.73645000  1.0
  C  C14  1  0.55022000  0.02940000  0.22369000  1.0
  C  C15  1  0.44978000  0.97060000  0.77631000  1.0
  C  C16  1  0.52453000  0.61727000  0.63143000  1.0
  C  C17  1  0.47547000  0.38273000  0.36857000  1.0
  C  C18  1  0.33551000  0.59573000  0.65032000  1.0
  C  C19  1  0.66449000  0.40427000  0.34968000  1.0
  C  C20  1  0.21706000  0.71451000  0.52765000  1.0
  C  C21  1  0.78294000  0.28549000  0.47235000  1.0
  C  C22  1  0.28336000  0.85733000  0.38823000  1.0
  C  C23  1  0.71664000  0.14267000  0.61177000  1.0
  C  C24  1  0.47155000  0.88247000  0.37106000  1.0
  C  C25  1  0.52845000  0.11753000  0.62894000  1.0
  C  C26  1  0.58929000  0.76219000  0.49245000  1.0
  C  C27  1  0.41071000  0.23781000  0.50755000  1.0
  O  O28  1  0.60810000  0.36564000  0.88960000  1.0
  O  O29  1  0.39191000  0.63435000  0.11040000  1.0
  O  O30  1  0.83097000  0.50761000  0.71613000  1.0
  O  O31  1  0.16903000  0.49239000  0.28387000  1.0
  O  O32  1  0.16663000  0.50011000  0.91454000  1.0
  O  O33  1  0.83338000  0.49989000  0.08546000  1.0
  O  O34  1  0.21610000  0.30685000  0.79596000  1.0
  O  O35  1  0.78391000  0.69315000  0.20404000  1.0
  O  O36  1  0.08917000  0.12806000  0.27302000  1.0
  O  O37  1  0.91083000  0.87194000  0.72698000  1.0
  O  O38  1  0.09639000  0.93897000  0.14917000  1.0
  O  O39  1  0.90361000  0.06103000  0.85083000  1.0
  O  O40  1  0.71040000  0.06852000  0.21702000  1.0
  O  O41  1  0.28960000  0.93148000  0.78298000  1.0
  O  O42  1  0.43589000  0.11292000  0.10062000  1.0
  O  O43  1  0.56410000  0.88708000  0.89939000  1.0
