# generated using pymatgen
data_ZnH22C26N2O5F4
_symmetry_space_group_name_H-M   'P 1'
_cell_length_a   11.70230000
_cell_length_b   12.51990000
_cell_length_c   16.72510000
_cell_angle_alpha   89.99990000
_cell_angle_beta   90.63840000
_cell_angle_gamma   89.99990000
_symmetry_Int_Tables_number   1
_chemical_formula_structural   ZnH22C26N2O5F4
_chemical_formula_sum   'Zn4 H88 C104 N8 O20 F16'
_cell_volume   2450.26948599
_cell_formula_units_Z   4
loop_
 _symmetry_equiv_pos_site_id
 _symmetry_equiv_pos_as_xyz
  1  'x, y, z'
loop_
 _atom_site_type_symbol
 _atom_site_label
 _atom_site_symmetry_multiplicity
 _atom_site_fract_x
 _atom_site_fract_y
 _atom_site_fract_z
 _atom_site_occupancy
  Zn  Zn0  1  0.35037000  0.24743000  0.25078000  1.0
  Zn  Zn1  1  0.14964000  0.74743000  0.24922000  1.0
  Zn  Zn2  1  0.64963000  0.75256000  0.74922000  1.0
  Zn  Zn3  1  0.85037000  0.25257000  0.75078000  1.0
  H  H4  1  0.27360000  0.27111000  0.42482000  1.0
  H  H5  1  0.22640000  0.77111000  0.07518000  1.0
  H  H6  1  0.72640000  0.72889000  0.57518000  1.0
  H  H7  1  0.77360000  0.22889000  0.92482000  1.0
  H  H8  1  0.18520000  0.07350000  0.23367000  1.0
  H  H9  1  0.31481000  0.57349000  0.26633000  1.0
  H  H10  1  0.81480000  0.92651000  0.76633000  1.0
  H  H11  1  0.68520000  0.42650000  0.73367000  1.0
  H  H12  1  0.12004000  0.19723000  0.50830000  1.0
  H  H13  1  0.37996000  0.69723000  0.99170000  1.0
  H  H14  1  0.87996000  0.80277000  0.49170000  1.0
  H  H15  1  0.62004000  0.30277000  0.00830000  1.0
  H  H16  1  0.03175000  0.98674000  0.31170000  1.0
  H  H17  1  0.46825000  0.48674000  0.18830000  1.0
  H  H18  1  0.96825000  0.01326000  0.68831000  1.0
  H  H19  1  0.53175000  0.51325000  0.81170000  1.0
  H  H20  1  0.91322000  0.98811000  0.43086000  1.0
  H  H21  1  0.58678000  0.48811000  0.06914000  1.0
  H  H22  1  0.08678000  0.01189000  0.56914000  1.0
  H  H23  1  0.41322000  0.51189000  0.93086000  1.0
  H  H24  1  0.92293000  0.09915000  0.49760000  1.0
  H  H25  1  0.57707000  0.59915000  0.00240000  1.0
  H  H26  1  0.07707000  0.90085000  0.50240000  1.0
  H  H27  1  0.42293000  0.40085000  0.99760000  1.0
  H  H28  1  0.91706000  0.52187000  0.06898000  1.0
  H  H29  1  0.58294000  0.02187000  0.43102000  1.0
  H  H30  1  0.08294000  0.47813000  0.93102000  1.0
  H  H31  1  0.41706000  0.97813000  0.56898000  1.0
  H  H32  1  0.91474000  0.40709000  0.00568000  1.0
  H  H33  1  0.58526000  0.90709000  0.49433000  1.0
  H  H34  1  0.08526000  0.59291000  0.99432000  1.0
  H  H35  1  0.41474000  0.09291000  0.50568000  1.0
  H  H36  1  0.02960000  0.51104000  0.19197000  1.0
  H  H37  1  0.47039000  0.01105000  0.30803000  1.0
  H  H38  1  0.97040000  0.48896000  0.80803000  1.0
  H  H39  1  0.52960000  0.98896000  0.69197000  1.0
  H  H40  1  0.10956000  0.30258000  0.99435000  1.0
  H  H41  1  0.39044000  0.80258000  0.50565000  1.0
  H  H42  1  0.89044000  0.69742000  0.00565000  1.0
  H  H43  1  0.60956000  0.19742000  0.49435000  1.0
  H  H44  1  0.18162000  0.41999000  0.27077000  1.0
  H  H45  1  0.31838000  0.91999000  0.22923000  1.0
  H  H46  1  0.81838000  0.58001000  0.72923000  1.0
  H  H47  1  0.68162000  0.08001000  0.77077000  1.0
  H  H48  1  0.26433000  0.22371000  0.07976000  1.0
  H  H49  1  0.23567000  0.72371000  0.42024000  1.0
  H  H50  1  0.73567000  0.77629000  0.92024000  1.0
  H  H51  1  0.76433000  0.27629000  0.57976000  1.0
  H  H52  1  0.58918000  0.58089000  0.29634000  1.0
  H  H53  1  0.91082000  0.08089000  0.20366000  1.0
  H  H54  1  0.41082000  0.41911000  0.70366000  1.0
  H  H55  1  0.08918000  0.91911000  0.79634000  1.0
  H  H56  1  0.70290000  0.51137000  0.34421000  1.0
  H  H57  1  0.79710000  0.01137000  0.15579000  1.0
  H  H58  1  0.29710000  0.48863000  0.65579000  1.0
  H  H59  1  0.20290000  0.98863000  0.84421000  1.0
  H  H60  1  0.73157000  0.84796000  0.36159000  1.0
  H  H61  1  0.76843000  0.34796000  0.13841000  1.0
  H  H62  1  0.26843000  0.15204000  0.63841000  1.0
  H  H63  1  0.23157000  0.65204000  0.86159000  1.0
  H  H64  1  0.60923000  0.80485000  0.30664000  1.0
  H  H65  1  0.89078000  0.30485000  0.19337000  1.0
  H  H66  1  0.39078000  0.19515000  0.69337000  1.0
  H  H67  1  0.10922000  0.69515000  0.80663000  1.0
  H  H68  1  0.83849000  0.57448000  0.24171000  1.0
  H  H69  1  0.66151000  0.07448000  0.25829000  1.0
  H  H70  1  0.16150000  0.42552000  0.75829000  1.0
  H  H71  1  0.33849000  0.92552000  0.74171000  1.0
  H  H72  1  0.71822000  0.51981000  0.19192000  1.0
  H  H73  1  0.78178000  0.01981000  0.30808000  1.0
  H  H74  1  0.28178000  0.48019000  0.80808000  1.0
  H  H75  1  0.21822000  0.98019000  0.69192000  1.0
  H  H76  1  0.75207000  0.86228000  0.20971000  1.0
  H  H77  1  0.74793000  0.36228000  0.29029000  1.0
  H  H78  1  0.24794000  0.13772000  0.79029000  1.0
  H  H79  1  0.25206000  0.63772000  0.70971000  1.0
  H  H80  1  0.85814000  0.78017000  0.25400000  1.0
  H  H81  1  0.64186000  0.28017000  0.24600000  1.0
  H  H82  1  0.14186000  0.21982000  0.74600000  1.0
  H  H83  1  0.35814000  0.71983000  0.75400000  1.0
  H  H84  1  0.63821000  0.70277000  0.17010000  1.0
  H  H85  1  0.86179000  0.20277000  0.32990000  1.0
  H  H86  1  0.36179000  0.29723000  0.82990000  1.0
  H  H87  1  0.13821000  0.79723000  0.67010000  1.0
  H  H88  1  0.77820000  0.69521000  0.13158000  1.0
  H  H89  1  0.72180000  0.19521000  0.36842000  1.0
  H  H90  1  0.22180000  0.30479000  0.86842000  1.0
  H  H91  1  0.27820000  0.80479000  0.63158000  1.0
  C  C92  1  0.46883000  0.33942000  0.37325000  1.0
  C  C93  1  0.03117000  0.83942000  0.12675000  1.0
  C  C94  1  0.53117000  0.66058000  0.62675000  1.0
  C  C95  1  0.96883000  0.16058000  0.87325000  1.0
  C  C96  1  0.48627000  0.42500000  0.43595000  1.0
  C  C97  1  0.01373000  0.92500000  0.06405000  1.0
  C  C98  1  0.51373000  0.57500000  0.56405000  1.0
  C  C99  1  0.98627000  0.07500000  0.93595000  1.0
  C  C100  1  0.58930000  0.43578000  0.47805000  1.0
  C  C101  1  0.91070000  0.93578000  0.02195000  1.0
  C  C102  1  0.41069000  0.56422000  0.52195000  1.0
  C  C103  1  0.08930000  0.06423000  0.97806000  1.0
  C  C104  1  0.60297000  0.50788000  0.54071000  1.0
  C  C105  1  0.89703000  0.00788000  0.95929000  1.0
  C  C106  1  0.39703000  0.49212000  0.45929000  1.0
  C  C107  1  0.10298000  0.99212000  0.04071000  1.0
  C  C108  1  0.47401000  0.02447000  0.92165000  1.0
  C  C109  1  0.02599000  0.52447000  0.57835000  1.0
  C  C110  1  0.52599000  0.97553000  0.07835000  1.0
  C  C111  1  0.97401000  0.47554000  0.42165000  1.0
  C  C112  1  0.45900000  0.10005000  0.98165000  1.0
  C  C113  1  0.04100000  0.60005000  0.51835000  1.0
  C  C114  1  0.54100000  0.89994000  0.01835000  1.0
  C  C115  1  0.95900000  0.39995000  0.48165000  1.0
  C  C116  1  0.48492000  0.07791000  0.06172000  1.0
  C  C117  1  0.01509000  0.57791000  0.43828000  1.0
  C  C118  1  0.51509000  0.92209000  0.93827000  1.0
  C  C119  1  0.98491000  0.42209000  0.56173000  1.0
  C  C120  1  0.46622000  0.16118000  0.12587000  1.0
  C  C121  1  0.03378000  0.66119000  0.37413000  1.0
  C  C122  1  0.53377000  0.83881000  0.87413000  1.0
  C  C123  1  0.96622000  0.33882000  0.62587000  1.0
  C  C124  1  0.21809000  0.20877000  0.40111000  1.0
  C  C125  1  0.28190000  0.70877000  0.09889000  1.0
  C  C126  1  0.78190000  0.79123000  0.59889000  1.0
  C  C127  1  0.71810000  0.29123000  0.90111000  1.0
  C  C128  1  0.16834000  0.09827000  0.29493000  1.0
  C  C129  1  0.33166000  0.59827000  0.20507000  1.0
  C  C130  1  0.83165000  0.90173000  0.70507000  1.0
  C  C131  1  0.66834000  0.40172000  0.79493000  1.0
  C  C132  1  0.13250000  0.16637000  0.44804000  1.0
  C  C133  1  0.36750000  0.66637000  0.05196000  1.0
  C  C134  1  0.86750000  0.83363000  0.55196000  1.0
  C  C135  1  0.63250000  0.33363000  0.94804000  1.0
  C  C136  1  0.08185000  0.05098000  0.33866000  1.0
  C  C137  1  0.41815000  0.55098000  0.16134000  1.0
  C  C138  1  0.91814000  0.94902000  0.66134000  1.0
  C  C139  1  0.58185000  0.44902000  0.83866000  1.0
  C  C140  1  0.06208000  0.08566000  0.41684000  1.0
  C  C141  1  0.43792000  0.58566000  0.08316000  1.0
  C  C142  1  0.93791000  0.91434000  0.58316000  1.0
  C  C143  1  0.56208000  0.41434000  0.91684000  1.0
  C  C144  1  0.97213000  0.03610000  0.46777000  1.0
  C  C145  1  0.52787000  0.53610000  0.03223000  1.0
  C  C146  1  0.02786000  0.96389000  0.53223000  1.0
  C  C147  1  0.47213000  0.46390000  0.96777000  1.0
  C  C148  1  0.97037000  0.46793000  0.03344000  1.0
  C  C149  1  0.52963000  0.96793000  0.46656000  1.0
  C  C150  1  0.02963000  0.53208000  0.96656000  1.0
  C  C151  1  0.47037000  0.03207000  0.53344000  1.0
  C  C152  1  0.05789000  0.41466000  0.08576000  1.0
  C  C153  1  0.44211000  0.91466000  0.41424000  1.0
  C  C154  1  0.94211000  0.58534000  0.91424000  1.0
  C  C155  1  0.55789000  0.08534000  0.58576000  1.0
  C  C156  1  0.07847000  0.44692000  0.16464000  1.0
  C  C157  1  0.42153000  0.94692000  0.33536000  1.0
  C  C158  1  0.92153000  0.55307000  0.83536000  1.0
  C  C159  1  0.57847000  0.05307000  0.66464000  1.0
  C  C160  1  0.12504000  0.33197000  0.05490000  1.0
  C  C161  1  0.37496000  0.83198000  0.44510000  1.0
  C  C162  1  0.87496000  0.66802000  0.94510000  1.0
  C  C163  1  0.62504000  0.16802000  0.55490000  1.0
  C  C164  1  0.16413000  0.39698000  0.20896000  1.0
  C  C165  1  0.33587000  0.89698000  0.29104000  1.0
  C  C166  1  0.83587000  0.60302000  0.79104000  1.0
  C  C167  1  0.66413000  0.10302000  0.70896000  1.0
  C  C168  1  0.21010000  0.28726000  0.10237000  1.0
  C  C169  1  0.28990000  0.78726000  0.39763000  1.0
  C  C170  1  0.78990000  0.71274000  0.89763000  1.0
  C  C171  1  0.71010000  0.21274000  0.60237000  1.0
  C  C172  1  0.70232000  0.67998000  0.36159000  1.0
  C  C173  1  0.79768000  0.17998000  0.13841000  1.0
  C  C174  1  0.29768000  0.32001000  0.63841000  1.0
  C  C175  1  0.20232000  0.82001000  0.86159000  1.0
  C  C176  1  0.68202000  0.58297000  0.30930000  1.0
  C  C177  1  0.81798000  0.08297000  0.19070000  1.0
  C  C178  1  0.31798000  0.41703000  0.69070000  1.0
  C  C179  1  0.18202000  0.91703000  0.80930000  1.0
  C  C180  1  0.70003000  0.78686000  0.31972000  1.0
  C  C181  1  0.79997000  0.28686000  0.18028000  1.0
  C  C182  1  0.29997000  0.21314000  0.68028000  1.0
  C  C183  1  0.20003000  0.71314000  0.81972000  1.0
  C  C184  1  0.74663000  0.58679000  0.22980000  1.0
  C  C185  1  0.75337000  0.08679000  0.27020000  1.0
  C  C186  1  0.25336000  0.41320000  0.77020000  1.0
  C  C187  1  0.24663000  0.91320000  0.72980000  1.0
  C  C188  1  0.76599000  0.78612000  0.24070000  1.0
  C  C189  1  0.73401000  0.28612000  0.25930000  1.0
  C  C190  1  0.23401000  0.21388000  0.75930000  1.0
  C  C191  1  0.26599000  0.71388000  0.74070000  1.0
  C  C192  1  0.72894000  0.69331000  0.18707000  1.0
  C  C193  1  0.77106000  0.19331000  0.31293000  1.0
  C  C194  1  0.27106000  0.30669000  0.81293000  1.0
  C  C195  1  0.22894000  0.80669000  0.68707000  1.0
  N  N196  1  0.23605000  0.17564000  0.32553000  1.0
  N  N197  1  0.26395000  0.67564000  0.17447000  1.0
  N  N198  1  0.76394000  0.82436000  0.67447000  1.0
  N  N199  1  0.73605000  0.32436000  0.82553000  1.0
  N  N200  1  0.23013000  0.31933000  0.17819000  1.0
  N  N201  1  0.26988000  0.81933000  0.32181000  1.0
  N  N202  1  0.76987000  0.68067000  0.82181000  1.0
  N  N203  1  0.73012000  0.18067000  0.67819000  1.0
  O  O204  1  0.41528000  0.37075000  0.30914000  1.0
  O  O205  1  0.08472000  0.87074000  0.19086000  1.0
  O  O206  1  0.58472000  0.62925000  0.69087000  1.0
  O  O207  1  0.91528000  0.12925000  0.80914000  1.0
  O  O208  1  0.50094000  0.24638000  0.38713000  1.0
  O  O209  1  0.99907000  0.74638000  0.11287000  1.0
  O  O210  1  0.49907000  0.75362000  0.61288000  1.0
  O  O211  1  0.00094000  0.25362000  0.88712000  1.0
  O  O212  1  0.40911000  0.12713000  0.18692000  1.0
  O  O213  1  0.09090000  0.62713000  0.31308000  1.0
  O  O214  1  0.59089000  0.87287000  0.81307000  1.0
  O  O215  1  0.90911000  0.37287000  0.68693000  1.0
  O  O216  1  0.50113000  0.25406000  0.11625000  1.0
  O  O217  1  0.99887000  0.75406000  0.38376000  1.0
  O  O218  1  0.49887000  0.74594000  0.88375000  1.0
  O  O219  1  0.00113000  0.24594000  0.61625000  1.0
  O  O220  1  0.71735000  0.67184000  0.43433000  1.0
  O  O221  1  0.78266000  0.17184000  0.06567000  1.0
  O  O222  1  0.28266000  0.32815000  0.56567000  1.0
  O  O223  1  0.21734000  0.82815000  0.93433000  1.0
  F  F224  1  0.68166000  0.37755000  0.45612000  1.0
  F  F225  1  0.81834000  0.87755000  0.04388000  1.0
  F  F226  1  0.31834000  0.62246000  0.54388000  1.0
  F  F227  1  0.18166000  0.12246000  0.95612000  1.0
  F  F228  1  0.70692000  0.51362000  0.57687000  1.0
  F  F229  1  0.79308000  0.01362000  0.92313000  1.0
  F  F230  1  0.29308000  0.48639000  0.42313000  1.0
  F  F231  1  0.20692000  0.98638000  0.07688000  1.0
  F  F232  1  0.44504000  0.05233000  0.84562000  1.0
  F  F233  1  0.05496000  0.55232000  0.65438000  1.0
  F  F234  1  0.55496000  0.94767000  0.15438000  1.0
  F  F235  1  0.94504000  0.44768000  0.34563000  1.0
  F  F236  1  0.41439000  0.19610000  0.96085000  1.0
  F  F237  1  0.08561000  0.69610000  0.53915000  1.0
  F  F238  1  0.58561000  0.80390000  0.03915000  1.0
  F  F239  1  0.91438000  0.30391000  0.46085000  1.0
