# generated using pymatgen
data_AlH9(C5O2)3
_symmetry_space_group_name_H-M   'P 1'
_cell_length_a   6.70775000
_cell_length_b   15.31320000
_cell_length_c   17.65160000
_cell_angle_alpha   85.39520000
_cell_angle_beta   80.92060000
_cell_angle_gamma   77.54390000
_symmetry_Int_Tables_number   1
_chemical_formula_structural   AlH9(C5O2)3
_chemical_formula_sum   'Al2 H18 C30 O12'
_cell_volume   1746.24891490
_cell_formula_units_Z   2
loop_
 _symmetry_equiv_pos_site_id
 _symmetry_equiv_pos_as_xyz
  1  'x, y, z'
loop_
 _atom_site_type_symbol
 _atom_site_label
 _atom_site_symmetry_multiplicity
 _atom_site_fract_x
 _atom_site_fract_y
 _atom_site_fract_z
 _atom_site_occupancy
  Al  Al0  1  0.49999000  0.50000000  0.50001000  1.0
  Al  Al1  1  0.99998000  0.50000000  0.50000000  1.0
  H  H2  1  0.26453000  0.40931000  0.56980000  1.0
  H  H3  1  0.73545000  0.59065000  0.43015000  1.0
  H  H4  1  0.67343000  0.49916000  0.27802000  1.0
  H  H5  1  0.76570000  0.49894000  0.13540000  1.0
  H  H6  1  0.04754000  0.48871000  0.25837000  1.0
  H  H7  1  0.95242000  0.51150000  0.74161000  1.0
  H  H8  1  0.32677000  0.50061000  0.72200000  1.0
  H  H9  1  0.23451000  0.50085000  0.86463000  1.0
  H  H10  1  0.79887000  0.76945000  0.50224000  1.0
  H  H11  1  0.71372000  0.93417000  0.49621000  1.0
  H  H12  1  0.20109000  0.23056000  0.49775000  1.0
  H  H13  1  0.28626000  0.06584000  0.50375000  1.0
  H  H14  1  0.57278000  0.22769000  0.47977000  1.0
  H  H15  1  0.65312000  0.06288000  0.48548000  1.0
  H  H16  1  0.42715000  0.77231000  0.52024000  1.0
  H  H17  1  0.34684000  0.93712000  0.51451000  1.0
  H  H18  1  0.17123000  0.48799000  0.05360000  1.0
  H  H19  1  0.82875000  0.51233000  0.94637000  1.0
  C  C20  1  0.82791000  0.33923000  0.49176000  1.0
  C  C21  1  0.69559000  0.50071000  0.63863000  1.0
  C  C22  1  0.17204000  0.66077000  0.50826000  1.0
  C  C23  1  0.30444000  0.49929000  0.36138000  1.0
  C  C24  1  0.35543000  0.49534000  0.27611000  1.0
  C  C25  1  0.55809000  0.49731000  0.24149000  1.0
  C  C26  1  0.60890000  0.49727000  0.16234000  1.0
  C  C27  1  0.45716000  0.49543000  0.11602000  1.0
  C  C28  1  0.25383000  0.49130000  0.15154000  1.0
  C  C29  1  0.20369000  0.49129000  0.23115000  1.0
  C  C30  1  0.49577000  0.49831000  0.03507000  1.0
  C  C31  1  0.50439000  0.50172000  0.96494000  1.0
  C  C32  1  0.54295000  0.50459000  0.88398000  1.0
  C  C33  1  0.74620000  0.50887000  0.84846000  1.0
  C  C34  1  0.79632000  0.50885000  0.76884000  1.0
  C  C35  1  0.64465000  0.50464000  0.72390000  1.0
  C  C36  1  0.44206000  0.50254000  0.75853000  1.0
  C  C37  1  0.39127000  0.50260000  0.83768000  1.0
  C  C38  1  0.11911000  0.76029000  0.51012000  1.0
  C  C39  1  0.88084000  0.23971000  0.48988000  1.0
  C  C40  1  0.91781000  0.80728000  0.50448000  1.0
  C  C41  1  0.87174000  0.90027000  0.50103000  1.0
  C  C42  1  0.08215000  0.19273000  0.49551000  1.0
  C  C43  1  0.12822000  0.09974000  0.49895000  1.0
  C  C44  1  0.72860000  0.19116000  0.48546000  1.0
  C  C45  1  0.77567000  0.09818000  0.48894000  1.0
  C  C46  1  0.27135000  0.80884000  0.51454000  1.0
  C  C47  1  0.22426000  0.90182000  0.51106000  1.0
  C  C48  1  0.02408000  0.95037000  0.50299000  1.0
  C  C49  1  0.97589000  0.04963000  0.49700000  1.0
  O  O50  1  0.64210000  0.37766000  0.48608000  1.0
  O  O51  1  0.87682000  0.50687000  0.60726000  1.0
  O  O52  1  0.02803000  0.62186000  0.49897000  1.0
  O  O53  1  0.44895000  0.51033000  0.39635000  1.0
  O  O54  1  0.35785000  0.62234000  0.51395000  1.0
  O  O55  1  0.12319000  0.49313000  0.39273000  1.0
  O  O56  1  0.97194000  0.37814000  0.50103000  1.0
  O  O57  1  0.55106000  0.48966000  0.60366000  1.0
  O  O58  1  0.25620000  0.45919000  0.53237000  1.0
  O  O59  1  0.74377000  0.54082000  0.46763000  1.0
  O  O60  1  0.10581000  0.48790000  0.10747000  1.0
  O  O61  1  0.89415000  0.51244000  0.89250000  1.0
