# generated using pymatgen
data_CdH24C24(N6Cl)2
_symmetry_space_group_name_H-M   'P 1'
_cell_length_a   7.59958000
_cell_length_b   8.89007000
_cell_length_c   21.89500000
_cell_angle_alpha   90.00000000
_cell_angle_beta   90.00000000
_cell_angle_gamma   109.15800000
_symmetry_Int_Tables_number   1
_chemical_formula_structural   CdH24C24(N6Cl)2
_chemical_formula_sum   'Cd2 H48 C48 N24 Cl4'
_cell_volume   1397.31900203
_cell_formula_units_Z   2
loop_
 _symmetry_equiv_pos_site_id
 _symmetry_equiv_pos_as_xyz
  1  'x, y, z'
loop_
 _atom_site_type_symbol
 _atom_site_label
 _atom_site_symmetry_multiplicity
 _atom_site_fract_x
 _atom_site_fract_y
 _atom_site_fract_z
 _atom_site_occupancy
  Cd  Cd0  1  0.00000000  0.00000000  0.50000000  1.0
  Cd  Cd1  1  0.00000000  0.50000000  0.00000000  1.0
  H  H2  1  0.23625000  0.39882000  0.44143000  1.0
  H  H3  1  0.23624000  0.89882000  0.05857000  1.0
  H  H4  1  0.76376000  0.60118000  0.55857000  1.0
  H  H5  1  0.76375000  0.10117000  0.94143000  1.0
  H  H6  1  0.66034000  0.16006000  0.45500000  1.0
  H  H7  1  0.66034000  0.66006000  0.04500000  1.0
  H  H8  1  0.33967000  0.83994000  0.54500000  1.0
  H  H9  1  0.33966000  0.33993000  0.95500000  1.0
  H  H10  1  0.74508000  0.59609000  0.41158000  1.0
  H  H11  1  0.74507000  0.09609000  0.08842000  1.0
  H  H12  1  0.25493000  0.40391000  0.58842000  1.0
  H  H13  1  0.25492000  0.90391000  0.91158000  1.0
  H  H14  1  0.57395000  0.43295000  0.44721000  1.0
  H  H15  1  0.57395000  0.93295000  0.05279000  1.0
  H  H16  1  0.42606000  0.56705000  0.55279000  1.0
  H  H17  1  0.42605000  0.06705000  0.94720000  1.0
  H  H18  1  0.79525000  0.58421000  0.29587000  1.0
  H  H19  1  0.79526000  0.08421000  0.20413000  1.0
  H  H20  1  0.20474000  0.41579000  0.70413000  1.0
  H  H21  1  0.20474000  0.91579000  0.79587000  1.0
  H  H22  1  0.65243000  0.47619000  0.19668000  1.0
  H  H23  1  0.65243000  0.97619000  0.30332000  1.0
  H  H24  1  0.34757000  0.52381000  0.80332000  1.0
  H  H25  1  0.34756000  0.02381000  0.69668000  1.0
  H  H26  1  0.23673000  0.09716000  0.28980000  1.0
  H  H27  1  0.23673000  0.59716000  0.21020000  1.0
  H  H28  1  0.76327000  0.90284000  0.71021000  1.0
  H  H29  1  0.76327000  0.40284000  0.78980000  1.0
  H  H30  1  0.37188000  0.21126000  0.38996000  1.0
  H  H31  1  0.37188000  0.71126000  0.11004000  1.0
  H  H32  1  0.62812000  0.78874000  0.61004000  1.0
  H  H33  1  0.62812000  0.28873000  0.88996000  1.0
  H  H34  1  0.46067000  0.22098000  0.14134000  1.0
  H  H35  1  0.46067000  0.72098000  0.35867000  1.0
  H  H36  1  0.53933000  0.77902000  0.85867000  1.0
  H  H37  1  0.53933000  0.27902000  0.64133000  1.0
  H  H38  1  0.27166000  0.08150000  0.18106000  1.0
  H  H39  1  0.27166000  0.58150000  0.31894000  1.0
  H  H40  1  0.72834000  0.91850000  0.81894000  1.0
  H  H41  1  0.72834000  0.41850000  0.68106000  1.0
  H  H42  1  0.13514000  0.11646000  0.65325000  1.0
  H  H43  1  0.13514000  0.61646000  0.84675000  1.0
  H  H44  1  0.86486000  0.88355000  0.34675000  1.0
  H  H45  1  0.86486000  0.38354000  0.15325000  1.0
  H  H46  1  0.63975000  0.11695000  0.56715000  1.0
  H  H47  1  0.63975000  0.61695000  0.93285000  1.0
  H  H48  1  0.36025000  0.88305000  0.43285000  1.0
  H  H49  1  0.36025000  0.38305000  0.06715000  1.0
  C  C50  1  0.08670000  0.37261000  0.43884000  1.0
  C  C51  1  0.08669000  0.87260000  0.06116000  1.0
  C  C52  1  0.91331000  0.62740000  0.56116000  1.0
  C  C53  1  0.91330000  0.12739000  0.93884000  1.0
  C  C54  1  0.79607000  0.24775000  0.44636000  1.0
  C  C55  1  0.79607000  0.74775000  0.05364000  1.0
  C  C56  1  0.20394000  0.75225000  0.55364000  1.0
  C  C57  1  0.20393000  0.25225000  0.94636000  1.0
  C  C58  1  0.67894000  0.46652000  0.41069000  1.0
  C  C59  1  0.67894000  0.96652000  0.08931000  1.0
  C  C60  1  0.32106000  0.53348000  0.58931000  1.0
  C  C61  1  0.32106000  0.03348000  0.91069000  1.0
  C  C62  1  0.59204000  0.40540000  0.34959000  1.0
  C  C63  1  0.59204000  0.90540000  0.15041000  1.0
  C  C64  1  0.40796000  0.59460000  0.65041000  1.0
  C  C65  1  0.40796000  0.09460000  0.84959000  1.0
  C  C66  1  0.67079000  0.47905000  0.29490000  1.0
  C  C67  1  0.67079000  0.97905000  0.20510000  1.0
  C  C68  1  0.32921000  0.52095000  0.70510000  1.0
  C  C69  1  0.32921000  0.02095000  0.79490000  1.0
  C  C70  1  0.59259000  0.41601000  0.23904000  1.0
  C  C71  1  0.59259000  0.91601000  0.26096000  1.0
  C  C72  1  0.40741000  0.58399000  0.76096000  1.0
  C  C73  1  0.40741000  0.08399000  0.73904000  1.0
  C  C74  1  0.43763000  0.27725000  0.23682000  1.0
  C  C75  1  0.43763000  0.77725000  0.26318000  1.0
  C  C76  1  0.56237000  0.72275000  0.76318000  1.0
  C  C77  1  0.56237000  0.22275000  0.73682000  1.0
  C  C78  1  0.35855000  0.20448000  0.29144000  1.0
  C  C79  1  0.35856000  0.70449000  0.20856000  1.0
  C  C80  1  0.64145000  0.79552000  0.70856000  1.0
  C  C81  1  0.64144000  0.29551000  0.79144000  1.0
  C  C82  1  0.43438000  0.26849000  0.34743000  1.0
  C  C83  1  0.43438000  0.76849000  0.15257000  1.0
  C  C84  1  0.56562000  0.73151000  0.65257000  1.0
  C  C85  1  0.56561000  0.23151000  0.84743000  1.0
  C  C86  1  0.35367000  0.20830000  0.17654000  1.0
  C  C87  1  0.35366000  0.70830000  0.32346000  1.0
  C  C88  1  0.64633000  0.79170000  0.82346000  1.0
  C  C89  1  0.64633000  0.29170000  0.67654000  1.0
  C  C90  1  0.99621000  0.36462000  0.14405000  1.0
  C  C91  1  0.99621000  0.86463000  0.35595000  1.0
  C  C92  1  0.00379000  0.63537000  0.85595000  1.0
  C  C93  1  0.00379000  0.13538000  0.64405000  1.0
  C  C94  1  0.75533000  0.13337000  0.59873000  1.0
  C  C95  1  0.75533000  0.63337000  0.90127000  1.0
  C  C96  1  0.24468000  0.86663000  0.40127000  1.0
  C  C97  1  0.24468000  0.36663000  0.09873000  1.0
  N  N98  1  0.96157000  0.22834000  0.45425000  1.0
  N  N99  1  0.96157000  0.72834000  0.04575000  1.0
  N  N100  1  0.03843000  0.77166000  0.54575000  1.0
  N  N101  1  0.03843000  0.27166000  0.95425000  1.0
  N  N102  1  0.00783000  0.47896000  0.42154000  1.0
  N  N103  1  0.00782000  0.97895000  0.07846000  1.0
  N  N104  1  0.99218000  0.52105000  0.57846000  1.0
  N  N105  1  0.99218000  0.02104000  0.92155000  1.0
  N  N106  1  0.82260000  0.39702000  0.42710000  1.0
  N  N107  1  0.82259000  0.89701000  0.07290000  1.0
  N  N108  1  0.17741000  0.60299000  0.57290000  1.0
  N  N109  1  0.17740000  0.10298000  0.92710000  1.0
  N  N110  1  0.23028000  0.28995000  0.15226000  1.0
  N  N111  1  0.23028000  0.78995000  0.34774000  1.0
  N  N112  1  0.76972000  0.71005000  0.84774000  1.0
  N  N113  1  0.76972000  0.21005000  0.65226000  1.0
  N  N114  1  0.07257000  0.28732000  0.18216000  1.0
  N  N115  1  0.07257000  0.78732000  0.31784000  1.0
  N  N116  1  0.92743000  0.71268000  0.81784000  1.0
  N  N117  1  0.92743000  0.21268000  0.68216000  1.0
  N  N118  1  0.09742000  0.41597000  0.09220000  1.0
  N  N119  1  0.09742000  0.91597000  0.40780000  1.0
  N  N120  1  0.90258000  0.58403000  0.90780000  1.0
  N  N121  1  0.90259000  0.08403000  0.59220000  1.0
  Cl  Cl122  1  0.64308000  0.83459000  0.47465000  1.0
  Cl  Cl123  1  0.64308000  0.33458000  0.02535000  1.0
  Cl  Cl124  1  0.35692000  0.16542000  0.52535000  1.0
  Cl  Cl125  1  0.35692000  0.66541000  0.97465000  1.0
