# generated using pymatgen
data_ZnH16C20NO6
_symmetry_space_group_name_H-M   'P 1'
_cell_length_a   14.83480000
_cell_length_b   16.01290000
_cell_length_c   16.16150000
_cell_angle_alpha   89.65960000
_cell_angle_beta   89.75670000
_cell_angle_gamma   89.77650000
_symmetry_Int_Tables_number   1
_chemical_formula_structural   ZnH16C20NO6
_chemical_formula_sum   'Zn2 H32 C40 N2 O12'
_cell_volume   3839.00353236
_cell_formula_units_Z   2
loop_
 _symmetry_equiv_pos_site_id
 _symmetry_equiv_pos_as_xyz
  1  'x, y, z'
loop_
 _atom_site_type_symbol
 _atom_site_label
 _atom_site_symmetry_multiplicity
 _atom_site_fract_x
 _atom_site_fract_y
 _atom_site_fract_z
 _atom_site_occupancy
  Zn  Zn0  1  0.40606000  0.50021000  0.50016000  1.0
  Zn  Zn1  1  0.59513000  0.49875000  0.50066000  1.0
  H  H2  1  0.08488000  0.38334000  0.56832000  1.0
  H  H3  1  0.08482000  0.61689000  0.43250000  1.0
  H  H4  1  0.41119000  0.08971000  0.31955000  1.0
  H  H5  1  0.30145000  0.07363000  0.35992000  1.0
  H  H6  1  0.36430000  0.16226000  0.39005000  1.0
  H  H7  1  0.54472000  0.06267000  0.30825000  1.0
  H  H8  1  0.58395000  0.15556000  0.35508000  1.0
  H  H9  1  0.66076000  0.07482000  0.32872000  1.0
  H  H10  1  0.44740000  0.95650000  0.30791000  1.0
  H  H11  1  0.42316000  0.85451000  0.34574000  1.0
  H  H12  1  0.33516000  0.92761000  0.32845000  1.0
  H  H13  1  0.91632000  0.38356000  0.56830000  1.0
  H  H14  1  0.56772000  0.92529000  0.31094000  1.0
  H  H15  1  0.68152000  0.92681000  0.34185000  1.0
  H  H16  1  0.61210000  0.84139000  0.36992000  1.0
  H  H17  1  0.73457000  0.94613000  0.46743000  1.0
  H  H18  1  0.67226000  0.96288000  0.55919000  1.0
  H  H19  1  0.67471000  0.86157000  0.51296000  1.0
  H  H20  1  0.26603000  0.93681000  0.45342000  1.0
  H  H21  1  0.32616000  0.84383000  0.47924000  1.0
  H  H22  1  0.32160000  0.92917000  0.54957000  1.0
  H  H23  1  0.42652000  0.05884000  0.67705000  1.0
  H  H24  1  0.63859000  0.07497000  0.47614000  1.0
  H  H25  1  0.58097000  0.13253000  0.61686000  1.0
  H  H26  1  0.35092000  0.48289000  0.14438000  1.0
  H  H27  1  0.65008000  0.48492000  0.14188000  1.0
  H  H28  1  0.35625000  0.05962000  0.49992000  1.0
  H  H29  1  0.43663000  0.92869000  0.60696000  1.0
  H  H30  1  0.55510000  0.92521000  0.61098000  1.0
  H  H31  1  0.35307000  0.48478000  0.92396000  1.0
  H  H32  1  0.64563000  0.48731000  0.92151000  1.0
  H  H33  1  0.91628000  0.61712000  0.43251000  1.0
  C  C34  1  0.50005000  0.49504000  0.33849000  1.0
  C  C35  1  0.58259000  0.48531000  0.04172000  1.0
  C  C36  1  0.41740000  0.48407000  0.04311000  1.0
  C  C37  1  0.50023000  0.48490000  0.08673000  1.0
  C  C38  1  0.49876000  0.48962000  0.82601000  1.0
  C  C39  1  0.50164000  0.66151000  0.49562000  1.0
  C  C40  1  0.50064000  0.48687000  0.17362000  1.0
  C  C41  1  0.50067000  0.49004000  0.24927000  1.0
  C  C42  1  0.49835000  0.49345000  0.75070000  1.0
  C  C43  1  0.04732000  0.56638000  0.46189000  1.0
  C  C44  1  0.95379000  0.56650000  0.46188000  1.0
  C  C45  1  0.50020000  0.04660000  0.57805000  1.0
  C  C46  1  0.09385000  0.50007000  0.50034000  1.0
  C  C47  1  0.90732000  0.50029000  0.50033000  1.0
  C  C48  1  0.04737000  0.43392000  0.53889000  1.0
  C  C49  1  0.95384000  0.43404000  0.53889000  1.0
  C  C50  1  0.18965000  0.49993000  0.50011000  1.0
  C  C51  1  0.81152000  0.50010000  0.50014000  1.0
  C  C52  1  0.49849000  0.49764000  0.66137000  1.0
  C  C53  1  0.50249000  0.33715000  0.49942000  1.0
  C  C54  1  0.41046000  0.94989000  0.44093000  1.0
  C  C55  1  0.59102000  0.95180000  0.44477000  1.0
  C  C56  1  0.49806000  0.95055000  0.57612000  1.0
  C  C57  1  0.58256000  0.04973000  0.43975000  1.0
  C  C58  1  0.40539000  0.04745000  0.45039000  1.0
  C  C59  1  0.50105000  0.24696000  0.49628000  1.0
  C  C60  1  0.50023000  0.91807000  0.48564000  1.0
  C  C61  1  0.49582000  0.08084000  0.48649000  1.0
  C  C62  1  0.36945000  0.09556000  0.37527000  1.0
  C  C63  1  0.59286000  0.08749000  0.35298000  1.0
  C  C64  1  0.40476000  0.92083000  0.35049000  1.0
  C  C65  1  0.61312000  0.90955000  0.36161000  1.0
  C  C66  1  0.67226000  0.92914000  0.50046000  1.0
  C  C67  1  0.49685000  0.17137000  0.49083000  1.0
  C  C68  1  0.32677000  0.91225000  0.48404000  1.0
  C  C69  1  0.50136000  0.82746000  0.48890000  1.0
  C  C70  1  0.50176000  0.75159000  0.49239000  1.0
  C  C71  1  0.41672000  0.48486000  0.95714000  1.0
  C  C72  1  0.58235000  0.48623000  0.95574000  1.0
  C  C73  1  0.49929000  0.48654000  0.91367000  1.0
  N  N74  1  0.73336000  0.49960000  0.49988000  1.0
  N  N75  1  0.26783000  0.49988000  0.49969000  1.0
  O  O76  1  0.42275000  0.50149000  0.37247000  1.0
  O  O77  1  0.58008000  0.07140000  0.61908000  1.0
  O  O78  1  0.33772000  0.48293000  0.08496000  1.0
  O  O79  1  0.66271000  0.48544000  0.08224000  1.0
  O  O80  1  0.57676000  0.49253000  0.37350000  1.0
  O  O81  1  0.42466000  0.62647000  0.49999000  1.0
  O  O82  1  0.57834000  0.62537000  0.49352000  1.0
  O  O83  1  0.42173000  0.49619000  0.62625000  1.0
  O  O84  1  0.57550000  0.50223000  0.62635000  1.0
  O  O85  1  0.42610000  0.37368000  0.49575000  1.0
  O  O86  1  0.57957000  0.37151000  0.50499000  1.0
  O  O87  1  0.42395000  0.08059000  0.62066000  1.0
