# generated using pymatgen
data_Al2H18C18O11
_symmetry_space_group_name_H-M   'P 1'
_cell_length_a   6.68324000
_cell_length_b   10.99770000
_cell_length_c   11.12710000
_cell_angle_alpha   87.95750000
_cell_angle_beta   73.08670000
_cell_angle_gamma   72.40430000
_symmetry_Int_Tables_number   1
_chemical_formula_structural   Al2H18C18O11
_chemical_formula_sum   'Al2 H18 C18 O11'
_cell_volume   744.63298189
_cell_formula_units_Z   1
loop_
 _symmetry_equiv_pos_site_id
 _symmetry_equiv_pos_as_xyz
  1  'x, y, z'
loop_
 _atom_site_type_symbol
 _atom_site_label
 _atom_site_symmetry_multiplicity
 _atom_site_fract_x
 _atom_site_fract_y
 _atom_site_fract_z
 _atom_site_occupancy
  Al  Al0  1  0.99989000  0.49698000  0.49903000  1.0
  Al  Al1  1  0.49630000  0.50138000  0.50265000  1.0
  H  H2  1  0.85543000  0.35073000  0.42017000  1.0
  H  H3  1  0.12763000  0.64212000  0.59402000  1.0
  H  H4  1  0.25103000  0.47698000  0.87985000  1.0
  H  H5  1  0.87335000  0.51324000  0.88265000  1.0
  H  H6  1  0.13362000  0.48286000  0.11457000  1.0
  H  H7  1  0.41121000  0.89388000  0.70290000  1.0
  H  H8  1  0.23529000  0.89523000  0.61083000  1.0
  H  H9  1  0.12629000  0.11875000  0.62741000  1.0
  H  H10  1  0.32271000  0.11595000  0.70582000  1.0
  H  H11  1  0.23533000  0.09826000  0.39269000  1.0
  H  H12  1  0.49699000  0.10389000  0.30062000  1.0
  H  H13  1  0.37517000  0.87517000  0.37543000  1.0
  H  H14  1  0.64265000  0.88242000  0.29780000  1.0
  H  H15  1  0.80165000  0.89961000  0.59171000  1.0
  H  H16  1  0.90310000  0.88288000  0.42667000  1.0
  H  H17  1  0.78216000  0.10394000  0.41236000  1.0
  H  H18  1  0.70642000  0.12108000  0.57738000  1.0
  H  H19  1  0.71145000  0.52619000  0.21756000  1.0
  C  C20  1  0.36018000  0.26862000  0.50234000  1.0
  C  C21  1  0.36128000  0.50448000  0.27036000  1.0
  C  C22  1  0.64116000  0.72967000  0.49882000  1.0
  C  C23  1  0.63773000  0.49324000  0.72765000  1.0
  C  C24  1  0.43495000  0.50231000  0.13165000  1.0
  C  C25  1  0.56922000  0.49427000  0.86811000  1.0
  C  C26  1  0.64581000  0.51209000  0.06558000  1.0
  C  C27  1  0.35973000  0.48558000  0.93307000  1.0
  C  C28  1  0.71141000  0.50669000  0.93368000  1.0
  C  C29  1  0.29536000  0.48901000  0.06324000  1.0
  C  C30  1  0.36967000  0.93025000  0.61699000  1.0
  C  C31  1  0.30054000  0.07818000  0.62197000  1.0
  C  C32  1  0.43975000  0.12382000  0.50297000  1.0
  C  C33  1  0.41075000  0.06625000  0.38645000  1.0
  C  C34  1  0.50045000  0.91845000  0.38142000  1.0
  C  C35  1  0.57014000  0.87468000  0.50096000  1.0
  C  C36  1  0.75632000  0.92769000  0.50498000  1.0
  C  C37  1  0.68288000  0.07457000  0.49900000  1.0
  O  O38  1  0.15839000  0.32168000  0.51016000  1.0
  O  O39  1  0.49659000  0.51813000  0.32809000  1.0
  O  O40  1  0.49341000  0.67544000  0.50954000  1.0
  O  O41  1  0.82766000  0.50311000  0.67260000  1.0
  O  O42  1  0.84238000  0.67149000  0.48668000  1.0
  O  O43  1  0.49800000  0.48475000  0.67351000  1.0
  O  O44  1  0.50093000  0.32765000  0.49153000  1.0
  O  O45  1  0.17478000  0.49119000  0.32537000  1.0
  O  O46  1  0.80333000  0.44174000  0.44250000  1.0
  O  O47  1  0.19191000  0.55599000  0.55590000  1.0
  O  O48  1  0.78735000  0.52628000  0.12512000  1.0
