# generated using pymatgen
data_CdH10C8(BrN2)2
_symmetry_space_group_name_H-M   'P 1'
_cell_length_a   4.91391000
_cell_length_b   8.35104766
_cell_length_c   15.35793803
_cell_angle_alpha   87.35746549
_cell_angle_beta   80.82928319
_cell_angle_gamma   73.16127264
_symmetry_Int_Tables_number   1
_chemical_formula_structural   CdH10C8(BrN2)2
_chemical_formula_sum   'Cd2 H20 C16 Br4 N8'
_cell_volume   595.50064666
_cell_formula_units_Z   2
loop_
 _symmetry_equiv_pos_site_id
 _symmetry_equiv_pos_as_xyz
  1  'x, y, z'
loop_
 _atom_site_type_symbol
 _atom_site_label
 _atom_site_symmetry_multiplicity
 _atom_site_fract_x
 _atom_site_fract_y
 _atom_site_fract_z
 _atom_site_occupancy
  Cd  Cd0  1  0.37397000  0.25213000  0.99935000  1.0
  Cd  Cd1  1  0.12284000  0.75233000  0.50056000  1.0
  H  H2  1  0.82118000  0.64640000  0.74785000  1.0
  H  H3  1  0.52903000  0.64844000  0.25217000  1.0
  H  H4  1  0.53102000  0.14837000  0.24777000  1.0
  H  H5  1  0.31915000  0.14641000  0.75210000  1.0
  H  H6  1  0.30728000  0.41026000  0.79249000  1.0
  H  H7  1  0.27995000  0.41011000  0.20724000  1.0
  H  H8  1  0.23632000  0.91039000  0.29251000  1.0
  H  H9  1  0.85003000  0.91050000  0.70749000  1.0
  H  H10  1  0.30971000  0.78092000  0.96500000  1.0
  H  H11  1  0.90845000  0.78386000  0.03537000  1.0
  H  H12  1  0.69330000  0.28360000  0.46482000  1.0
  H  H13  1  0.02378000  0.28106000  0.53508000  1.0
  H  H14  1  0.26231000  0.73891000  0.85572000  1.0
  H  H15  1  0.00106000  0.73989000  0.14400000  1.0
  H  H16  1  0.89439000  0.23988000  0.35625000  1.0
  H  H17  1  0.86789000  0.23881000  0.64434000  1.0
  H  H18  1  0.45047000  0.88666000  0.87391000  1.0
  H  H19  1  0.66648000  0.88763000  0.12728000  1.0
  H  H20  1  0.54324000  0.38762000  0.37291000  1.0
  H  H21  1  0.07400000  0.38661000  0.62621000  1.0
  C  C22  1  0.80014000  0.54360000  0.95459000  1.0
  C  C23  1  0.65740000  0.54367000  0.04563000  1.0
  C  C24  1  0.45232000  0.04371000  0.45431000  1.0
  C  C25  1  0.50431000  0.04363000  0.54537000  1.0
  C  C26  1  0.86989000  0.59144000  0.81086000  1.0
  C  C27  1  0.53650000  0.59264000  0.18922000  1.0
  C  C28  1  0.47517000  0.09271000  0.31070000  1.0
  C  C29  1  0.43085000  0.09146000  0.68910000  1.0
  C  C30  1  0.10751000  0.47292000  0.83382000  1.0
  C  C31  1  0.41816000  0.47299000  0.16614000  1.0
  C  C32  1  0.33343000  0.97321000  0.33370000  1.0
  C  C33  1  0.69149000  0.97304000  0.66612000  1.0
  C  C34  1  0.40757000  0.76819000  0.89560000  1.0
  C  C35  1  0.82537000  0.76962000  0.10479000  1.0
  C  C36  1  0.67954000  0.26955000  0.39538000  1.0
  C  C37  1  0.05279000  0.26817000  0.60445000  1.0
  Br  Br38  1  0.78620000  0.10318000  0.87904000  1.0
  Br  Br39  1  0.11448333  0.09952000  0.11933000  1.0
  Br  Br40  1  0.98280000  0.59950000  0.38069000  1.0
  Br  Br41  1  0.41453000  0.60364000  0.62102000  1.0
  N  N42  1  0.06221000  0.44416000  0.92298000  1.0
  N  N43  1  0.49437000  0.44358000  0.07709000  1.0
  N  N44  1  0.32050000  0.94379000  0.42276000  1.0
  N  N45  1  0.73502000  0.94430000  0.57695000  1.0
  N  N46  1  0.67869000  0.63545000  0.88745000  1.0
  N  N47  1  0.68567000  0.63653000  0.11280000  1.0
  N  N48  1  0.54799000  0.13647000  0.38719000  1.0
  N  N49  1  0.31588000  0.13541000  0.61252000  1.0
