# generated using pymatgen
data_CoH24C18(N2O)4
_symmetry_space_group_name_H-M   'P 1'
_cell_length_a   7.88175000
_cell_length_b   8.05308000
_cell_length_c   9.30355000
_cell_angle_alpha   95.81240000
_cell_angle_beta   112.34100000
_cell_angle_gamma   107.93200000
_symmetry_Int_Tables_number   1
_chemical_formula_structural   CoH24C18(N2O)4
_chemical_formula_sum   'Co1 H24 C18 N8 O4'
_cell_volume   503.41635913
_cell_formula_units_Z   1
loop_
 _symmetry_equiv_pos_site_id
 _symmetry_equiv_pos_as_xyz
  1  'x, y, z'
loop_
 _atom_site_type_symbol
 _atom_site_label
 _atom_site_symmetry_multiplicity
 _atom_site_fract_x
 _atom_site_fract_y
 _atom_site_fract_z
 _atom_site_occupancy
  Co  Co0  1  0.00000000  0.00000000  0.00000000  1.0
  H  H1  1  0.22912000  0.56946000  0.51301000  1.0
  H  H2  1  0.77088000  0.43054000  0.48698000  1.0
  H  H3  1  0.20196000  0.61707000  0.32694000  1.0
  H  H4  1  0.79804000  0.38293000  0.67306000  1.0
  H  H5  1  0.55500000  0.70122000  0.50352000  1.0
  H  H6  1  0.44500000  0.29878000  0.49648000  1.0
  H  H7  1  0.47671000  0.52701000  0.33371000  1.0
  H  H8  1  0.52330000  0.47299000  0.66629000  1.0
  H  H9  1  0.27247000  0.88591000  0.74395000  1.0
  H  H10  1  0.72753000  0.11408000  0.25605000  1.0
  H  H11  1  0.03664000  0.27970000  0.54836000  1.0
  H  H12  1  0.96335000  0.72031000  0.45164000  1.0
  H  H13  1  0.54153000  0.75038000  0.82105000  1.0
  H  H14  1  0.45848000  0.24961000  0.17895000  1.0
  H  H15  1  0.43235000  0.23288000  0.81338000  1.0
  H  H16  1  0.56764000  0.76711000  0.18661000  1.0
  H  H17  1  0.83946000  0.31374000  0.95802000  1.0
  H  H18  1  0.16053000  0.68626000  0.04198000  1.0
  H  H19  1  0.91493000  0.99059000  0.63730000  1.0
  H  H20  1  0.08507000  0.00942000  0.36270000  1.0
  H  H21  1  0.25940000  0.54923000  0.79476000  1.0
  H  H22  1  0.74059000  0.45077000  0.20524000  1.0
  H  H23  1  0.26737000  0.40811000  0.05876000  1.0
  H  H24  1  0.73263000  0.59188000  0.94124000  1.0
  C  C25  1  0.56820000  0.89254000  0.83934000  1.0
  C  C26  1  0.43180000  0.10744000  0.16066000  1.0
  C  C27  1  0.51610000  0.14633000  0.83532000  1.0
  C  C28  1  0.48390000  0.85367000  0.16469000  1.0
  C  C29  1  0.71660000  0.18490000  0.90698000  1.0
  C  C30  1  0.28341000  0.81509000  0.09302000  1.0
  C  C31  1  0.01152000  0.12226000  0.71712000  1.0
  C  C32  1  0.98847000  0.87774000  0.28289000  1.0
  C  C33  1  0.19660000  0.41279000  0.80288000  1.0
  C  C34  1  0.80342000  0.58721000  0.19712000  1.0
  C  C35  1  0.19837000  0.34294000  0.93219000  1.0
  C  C36  1  0.80165000  0.65707000  0.06782000  1.0
  C  C37  1  0.10205000  0.33682000  0.31382000  1.0
  C  C38  1  0.89795000  0.66318000  0.68617000  1.0
  C  C39  1  0.24725000  0.52952000  0.40483000  1.0
  C  C40  1  0.75274000  0.47048000  0.59517000  1.0
  C  C41  1  0.46211000  0.55779000  0.44549000  1.0
  C  C42  1  0.53788000  0.44221000  0.55450000  1.0
  N  N43  1  0.74717000  0.02460000  0.90957000  1.0
  N  N44  1  0.25284000  0.97541000  0.09044000  1.0
  N  N45  1  0.42498000  0.96151000  0.79344000  1.0
  N  N46  1  0.57502000  0.03848000  0.20655000  1.0
  N  N47  1  0.08198000  0.16078000  0.87700000  1.0
  N  N48  1  0.91802000  0.83922000  0.12300000  1.0
  N  N49  1  0.07901000  0.27167000  0.66871000  1.0
  N  N50  1  0.92099000  0.72833000  0.33130000  1.0
  O  O51  1  0.12787000  0.25883000  0.20412000  1.0
  O  O52  1  0.87212000  0.74117000  0.79588000  1.0
  O  O53  1  0.96190000  0.26758000  0.35528000  1.0
  O  O54  1  0.03811000  0.73243000  0.64473000  1.0
