# generated using pymatgen
data_CoH26C34(N7Cl)2
_symmetry_space_group_name_H-M   'P 1'
_cell_length_a   8.29133000
_cell_length_b   8.69394000
_cell_length_c   11.94440000
_cell_angle_alpha   81.75430000
_cell_angle_beta   87.96970000
_cell_angle_gamma   66.97910000
_symmetry_Int_Tables_number   1
_chemical_formula_structural   CoH26C34(N7Cl)2
_chemical_formula_sum   'Co1 H26 C34 N14 Cl2'
_cell_volume   784.04179990
_cell_formula_units_Z   1
loop_
 _symmetry_equiv_pos_site_id
 _symmetry_equiv_pos_as_xyz
  1  'x, y, z'
loop_
 _atom_site_type_symbol
 _atom_site_label
 _atom_site_symmetry_multiplicity
 _atom_site_fract_x
 _atom_site_fract_y
 _atom_site_fract_z
 _atom_site_occupancy
  Co  Co0  1  0.00000000  0.00000000  0.50000000  1.0
  H  H1  1  0.16846000  0.62658000  0.58449000  1.0
  H  H2  1  0.83154000  0.37342000  0.41551000  1.0
  H  H3  1  0.26355000  0.38007000  0.30360000  1.0
  H  H4  1  0.73645000  0.61993000  0.69640000  1.0
  H  H5  1  0.05210000  0.92566000  0.27065000  1.0
  H  H6  1  0.94790000  0.07434000  0.72935000  1.0
  H  H7  1  0.88391000  0.90028000  0.13338000  1.0
  H  H8  1  0.11610000  0.09972000  0.86661000  1.0
  H  H9  1  0.82401000  0.91067000  0.93011000  1.0
  H  H10  1  0.17600000  0.08933000  0.06989000  1.0
  H  H11  1  0.01472000  0.68514000  0.82459000  1.0
  H  H12  1  0.98528000  0.31486000  0.17541000  1.0
  H  H13  1  0.33965000  0.43932000  0.12345000  1.0
  H  H14  1  0.66034000  0.56067000  0.87655000  1.0
  H  H15  1  0.61055000  0.14028000  0.66367000  1.0
  H  H16  1  0.38945000  0.85972000  0.33633000  1.0
  H  H17  1  0.40574000  0.29788000  0.60337000  1.0
  H  H18  1  0.59426000  0.70212000  0.39663000  1.0
  H  H19  1  0.52843000  0.92420000  0.84057000  1.0
  H  H20  1  0.47157000  0.07580000  0.15944000  1.0
  H  H21  1  0.39366000  0.71170000  0.84733000  1.0
  H  H22  1  0.60634000  0.28830000  0.15267000  1.0
  H  H23  1  0.18542000  0.73937000  0.69485000  1.0
  H  H24  1  0.81459000  0.26063000  0.30515000  1.0
  H  H25  1  0.24490000  0.16373000  0.52393000  1.0
  H  H26  1  0.75510000  0.83627000  0.47607000  1.0
  C  C27  1  0.17088000  0.63538000  0.49289000  1.0
  C  C28  1  0.82912000  0.36462000  0.50711000  1.0
  C  C29  1  0.22038000  0.50037000  0.33646000  1.0
  C  C30  1  0.77961000  0.49963000  0.66354000  1.0
  C  C31  1  0.14652000  0.65536000  0.26550000  1.0
  C  C32  1  0.85348000  0.34464000  0.73450000  1.0
  C  C33  1  0.09747000  0.79953000  0.31861000  1.0
  C  C34  1  0.90254000  0.20047000  0.68139000  1.0
  C  C35  1  0.11562000  0.66751000  0.14330000  1.0
  C  C36  1  0.88438000  0.33249000  0.85670000  1.0
  C  C37  1  0.97175000  0.80183000  0.08711000  1.0
  C  C38  1  0.02826000  0.19817000  0.91288000  1.0
  C  C39  1  0.93718000  0.80730000  0.97295000  1.0
  C  C40  1  0.06282000  0.19271000  0.02704000  1.0
  C  C41  1  0.04584000  0.68033000  0.91322000  1.0
  C  C42  1  0.95416000  0.31967000  0.08678000  1.0
  C  C43  1  0.19322000  0.54874000  0.96695000  1.0
  C  C44  1  0.80678000  0.45126000  0.03306000  1.0
  C  C45  1  0.22594000  0.54242000  0.08201000  1.0
  C  C46  1  0.77405000  0.45757000  0.91799000  1.0
  C  C47  1  0.31355000  0.41879000  0.90454000  1.0
  C  C48  1  0.68644000  0.58120000  0.09546000  1.0
  C  C49  1  0.46776000  0.19735000  0.67382000  1.0
  C  C50  1  0.53224000  0.80264000  0.32618000  1.0
  C  C51  1  0.39664000  0.06075000  0.68099000  1.0
  C  C52  1  0.60336000  0.93925000  0.31901000  1.0
  C  C53  1  0.44188000  0.93010000  0.77209000  1.0
  C  C54  1  0.55812000  0.06990000  0.22791000  1.0
  C  C55  1  0.36842000  0.81088000  0.77547000  1.0
  C  C56  1  0.63158000  0.18912000  0.22453000  1.0
  C  C57  1  0.25280000  0.82477000  0.68945000  1.0
  C  C58  1  0.74720000  0.17523000  0.31055000  1.0
  C  C59  1  0.28225000  0.06503000  0.59688000  1.0
  C  C60  1  0.71775000  0.93497000  0.40312000  1.0
  N  N61  1  0.10535000  0.79129000  0.43237000  1.0
  N  N62  1  0.89466000  0.20871000  0.56763000  1.0
  N  N63  1  0.23384000  0.49135000  0.44893000  1.0
  N  N64  1  0.76616000  0.50865000  0.55107000  1.0
  N  N65  1  0.29548000  0.41021000  0.79427000  1.0
  N  N66  1  0.70451000  0.58978000  0.20573000  1.0
  N  N67  1  0.43652000  0.27350000  0.77818000  1.0
  N  N68  1  0.56348000  0.72650000  0.22182000  1.0
  N  N69  1  0.53754000  0.19933000  0.87126000  1.0
  N  N70  1  0.46246000  0.80067000  0.12875000  1.0
  N  N71  1  0.46155000  0.29028000  0.95175000  1.0
  N  N72  1  0.53844000  0.70971000  0.04825000  1.0
  N  N73  1  0.20823000  0.94998000  0.60094000  1.0
  N  N74  1  0.79177000  0.05003000  0.39906000  1.0
  Cl  Cl75  1  0.14093000  0.14108000  0.34536000  1.0
  Cl  Cl76  1  0.85907000  0.85892000  0.65464000  1.0
