# generated using pymatgen
data_ZnH22C26(NO)6
_symmetry_space_group_name_H-M   'P 1'
_cell_length_a   10.19900000
_cell_length_b   10.19890000
_cell_length_c   12.33750000
_cell_angle_alpha   81.72220000
_cell_angle_beta   81.72260000
_cell_angle_gamma   88.67010000
_symmetry_Int_Tables_number   1
_chemical_formula_structural   ZnH22C26(NO)6
_chemical_formula_sum   'Zn2 H44 C52 N12 O12'
_cell_volume   1256.72542691
_cell_formula_units_Z   2
loop_
 _symmetry_equiv_pos_site_id
 _symmetry_equiv_pos_as_xyz
  1  'x, y, z'
loop_
 _atom_site_type_symbol
 _atom_site_label
 _atom_site_symmetry_multiplicity
 _atom_site_fract_x
 _atom_site_fract_y
 _atom_site_fract_z
 _atom_site_occupancy
  Zn  Zn0  1  0.56995000  0.43004000  0.25000000  1.0
  Zn  Zn1  1  0.43004000  0.56996000  0.75000000  1.0
  H  H2  1  0.39682000  0.29558000  0.12310000  1.0
  H  H3  1  0.70441000  0.60317000  0.37692000  1.0
  H  H4  1  0.60318000  0.70441000  0.87692000  1.0
  H  H5  1  0.29559000  0.39683000  0.62308000  1.0
  H  H6  1  0.99865000  0.43104000  0.21346000  1.0
  H  H7  1  0.56896000  0.00134000  0.28654000  1.0
  H  H8  1  0.00135000  0.56897000  0.78654000  1.0
  H  H9  1  0.43104000  0.99866000  0.71346000  1.0
  H  H10  1  0.08497000  0.55325000  0.35220000  1.0
  H  H11  1  0.44676000  0.91501000  0.14779000  1.0
  H  H12  1  0.91502000  0.44675000  0.64780000  1.0
  H  H13  1  0.55325000  0.08499000  0.85220000  1.0
  H  H14  1  0.32609000  0.53635000  0.37065000  1.0
  H  H15  1  0.46366000  0.67390000  0.12935000  1.0
  H  H16  1  0.67390000  0.46366000  0.62935000  1.0
  H  H17  1  0.53634000  0.32610000  0.87065000  1.0
  H  H18  1  0.03447000  0.29336000  0.07412000  1.0
  H  H19  1  0.70663000  0.96552000  0.42589000  1.0
  H  H20  1  0.96553000  0.70664000  0.92588000  1.0
  H  H21  1  0.29337000  0.03448000  0.57411000  1.0
  H  H22  1  0.15518000  0.85713000  0.83854000  1.0
  H  H23  1  0.14287000  0.84482000  0.66146000  1.0
  H  H24  1  0.84482000  0.14287000  0.16146000  1.0
  H  H25  1  0.85713000  0.15517000  0.33854000  1.0
  H  H26  1  0.93881000  0.21640000  0.75530000  1.0
  H  H27  1  0.78361000  0.06120000  0.74469000  1.0
  H  H28  1  0.06119000  0.78360000  0.24470000  1.0
  H  H29  1  0.21640000  0.93881000  0.25530000  1.0
  H  H30  1  0.04465000  0.32229000  0.88820000  1.0
  H  H31  1  0.67771000  0.95535000  0.61180000  1.0
  H  H32  1  0.95535000  0.67771000  0.11180000  1.0
  H  H33  1  0.32230000  0.04465000  0.38820000  1.0
  H  H34  1  0.36278000  0.00783000  0.00771000  1.0
  H  H35  1  0.99216000  0.63722000  0.49228000  1.0
  H  H36  1  0.63722000  0.99217000  0.99228000  1.0
  H  H37  1  0.00784000  0.36278000  0.50772000  1.0
  H  H38  1  0.33702000  0.86224000  0.94691000  1.0
  H  H39  1  0.13776000  0.66298000  0.55308000  1.0
  H  H40  1  0.66298000  0.13776000  0.05308000  1.0
  H  H41  1  0.86224000  0.33702000  0.44692000  1.0
  H  H42  1  0.23709000  0.89262000  0.07054000  1.0
  H  H43  1  0.10737000  0.76292000  0.42946000  1.0
  H  H44  1  0.76291000  0.10737000  0.92946000  1.0
  H  H45  1  0.89263000  0.23708000  0.57054000  1.0
  C  C46  1  0.32472000  0.35011000  0.17359000  1.0
  C  C47  1  0.64988000  0.67527000  0.32642000  1.0
  C  C48  1  0.67527000  0.64988000  0.82642000  1.0
  C  C49  1  0.35012000  0.32473000  0.67358000  1.0
  C  C50  1  0.19101000  0.35191000  0.15950000  1.0
  C  C51  1  0.64808000  0.80898000  0.34051000  1.0
  C  C52  1  0.80899000  0.64809000  0.84051000  1.0
  C  C53  1  0.35192000  0.19102000  0.65949000  1.0
  C  C54  1  0.10309000  0.42695000  0.22417000  1.0
  C  C55  1  0.57305000  0.89690000  0.27583000  1.0
  C  C56  1  0.89691000  0.57305000  0.77582000  1.0
  C  C57  1  0.42695000  0.10310000  0.72417000  1.0
  C  C58  1  0.15072000  0.49469000  0.30048000  1.0
  C  C59  1  0.50531000  0.84927000  0.19952000  1.0
  C  C60  1  0.84928000  0.50531000  0.69952000  1.0
  C  C61  1  0.49469000  0.15073000  0.80048000  1.0
  C  C62  1  0.28447000  0.48618000  0.31101000  1.0
  C  C63  1  0.51382000  0.71552000  0.18900000  1.0
  C  C64  1  0.71552000  0.51382000  0.68900000  1.0
  C  C65  1  0.48618000  0.28449000  0.81100000  1.0
  C  C66  1  0.14109000  0.28067000  0.07940000  1.0
  C  C67  1  0.71931000  0.85891000  0.42060000  1.0
  C  C68  1  0.85891000  0.71933000  0.92060000  1.0
  C  C69  1  0.28068000  0.14109000  0.57939000  1.0
  C  C70  1  0.15672000  0.14878000  0.94152000  1.0
  C  C71  1  0.85122000  0.84328000  0.55849000  1.0
  C  C72  1  0.84328000  0.85122000  0.05848000  1.0
  C  C73  1  0.14878000  0.15672000  0.44151000  1.0
  C  C74  1  0.19168000  0.01736000  0.92501000  1.0
  C  C75  1  0.98264000  0.80832000  0.57500000  1.0
  C  C76  1  0.80832000  0.98264000  0.07500000  1.0
  C  C77  1  0.01736000  0.19167000  0.42500000  1.0
  C  C78  1  0.13065000  0.95957000  0.84943000  1.0
  C  C79  1  0.04043000  0.86935000  0.65058000  1.0
  C  C80  1  0.86935000  0.04043000  0.15057000  1.0
  C  C81  1  0.95957000  0.13065000  0.34942000  1.0
  C  C82  1  0.03679000  0.02725000  0.78912000  1.0
  C  C83  1  0.97275000  0.96321000  0.71088000  1.0
  C  C84  1  0.96321000  0.97275000  0.21088000  1.0
  C  C85  1  0.02725000  0.03679000  0.28912000  1.0
  C  C86  1  0.00697000  0.15926000  0.80425000  1.0
  C  C87  1  0.84074000  0.99303000  0.69575000  1.0
  C  C88  1  0.99302000  0.84073000  0.19576000  1.0
  C  C89  1  0.15927000  0.00697000  0.30424000  1.0
  C  C90  1  0.06644000  0.21922000  0.87858000  1.0
  C  C91  1  0.78078000  0.93355000  0.62142000  1.0
  C  C92  1  0.93355000  0.78078000  0.12142000  1.0
  C  C93  1  0.21923000  0.06645000  0.37858000  1.0
  C  C94  1  0.28820000  0.94062000  0.99052000  1.0
  C  C95  1  0.05938000  0.71180000  0.50948000  1.0
  C  C96  1  0.71180000  0.05938000  0.00948000  1.0
  C  C97  1  0.94062000  0.28820000  0.49052000  1.0
  N  N98  1  0.37017000  0.41594000  0.24726000  1.0
  N  N99  1  0.58406000  0.62982000  0.25275000  1.0
  N  N100  1  0.62982000  0.58405000  0.75275000  1.0
  N  N101  1  0.41594000  0.37018000  0.74725000  1.0
  N  N102  1  0.21492000  0.20705000  0.01908000  1.0
  N  N103  1  0.79294000  0.78507000  0.48093000  1.0
  N  N104  1  0.78508000  0.79295000  0.98092000  1.0
  N  N105  1  0.20705000  0.21493000  0.51907000  1.0
  N  N106  1  0.60142000  0.24694000  0.41571000  1.0
  N  N107  1  0.75307000  0.39858000  0.08430000  1.0
  N  N108  1  0.39858000  0.75306000  0.58429000  1.0
  N  N109  1  0.24694000  0.60142000  0.91571000  1.0
  O  O110  1  0.60032000  0.37377000  0.41851000  1.0
  O  O111  1  0.62625000  0.39968000  0.08149000  1.0
  O  O112  1  0.39967000  0.62624000  0.58148000  1.0
  O  O113  1  0.37377000  0.60033000  0.91852000  1.0
  O  O114  1  0.58892000  0.21090000  0.32225000  1.0
  O  O115  1  0.78911000  0.41109000  0.17776000  1.0
  O  O116  1  0.41108000  0.78910000  0.67775000  1.0
  O  O117  1  0.21090000  0.58892000  0.82225000  1.0
  O  O118  1  0.83281000  0.38542000  0.00136000  1.0
  O  O119  1  0.61457000  0.16720000  0.49865000  1.0
  O  O120  1  0.16720000  0.61457000  0.99865000  1.0
  O  O121  1  0.38544000  0.83280000  0.50134000  1.0
