# generated using pymatgen
data_MnNiH18C18(N3O)2
_symmetry_space_group_name_H-M   'P 1'
_cell_length_a   8.06241000
_cell_length_b   8.22901000
_cell_length_c   8.90761000
_cell_angle_alpha   115.68800000
_cell_angle_beta   106.30800000
_cell_angle_gamma   100.69400000
_symmetry_Int_Tables_number   1
_chemical_formula_structural   MnNiH18C18(N3O)2
_chemical_formula_sum   'Mn1 Ni1 H18 C18 N6 O2'
_cell_volume   477.79919215
_cell_formula_units_Z   1
loop_
 _symmetry_equiv_pos_site_id
 _symmetry_equiv_pos_as_xyz
  1  'x, y, z'
loop_
 _atom_site_type_symbol
 _atom_site_label
 _atom_site_symmetry_multiplicity
 _atom_site_fract_x
 _atom_site_fract_y
 _atom_site_fract_z
 _atom_site_occupancy
  Mn  Mn0  1  0.50000000  0.49998000  0.00000000  1.0
  Ni  Ni1  1  0.99999000  0.50000000  0.49998000  1.0
  H  H2  1  0.18911000  0.86572000  0.44451000  1.0
  H  H3  1  0.81093000  0.13429000  0.55553000  1.0
  H  H4  1  0.21539000  0.16009000  0.90249000  1.0
  H  H5  1  0.78459000  0.83991000  0.09749000  1.0
  H  H6  1  0.49285000  0.88467000  0.04376000  1.0
  H  H7  1  0.50711000  0.11532000  0.95620000  1.0
  H  H8  1  0.40587000  0.16570000  0.20630000  1.0
  H  H9  1  0.59412000  0.83430000  0.79371000  1.0
  H  H10  1  0.25069000  0.15600000  0.41516000  1.0
  H  H11  1  0.74933000  0.84400000  0.58487000  1.0
  H  H12  1  0.10953000  0.24488000  0.12381000  1.0
  H  H13  1  0.89052000  0.75512000  0.87622000  1.0
  H  H14  1  0.04589000  0.37306000  0.01333000  1.0
  H  H15  1  0.95410000  0.62694000  0.98671000  1.0
  H  H16  1  0.40930000  0.53794000  0.34698000  1.0
  H  H17  1  0.59073000  0.46206000  0.65301000  1.0
  H  H18  1  0.20213000  0.56274000  0.36756000  1.0
  H  H19  1  0.79792000  0.43727000  0.63246000  1.0
  C  C20  1  0.27740000  0.54753000  0.27917000  1.0
  C  C21  1  0.72263000  0.45247000  0.72083000  1.0
  C  C22  1  0.91924000  0.23896000  0.33867000  1.0
  C  C23  1  0.08074000  0.76104000  0.66130000  1.0
  C  C24  1  0.25751000  0.87536000  0.35753000  1.0
  C  C25  1  0.74251000  0.12465000  0.64249000  1.0
  C  C26  1  0.42696000  0.88754000  0.13567000  1.0
  C  C27  1  0.57301000  0.11246000  0.86431000  1.0
  C  C28  1  0.31319000  0.72453000  0.26383000  1.0
  C  C29  1  0.68682000  0.27548000  0.73617000  1.0
  C  C30  1  0.18858000  0.47834000  0.65424000  1.0
  C  C31  1  0.81138000  0.52166000  0.34572000  1.0
  C  C32  1  0.37760000  0.04361000  0.22633000  1.0
  C  C33  1  0.62239000  0.95639000  0.77367000  1.0
  C  C34  1  0.29177000  0.03747000  0.34048000  1.0
  C  C35  1  0.70824000  0.96254000  0.65953000  1.0
  C  C36  1  0.16469000  0.35826000  0.09797000  1.0
  C  C37  1  0.83532000  0.64174000  0.90204000  1.0
  N  N38  1  0.30920000  0.46345000  0.75181000  1.0
  N  N39  1  0.69078000  0.53655000  0.24816000  1.0
  N  N40  1  0.87075000  0.07225000  0.23923000  1.0
  N  N41  1  0.12924000  0.92774000  0.76076000  1.0
  N  N42  1  0.39861000  0.73251000  0.15478000  1.0
  N  N43  1  0.60138000  0.26748000  0.84520000  1.0
  O  O44  1  0.27896000  0.30129000  0.00176000  1.0
  O  O45  1  0.72102000  0.69871000  0.99822000  1.0
