# generated using pymatgen
data_LiH7C8(ClO2)2
_symmetry_space_group_name_H-M   'P 1'
_cell_length_a   4.89212000
_cell_length_b   6.93896000
_cell_length_c   31.88220000
_cell_angle_alpha   86.40700000
_cell_angle_beta   89.99940000
_cell_angle_gamma   89.99850000
_symmetry_Int_Tables_number   1
_chemical_formula_structural   LiH7C8(ClO2)2
_chemical_formula_sum   'Li4 H28 C32 Cl8 O16'
_cell_volume   1080.15299556
_cell_formula_units_Z   4
loop_
 _symmetry_equiv_pos_site_id
 _symmetry_equiv_pos_as_xyz
  1  'x, y, z'
loop_
 _atom_site_type_symbol
 _atom_site_label
 _atom_site_symmetry_multiplicity
 _atom_site_fract_x
 _atom_site_fract_y
 _atom_site_fract_z
 _atom_site_occupancy
  Li  Li0  1  0.80706000  0.26296000  0.72206000  1.0
  Li  Li1  1  0.30706000  0.23702000  0.77794000  1.0
  Li  Li2  1  0.19293000  0.73701000  0.27794000  1.0
  Li  Li3  1  0.69293000  0.76297000  0.22206000  1.0
  H  H4  1  0.63762000  0.91671000  0.53632000  1.0
  H  H5  1  0.13766000  0.58333000  0.96368000  1.0
  H  H6  1  0.36236000  0.08331000  0.46367000  1.0
  H  H7  1  0.86237000  0.41669000  0.03632000  1.0
  H  H8  1  0.16842000  0.39778000  0.55648000  1.0
  H  H9  1  0.66846000  0.10225000  0.94351000  1.0
  H  H10  1  0.83156000  0.60222000  0.44353000  1.0
  H  H11  1  0.33153000  0.89776000  0.05648000  1.0
  H  H12  1  0.38516000  0.21340000  0.61595000  1.0
  H  H13  1  0.88516000  0.28664000  0.88404000  1.0
  H  H14  1  0.61483000  0.78657000  0.38405000  1.0
  H  H15  1  0.11480000  0.71340000  0.11595000  1.0
  H  H16  1  0.05253000  0.57526000  0.71380000  1.0
  H  H17  1  0.55254000  0.92472000  0.78620000  1.0
  H  H18  1  0.94750000  0.42469000  0.28620000  1.0
  H  H19  1  0.44748000  0.07529000  0.21380000  1.0
  H  H20  1  0.92532000  0.58306000  0.66927000  1.0
  H  H21  1  0.42532000  0.91691000  0.83073000  1.0
  H  H22  1  0.07469000  0.41692000  0.33073000  1.0
  H  H23  1  0.57472000  0.08305000  0.16927000  1.0
  H  H24  1  0.60214000  0.00808000  0.65350000  1.0
  H  H25  1  0.10213000  0.49194000  0.84649000  1.0
  H  H26  1  0.39788000  0.99189000  0.34649000  1.0
  H  H27  1  0.89788000  0.50809000  0.15351000  1.0
  H  H28  1  0.52548000  0.81443000  0.68976000  1.0
  H  H29  1  0.02546000  0.68558000  0.81023000  1.0
  H  H30  1  0.47450000  0.18556000  0.31024000  1.0
  H  H31  1  0.97455000  0.31443000  0.18977000  1.0
  C  C32  1  0.13912000  0.95697000  0.61033000  1.0
  C  C33  1  0.63914000  0.54305000  0.88966000  1.0
  C  C34  1  0.86085000  0.04299000  0.38967000  1.0
  C  C35  1  0.36087000  0.45699000  0.11033000  1.0
  C  C36  1  0.92735000  0.87738000  0.58691000  1.0
  C  C37  1  0.42733000  0.62266000  0.91309000  1.0
  C  C38  1  0.07265000  0.12261000  0.41309000  1.0
  C  C39  1  0.57267000  0.37739000  0.08691000  1.0
  C  C40  1  0.80180000  0.98176000  0.55360000  1.0
  C  C41  1  0.30182000  0.51828000  0.94640000  1.0
  C  C42  1  0.19819000  0.01826000  0.44640000  1.0
  C  C43  1  0.69820000  0.48175000  0.05360000  1.0
  C  C44  1  0.88902000  0.16976000  0.54305000  1.0
  C  C45  1  0.38906000  0.33026000  0.95694000  1.0
  C  C46  1  0.11097000  0.83023000  0.45695000  1.0
  C  C47  1  0.61097000  0.66977000  0.04306000  1.0
  C  C48  1  0.10076000  0.25159000  0.56510000  1.0
  C  C49  1  0.60077000  0.24844000  0.93489000  1.0
  C  C50  1  0.89926000  0.74840000  0.43491000  1.0
  C  C51  1  0.39923000  0.75159000  0.06510000  1.0
  C  C52  1  0.22278000  0.14600000  0.59871000  1.0
  C  C53  1  0.72279000  0.35404000  0.90128000  1.0
  C  C54  1  0.77721000  0.85398000  0.40129000  1.0
  C  C55  1  0.27721000  0.64600000  0.09871000  1.0
  C  C56  1  0.43271000  0.93350000  0.67033000  1.0
  C  C57  1  0.93269000  0.56652000  0.82966000  1.0
  C  C58  1  0.56727000  0.06647000  0.32967000  1.0
  C  C59  1  0.06732000  0.43349000  0.17034000  1.0
  C  C60  1  0.28478000  0.06962000  0.69894000  1.0
  C  C61  1  0.78480000  0.43037000  0.80106000  1.0
  C  C62  1  0.71517000  0.93037000  0.30106000  1.0
  C  C63  1  0.21523000  0.56962000  0.19894000  1.0
  Cl  Cl64  1  0.81678000  0.64374000  0.59948000  1.0
  Cl  Cl65  1  0.31679000  0.85631000  0.90052000  1.0
  Cl  Cl66  1  0.18317000  0.35625000  0.40052000  1.0
  Cl  Cl67  1  0.68322000  0.14372000  0.09948000  1.0
  Cl  Cl68  1  0.72261000  0.30419000  0.50313000  1.0
  Cl  Cl69  1  0.22263000  0.19583000  0.99687000  1.0
  Cl  Cl70  1  0.27738000  0.69584000  0.49688000  1.0
  Cl  Cl71  1  0.77737000  0.80419000  0.00313000  1.0
  O  O72  1  0.89964000  0.52733000  0.69799000  1.0
  O  O73  1  0.39964000  0.97265000  0.80201000  1.0
  O  O74  1  0.10039000  0.47264000  0.30201000  1.0
  O  O75  1  0.60041000  0.02735000  0.19800000  1.0
  O  O76  1  0.25079000  0.84313000  0.64221000  1.0
  O  O77  1  0.75077000  0.65691000  0.85778000  1.0
  O  O78  1  0.74920000  0.15684000  0.35778000  1.0
  O  O79  1  0.24923000  0.34313000  0.14222000  1.0
  O  O80  1  0.02837000  0.06536000  0.70010000  1.0
  O  O81  1  0.52834000  0.43461000  0.79991000  1.0
  O  O82  1  0.97164000  0.93462000  0.29990000  1.0
  O  O83  1  0.47165000  0.56536000  0.20010000  1.0
  O  O84  1  0.43706000  0.17540000  0.72073000  1.0
  O  O85  1  0.93706000  0.32460000  0.77927000  1.0
  O  O86  1  0.56291000  0.82460000  0.27927000  1.0
  O  O87  1  0.06291000  0.67538000  0.22074000  1.0
