# generated using pymatgen
data_NdH5C8NO7
_symmetry_space_group_name_H-M   'P 1'
_cell_length_a   7.40360000
_cell_length_b   10.49966688
_cell_length_c   14.95380000
_cell_angle_alpha   92.72984214
_cell_angle_beta   104.32690000
_cell_angle_gamma   110.63234248
_symmetry_Int_Tables_number   1
_chemical_formula_structural   NdH5C8NO7
_chemical_formula_sum   'Nd4 H20 C32 N4 O28'
_cell_volume   1042.33091473
_cell_formula_units_Z   4
loop_
 _symmetry_equiv_pos_site_id
 _symmetry_equiv_pos_as_xyz
  1  'x, y, z'
loop_
 _atom_site_type_symbol
 _atom_site_label
 _atom_site_symmetry_multiplicity
 _atom_site_fract_x
 _atom_site_fract_y
 _atom_site_fract_z
 _atom_site_occupancy
  Nd  Nd0  1  0.05067000  0.43050000  0.88201000  1.0
  Nd  Nd1  1  0.23816000  0.06970000  0.61799000  1.0
  Nd  Nd2  1  0.94932000  0.56949000  0.11798000  1.0
  Nd  Nd3  1  0.76185000  0.93031000  0.38201000  1.0
  H  H4  1  0.74219000  0.87647000  0.73835000  1.0
  H  H5  1  0.62732000  0.62377000  0.76156000  1.0
  H  H6  1  0.25782000  0.12352000  0.26165000  1.0
  H  H7  1  0.37269000  0.37624000  0.23845000  1.0
  H  H8  1  0.60977000  0.78092000  0.87363000  1.0
  H  H9  1  0.45490000  0.71928000  0.62632000  1.0
  H  H10  1  0.39024000  0.21907000  0.12638000  1.0
  H  H11  1  0.54510000  0.28073000  0.37369000  1.0
  H  H12  1  0.67323000  0.94413000  0.01398000  1.0
  H  H13  1  0.21481000  0.55595000  0.48600000  1.0
  H  H14  1  0.32678000  0.05587000  0.98602000  1.0
  H  H15  1  0.78518000  0.44405000  0.51401000  1.0
  H  H16  1  0.02071000  0.59330000  0.70304000  1.0
  H  H17  1  0.22409000  0.90674000  0.79700000  1.0
  H  H18  1  0.97928000  0.40669000  0.29696000  1.0
  H  H19  1  0.77591000  0.09327000  0.20299000  1.0
  H  H20  1  0.12143000  0.67739000  0.80635000  1.0
  H  H21  1  0.13761000  0.82273000  0.69367000  1.0
  H  H22  1  0.87854000  0.32260000  0.19364000  1.0
  H  H23  1  0.86240000  0.17728000  0.30633000  1.0
  C  C24  1  0.93888000  0.15431000  0.73166000  1.0
  C  C25  1  0.55342000  0.34601000  0.76819000  1.0
  C  C26  1  0.06110000  0.84568000  0.26834000  1.0
  C  C27  1  0.44657000  0.65399000  0.23182000  1.0
  C  C28  1  0.84968000  0.08499000  0.80564000  1.0
  C  C29  1  0.45922000  0.41523000  0.69430000  1.0
  C  C30  1  0.15031000  0.91500000  0.19436000  1.0
  C  C31  1  0.54077000  0.58478000  0.30570000  1.0
  C  C32  1  0.75715000  0.94264000  0.80025000  1.0
  C  C33  1  0.51419000  0.55758000  0.69969000  1.0
  C  C34  1  0.24285000  0.05735000  0.19975000  1.0
  C  C35  1  0.48581000  0.44243000  0.30032000  1.0
  C  C36  1  0.68790000  0.89083000  0.87485000  1.0
  C  C37  1  0.42206000  0.60938000  0.62511000  1.0
  C  C38  1  0.31211000  0.10916000  0.12515000  1.0
  C  C39  1  0.57794000  0.39063000  0.37490000  1.0
  C  C40  1  0.72008000  0.98190000  0.95357000  1.0
  C  C41  1  0.28443000  0.51825000  0.54642000  1.0
  C  C42  1  0.27992000  0.01809000  0.04643000  1.0
  C  C43  1  0.71557000  0.48176000  0.45359000  1.0
  C  C44  1  0.81527000  0.12292000  0.95360000  1.0
  C  C45  1  0.23866000  0.37721000  0.54641000  1.0
  C  C46  1  0.18473000  0.87707000  0.04639000  1.0
  C  C47  1  0.76135000  0.62280000  0.45360000  1.0
  C  C48  1  0.86352000  0.23022000  0.03560000  1.0
  C  C49  1  0.09748000  0.26986000  0.46445000  1.0
  C  C50  1  0.13648000  0.76977000  0.96440000  1.0
  C  C51  1  0.90253000  0.73015000  0.53555000  1.0
  C  C52  1  0.47096000  0.42463000  0.01018000  1.0
  C  C53  1  0.53583000  0.07527000  0.48962000  1.0
  C  C54  1  0.52903000  0.57536000  0.98981000  1.0
  C  C55  1  0.46419000  0.92473000  0.51038000  1.0
  N  N56  1  0.87393000  0.17191000  0.88008000  1.0
  N  N57  1  0.32204000  0.32825000  0.61990000  1.0
  N  N58  1  0.12607000  0.82808000  0.11991000  1.0
  N  N59  1  0.67795000  0.67175000  0.38011000  1.0
  O  O60  1  0.00216000  0.28534000  0.74209000  1.0
  O  O61  1  0.47540000  0.21497000  0.75775000  1.0
  O  O62  1  0.99780000  0.71465000  0.25789000  1.0
  O  O63  1  0.52461000  0.78504000  0.24226000  1.0
  O  O64  1  0.95092000  0.07892000  0.66652000  1.0
  O  O65  1  0.70599000  0.42144000  0.83326000  1.0
  O  O66  1  0.04907000  0.92107000  0.33347000  1.0
  O  O67  1  0.29400000  0.57856000  0.16675000  1.0
  O  O68  1  0.93825000  0.35733000  0.02320000  1.0
  O  O69  1  0.05750000  0.14276000  0.47686000  1.0
  O  O70  1  0.06176000  0.64267000  0.97680000  1.0
  O  O71  1  0.94252000  0.85726000  0.52314000  1.0
  O  O72  1  0.83174000  0.19232000  0.11049000  1.0
  O  O73  1  0.02863000  0.30772000  0.38955000  1.0
  O  O74  1  0.16825000  0.80768000  0.88951000  1.0
  O  O75  1  0.97137000  0.69229000  0.61045000  1.0
  O  O76  1  0.29620000  0.34014000  0.96680000  1.0
  O  O77  1  0.48880000  0.15983000  0.53289000  1.0
  O  O78  1  0.70380000  0.65985000  0.03319000  1.0
  O  O79  1  0.51123000  0.84018000  0.46711000  1.0
  O  O80  1  0.60314000  0.39820000  0.06916000  1.0
  O  O81  1  0.63512000  0.10152000  0.43049000  1.0
  O  O82  1  0.39685000  0.60179000  0.93083000  1.0
  O  O83  1  0.36490000  0.89849000  0.56951000  1.0
  O  O84  1  0.08699000  0.58727000  0.76731000  1.0
  O  O85  1  0.23197000  0.91291000  0.73272000  1.0
  O  O86  1  0.91300000  0.41272000  0.23268000  1.0
  O  O87  1  0.76804000  0.08710000  0.26728000  1.0
