# generated using pymatgen
data_SrH22C16(N2O5)2
_symmetry_space_group_name_H-M   'P 1'
_cell_length_a   9.25461000
_cell_length_b   9.25455000
_cell_length_c   11.57650000
_cell_angle_alpha   96.65140000
_cell_angle_beta   96.65170000
_cell_angle_gamma   90.32410000
_symmetry_Int_Tables_number   1
_chemical_formula_structural   SrH22C16(N2O5)2
_chemical_formula_sum   'Sr2 H44 C32 N8 O20'
_cell_volume   978.00989808
_cell_formula_units_Z   2
loop_
 _symmetry_equiv_pos_site_id
 _symmetry_equiv_pos_as_xyz
  1  'x, y, z'
loop_
 _atom_site_type_symbol
 _atom_site_label
 _atom_site_symmetry_multiplicity
 _atom_site_fract_x
 _atom_site_fract_y
 _atom_site_fract_z
 _atom_site_occupancy
  Sr  Sr0  1  0.92168000  0.07832000  0.25000000  1.0
  Sr  Sr1  1  0.07832000  0.92168000  0.75000000  1.0
  H  H2  1  0.16447000  0.55362000  0.07184000  1.0
  H  H3  1  0.44638000  0.83552000  0.42817000  1.0
  H  H4  1  0.83553000  0.44638000  0.92816000  1.0
  H  H5  1  0.55362000  0.16448000  0.57183000  1.0
  H  H6  1  0.85709000  0.95653000  0.97980000  1.0
  H  H7  1  0.04346000  0.14292000  0.52021000  1.0
  H  H8  1  0.14291000  0.04346000  0.02020000  1.0
  H  H9  1  0.95654000  0.85708000  0.47979000  1.0
  H  H10  1  0.84484000  0.12548000  0.97968000  1.0
  H  H11  1  0.87452000  0.15515000  0.52032000  1.0
  H  H12  1  0.15516000  0.87452000  0.02032000  1.0
  H  H13  1  0.12549000  0.84485000  0.47968000  1.0
  H  H14  1  0.83695000  0.71065000  0.30601000  1.0
  H  H15  1  0.28935000  0.16305000  0.19399000  1.0
  H  H16  1  0.16305000  0.28935000  0.69399000  1.0
  H  H17  1  0.71065000  0.83695000  0.80600000  1.0
  H  H18  1  0.69338000  0.35089000  0.38684000  1.0
  H  H19  1  0.64911000  0.30662000  0.11316000  1.0
  H  H20  1  0.30662000  0.64911000  0.61316000  1.0
  H  H21  1  0.35089000  0.69338000  0.88684000  1.0
  H  H22  1  0.63149000  0.52924000  0.36977000  1.0
  H  H23  1  0.47076000  0.36850000  0.13023000  1.0
  H  H24  1  0.36851000  0.47076000  0.63023000  1.0
  H  H25  1  0.52924000  0.63150000  0.86977000  1.0
  H  H26  1  0.87815000  0.44661000  0.54811000  1.0
  H  H27  1  0.55339000  0.12185000  0.95189000  1.0
  H  H28  1  0.12185000  0.55339000  0.45189000  1.0
  H  H29  1  0.44661000  0.87815000  0.04811000  1.0
  H  H30  1  0.83928000  0.62807000  0.52459000  1.0
  H  H31  1  0.37194000  0.16071000  0.97541000  1.0
  H  H32  1  0.16071000  0.37194000  0.47541000  1.0
  H  H33  1  0.62807000  0.83929000  0.02459000  1.0
  H  H34  1  0.58903000  0.60192000  0.57921000  1.0
  H  H35  1  0.39808000  0.41097000  0.92078000  1.0
  H  H36  1  0.41097000  0.39808000  0.42079000  1.0
  H  H37  1  0.60192000  0.58903000  0.07922000  1.0
  H  H38  1  0.71790000  0.55601000  0.69410000  1.0
  H  H39  1  0.44399000  0.28210000  0.80590000  1.0
  H  H40  1  0.28210000  0.44399000  0.30590000  1.0
  H  H41  1  0.55601000  0.71790000  0.19410000  1.0
  H  H42  1  0.61952000  0.41645000  0.59997000  1.0
  H  H43  1  0.58355000  0.38048000  0.90003000  1.0
  H  H44  1  0.38048000  0.58355000  0.40003000  1.0
  H  H45  1  0.41645000  0.61953000  0.09997000  1.0
  C  C46  1  0.99849000  0.43489000  0.18979000  1.0
  C  C47  1  0.56511000  0.00152000  0.31022000  1.0
  C  C48  1  0.00151000  0.56511000  0.81021000  1.0
  C  C49  1  0.43489000  0.99849000  0.68979000  1.0
  C  C50  1  0.97719000  0.58491000  0.20022000  1.0
  C  C51  1  0.41509000  0.02281000  0.29978000  1.0
  C  C52  1  0.02281000  0.41509000  0.79978000  1.0
  C  C53  1  0.58491000  0.97719000  0.70022000  1.0
  C  C54  1  0.83419000  0.47926000  0.30865000  1.0
  C  C55  1  0.52074000  0.16581000  0.19135000  1.0
  C  C56  1  0.16581000  0.52074000  0.69135000  1.0
  C  C57  1  0.47926000  0.83419000  0.80865000  1.0
  C  C58  1  0.10466000  0.34775000  0.12678000  1.0
  C  C59  1  0.65225000  0.89534000  0.37322000  1.0
  C  C60  1  0.89534000  0.65225000  0.87322000  1.0
  C  C61  1  0.34775000  0.10466000  0.62678000  1.0
  C  C62  1  0.03588000  0.70376000  0.14524000  1.0
  C  C63  1  0.29624000  0.96412000  0.35477000  1.0
  C  C64  1  0.96413000  0.29623000  0.85477000  1.0
  C  C65  1  0.70376000  0.03588000  0.64523000  1.0
  C  C66  1  0.72798000  0.46558000  0.39385000  1.0
  C  C67  1  0.53442000  0.27202000  0.10615000  1.0
  C  C68  1  0.27202000  0.53442000  0.60615000  1.0
  C  C69  1  0.46558000  0.72798000  0.89385000  1.0
  C  C70  1  0.79016000  0.51908000  0.52099000  1.0
  C  C71  1  0.48092000  0.20983000  0.97901000  1.0
  C  C72  1  0.20983000  0.48092000  0.47901000  1.0
  C  C73  1  0.51908000  0.79017000  0.02099000  1.0
  C  C74  1  0.67248000  0.52345000  0.60302000  1.0
  C  C75  1  0.47655000  0.32752000  0.89698000  1.0
  C  C76  1  0.32752000  0.47655000  0.39698000  1.0
  C  C77  1  0.52345000  0.67248000  0.10302000  1.0
  N  N78  1  0.90812000  0.37131000  0.25649000  1.0
  N  N79  1  0.62869000  0.09188000  0.24351000  1.0
  N  N80  1  0.09188000  0.62869000  0.74351000  1.0
  N  N81  1  0.37131000  0.90812000  0.75649000  1.0
  N  N82  1  0.87335000  0.60887000  0.27558000  1.0
  N  N83  1  0.39113000  0.12665000  0.22443000  1.0
  N  N84  1  0.12665000  0.39113000  0.72442000  1.0
  N  N85  1  0.60887000  0.87335000  0.77557000  1.0
  O  O86  1  0.11149000  0.21251000  0.13797000  1.0
  O  O87  1  0.78750000  0.88850000  0.36203000  1.0
  O  O88  1  0.88851000  0.78749000  0.86203000  1.0
  O  O89  1  0.21250000  0.11150000  0.63797000  1.0
  O  O90  1  0.18835000  0.41232000  0.06727000  1.0
  O  O91  1  0.58769000  0.81165000  0.43273000  1.0
  O  O92  1  0.81165000  0.58768000  0.93274000  1.0
  O  O93  1  0.41231000  0.18835000  0.56727000  1.0
  O  O94  1  0.13970000  0.67302000  0.07815000  1.0
  O  O95  1  0.32698000  0.86030000  0.42185000  1.0
  O  O96  1  0.86030000  0.32697000  0.92185000  1.0
  O  O97  1  0.67302000  0.13970000  0.57815000  1.0
  O  O98  1  0.98750000  0.82879000  0.16046000  1.0
  O  O99  1  0.17121000  0.01249000  0.33954000  1.0
  O  O100  1  0.01250000  0.17121000  0.83955000  1.0
  O  O101  1  0.82879000  0.98750000  0.66045000  1.0
  O  O102  1  0.82682000  0.04543000  0.02499000  1.0
  O  O103  1  0.95456000  0.17318000  0.47501000  1.0
  O  O104  1  0.17318000  0.95456000  0.97501000  1.0
  O  O105  1  0.04544000  0.82682000  0.52499000  1.0
