# generated using pymatgen
data_Cd3H54C52(N5O6)2
_symmetry_space_group_name_H-M   'P 1'
_cell_length_a   10.88710000
_cell_length_b   14.28260000
_cell_length_c   28.89490000
_cell_angle_alpha   92.08240000
_cell_angle_beta   90.01620000
_cell_angle_gamma   112.39100000
_symmetry_Int_Tables_number   1
_chemical_formula_structural   Cd3H54C52(N5O6)2
_chemical_formula_sum   'Cd6 H108 C104 N20 O24'
_cell_volume   4151.06644498
_cell_formula_units_Z   2
loop_
 _symmetry_equiv_pos_site_id
 _symmetry_equiv_pos_as_xyz
  1  'x, y, z'
loop_
 _atom_site_type_symbol
 _atom_site_label
 _atom_site_symmetry_multiplicity
 _atom_site_fract_x
 _atom_site_fract_y
 _atom_site_fract_z
 _atom_site_occupancy
  Cd  Cd0  1  0.57510000  0.63786000  0.54364000  1.0
  Cd  Cd1  1  0.93698000  0.36189000  0.95640000  1.0
  Cd  Cd2  1  0.42490000  0.36214000  0.45635000  1.0
  Cd  Cd3  1  0.06303000  0.63811000  0.04360000  1.0
  Cd  Cd4  1  0.25475000  0.00033000  0.25005000  1.0
  Cd  Cd5  1  0.74526000  0.99968000  0.74994000  1.0
  H  H6  1  0.48580000  0.52502000  0.64172000  1.0
  H  H7  1  0.96013000  0.47478000  0.85830000  1.0
  H  H8  1  0.51420000  0.47498000  0.35828000  1.0
  H  H9  1  0.03987000  0.52522000  0.14170000  1.0
  H  H10  1  0.32488000  0.43034000  0.63227000  1.0
  H  H11  1  0.89383000  0.56942000  0.86780000  1.0
  H  H12  1  0.67513000  0.56965000  0.36773000  1.0
  H  H13  1  0.10617000  0.43058000  0.13219000  1.0
  H  H14  1  0.24951000  0.55236000  0.59456000  1.0
  H  H15  1  0.69664000  0.44728000  0.90556000  1.0
  H  H16  1  0.75049000  0.44764000  0.40544000  1.0
  H  H17  1  0.30337000  0.55272000  0.09444000  1.0
  H  H18  1  0.29524000  0.58615000  0.65347000  1.0
  H  H19  1  0.70841000  0.41370000  0.84661000  1.0
  H  H20  1  0.70476000  0.41385000  0.34654000  1.0
  H  H21  1  0.29159000  0.58630000  0.15338000  1.0
  H  H22  1  0.30754000  0.69081000  0.54902000  1.0
  H  H23  1  0.61640000  0.30860000  0.95096000  1.0
  H  H24  1  0.69245000  0.30918000  0.45098000  1.0
  H  H25  1  0.38361000  0.69141000  0.04904000  1.0
  H  H26  1  0.43188000  0.80625000  0.56824000  1.0
  H  H27  1  0.62543000  0.19324000  0.93162000  1.0
  H  H28  1  0.56811000  0.19375000  0.43176000  1.0
  H  H29  1  0.37457000  0.80676000  0.06838000  1.0
  H  H30  1  0.09063000  0.62938000  0.57936000  1.0
  H  H31  1  0.46083000  0.37022000  0.92059000  1.0
  H  H32  1  0.90937000  0.37061000  0.42064000  1.0
  H  H33  1  0.53919000  0.62979000  0.07941000  1.0
  H  H34  1  0.91883000  0.65628000  0.62585000  1.0
  H  H35  1  0.26202000  0.34323000  0.87414000  1.0
  H  H36  1  0.08117000  0.34371000  0.37415000  1.0
  H  H37  1  0.73799000  0.65678000  0.12586000  1.0
  H  H38  1  0.83584000  0.65346000  0.70608000  1.0
  H  H39  1  0.18111000  0.34609000  0.79419000  1.0
  H  H40  1  0.16415000  0.34654000  0.29393000  1.0
  H  H41  1  0.81889000  0.65392000  0.20582000  1.0
  H  H42  1  0.68940000  0.75334000  0.75153000  1.0
  H  H43  1  0.93503000  0.24600000  0.74858000  1.0
  H  H44  1  0.31060000  0.24667000  0.24847000  1.0
  H  H45  1  0.06497000  0.75402000  0.25143000  1.0
  H  H46  1  0.02110000  0.96948000  0.68913000  1.0
  H  H47  1  0.05183000  0.02995000  0.81054000  1.0
  H  H48  1  0.97890000  0.03052000  0.31087000  1.0
  H  H49  1  0.94816000  0.97006000  0.18946000  1.0
  H  H50  1  0.22032000  0.91879000  0.69417000  1.0
  H  H51  1  0.30100000  0.08067000  0.80585000  1.0
  H  H52  1  0.77967000  0.08121000  0.30583000  1.0
  H  H53  1  0.69898000  0.91932000  0.19416000  1.0
  H  H54  1  0.39184000  0.89122000  0.64665000  1.0
  H  H55  1  0.50021000  0.10831000  0.85334000  1.0
  H  H56  1  0.60815000  0.10878000  0.35335000  1.0
  H  H57  1  0.49978000  0.89168000  0.14666000  1.0
  H  H58  1  0.54940000  0.68526000  0.65980000  1.0
  H  H59  1  0.86374000  0.31477000  0.84013000  1.0
  H  H60  1  0.45060000  0.31474000  0.34020000  1.0
  H  H61  1  0.13625000  0.68522000  0.15986000  1.0
  H  H62  1  0.47871000  0.77777000  0.66406000  1.0
  H  H63  1  0.70071000  0.22211000  0.83582000  1.0
  H  H64  1  0.52129000  0.22224000  0.33593000  1.0
  H  H65  1  0.29928000  0.77788000  0.16418000  1.0
  H  H66  1  0.62409000  0.86427000  0.59573000  1.0
  H  H67  1  0.75990000  0.13552000  0.90407000  1.0
  H  H68  1  0.37591000  0.13573000  0.40427000  1.0
  H  H69  1  0.24010000  0.86448000  0.09594000  1.0
  H  H70  1  0.70822000  0.86495000  0.64791000  1.0
  H  H71  1  0.84353000  0.13518000  0.85191000  1.0
  H  H72  1  0.29178000  0.13505000  0.35208000  1.0
  H  H73  1  0.15646000  0.86482000  0.14809000  1.0
  H  H74  1  0.93851000  0.62429000  0.45744000  1.0
  H  H75  1  0.31423000  0.37598000  0.04263000  1.0
  H  H76  1  0.06148000  0.37571000  0.54256000  1.0
  H  H77  1  0.68577000  0.62402000  0.95738000  1.0
  H  H78  1  0.12060000  0.57117000  0.42832000  1.0
  H  H79  1  0.54938000  0.42917000  0.07182000  1.0
  H  H80  1  0.87939000  0.42882000  0.57168000  1.0
  H  H81  1  0.45062000  0.57084000  0.92819000  1.0
  H  H82  1  0.35334000  0.64093000  0.40115000  1.0
  H  H83  1  0.71209000  0.35911000  0.09875000  1.0
  H  H84  1  0.64666000  0.35907000  0.59884000  1.0
  H  H85  1  0.28792000  0.64089000  0.90125000  1.0
  H  H86  1  0.28221000  0.71620000  0.33367000  1.0
  H  H87  1  0.56545000  0.28404000  0.16618000  1.0
  H  H88  1  0.71779000  0.28380000  0.66633000  1.0
  H  H89  1  0.43457000  0.71597000  0.83382000  1.0
  H  H90  1  0.46744000  0.01248000  0.39837000  1.0
  H  H91  1  0.45434000  0.98763000  0.10162000  1.0
  H  H92  1  0.53255000  0.98752000  0.60163000  1.0
  H  H93  1  0.54567000  0.01237000  0.89838000  1.0
  H  H94  1  0.54508000  0.93847000  0.46446000  1.0
  H  H95  1  0.60637000  0.06143000  0.03560000  1.0
  H  H96  1  0.45490000  0.06154000  0.53554000  1.0
  H  H97  1  0.39363000  0.93858000  0.96439000  1.0
  H  H98  1  0.35937000  0.45215000  0.54930000  1.0
  H  H99  1  0.90686000  0.54759000  0.95076000  1.0
  H  H100  1  0.64063000  0.54785000  0.45070000  1.0
  H  H101  1  0.09314000  0.45241000  0.04923000  1.0
  H  H102  1  0.49371000  0.43982000  0.56983000  1.0
  H  H103  1  0.05342000  0.55994000  0.93017000  1.0
  H  H104  1  0.50629000  0.56019000  0.43017000  1.0
  H  H105  1  0.94658000  0.44006000  0.06983000  1.0
  H  H106  1  0.77054000  0.73294000  0.61330000  1.0
  H  H107  1  0.03751000  0.26731000  0.88667000  1.0
  H  H108  1  0.22946000  0.26706000  0.38669000  1.0
  H  H109  1  0.96249000  0.73269000  0.11332000  1.0
  H  H110  1  0.78859000  0.81259000  0.57130000  1.0
  H  H111  1  0.97605000  0.18741000  0.92857000  1.0
  H  H112  1  0.21141000  0.18741000  0.42870000  1.0
  H  H113  1  0.02396000  0.81259000  0.07142000  1.0
  C  C114  1  0.39804000  0.50062000  0.61852000  1.0
  C  C115  1  0.89682000  0.49914000  0.88153000  1.0
  C  C116  1  0.60196000  0.49938000  0.38147000  1.0
  C  C117  1  0.10319000  0.50085000  0.11847000  1.0
  C  C118  1  0.33498000  0.57984000  0.61878000  1.0
  C  C119  1  0.75457000  0.41987000  0.88128000  1.0
  C  C120  1  0.66502000  0.42016000  0.38122000  1.0
  C  C121  1  0.24543000  0.58013000  0.11872000  1.0
  C  C122  1  0.35638000  0.73588000  0.58028000  1.0
  C  C123  1  0.62017000  0.26366000  0.91966000  1.0
  C  C124  1  0.64362000  0.26412000  0.41972000  1.0
  C  C125  1  0.37983000  0.73634000  0.08034000  1.0
  C  C126  1  0.25411000  0.75718000  0.60948000  1.0
  C  C127  1  0.49656000  0.24238000  0.89049000  1.0
  C  C128  1  0.74588000  0.24281000  0.39052000  1.0
  C  C129  1  0.50344000  0.75762000  0.10951000  1.0
  C  C130  1  0.12018000  0.69244000  0.60486000  1.0
  C  C131  1  0.42732000  0.30713000  0.89510000  1.0
  C  C132  1  0.87981000  0.30755000  0.39514000  1.0
  C  C133  1  0.57269000  0.69288000  0.10490000  1.0
  C  C134  1  0.02224000  0.70773000  0.63138000  1.0
  C  C135  1  0.31403000  0.29181000  0.86859000  1.0
  C  C136  1  0.97775000  0.29226000  0.36862000  1.0
  C  C137  1  0.68598000  0.70820000  0.13141000  1.0
  C  C138  1  0.05903000  0.79002000  0.66324000  1.0
  C  C139  1  0.26848000  0.20949000  0.83675000  1.0
  C  C140  1  0.94097000  0.20997000  0.33677000  1.0
  C  C141  1  0.73152000  0.79051000  0.16325000  1.0
  C  C142  1  0.84994000  0.73266000  0.70927000  1.0
  C  C143  1  0.11635000  0.26682000  0.79086000  1.0
  C  C144  1  0.15005000  0.26734000  0.29073000  1.0
  C  C145  1  0.88364000  0.73318000  0.20915000  1.0
  C  C146  1  0.77950000  0.78235000  0.73152000  1.0
  C  C147  1  0.99637000  0.21705000  0.76852000  1.0
  C  C148  1  0.22051000  0.21766000  0.26848000  1.0
  C  C149  1  0.00364000  0.78296000  0.23148000  1.0
  C  C150  1  0.95038000  0.89807000  0.70096000  1.0
  C  C151  1  0.05214000  0.10135000  0.79886000  1.0
  C  C152  1  0.04962000  0.10193000  0.29904000  1.0
  C  C153  1  0.94786000  0.89865000  0.20115000  1.0
  C  C154  1  0.19190000  0.85573000  0.66868000  1.0
  C  C155  1  0.33566000  0.14376000  0.83133000  1.0
  C  C156  1  0.80809000  0.14426000  0.33132000  1.0
  C  C157  1  0.66432000  0.85624000  0.16867000  1.0
  C  C158  1  0.28864000  0.83927000  0.64178000  1.0
  C  C159  1  0.44893000  0.16025000  0.85822000  1.0
  C  C160  1  0.71135000  0.16072000  0.35822000  1.0
  C  C161  1  0.55106000  0.83975000  0.14178000  1.0
  C  C162  1  0.52227000  0.73845000  0.63952000  1.0
  C  C163  1  0.78356000  0.26145000  0.86040000  1.0
  C  C164  1  0.47773000  0.26155000  0.36048000  1.0
  C  C165  1  0.21643000  0.73854000  0.13960000  1.0
  C  C166  1  0.64862000  0.81556000  0.61950000  1.0
  C  C167  1  0.83312000  0.18442000  0.88036000  1.0
  C  C168  1  0.35138000  0.18445000  0.38050000  1.0
  C  C169  1  0.16688000  0.81558000  0.11964000  1.0
  C  C170  1  0.79154000  0.56370000  0.53467000  1.0
  C  C171  1  0.22788000  0.43627000  0.96525000  1.0
  C  C172  1  0.20846000  0.43630000  0.46533000  1.0
  C  C173  1  0.77212000  0.56373000  0.03476000  1.0
  C  C174  1  0.89760000  0.52943000  0.51625000  1.0
  C  C175  1  0.36819000  0.47054000  0.98372000  1.0
  C  C176  1  0.10239000  0.47056000  0.48375000  1.0
  C  C177  1  0.63182000  0.52946000  0.01629000  1.0
  C  C178  1  0.96572000  0.56943000  0.47575000  1.0
  C  C179  1  0.39629000  0.43075000  0.02430000  1.0
  C  C180  1  0.03427000  0.43057000  0.52425000  1.0
  C  C181  1  0.60372000  0.56925000  0.97572000  1.0
  C  C182  1  0.06720000  0.54042000  0.45969000  1.0
  C  C183  1  0.52676000  0.45975000  0.04038000  1.0
  C  C184  1  0.93279000  0.45957000  0.54030000  1.0
  C  C185  1  0.47325000  0.54025000  0.95964000  1.0
  C  C186  1  0.50459000  0.74371000  0.47571000  1.0
  C  C187  1  0.76092000  0.25618000  0.02436000  1.0
  C  C188  1  0.49540000  0.25629000  0.52429000  1.0
  C  C189  1  0.23908000  0.74382000  0.97563000  1.0
  C  C190  1  0.45583000  0.78604000  0.43619000  1.0
  C  C191  1  0.66960000  0.21391000  0.06381000  1.0
  C  C192  1  0.54417000  0.21396000  0.56381000  1.0
  C  C193  1  0.33041000  0.78609000  0.93618000  1.0
  C  C194  1  0.38016000  0.72259000  0.39973000  1.0
  C  C195  1  0.65722000  0.27747000  0.10020000  1.0
  C  C196  1  0.61984000  0.27741000  0.60027000  1.0
  C  C197  1  0.34278000  0.72253000  0.89980000  1.0
  C  C198  1  0.33983000  0.76400000  0.36256000  1.0
  C  C199  1  0.57531000  0.23618000  0.13733000  1.0
  C  C200  1  0.66017000  0.23600000  0.63744000  1.0
  C  C201  1  0.42469000  0.76382000  0.86267000  1.0
  C  C202  1  0.37311000  0.86898000  0.36154000  1.0
  C  C203  1  0.50366000  0.13122000  0.13838000  1.0
  C  C204  1  0.62689000  0.13102000  0.63846000  1.0
  C  C205  1  0.49635000  0.86878000  0.86161000  1.0
  C  C206  1  0.33255000  0.91365000  0.32108000  1.0
  C  C207  1  0.41862000  0.08664000  0.17889000  1.0
  C  C208  1  0.66745000  0.08635000  0.67892000  1.0
  C  C209  1  0.58138000  0.91337000  0.82111000  1.0
  C  C210  1  0.44503000  0.93153000  0.39880000  1.0
  C  C211  1  0.51303000  0.06857000  0.10118000  1.0
  C  C212  1  0.55496000  0.06847000  0.60120000  1.0
  C  C213  1  0.48697000  0.93143000  0.89882000  1.0
  C  C214  1  0.48708000  0.89067000  0.43563000  1.0
  C  C215  1  0.59613000  0.10930000  0.06439000  1.0
  C  C216  1  0.51292000  0.10933000  0.56436000  1.0
  C  C217  1  0.40388000  0.89071000  0.93560000  1.0
  N  N218  1  0.43964000  0.48503000  0.57167000  1.0
  N  N219  1  0.95418000  0.51470000  0.92837000  1.0
  N  N220  1  0.56036000  0.51497000  0.42833000  1.0
  N  N221  1  0.04583000  0.48530000  0.07162000  1.0
  N  N222  1  0.72143000  0.76416000  0.59265000  1.0
  N  N223  1  0.95717000  0.23587000  0.90727000  1.0
  N  N224  1  0.27857000  0.23584000  0.40735000  1.0
  N  N225  1  0.04284000  0.76414000  0.09273000  1.0
  N  N226  1  0.42652000  0.67880000  0.60325000  1.0
  N  N227  1  0.74734000  0.32090000  0.89670000  1.0
  N  N228  1  0.57347000  0.32120000  0.39675000  1.0
  N  N229  1  0.25267000  0.67910000  0.10329000  1.0
  N  N230  1  0.95891000  0.80695000  0.69011000  1.0
  N  N231  1  0.15141000  0.19254000  0.80987000  1.0
  N  N232  1  0.04108000  0.19304000  0.30989000  1.0
  N  N233  1  0.84858000  0.80746000  0.19014000  1.0
  N  N234  1  0.84298000  0.88530000  0.72593000  1.0
  N  N235  1  0.95736000  0.11406000  0.77392000  1.0
  N  N236  1  0.15703000  0.11470000  0.27406000  1.0
  N  N237  1  0.04264000  0.88596000  0.22608000  1.0
  O  O238  1  0.45961000  0.64634000  0.47794000  1.0
  O  O239  1  0.81347000  0.35356000  0.02217000  1.0
  O  O240  1  0.54040000  0.35367000  0.52206000  1.0
  O  O241  1  0.18652000  0.64645000  0.97783000  1.0
  O  O242  1  0.58602000  0.80316000  0.50499000  1.0
  O  O243  1  0.78293000  0.19670000  0.99511000  1.0
  O  O244  1  0.41397000  0.19684000  0.49501000  1.0
  O  O245  1  0.21709000  0.80331000  0.00489000  1.0
  O  O246  1  0.73920000  0.60419000  0.50514000  1.0
  O  O247  1  0.13504000  0.39588000  0.99477000  1.0
  O  O248  1  0.26079000  0.39580000  0.49486000  1.0
  O  O249  1  0.86496000  0.60411000  0.00523000  1.0
  O  O250  1  0.76139000  0.55400000  0.57681000  1.0
  O  O251  1  0.20752000  0.44585000  0.92309000  1.0
  O  O252  1  0.23861000  0.44599000  0.42319000  1.0
  O  O253  1  0.79250000  0.55416000  0.07691000  1.0
  O  O254  1  0.37805000  0.01045000  0.31853000  1.0
  O  O255  1  0.36744000  0.98985000  0.18150000  1.0
  O  O256  1  0.62195000  0.98955000  0.68147000  1.0
  O  O257  1  0.63257000  0.01015000  0.81850000  1.0
  O  O258  1  0.25417000  0.85486000  0.29027000  1.0
  O  O259  1  0.39908000  0.14552000  0.20967000  1.0
  O  O260  1  0.74583000  0.14514000  0.70972000  1.0
  O  O261  1  0.60092000  0.85449000  0.79033000  1.0
