# generated using pymatgen
data_CuH15C15NO4
_symmetry_space_group_name_H-M   'P 1'
_cell_length_a   4.83608000
_cell_length_b   11.41890000
_cell_length_c   24.63050000
_cell_angle_alpha   90.00060000
_cell_angle_beta   90.00090000
_cell_angle_gamma   86.28870000
_symmetry_Int_Tables_number   1
_chemical_formula_structural   CuH15C15NO4
_chemical_formula_sum   'Cu4 H60 C60 N4 O16'
_cell_volume   1357.31061829
_cell_formula_units_Z   4
loop_
 _symmetry_equiv_pos_site_id
 _symmetry_equiv_pos_as_xyz
  1  'x, y, z'
loop_
 _atom_site_type_symbol
 _atom_site_label
 _atom_site_symmetry_multiplicity
 _atom_site_fract_x
 _atom_site_fract_y
 _atom_site_fract_z
 _atom_site_occupancy
  Cu  Cu0  1  0.00161000  0.36815000  0.98566000  1.0
  Cu  Cu1  1  0.49839000  0.13186000  0.48567000  1.0
  Cu  Cu2  1  0.99838000  0.63187000  0.01434000  1.0
  Cu  Cu3  1  0.50163000  0.86813000  0.51434000  1.0
  H  H4  1  0.28937000  0.13996000  0.98572000  1.0
  H  H5  1  0.21064000  0.36006000  0.48572000  1.0
  H  H6  1  0.71061000  0.86007000  0.01429000  1.0
  H  H7  1  0.78940000  0.63993000  0.51428000  1.0
  H  H8  1  0.30767000  0.95846000  0.04413000  1.0
  H  H9  1  0.19235000  0.54155000  0.54413000  1.0
  H  H10  1  0.69235000  0.04155000  0.95587000  1.0
  H  H11  1  0.80767000  0.45845000  0.45586000  1.0
  H  H12  1  0.02101000  0.96116000  0.12874000  1.0
  H  H13  1  0.47895000  0.53883000  0.62874000  1.0
  H  H14  1  0.97904000  0.03882000  0.87127000  1.0
  H  H15  1  0.52104000  0.46118000  0.37125000  1.0
  H  H16  1  0.72838000  0.14496000  0.15189000  1.0
  H  H17  1  0.77157000  0.35504000  0.65192000  1.0
  H  H18  1  0.27166000  0.85503000  0.84810000  1.0
  H  H19  1  0.22844000  0.64498000  0.34808000  1.0
  H  H20  1  0.59257000  0.34466000  0.13254000  1.0
  H  H21  1  0.90743000  0.15535000  0.63255000  1.0
  H  H22  1  0.40745000  0.65532000  0.86746000  1.0
  H  H23  1  0.09258000  0.84466000  0.36745000  1.0
  H  H24  1  0.55142000  0.37688000  0.06195000  1.0
  H  H25  1  0.94859000  0.12314000  0.56196000  1.0
  H  H26  1  0.44857000  0.62312000  0.93806000  1.0
  H  H27  1  0.05140000  0.87686000  0.43804000  1.0
  H  H28  1  0.79321000  0.52987000  0.11461000  1.0
  H  H29  1  0.70675000  0.97016000  0.61463000  1.0
  H  H30  1  0.20679000  0.47014000  0.88540000  1.0
  H  H31  1  0.29325000  0.02985000  0.38538000  1.0
  H  H32  1  0.07144000  0.42425000  0.12819000  1.0
  H  H33  1  0.42851000  0.07575000  0.62819000  1.0
  H  H34  1  0.92856000  0.57574000  0.87181000  1.0
  H  H35  1  0.57148000  0.92425000  0.37182000  1.0
  H  H36  1  0.35056000  0.16381000  0.88270000  1.0
  H  H37  1  0.14944000  0.33617000  0.38270000  1.0
  H  H38  1  0.64948000  0.83618000  0.11731000  1.0
  H  H39  1  0.85050000  0.66384000  0.61730000  1.0
  H  H40  1  0.33479000  0.30200000  0.85132000  1.0
  H  H41  1  0.16523000  0.19800000  0.35132000  1.0
  H  H42  1  0.66522000  0.69800000  0.14868000  1.0
  H  H43  1  0.83475000  0.80202000  0.64868000  1.0
  H  H44  1  0.99862000  0.09874000  0.75873000  1.0
  H  H45  1  0.50136000  0.40125000  0.25874000  1.0
  H  H46  1  0.00138000  0.90126000  0.24127000  1.0
  H  H47  1  0.49860000  0.59876000  0.74127000  1.0
  H  H48  1  0.29706000  0.21206000  0.69777000  1.0
  H  H49  1  0.20293000  0.28794000  0.19777000  1.0
  H  H50  1  0.70293000  0.78794000  0.30222000  1.0
  H  H51  1  0.79706000  0.71207000  0.80222000  1.0
  H  H52  1  0.27074000  0.43061000  0.70231000  1.0
  H  H53  1  0.22928000  0.06939000  0.20230000  1.0
  H  H54  1  0.72926000  0.56940000  0.29769000  1.0
  H  H55  1  0.77074000  0.93061000  0.79770000  1.0
  H  H56  1  0.95396000  0.53383000  0.76791000  1.0
  H  H57  1  0.54604000  0.96616000  0.26790000  1.0
  H  H58  1  0.04604000  0.46617000  0.23209000  1.0
  H  H59  1  0.45395000  0.03384000  0.73209000  1.0
  H  H60  1  0.65934000  0.42263000  0.82903000  1.0
  H  H61  1  0.84065000  0.07737000  0.32903000  1.0
  H  H62  1  0.34066000  0.57737000  0.17097000  1.0
  H  H63  1  0.15931000  0.92264000  0.67098000  1.0
  C  C64  1  0.17027000  0.13536000  0.02304000  1.0
  C  C65  1  0.32974000  0.36465000  0.52305000  1.0
  C  C66  1  0.82975000  0.86465000  0.97695000  1.0
  C  C67  1  0.67028000  0.63535000  0.47695000  1.0
  C  C68  1  0.17968000  0.03624000  0.05576000  1.0
  C  C69  1  0.32034000  0.46375000  0.55576000  1.0
  C  C70  1  0.82036000  0.96375000  0.94424000  1.0
  C  C71  1  0.67968000  0.53625000  0.44423000  1.0
  C  C72  1  0.01707000  0.03822000  0.10255000  1.0
  C  C73  1  0.48290000  0.46179000  0.60257000  1.0
  C  C74  1  0.98298000  0.96179000  0.89745000  1.0
  C  C75  1  0.51710000  0.53821000  0.39743000  1.0
  C  C76  1  0.85561000  0.14002000  0.11532000  1.0
  C  C77  1  0.64434000  0.35999000  0.61533000  1.0
  C  C78  1  0.14441000  0.85998000  0.88469000  1.0
  C  C79  1  0.35565000  0.64002000  0.38466000  1.0
  C  C80  1  0.85697000  0.23778000  0.08107000  1.0
  C  C81  1  0.64302000  0.26223000  0.58108000  1.0
  C  C82  1  0.14303000  0.76223000  0.91893000  1.0
  C  C83  1  0.35698000  0.73777000  0.41892000  1.0
  C  C84  1  0.70393000  0.35249000  0.09397000  1.0
  C  C85  1  0.79608000  0.14752000  0.59398000  1.0
  C  C86  1  0.29610000  0.64750000  0.90603000  1.0
  C  C87  1  0.20393000  0.85249000  0.40603000  1.0
  C  C88  1  0.90662000  0.45062000  0.09848000  1.0
  C  C89  1  0.59336000  0.04940000  0.59848000  1.0
  C  C90  1  0.09334000  0.54940000  0.90153000  1.0
  C  C91  1  0.40666000  0.95060000  0.40152000  1.0
  C  C92  1  0.61990000  0.28412000  0.91909000  1.0
  C  C93  1  0.88009000  0.21586000  0.41909000  1.0
  C  C94  1  0.38009000  0.71587000  0.08091000  1.0
  C  C95  1  0.11989000  0.78413000  0.58091000  1.0
  C  C96  1  0.47892000  0.23404000  0.86920000  1.0
  C  C97  1  0.02107000  0.26596000  0.36921000  1.0
  C  C98  1  0.52107000  0.76595000  0.13080000  1.0
  C  C99  1  0.97889000  0.73406000  0.63080000  1.0
  C  C100  1  0.80996000  0.25299000  0.79722000  1.0
  C  C101  1  0.69003000  0.24700000  0.29721000  1.0
  C  C102  1  0.19005000  0.74701000  0.20278000  1.0
  C  C103  1  0.30993000  0.75300000  0.70279000  1.0
  C  C104  1  0.98934000  0.19437000  0.75993000  1.0
  C  C105  1  0.51066000  0.30563000  0.25993000  1.0
  C  C106  1  0.01066000  0.80563000  0.24007000  1.0
  C  C107  1  0.48931000  0.69437000  0.74007000  1.0
  C  C108  1  0.15480000  0.25808000  0.72616000  1.0
  C  C109  1  0.34519000  0.24190000  0.22615000  1.0
  C  C110  1  0.84519000  0.74192000  0.27384000  1.0
  C  C111  1  0.65481000  0.75810000  0.77384000  1.0
  C  C112  1  0.14205000  0.38061000  0.72870000  1.0
  C  C113  1  0.35795000  0.11939000  0.22869000  1.0
  C  C114  1  0.85795000  0.61939000  0.27130000  1.0
  C  C115  1  0.64205000  0.88061000  0.77130000  1.0
  C  C116  1  0.96178000  0.43834000  0.76556000  1.0
  C  C117  1  0.53821000  0.06166000  0.26556000  1.0
  C  C118  1  0.03821000  0.56166000  0.23444000  1.0
  C  C119  1  0.46177000  0.93835000  0.73444000  1.0
  C  C120  1  0.79477000  0.37580000  0.79988000  1.0
  C  C121  1  0.70523000  0.12419000  0.29989000  1.0
  C  C122  1  0.20524000  0.62420000  0.20011000  1.0
  C  C123  1  0.29472000  0.87581000  0.70012000  1.0
  N  N124  1  0.01231000  0.23306000  0.03523000  1.0
  N  N125  1  0.48768000  0.26696000  0.53524000  1.0
  N  N126  1  0.98767000  0.76696000  0.96477000  1.0
  N  N127  1  0.51232000  0.73304000  0.46476000  1.0
  O  O128  1  0.02342000  0.47683000  0.04793000  1.0
  O  O129  1  0.47666000  0.02316000  0.54793000  1.0
  O  O130  1  0.97661000  0.52317000  0.95208000  1.0
  O  O131  1  0.52338000  0.97684000  0.45208000  1.0
  O  O132  1  0.88548000  0.28151000  0.91924000  1.0
  O  O133  1  0.61451000  0.21847000  0.41925000  1.0
  O  O134  1  0.11451000  0.71847000  0.08075000  1.0
  O  O135  1  0.38548000  0.78152000  0.58076000  1.0
  O  O136  1  0.46692000  0.32384000  0.95688000  1.0
  O  O137  1  0.03309000  0.17613000  0.45688000  1.0
  O  O138  1  0.53308000  0.67615000  0.04312000  1.0
  O  O139  1  0.96692000  0.82385000  0.54312000  1.0
  O  O140  1  0.66121000  0.18172000  0.82911000  1.0
  O  O141  1  0.83881000  0.31827000  0.32912000  1.0
  O  O142  1  0.33883000  0.81828000  0.17089000  1.0
  O  O143  1  0.16115000  0.68173000  0.67089000  1.0
