# generated using pymatgen
data_MoH12C8(ClO)4
_symmetry_space_group_name_H-M   'P 1'
_cell_length_a   7.84430000
_cell_length_b   12.07320000
_cell_length_c   15.82940000
_cell_angle_alpha   90.01190000
_cell_angle_beta   90.02260000
_cell_angle_gamma   89.93720000
_symmetry_Int_Tables_number   1
_chemical_formula_structural   MoH12C8(ClO)4
_chemical_formula_sum   'Mo4 H48 C32 Cl16 O16'
_cell_volume   1499.13498488
_cell_formula_units_Z   4
loop_
 _symmetry_equiv_pos_site_id
 _symmetry_equiv_pos_as_xyz
  1  'x, y, z'
loop_
 _atom_site_type_symbol
 _atom_site_label
 _atom_site_symmetry_multiplicity
 _atom_site_fract_x
 _atom_site_fract_y
 _atom_site_fract_z
 _atom_site_occupancy
  Mo  Mo0  1  0.37193000  0.12665000  0.24998000  1.0
  Mo  Mo1  1  0.62801000  0.87315000  0.75004000  1.0
  Mo  Mo2  1  0.62827000  0.62663000  0.24955000  1.0
  Mo  Mo3  1  0.36973000  0.37459000  0.75013000  1.0
  H  H4  1  0.56422000  0.07444000  0.42665000  1.0
  H  H5  1  0.43571000  0.92552000  0.92652000  1.0
  H  H6  1  0.43573000  0.57442000  0.07330000  1.0
  H  H7  1  0.56593000  0.42644000  0.57345000  1.0
  H  H8  1  0.43573000  0.92552000  0.57339000  1.0
  H  H9  1  0.56406000  0.07446000  0.07337000  1.0
  H  H10  1  0.56501000  0.42580000  0.92636000  1.0
  H  H11  1  0.43578000  0.57454000  0.42645000  1.0
  H  H12  1  0.11155000  0.75343000  0.42346000  1.0
  H  H13  1  0.88831000  0.24666000  0.92326000  1.0
  H  H14  1  0.88860000  0.25307000  0.07643000  1.0
  H  H15  1  0.11148000  0.74681000  0.57694000  1.0
  H  H16  1  0.88831000  0.24665000  0.57679000  1.0
  H  H17  1  0.11147000  0.75336000  0.07654000  1.0
  H  H18  1  0.11158000  0.74682000  0.92315000  1.0
  H  H19  1  0.88860000  0.25306000  0.42370000  1.0
  H  H20  1  0.15938000  0.83348000  0.33198000  1.0
  H  H21  1  0.84054000  0.16624000  0.83181000  1.0
  H  H22  1  0.84067000  0.33324000  0.16793000  1.0
  H  H23  1  0.15899000  0.66636000  0.66834000  1.0
  H  H24  1  0.84078000  0.16629000  0.66825000  1.0
  H  H25  1  0.15954000  0.83353000  0.16801000  1.0
  H  H26  1  0.15872000  0.66639000  0.83168000  1.0
  H  H27  1  0.84049000  0.33314000  0.33218000  1.0
  H  H28  1  0.91369000  0.90331000  0.47494000  1.0
  H  H29  1  0.08585000  0.09680000  0.97510000  1.0
  H  H30  1  0.08625000  0.40290000  0.02498000  1.0
  H  H31  1  0.91451000  0.59709000  0.52466000  1.0
  H  H32  1  0.08589000  0.09682000  0.52497000  1.0
  H  H33  1  0.91357000  0.90325000  0.02506000  1.0
  H  H34  1  0.91460000  0.59712000  0.97535000  1.0
  H  H35  1  0.08646000  0.40298000  0.47507000  1.0
  H  H36  1  0.85263000  0.85772000  0.37255000  1.0
  H  H37  1  0.14697000  0.14199000  0.87268000  1.0
  H  H38  1  0.14733000  0.35708000  0.12730000  1.0
  H  H39  1  0.85247000  0.64259000  0.62693000  1.0
  H  H40  1  0.14718000  0.14207000  0.62744000  1.0
  H  H41  1  0.85287000  0.85772000  0.12748000  1.0
  H  H42  1  0.85245000  0.64261000  0.87307000  1.0
  H  H43  1  0.14736000  0.35702000  0.37275000  1.0
  H  H44  1  0.96291000  0.98522000  0.38371000  1.0
  H  H45  1  0.03669000  0.01466000  0.88391000  1.0
  H  H46  1  0.03696000  0.48470000  0.11635000  1.0
  H  H47  1  0.96308000  0.51496000  0.61588000  1.0
  H  H48  1  0.03687000  0.01471000  0.61611000  1.0
  H  H49  1  0.96302000  0.98521000  0.11631000  1.0
  H  H50  1  0.96302000  0.51499000  0.88410000  1.0
  H  H51  1  0.03692000  0.48464000  0.38369000  1.0
  C  C52  1  0.34207000  0.97054000  0.41154000  1.0
  C  C53  1  0.65767000  0.02948000  0.91151000  1.0
  C  C54  1  0.65788000  0.47065000  0.08829000  1.0
  C  C55  1  0.34322000  0.52972000  0.58858000  1.0
  C  C56  1  0.65776000  0.02946000  0.58854000  1.0
  C  C57  1  0.34204000  0.97053000  0.08837000  1.0
  C  C58  1  0.34293000  0.52952000  0.91145000  1.0
  C  C59  1  0.65800000  0.47055000  0.41144000  1.0
  C  C60  1  0.48465000  0.01482000  0.45960000  1.0
  C  C61  1  0.51513000  0.98527000  0.95947000  1.0
  C  C62  1  0.51566000  0.51490000  0.04036000  1.0
  C  C63  1  0.48581000  0.48595000  0.54059000  1.0
  C  C64  1  0.51518000  0.98527000  0.54052000  1.0
  C  C65  1  0.48454000  0.01481000  0.04038000  1.0
  C  C66  1  0.48524000  0.48549000  0.95918000  1.0
  C  C67  1  0.51584000  0.51514000  0.45949000  1.0
  C  C68  1  0.11795000  0.83766000  0.39801000  1.0
  C  C69  1  0.88166000  0.16235000  0.89793000  1.0
  C  C70  1  0.88203000  0.33736000  0.10189000  1.0
  C  C71  1  0.11797000  0.66243000  0.60222000  1.0
  C  C72  1  0.88182000  0.16236000  0.60214000  1.0
  C  C73  1  0.11805000  0.83762000  0.10196000  1.0
  C  C74  1  0.11796000  0.66245000  0.89782000  1.0
  C  C75  1  0.88211000  0.33730000  0.39818000  1.0
  C  C76  1  0.95275000  0.90055000  0.40837000  1.0
  C  C77  1  0.04679000  0.09937000  0.90852000  1.0
  C  C78  1  0.04722000  0.40005000  0.09155000  1.0
  C  C79  1  0.95293000  0.59973000  0.59133000  1.0
  C  C80  1  0.04697000  0.09943000  0.59156000  1.0
  C  C81  1  0.95285000  0.90053000  0.09162000  1.0
  C  C82  1  0.95291000  0.59976000  0.90869000  1.0
  C  C83  1  0.04730000  0.40001000  0.40850000  1.0
  Cl  Cl84  1  0.07847000  0.16405000  0.25008000  1.0
  Cl  Cl85  1  0.92148000  0.83536000  0.74980000  1.0
  Cl  Cl86  1  0.92159000  0.66407000  0.25068000  1.0
  Cl  Cl87  1  0.07791000  0.33592000  0.75105000  1.0
  Cl  Cl88  1  0.63543000  0.03818000  0.25011000  1.0
  Cl  Cl89  1  0.36502000  0.96271000  0.74969000  1.0
  Cl  Cl90  1  0.36441000  0.53895000  0.25028000  1.0
  Cl  Cl91  1  0.63556000  0.45900000  0.74969000  1.0
  Cl  Cl92  1  0.43843000  0.25149000  0.14473000  1.0
  Cl  Cl93  1  0.56059000  0.74818000  0.64467000  1.0
  Cl  Cl94  1  0.56221000  0.75200000  0.35504000  1.0
  Cl  Cl95  1  0.43523000  0.24910000  0.85480000  1.0
  Cl  Cl96  1  0.56081000  0.74826000  0.85522000  1.0
  Cl  Cl97  1  0.43837000  0.25167000  0.35535000  1.0
  Cl  Cl98  1  0.43763000  0.25014000  0.64531000  1.0
  Cl  Cl99  1  0.56275000  0.75179000  0.14450000  1.0
  O  O100  1  0.29924000  0.00632000  0.33996000  1.0
  O  O101  1  0.70118000  0.99340000  0.84009000  1.0
  O  O102  1  0.70119000  0.50665000  0.15989000  1.0
  O  O103  1  0.30064000  0.49319000  0.66017000  1.0
  O  O104  1  0.70113000  0.99353000  0.66002000  1.0
  O  O105  1  0.29914000  0.00636000  0.15994000  1.0
  O  O106  1  0.29975000  0.49336000  0.83966000  1.0
  O  O107  1  0.70043000  0.50553000  0.33957000  1.0
  O  O108  1  0.25602000  0.88886000  0.44753000  1.0
  O  O109  1  0.74326000  0.11165000  0.94734000  1.0
  O  O110  1  0.74397000  0.38855000  0.05242000  1.0
  O  O111  1  0.25632000  0.61140000  0.55287000  1.0
  O  O112  1  0.74348000  0.11152000  0.55270000  1.0
  O  O113  1  0.25612000  0.88866000  0.05244000  1.0
  O  O114  1  0.25642000  0.61143000  0.94711000  1.0
  O  O115  1  0.74426000  0.38883000  0.44764000  1.0
