# generated using pymatgen
data_AgH6C5(NO)3
_symmetry_space_group_name_H-M   'P 1'
_cell_length_a   7.43300000
_cell_length_b   10.38000000
_cell_length_c   10.95940000
_cell_angle_alpha   69.57350000
_cell_angle_beta   71.33800000
_cell_angle_gamma   89.59970000
_symmetry_Int_Tables_number   1
_chemical_formula_structural   AgH6C5(NO)3
_chemical_formula_sum   'Ag4 H24 C20 N12 O12'
_cell_volume   745.49928373
_cell_formula_units_Z   4
loop_
 _symmetry_equiv_pos_site_id
 _symmetry_equiv_pos_as_xyz
  1  'x, y, z'
loop_
 _atom_site_type_symbol
 _atom_site_label
 _atom_site_symmetry_multiplicity
 _atom_site_fract_x
 _atom_site_fract_y
 _atom_site_fract_z
 _atom_site_occupancy
  Ag  Ag0  1  0.61740000  0.53750000  0.01032000  1.0
  Ag  Ag1  1  0.45273000  0.56026000  0.56759000  1.0
  Ag  Ag2  1  0.05378000  0.06134000  0.08429000  1.0
  Ag  Ag3  1  0.15607000  0.54351000  0.05014000  1.0
  H  H4  1  0.46299000  0.76986000  0.09165000  1.0
  H  H5  1  0.42872000  0.11194000  0.74113000  1.0
  H  H6  1  0.52829000  0.95981000  0.59994000  1.0
  H  H7  1  0.60357000  0.72196000  0.71159000  1.0
  H  H8  1  0.68567000  0.58714000  0.24608000  1.0
  H  H9  1  0.77257000  0.20893000  0.53708000  1.0
  H  H10  1  0.75014000  0.09061000  0.37617000  1.0
  H  H11  1  0.69117000  0.22845000  0.15805000  1.0
  H  H12  1  0.94815000  0.77865000  0.09469000  1.0
  H  H13  1  0.91314000  0.06318000  0.71083000  1.0
  H  H14  1  0.05345000  0.89114000  0.60138000  1.0
  H  H15  1  0.13986000  0.67222000  0.74618000  1.0
  H  H16  1  0.17342000  0.59834000  0.29262000  1.0
  H  H17  1  0.22032000  0.22264000  0.60637000  1.0
  H  H18  1  0.26547000  0.10586000  0.43331000  1.0
  H  H19  1  0.25053000  0.24256000  0.19899000  1.0
  H  H20  1  0.41266000  0.98821000  0.10352000  1.0
  H  H21  1  0.44312000  0.13094000  0.96540000  1.0
  H  H22  1  0.82333000  0.57769000  0.43052000  1.0
  H  H23  1  0.78317000  0.42653000  0.56845000  1.0
  H  H24  1  0.72841000  0.97923000  0.07117000  1.0
  H  H25  1  0.80840000  0.11035000  0.91661000  1.0
  H  H26  1  0.10067000  0.58090000  0.52427000  1.0
  H  H27  1  0.08272000  0.43115000  0.65341000  1.0
  C  C28  1  0.47605000  0.81524000  0.98268000  1.0
  C  C29  1  0.43882000  0.95205000  0.92767000  1.0
  C  C30  1  0.45798000  0.00610000  0.78683000  1.0
  C  C31  1  0.51459000  0.92282000  0.70887000  1.0
  C  C32  1  0.55407000  0.78865000  0.77041000  1.0
  C  C33  1  0.70377000  0.47739000  0.27668000  1.0
  C  C34  1  0.73262000  0.40802000  0.40275000  1.0
  C  C35  1  0.74856000  0.26603000  0.44033000  1.0
  C  C36  1  0.73594000  0.20049000  0.35162000  1.0
  C  C37  1  0.70600000  0.27653000  0.22855000  1.0
  C  C38  1  0.96791000  0.80573000  0.98539000  1.0
  C  C39  1  0.91773000  0.93216000  0.91199000  1.0
  C  C40  1  0.95158000  0.96577000  0.77064000  1.0
  C  C41  1  0.03061000  0.87184000  0.70978000  1.0
  C  C42  1  0.07671000  0.74804000  0.78982000  1.0
  C  C43  1  0.19250000  0.48888000  0.32776000  1.0
  C  C44  1  0.19002000  0.41955000  0.46320000  1.0
  C  C45  1  0.21788000  0.27884000  0.50244000  1.0
  C  C46  1  0.24178000  0.21441000  0.40726000  1.0
  C  C47  1  0.23599000  0.28950000  0.27572000  1.0
  N  N48  1  0.53383000  0.73609000  0.90571000  1.0
  N  N49  1  0.38215000  0.02955000  0.01335000  1.0
  N  N50  1  0.72683000  0.35066000  0.83921000  1.0
  N  N51  1  0.69013000  0.41316000  0.19200000  1.0
  N  N52  1  0.74119000  0.48276000  0.48682000  1.0
  N  N53  1  0.50292000  0.84183000  0.33671000  1.0
  N  N54  1  0.23413000  0.36096000  0.87272000  1.0
  N  N55  1  0.04667000  0.71615000  0.92569000  1.0
  N  N56  1  0.84304000  0.02311000  0.98112000  1.0
  N  N57  1  0.98135000  0.82099000  0.37241000  1.0
  N  N58  1  0.21233000  0.42496000  0.23727000  1.0
  N  N59  1  0.16197000  0.49103000  0.55392000  1.0
  O  O60  1  0.81102000  0.47050000  0.80162000  1.0
  O  O61  1  0.59032000  0.29985000  0.95358000  1.0
  O  O62  1  0.78047000  0.27935000  0.76227000  1.0
  O  O63  1  0.49770000  0.81914000  0.45945000  1.0
  O  O64  1  0.53635000  0.96557000  0.24936000  1.0
  O  O65  1  0.47536000  0.74201000  0.30097000  1.0
  O  O66  1  0.31531000  0.48546000  0.81993000  1.0
  O  O67  1  0.12866000  0.31488000  0.00014000  1.0
  O  O68  1  0.25696000  0.28626000  0.80149000  1.0
  O  O69  1  0.01725000  0.95225000  0.32710000  1.0
  O  O70  1  0.94465000  0.76187000  0.29745000  1.0
  O  O71  1  0.98193000  0.74948000  0.49197000  1.0
