# generated using pymatgen
data_Zn2H36C38(N2O7)3
_symmetry_space_group_name_H-M   'P 1'
_cell_length_a   11.08620000
_cell_length_b   15.95310000
_cell_length_c   17.03430000
_cell_angle_alpha   86.56140000
_cell_angle_beta   88.34030000
_cell_angle_gamma   88.29050000
_symmetry_Int_Tables_number   1
_chemical_formula_structural   Zn2H36C38(N2O7)3
_chemical_formula_sum   'Zn2 H36 C38 N6 O21'
_cell_volume   3004.79630587
_cell_formula_units_Z   1
loop_
 _symmetry_equiv_pos_site_id
 _symmetry_equiv_pos_as_xyz
  1  'x, y, z'
loop_
 _atom_site_type_symbol
 _atom_site_label
 _atom_site_symmetry_multiplicity
 _atom_site_fract_x
 _atom_site_fract_y
 _atom_site_fract_z
 _atom_site_occupancy
  Zn  Zn0  1  0.48762000  0.41539000  0.50007000  1.0
  Zn  Zn1  1  0.50099000  0.59404000  0.50353000  1.0
  H  H2  1  0.09686000  0.61517000  0.41830000  1.0
  H  H3  1  0.65791000  0.58238000  0.88420000  1.0
  H  H4  1  0.62987000  0.59032000  0.73737000  1.0
  H  H5  1  0.59231000  0.27041000  0.58912000  1.0
  H  H6  1  0.35487000  0.13592000  0.39406000  1.0
  H  H7  1  0.36344000  0.73992000  0.44689000  1.0
  H  H8  1  0.50986000  0.65740000  0.25607000  1.0
  H  H9  1  0.50637000  0.72454000  0.13447000  1.0
  H  H10  1  0.61404000  0.04565000  0.58259000  1.0
  H  H11  1  0.75251000  0.82192000  0.61892000  1.0
  H  H12  1  0.70374000  0.64648000  0.56297000  1.0
  H  H13  1  0.24182000  0.23191000  0.32873000  1.0
  H  H14  1  0.39026000  0.25575000  0.28986000  1.0
  H  H15  1  0.32450000  0.40740000  0.26892000  1.0
  H  H16  1  0.23470000  0.34062000  0.21556000  1.0
  H  H17  1  0.17565000  0.38231000  0.30408000  1.0
  H  H18  1  0.37604000  0.96483000  0.44256000  1.0
  H  H19  1  0.15980000  0.44432000  0.59113000  1.0
  H  H20  1  0.92019000  0.68803000  0.45086000  1.0
  H  H21  1  0.82057000  0.32519000  0.52495000  1.0
  H  H22  1  0.90854000  0.38133000  0.58961000  1.0
  H  H23  1  0.09918000  0.32069000  0.52714000  1.0
  H  H24  1  0.00401000  0.23986000  0.56786000  1.0
  H  H25  1  0.01024000  0.26396000  0.46444000  1.0
  H  H26  1  0.75128000  0.41974000  0.32654000  1.0
  H  H27  1  0.78770000  0.37081000  0.23653000  1.0
  H  H28  1  0.84450000  0.27682000  0.35227000  1.0
  H  H29  1  0.69452000  0.28257000  0.39152000  1.0
  H  H30  1  0.72576000  0.23147000  0.30195000  1.0
  H  H31  1  0.57987000  0.39836000  0.05039000  1.0
  H  H32  1  0.23575000  0.42059000  0.88360000  1.0
  H  H33  1  0.30194000  0.46394000  0.96599000  1.0
  H  H34  1  0.26316000  0.33051000  0.04780000  1.0
  H  H35  1  0.12693000  0.37644000  0.00927000  1.0
  H  H36  1  0.19562000  0.28743000  0.96575000  1.0
  H  H37  1  0.41743000  0.36197000  0.69978000  1.0
  C  C38  1  0.49880000  0.48752000  0.65503000  1.0
  C  C39  1  0.58698000  0.54198000  0.77562000  1.0
  C  C40  1  0.60158000  0.53863000  0.85630000  1.0
  C  C41  1  0.54101000  0.47721000  0.90376000  1.0
  C  C42  1  0.46907000  0.41808000  0.87041000  1.0
  C  C43  1  0.46255000  0.41769000  0.78811000  1.0
  C  C44  1  0.57840000  0.45347000  0.14525000  1.0
  C  C45  1  0.57808000  0.45074000  0.22830000  1.0
  C  C46  1  0.55659000  0.53158000  0.10106000  1.0
  C  C47  1  0.54754000  0.52431000  0.26651000  1.0
  C  C48  1  0.53022000  0.60157000  0.22357000  1.0
  C  C49  1  0.73067000  0.49507000  0.49897000  1.0
  C  C50  1  0.53670000  0.60616000  0.14208000  1.0
  C  C51  1  0.43400000  0.77068000  0.47668000  1.0
  C  C52  1  0.43640000  0.85756000  0.47669000  1.0
  C  C53  1  0.52897000  0.89449000  0.51971000  1.0
  C  C54  1  0.61438000  0.84025000  0.55820000  1.0
  C  C55  1  0.60823000  0.75263000  0.55121000  1.0
  C  C56  1  0.54937000  0.15082000  0.54464000  1.0
  C  C57  1  0.54173000  0.23853000  0.54631000  1.0
  C  C58  1  0.47836000  0.11341000  0.48858000  1.0
  C  C59  1  0.40881000  0.25182000  0.44167000  1.0
  C  C60  1  0.52448000  0.52321000  0.35359000  1.0
  C  C61  1  0.40881000  0.16502000  0.43672000  1.0
  C  C62  1  0.26368000  0.52592000  0.50336000  1.0
  C  C63  1  0.05444000  0.57186000  0.46212000  1.0
  C  C64  1  0.12880000  0.52748000  0.51203000  1.0
  C  C65  1  0.92426000  0.56836000  0.46654000  1.0
  C  C66  1  0.86113000  0.49584000  0.48120000  1.0
  C  C67  1  0.51831000  0.48226000  0.74108000  1.0
  C  C68  1  0.30923000  0.28138000  0.32002000  1.0
  C  C69  1  0.25771000  0.35792000  0.27469000  1.0
  C  C70  1  0.90815000  0.35425000  0.53171000  1.0
  C  C71  1  0.01173000  0.29121000  0.52215000  1.0
  C  C72  1  0.73003000  0.36722000  0.29051000  1.0
  C  C73  1  0.74909000  0.28422000  0.33669000  1.0
  C  C74  1  0.28464000  0.40479000  0.93831000  1.0
  C  C75  1  0.21379000  0.34588000  0.99359000  1.0
  N  N76  1  0.54916000  0.47017000  0.98601000  1.0
  N  N77  1  0.54931000  0.53967000  0.02010000  1.0
  N  N78  1  0.51842000  0.72058000  0.51299000  1.0
  N  N79  1  0.54080000  0.97978000  0.52547000  1.0
  N  N80  1  0.46975000  0.02747000  0.48241000  1.0
  N  N81  1  0.47466000  0.28699000  0.49632000  1.0
  O  O82  1  0.50158000  0.41694000  0.62156000  1.0
  O  O83  1  0.47773000  0.55914000  0.62124000  1.0
  O  O84  1  0.67345000  0.42925000  0.48648000  1.0
  O  O85  1  0.67957000  0.56043000  0.52847000  1.0
  O  O86  1  0.47725000  0.45799000  0.38625000  1.0
  O  O87  1  0.54905000  0.58930000  0.38776000  1.0
  O  O88  1  0.31095000  0.45505000  0.52628000  1.0
  O  O89  1  0.31888000  0.59096000  0.47795000  1.0
  O  O90  1  0.52048000  0.67994000  0.09835000  1.0
  O  O91  1  0.62071000  0.10634000  0.59518000  1.0
  O  O92  1  0.70395000  0.87086000  0.59920000  1.0
  O  O93  1  0.69648000  0.70518000  0.58495000  1.0
  O  O94  1  0.34477000  0.30716000  0.39619000  1.0
  O  O95  1  0.35217000  0.90461000  0.43755000  1.0
  O  O96  1  0.08781000  0.47635000  0.57248000  1.0
  O  O97  1  0.86242000  0.64329000  0.45008000  1.0
  O  O98  1  0.92297000  0.42107000  0.47093000  1.0
  O  O99  1  0.60451000  0.37522000  0.26826000  1.0
  O  O100  1  0.59788000  0.38218000  0.10868000  1.0
  O  O101  1  0.39988000  0.36457000  0.91794000  1.0
  O  O102  1  0.39661000  0.35811000  0.75692000  1.0
