# generated using pymatgen
data_GdH8C6O7
_symmetry_space_group_name_H-M   'P 1'
_cell_length_a   7.62690000
_cell_length_b   11.93140000
_cell_length_c   12.20970000
_cell_angle_alpha   67.94740000
_cell_angle_beta   89.87700000
_cell_angle_gamma   80.14580000
_symmetry_Int_Tables_number   1
_chemical_formula_structural   GdH8C6O7
_chemical_formula_sum   'Gd4 H32 C24 O28'
_cell_volume   1012.24817717
_cell_formula_units_Z   4
loop_
 _symmetry_equiv_pos_site_id
 _symmetry_equiv_pos_as_xyz
  1  'x, y, z'
loop_
 _atom_site_type_symbol
 _atom_site_label
 _atom_site_symmetry_multiplicity
 _atom_site_fract_x
 _atom_site_fract_y
 _atom_site_fract_z
 _atom_site_occupancy
  Gd  Gd0  1  0.00188000  0.15246000  0.14018000  1.0
  Gd  Gd1  1  0.99813000  0.84754000  0.85982000  1.0
  Gd  Gd2  1  0.50554000  0.13979000  0.25064000  1.0
  Gd  Gd3  1  0.49446000  0.86022000  0.74936000  1.0
  H  H4  1  0.25357000  0.21433000  0.68113000  1.0
  H  H5  1  0.74642000  0.78568000  0.31887000  1.0
  H  H6  1  0.11893000  0.25757000  0.78497000  1.0
  H  H7  1  0.88107000  0.74243000  0.21503000  1.0
  H  H8  1  0.36785000  0.74119000  0.46821000  1.0
  H  H9  1  0.63214000  0.25881000  0.53179000  1.0
  H  H10  1  0.22718000  0.78566000  0.33642000  1.0
  H  H11  1  0.77282000  0.21434000  0.66358000  1.0
  H  H12  1  0.10456000  0.56138000  0.83543000  1.0
  H  H13  1  0.89545000  0.43862000  0.16458000  1.0
  H  H14  1  0.29352000  0.47453000  0.79935000  1.0
  H  H15  1  0.70648000  0.52546000  0.20065000  1.0
  H  H16  1  0.99942000  0.91218000  0.41903000  1.0
  H  H17  1  0.00058000  0.08783000  0.58097000  1.0
  H  H18  1  0.03013000  0.75246000  0.49629000  1.0
  H  H19  1  0.96986000  0.24755000  0.50370000  1.0
  H  H20  1  0.43401000  0.40776000  0.00133000  1.0
  H  H21  1  0.56599000  0.59224000  0.99867000  1.0
  H  H22  1  0.27451000  0.51547000  0.03390000  1.0
  H  H23  1  0.72549000  0.48453000  0.96610000  1.0
  H  H24  1  0.18168000  0.19049000  0.36918000  1.0
  H  H25  1  0.81831000  0.80951000  0.63082000  1.0
  H  H26  1  0.32242000  0.27222000  0.37776000  1.0
  H  H27  1  0.67759000  0.72778000  0.62224000  1.0
  H  H28  1  0.87521000  0.13632000  0.91867000  1.0
  H  H29  1  0.12479000  0.86367000  0.08132000  1.0
  H  H30  1  0.69918000  0.16278000  0.98790000  1.0
  H  H31  1  0.30082000  0.83722000  0.01210000  1.0
  H  H32  1  0.49122000  0.09087000  0.84379000  1.0
  H  H33  1  0.50877000  0.90913000  0.15620000  1.0
  H  H34  1  0.45359000  0.24874000  0.81520000  1.0
  H  H35  1  0.54641000  0.75126000  0.18480000  1.0
  C  C36  1  0.36351000  0.13776000  0.97990000  1.0
  C  C37  1  0.63648000  0.86223000  0.02010000  1.0
  C  C38  1  0.22030000  0.18588000  0.77427000  1.0
  C  C39  1  0.77970000  0.81412000  0.22572000  1.0
  C  C40  1  0.14026000  0.07183000  0.80106000  1.0
  C  C41  1  0.85974000  0.92817000  0.19894000  1.0
  C  C42  1  0.34425000  0.92747000  0.35039000  1.0
  C  C43  1  0.65577000  0.07252000  0.64961000  1.0
  C  C44  1  0.26401000  0.81361000  0.40823000  1.0
  C  C45  1  0.73599000  0.18639000  0.59176000  1.0
  C  C46  1  0.24950000  0.52963000  0.85219000  1.0
  C  C47  1  0.75051000  0.47037000  0.14781000  1.0
  C  C48  1  0.34057000  0.63973000  0.81491000  1.0
  C  C49  1  0.65944000  0.36027000  0.18509000  1.0
  C  C50  1  0.13822000  0.84881000  0.58855000  1.0
  C  C51  1  0.86178000  0.15119000  0.41145000  1.0
  C  C52  1  0.09788000  0.83162000  0.47455000  1.0
  C  C53  1  0.90212000  0.16838000  0.52544000  1.0
  C  C54  1  0.29388000  0.45424000  0.98448000  1.0
  C  C55  1  0.70613000  0.54576000  0.01552000  1.0
  C  C56  1  0.18043000  0.35877000  0.04007000  1.0
  C  C57  1  0.81957000  0.64122000  0.95993000  1.0
  C  C58  1  0.39170000  0.16647000  0.84959000  1.0
  C  C59  1  0.60829000  0.83353000  0.15041000  1.0
  O  O60  1  0.23486000  0.27497000  0.14373000  1.0
  O  O61  1  0.76514000  0.72503000  0.85627000  1.0
  O  O62  1  0.03581000  0.35824000  0.99065000  1.0
  O  O63  1  0.96419000  0.64176000  0.00934000  1.0
  O  O64  1  0.22706000  0.97820000  0.78399000  1.0
  O  O65  1  0.77294000  0.02181000  0.21601000  1.0
  O  O66  1  0.98375000  0.06647000  0.83616000  1.0
  O  O67  1  0.01625000  0.93353000  0.16383000  1.0
  O  O68  1  0.46817000  0.64971000  0.74827000  1.0
  O  O69  1  0.53183000  0.35029000  0.25174000  1.0
  O  O70  1  0.28815000  0.72402000  0.85734000  1.0
  O  O71  1  0.71185000  0.27598000  0.14266000  1.0
  O  O72  1  0.49140000  0.14207000  0.04536000  1.0
  O  O73  1  0.50859000  0.85792000  0.95464000  1.0
  O  O74  1  0.21574000  0.11032000  0.01705000  1.0
  O  O75  1  0.78427000  0.88968000  0.98295000  1.0
  O  O76  1  0.02403000  0.82453000  0.66792000  1.0
  O  O77  1  0.97597000  0.17547000  0.33208000  1.0
  O  O78  1  0.28011000  0.88609000  0.59908000  1.0
  O  O79  1  0.71987000  0.11392000  0.40093000  1.0
  O  O80  1  0.24673000  0.02745000  0.27744000  1.0
  O  O81  1  0.75328000  0.97255000  0.72256000  1.0
  O  O82  1  0.50794000  0.92540000  0.36868000  1.0
  O  O83  1  0.49206000  0.07460000  0.63132000  1.0
  O  O84  1  0.31026000  0.18913000  0.38779000  1.0
  O  O85  1  0.68974000  0.81088000  0.61221000  1.0
  O  O86  1  0.82254000  0.17802000  0.97139000  1.0
  O  O87  1  0.17747000  0.82197000  0.02861000  1.0
