# generated using pymatgen
data_CdH14C24S(NO)4
_symmetry_space_group_name_H-M   'P 1'
_cell_length_a   10.51010000
_cell_length_b   15.04310000
_cell_length_c   16.10840000
_cell_angle_alpha   98.95150000
_cell_angle_beta   92.40570000
_cell_angle_gamma   105.09000000
_symmetry_Int_Tables_number   1
_chemical_formula_structural   CdH14C24S(NO)4
_chemical_formula_sum   'Cd4 H56 C96 S4 N16 O16'
_cell_volume   2419.94126584
_cell_formula_units_Z   4
loop_
 _symmetry_equiv_pos_site_id
 _symmetry_equiv_pos_as_xyz
  1  'x, y, z'
loop_
 _atom_site_type_symbol
 _atom_site_label
 _atom_site_symmetry_multiplicity
 _atom_site_fract_x
 _atom_site_fract_y
 _atom_site_fract_z
 _atom_site_occupancy
  Cd  Cd0  1  0.79567000  0.87679000  0.67072000  1.0
  Cd  Cd1  1  0.20433000  0.12321000  0.32928000  1.0
  Cd  Cd2  1  0.72580000  0.60753000  0.63166000  1.0
  Cd  Cd3  1  0.27419000  0.39248000  0.36834000  1.0
  H  H4  1  0.99445000  0.90297000  0.52320000  1.0
  H  H5  1  0.00554000  0.09703000  0.47680000  1.0
  H  H6  1  0.99071000  0.91522000  0.36966000  1.0
  H  H7  1  0.00929000  0.08478000  0.63034000  1.0
  H  H8  1  0.56405000  0.84486000  0.36329000  1.0
  H  H9  1  0.43595000  0.15514000  0.63671000  1.0
  H  H10  1  0.58669000  0.83972000  0.51692000  1.0
  H  H11  1  0.41330000  0.16029000  0.48308000  1.0
  H  H12  1  0.94743000  0.83751000  0.24389000  1.0
  H  H13  1  0.05257000  0.16249000  0.75612000  1.0
  H  H14  1  0.94277000  0.83416000  0.09254000  1.0
  H  H15  1  0.05723000  0.16584000  0.90746000  1.0
  H  H16  1  0.98149000  0.91946000  0.98932000  1.0
  H  H17  1  0.01851000  0.08054000  0.01069000  1.0
  H  H18  1  0.97882000  0.91204000  0.83327000  1.0
  H  H19  1  0.02118000  0.08796000  0.16673000  1.0
  H  H20  1  0.57055000  0.81744000  0.80291000  1.0
  H  H21  1  0.42945000  0.18256000  0.19709000  1.0
  H  H22  1  0.55460000  0.82641000  0.95835000  1.0
  H  H23  1  0.44540000  0.17359000  0.04165000  1.0
  H  H24  1  0.93989000  0.65459000  0.48865000  1.0
  H  H25  1  0.06010000  0.34541000  0.51135000  1.0
  H  H26  1  0.93577000  0.65898000  0.33555000  1.0
  H  H27  1  0.06423000  0.34102000  0.66445000  1.0
  H  H28  1  0.50798000  0.59528000  0.33085000  1.0
  H  H29  1  0.49202000  0.40472000  0.66915000  1.0
  H  H30  1  0.53005000  0.59136000  0.48162000  1.0
  H  H31  1  0.46994000  0.40864000  0.51837000  1.0
  H  H32  1  0.88534000  0.57577000  0.20806000  1.0
  H  H33  1  0.11466000  0.42423000  0.79194000  1.0
  H  H34  1  0.88097000  0.57256000  0.05571000  1.0
  H  H35  1  0.11903000  0.42743000  0.94429000  1.0
  H  H36  1  0.91916000  0.66974000  0.95495000  1.0
  H  H37  1  0.08085000  0.33026000  0.04505000  1.0
  H  H38  1  0.91677000  0.66429000  0.79882000  1.0
  H  H39  1  0.08323000  0.33571000  0.20117000  1.0
  H  H40  1  0.50984000  0.56547000  0.76682000  1.0
  H  H41  1  0.49016000  0.43454000  0.23318000  1.0
  H  H42  1  0.49333000  0.56362000  0.92132000  1.0
  H  H43  1  0.50667000  0.43638000  0.07868000  1.0
  H  H44  1  0.04370000  0.62134000  0.64726000  1.0
  H  H45  1  0.95630000  0.37866000  0.35274000  1.0
  H  H46  1  0.25387000  0.57414000  0.63313000  1.0
  H  H47  1  0.74614000  0.42587000  0.36687000  1.0
  H  H48  1  0.47297000  0.86260000  0.65087000  1.0
  H  H49  1  0.52703000  0.13742000  0.34913000  1.0
  H  H50  1  0.26296000  0.90942000  0.66124000  1.0
  H  H51  1  0.73704000  0.09059000  0.33876000  1.0
  H  H52  1  0.66048000  0.27800000  0.53457000  1.0
  H  H53  1  0.33952000  0.72200000  0.46543000  1.0
  H  H54  1  0.64045000  0.11175000  0.55236000  1.0
  H  H55  1  0.35954000  0.88825000  0.44763000  1.0
  H  H56  1  0.86816000  0.21007000  0.79221000  1.0
  H  H57  1  0.13184000  0.78993000  0.20778000  1.0
  H  H58  1  0.88579000  0.37641000  0.77451000  1.0
  H  H59  1  0.11421000  0.62359000  0.22549000  1.0
  C  C60  1  0.90146000  0.89055000  0.48488000  1.0
  C  C61  1  0.09854000  0.10945000  0.51513000  1.0
  C  C62  1  0.89869000  0.89624000  0.39966000  1.0
  C  C63  1  0.10131000  0.10376000  0.60035000  1.0
  C  C64  1  0.77634000  0.87974000  0.35293000  1.0
  C  C65  1  0.22365000  0.12026000  0.64707000  1.0
  C  C66  1  0.66162000  0.85907000  0.39596000  1.0
  C  C67  1  0.33838000  0.14093000  0.60404000  1.0
  C  C68  1  0.67345000  0.85544000  0.48144000  1.0
  C  C69  1  0.32655000  0.14456000  0.51856000  1.0
  C  C70  1  0.77133000  0.88152000  0.26183000  1.0
  C  C71  1  0.22867000  0.11848000  0.73817000  1.0
  C  C72  1  0.86682000  0.85684000  0.21341000  1.0
  C  C73  1  0.13318000  0.14316000  0.78659000  1.0
  C  C74  1  0.86475000  0.85610000  0.12571000  1.0
  C  C75  1  0.13526000  0.14390000  0.87429000  1.0
  C  C76  1  0.76639000  0.87866000  0.07966000  1.0
  C  C77  1  0.23361000  0.12133000  0.92034000  1.0
  C  C78  1  0.66631000  0.90558000  0.12707000  1.0
  C  C79  1  0.33369000  0.09442000  0.87294000  1.0
  C  C80  1  0.66946000  0.90722000  0.21755000  1.0
  C  C81  1  0.33054000  0.09278000  0.78245000  1.0
  C  C82  1  0.76732000  0.87423000  0.98784000  1.0
  C  C83  1  0.23268000  0.12577000  0.01216000  1.0
  C  C84  1  0.88767000  0.89669000  0.95054000  1.0
  C  C85  1  0.11233000  0.10331000  0.04946000  1.0
  C  C86  1  0.88725000  0.89240000  0.86384000  1.0
  C  C87  1  0.11275000  0.10760000  0.13616000  1.0
  C  C88  1  0.65915000  0.84110000  0.84700000  1.0
  C  C89  1  0.34085000  0.15890000  0.15300000  1.0
  C  C90  1  0.65062000  0.84589000  0.93344000  1.0
  C  C91  1  0.34938000  0.15410000  0.06656000  1.0
  C  C92  1  0.84613000  0.64078000  0.45072000  1.0
  C  C93  1  0.15387000  0.35922000  0.54928000  1.0
  C  C94  1  0.84288000  0.64275000  0.36485000  1.0
  C  C95  1  0.15712000  0.35725000  0.63515000  1.0
  C  C96  1  0.72023000  0.62588000  0.31796000  1.0
  C  C97  1  0.27978000  0.37412000  0.68204000  1.0
  C  C98  1  0.60649000  0.60870000  0.36171000  1.0
  C  C99  1  0.39351000  0.39130000  0.63829000  1.0
  C  C100  1  0.61826000  0.60686000  0.44747000  1.0
  C  C101  1  0.38174000  0.39314000  0.55252000  1.0
  C  C102  1  0.71257000  0.62394000  0.22621000  1.0
  C  C103  1  0.28743000  0.37606000  0.77379000  1.0
  C  C104  1  0.80674000  0.59743000  0.17735000  1.0
  C  C105  1  0.19326000  0.40257000  0.82265000  1.0
  C  C106  1  0.80351000  0.59492000  0.08926000  1.0
  C  C107  1  0.19649000  0.40508000  0.91073000  1.0
  C  C108  1  0.70459000  0.61694000  0.04329000  1.0
  C  C109  1  0.29541000  0.38306000  0.95671000  1.0
  C  C110  1  0.60370000  0.64258000  0.09054000  1.0
  C  C111  1  0.39630000  0.35742000  0.90946000  1.0
  C  C112  1  0.60823000  0.64688000  0.18137000  1.0
  C  C113  1  0.39178000  0.35312000  0.81863000  1.0
  C  C114  1  0.70581000  0.61519000  0.95176000  1.0
  C  C115  1  0.29420000  0.38481000  0.04824000  1.0
  C  C116  1  0.82591000  0.64379000  0.91550000  1.0
  C  C117  1  0.17410000  0.35621000  0.08451000  1.0
  C  C118  1  0.82566000  0.64242000  0.82910000  1.0
  C  C119  1  0.17434000  0.35758000  0.17090000  1.0
  C  C120  1  0.59783000  0.58690000  0.81136000  1.0
  C  C121  1  0.40217000  0.41310000  0.18864000  1.0
  C  C122  1  0.58944000  0.58595000  0.89714000  1.0
  C  C123  1  0.41057000  0.41405000  0.10286000  1.0
  C  C124  1  0.01776000  0.80070000  0.66532000  1.0
  C  C125  1  0.98224000  0.19930000  0.33468000  1.0
  C  C126  1  0.14091000  0.76904000  0.65535000  1.0
  C  C127  1  0.85909000  0.23096000  0.34465000  1.0
  C  C128  1  0.13728000  0.67404000  0.64699000  1.0
  C  C129  1  0.86272000  0.32596000  0.35301000  1.0
  C  C130  1  0.25434000  0.64746000  0.64015000  1.0
  C  C131  1  0.74566000  0.35255000  0.35985000  1.0
  C  C132  1  0.37587000  0.71484000  0.64241000  1.0
  C  C133  1  0.62413000  0.28517000  0.35759000  1.0
  C  C134  1  0.37920000  0.80971000  0.64977000  1.0
  C  C135  1  0.62080000  0.19030000  0.35023000  1.0
  C  C136  1  0.26206000  0.83618000  0.65564000  1.0
  C  C137  1  0.73794000  0.16383000  0.34436000  1.0
  C  C138  1  0.50077000  0.68459000  0.63736000  1.0
  C  C139  1  0.49923000  0.31542000  0.36264000  1.0
  C  C140  1  0.78566000  0.43613000  0.64457000  1.0
  C  C141  1  0.21433000  0.56387000  0.35544000  1.0
  C  C142  1  0.77530000  0.33659000  0.65337000  1.0
  C  C143  1  0.22469000  0.66341000  0.34663000  1.0
  C  C144  1  0.70529000  0.26231000  0.59084000  1.0
  C  C145  1  0.29470000  0.73769000  0.40916000  1.0
  C  C146  1  0.69416000  0.17026000  0.60069000  1.0
  C  C147  1  0.30584000  0.82974000  0.39931000  1.0
  C  C148  1  0.75351000  0.15128000  0.67308000  1.0
  C  C149  1  0.24649000  0.84871000  0.32692000  1.0
  C  C150  1  0.82291000  0.22563000  0.73594000  1.0
  C  C151  1  0.17709000  0.77437000  0.26406000  1.0
  C  C152  1  0.83326000  0.31751000  0.72621000  1.0
  C  C153  1  0.16674000  0.68249000  0.27379000  1.0
  C  C154  1  0.74956000  0.05256000  0.68073000  1.0
  C  C155  1  0.25044000  0.94744000  0.31927000  1.0
  S  S156  1  0.48470000  0.95982000  0.17716000  1.0
  S  S157  1  0.51530000  0.04018000  0.82284000  1.0
  S  S158  1  0.41766000  0.69200000  0.13866000  1.0
  S  S159  1  0.58235000  0.30801000  0.86134000  1.0
  N  N160  1  0.79092000  0.87056000  0.52551000  1.0
  N  N161  1  0.20908000  0.12945000  0.47449000  1.0
  N  N162  1  0.77484000  0.86473000  0.81254000  1.0
  N  N163  1  0.22517000  0.13527000  0.18746000  1.0
  N  N164  1  0.57021000  0.93707000  0.25261000  1.0
  N  N165  1  0.42979000  0.06293000  0.74739000  1.0
  N  N166  1  0.56447000  0.93429000  0.09684000  1.0
  N  N167  1  0.43553000  0.06570000  0.90316000  1.0
  N  N168  1  0.73553000  0.62270000  0.49162000  1.0
  N  N169  1  0.26447000  0.37730000  0.50838000  1.0
  N  N170  1  0.71343000  0.61508000  0.77780000  1.0
  N  N171  1  0.28657000  0.38492000  0.22220000  1.0
  N  N172  1  0.50670000  0.67498000  0.21550000  1.0
  N  N173  1  0.49330000  0.32502000  0.78450000  1.0
  N  N174  1  0.49893000  0.66732000  0.05918000  1.0
  N  N175  1  0.50107000  0.33268000  0.94082000  1.0
  O  O176  1  0.90635000  0.74043000  0.66531000  1.0
  O  O177  1  0.09365000  0.25958000  0.33469000  1.0
  O  O178  1  0.02715000  0.88789000  0.67454000  1.0
  O  O179  1  0.97284000  0.11211000  0.32546000  1.0
  O  O180  1  0.49285000  0.59782000  0.62996000  1.0
  O  O181  1  0.50715000  0.40219000  0.37004000  1.0
  O  O182  1  0.61161000  0.74597000  0.64075000  1.0
  O  O183  1  0.38839000  0.25404000  0.35925000  1.0
  O  O184  1  0.69080000  0.44936000  0.59925000  1.0
  O  O185  1  0.30921000  0.55064000  0.40075000  1.0
  O  O186  1  0.88171000  0.50073000  0.68291000  1.0
  O  O187  1  0.11829000  0.49927000  0.31709000  1.0
  O  O188  1  0.65088000  0.98618000  0.64779000  1.0
  O  O189  1  0.34911000  0.01382000  0.35221000  1.0
  O  O190  1  0.85202000  0.04035000  0.71862000  1.0
  O  O191  1  0.14798000  0.95965000  0.28138000  1.0
