# generated using pymatgen
data_CuH12C7N2O3
_symmetry_space_group_name_H-M   'P 1'
_cell_length_a   8.76155000
_cell_length_b   9.84978000
_cell_length_c   10.64830000
_cell_angle_alpha   90.00020000
_cell_angle_beta   89.99980000
_cell_angle_gamma   89.99990000
_symmetry_Int_Tables_number   1
_chemical_formula_structural   CuH12C7N2O3
_chemical_formula_sum   'Cu4 H48 C28 N8 O12'
_cell_volume   918.94126167
_cell_formula_units_Z   4
loop_
 _symmetry_equiv_pos_site_id
 _symmetry_equiv_pos_as_xyz
  1  'x, y, z'
loop_
 _atom_site_type_symbol
 _atom_site_label
 _atom_site_symmetry_multiplicity
 _atom_site_fract_x
 _atom_site_fract_y
 _atom_site_fract_z
 _atom_site_occupancy
  Cu  Cu0  1  0.96699000  0.19855000  0.60803000  1.0
  Cu  Cu1  1  0.46700000  0.30145000  0.39197000  1.0
  Cu  Cu2  1  0.03300000  0.69856000  0.89197000  1.0
  Cu  Cu3  1  0.53301000  0.80145000  0.10803000  1.0
  H  H4  1  0.22421000  0.67670000  0.72492000  1.0
  H  H5  1  0.72421000  0.82331000  0.27508000  1.0
  H  H6  1  0.77579000  0.17670000  0.77508000  1.0
  H  H7  1  0.27580000  0.32330000  0.22492000  1.0
  H  H8  1  0.30546000  0.62603000  0.86018000  1.0
  H  H9  1  0.80546000  0.87397000  0.13982000  1.0
  H  H10  1  0.69453000  0.12603000  0.63982000  1.0
  H  H11  1  0.19454000  0.37397000  0.36018000  1.0
  H  H12  1  0.16785000  0.46690000  0.66346000  1.0
  H  H13  1  0.66785000  0.03310000  0.33655000  1.0
  H  H14  1  0.83214000  0.96690000  0.83655000  1.0
  H  H15  1  0.33215000  0.53310000  0.16346000  1.0
  H  H16  1  0.27185000  0.27295000  0.77403000  1.0
  H  H17  1  0.77185000  0.22705000  0.22597000  1.0
  H  H18  1  0.72816000  0.77295000  0.72596000  1.0
  H  H19  1  0.22815000  0.72705000  0.27404000  1.0
  H  H20  1  0.43176000  0.29581000  0.96649000  1.0
  H  H21  1  0.93176000  0.20419000  0.03350000  1.0
  H  H22  1  0.56825000  0.79581000  0.53350000  1.0
  H  H23  1  0.06824000  0.70419000  0.46650000  1.0
  H  H24  1  0.24399000  0.35423000  0.99600000  1.0
  H  H25  1  0.74399000  0.14576000  0.00400000  1.0
  H  H26  1  0.75601000  0.85423000  0.50400000  1.0
  H  H27  1  0.25601000  0.64576000  0.49600000  1.0
  H  H28  1  0.39737000  0.47116000  0.97310000  1.0
  H  H29  1  0.89737000  0.02884000  0.02690000  1.0
  H  H30  1  0.60263000  0.97116000  0.52690000  1.0
  H  H31  1  0.10263000  0.52884000  0.47310000  1.0
  H  H32  1  0.43287000  0.40277000  0.62205000  1.0
  H  H33  1  0.93286000  0.09723000  0.37795000  1.0
  H  H34  1  0.56714000  0.90277000  0.87795000  1.0
  H  H35  1  0.06714000  0.59723000  0.12205000  1.0
  H  H36  1  0.54741000  0.33005000  0.74199000  1.0
  H  H37  1  0.04741000  0.16995000  0.25800000  1.0
  H  H38  1  0.45259000  0.83004000  0.75800000  1.0
  H  H39  1  0.95259000  0.66995000  0.24199000  1.0
  H  H40  1  0.50448000  0.50575000  0.74599000  1.0
  H  H41  1  0.00448000  0.99424000  0.25401000  1.0
  H  H42  1  0.49553000  0.00575000  0.75401000  1.0
  H  H43  1  0.99552000  0.49425000  0.24599000  1.0
  H  H44  1  0.80792000  0.41946000  0.01350000  1.0
  H  H45  1  0.30791000  0.08054000  0.98650000  1.0
  H  H46  1  0.19209000  0.91946000  0.48650000  1.0
  H  H47  1  0.69208000  0.58054000  0.51350000  1.0
  H  H48  1  0.72347000  0.45847000  0.86777000  1.0
  H  H49  1  0.22347000  0.04154000  0.13223000  1.0
  H  H50  1  0.27653000  0.95846000  0.63222000  1.0
  H  H51  1  0.77653000  0.54153000  0.36777000  1.0
  C  C52  1  0.18366000  0.47135000  0.76587000  1.0
  C  C53  1  0.68365000  0.02865000  0.23413000  1.0
  C  C54  1  0.81635000  0.97135000  0.73413000  1.0
  C  C55  1  0.31634000  0.52865000  0.26587000  1.0
  C  C56  1  0.03147000  0.42353000  0.82239000  1.0
  C  C57  1  0.53146000  0.07646000  0.17762000  1.0
  C  C58  1  0.96854000  0.92354000  0.67762000  1.0
  C  C59  1  0.46853000  0.57646000  0.32238000  1.0
  C  C60  1  0.31461000  0.37417000  0.80044000  1.0
  C  C61  1  0.81461000  0.12583000  0.19957000  1.0
  C  C62  1  0.68540000  0.87417000  0.69957000  1.0
  C  C63  1  0.18539000  0.62583000  0.30043000  1.0
  C  C64  1  0.34819000  0.37425000  0.94137000  1.0
  C  C65  1  0.84820000  0.12575000  0.05863000  1.0
  C  C66  1  0.65181000  0.87424000  0.55863000  1.0
  C  C67  1  0.15180000  0.62575000  0.44137000  1.0
  C  C68  1  0.45739000  0.40502000  0.72325000  1.0
  C  C69  1  0.95739000  0.09498000  0.27675000  1.0
  C  C70  1  0.54261000  0.90502000  0.77675000  1.0
  C  C71  1  0.04261000  0.59498000  0.22325000  1.0
  C  C72  1  0.80682000  0.49558000  0.93750000  1.0
  C  C73  1  0.30682000  0.00442000  0.06250000  1.0
  C  C74  1  0.19318000  0.99558000  0.56250000  1.0
  C  C75  1  0.69318000  0.50442000  0.43749000  1.0
  C  C76  1  0.74848000  0.62910000  0.99102000  1.0
  C  C77  1  0.24848000  0.87090000  0.00899000  1.0
  C  C78  1  0.25152000  0.12910000  0.50899000  1.0
  C  C79  1  0.75152000  0.37090000  0.49102000  1.0
  N  N80  1  0.21442000  0.61417000  0.80102000  1.0
  N  N81  1  0.71441000  0.88583000  0.19897000  1.0
  N  N82  1  0.78559000  0.11417000  0.69897000  1.0
  N  N83  1  0.28558000  0.38584000  0.30102000  1.0
  N  N84  1  0.95530000  0.51892000  0.88359000  1.0
  N  N85  1  0.45530000  0.98108000  0.11640000  1.0
  N  N86  1  0.04470000  0.01892000  0.61640000  1.0
  N  N87  1  0.54470000  0.48108000  0.38359000  1.0
  O  O88  1  0.98762000  0.30226000  0.80771000  1.0
  O  O89  1  0.48763000  0.19774000  0.19229000  1.0
  O  O90  1  0.01237000  0.80226000  0.69229000  1.0
  O  O91  1  0.51237000  0.69774000  0.30771000  1.0
  O  O92  1  0.61972000  0.62835000  0.04571000  1.0
  O  O93  1  0.11971000  0.87166000  0.95430000  1.0
  O  O94  1  0.38029000  0.12835000  0.45430000  1.0
  O  O95  1  0.88028000  0.37165000  0.54570000  1.0
  O  O96  1  0.83103000  0.73572000  0.97840000  1.0
  O  O97  1  0.33104000  0.76428000  0.02161000  1.0
  O  O98  1  0.16896000  0.23572000  0.52161000  1.0
  O  O99  1  0.66896000  0.26428000  0.47840000  1.0
