# generated using pymatgen
data_CuH11C17SN2O7
_symmetry_space_group_name_H-M   'P 1'
_cell_length_a   9.16400000
_cell_length_b   10.56750000
_cell_length_c   10.70610000
_cell_angle_alpha   88.31380000
_cell_angle_beta   65.66100000
_cell_angle_gamma   77.77100000
_symmetry_Int_Tables_number   1
_chemical_formula_structural   CuH11C17SN2O7
_chemical_formula_sum   'Cu2 H22 C34 S2 N4 O14'
_cell_volume   921.25159109
_cell_formula_units_Z   2
loop_
 _symmetry_equiv_pos_site_id
 _symmetry_equiv_pos_as_xyz
  1  'x, y, z'
loop_
 _atom_site_type_symbol
 _atom_site_label
 _atom_site_symmetry_multiplicity
 _atom_site_fract_x
 _atom_site_fract_y
 _atom_site_fract_z
 _atom_site_occupancy
  Cu  Cu0  1  0.13007000  0.55084000  0.84321000  1.0
  Cu  Cu1  1  0.86994000  0.44915000  0.15680000  1.0
  H  H2  1  0.15598000  0.04261000  0.87910000  1.0
  H  H3  1  0.84402000  0.95738000  0.12091000  1.0
  H  H4  1  0.42370000  0.06651000  0.87499000  1.0
  H  H5  1  0.57629000  0.93349000  0.12501000  1.0
  H  H6  1  0.66088000  0.87837000  0.79967000  1.0
  H  H7  1  0.33913000  0.12164000  0.20032000  1.0
  H  H8  1  0.62868000  0.66379000  0.74300000  1.0
  H  H9  1  0.37134000  0.33622000  0.25699000  1.0
  H  H10  1  0.59373000  0.52803000  0.62487000  1.0
  H  H11  1  0.40627000  0.47197000  0.37512000  1.0
  H  H12  1  0.08853000  0.28392000  0.77336000  1.0
  H  H13  1  0.91146000  0.71608000  0.22664000  1.0
  H  H14  1  0.27602000  0.10024000  0.60418000  1.0
  H  H15  1  0.72397000  0.89976000  0.39583000  1.0
  H  H16  1  0.57691000  0.10449000  0.47754000  1.0
  H  H17  1  0.42308000  0.89550000  0.52247000  1.0
  H  H18  1  0.67291000  0.29612000  0.51777000  1.0
  H  H19  1  0.32708000  0.70387000  0.48223000  1.0
  H  H20  1  0.63577000  0.67521000  0.01317000  1.0
  H  H21  1  0.36423000  0.32480000  0.98683000  1.0
  H  H22  1  0.87525000  0.11728000  0.82967000  1.0
  H  H23  1  0.12474000  0.88272000  0.17033000  1.0
  C  C24  1  0.24216000  0.84106000  0.81216000  1.0
  C  C25  1  0.75784000  0.15893000  0.18785000  1.0
  C  C26  1  0.26042000  0.96048000  0.84762000  1.0
  C  C27  1  0.73958000  0.03951000  0.15239000  1.0
  C  C28  1  0.40990000  0.97368000  0.84542000  1.0
  C  C29  1  0.59010000  0.02632000  0.15458000  1.0
  C  C30  1  0.54341000  0.86761000  0.80337000  1.0
  C  C31  1  0.45659000  0.13240000  0.19662000  1.0
  C  C32  1  0.52551000  0.74702000  0.77011000  1.0
  C  C33  1  0.47450000  0.25298000  0.22988000  1.0
  C  C34  1  0.37366000  0.73148000  0.77745000  1.0
  C  C35  1  0.62634000  0.26852000  0.22255000  1.0
  C  C36  1  0.46712000  0.51611000  0.67867000  1.0
  C  C37  1  0.53289000  0.48389000  0.32132000  1.0
  C  C38  1  0.42887000  0.39381000  0.66082000  1.0
  C  C39  1  0.57113000  0.60619000  0.33918000  1.0
  C  C40  1  0.21753000  0.28389000  0.71365000  1.0
  C  C41  1  0.78246000  0.71611000  0.28635000  1.0
  C  C42  1  0.32485000  0.18071000  0.62011000  1.0
  C  C43  1  0.67514000  0.81929000  0.37990000  1.0
  C  C44  1  0.48982000  0.18386000  0.54976000  1.0
  C  C45  1  0.51017000  0.81613000  0.45024000  1.0
  C  C46  1  0.54413000  0.29147000  0.57155000  1.0
  C  C47  1  0.45586000  0.70852000  0.42845000  1.0
  C  C48  1  0.84790000  0.48145000  0.84707000  1.0
  C  C49  1  0.15210000  0.51856000  0.15295000  1.0
  C  C50  1  0.67046000  0.48224000  0.93073000  1.0
  C  C51  1  0.32954000  0.51776000  0.06927000  1.0
  C  C52  1  0.59453000  0.38225000  0.92260000  1.0
  C  C53  1  0.40548000  0.61776000  0.07740000  1.0
  C  C54  1  0.68387000  0.24976000  0.85518000  1.0
  C  C55  1  0.31613000  0.75024000  0.14482000  1.0
  C  C56  1  0.57598000  0.59751000  0.00900000  1.0
  C  C57  1  0.42402000  0.40250000  0.99099000  1.0
  S  S58  1  0.05654000  0.83000000  0.79989000  1.0
  S  S59  1  0.94346000  0.17000000  0.20011000  1.0
  N  N60  1  0.26871000  0.38821000  0.73210000  1.0
  N  N61  1  0.73129000  0.61179000  0.26790000  1.0
  N  N62  1  0.34769000  0.60930000  0.75466000  1.0
  N  N63  1  0.65232000  0.39070000  0.24534000  1.0
  O  O64  1  0.10251000  0.78760000  0.65824000  1.0
  O  O65  1  0.89750000  0.21239000  0.34176000  1.0
  O  O66  1  0.94455000  0.95667000  0.84742000  1.0
  O  O67  1  0.05545000  0.04332000  0.15258000  1.0
  O  O68  1  0.92796000  0.48568000  0.92287000  1.0
  O  O69  1  0.07204000  0.51431000  0.07714000  1.0
  O  O70  1  0.90188000  0.48571000  0.72080000  1.0
  O  O71  1  0.09813000  0.51433000  0.27921000  1.0
  O  O72  1  0.83425000  0.21304000  0.85364000  1.0
  O  O73  1  0.16576000  0.78696000  0.14636000  1.0
  O  O74  1  0.62075000  0.17943000  0.81323000  1.0
  O  O75  1  0.37924000  0.82058000  0.18677000  1.0
  O  O76  1  0.99103000  0.73110000  0.89983000  1.0
  O  O77  1  0.00897000  0.26890000  0.10016000  1.0
