# generated using pymatgen
data_ZnH6C15(N2O5)3
_symmetry_space_group_name_H-M   'P 1'
_cell_length_a   10.22450000
_cell_length_b   10.90760000
_cell_length_c   13.03410000
_cell_angle_alpha   108.02200000
_cell_angle_beta   98.56960000
_cell_angle_gamma   92.35630000
_symmetry_Int_Tables_number   1
_chemical_formula_structural   ZnH6C15(N2O5)3
_chemical_formula_sum   'Zn2 H12 C30 N12 O30'
_cell_volume   1360.98211269
_cell_formula_units_Z   2
loop_
 _symmetry_equiv_pos_site_id
 _symmetry_equiv_pos_as_xyz
  1  'x, y, z'
loop_
 _atom_site_type_symbol
 _atom_site_label
 _atom_site_symmetry_multiplicity
 _atom_site_fract_x
 _atom_site_fract_y
 _atom_site_fract_z
 _atom_site_occupancy
  Zn  Zn0  1  0.35943000  0.47006000  0.47237000  1.0
  Zn  Zn1  1  0.64669000  0.50346000  0.48981000  1.0
  H  H2  1  0.70231000  0.65556000  0.85487000  1.0
  H  H3  1  0.33847000  0.41076000  0.77896000  1.0
  H  H4  1  0.75664000  0.13251000  0.50068000  1.0
  H  H5  1  0.24477000  0.89483000  0.53951000  1.0
  H  H6  1  0.18435000  0.51897000  0.72932000  1.0
  H  H7  1  0.19609000  0.67560000  0.71076000  1.0
  H  H8  1  0.09531000  0.63563000  0.31280000  1.0
  H  H9  1  0.03558000  0.79353000  0.34104000  1.0
  H  H10  1  0.08802000  0.73245000  0.45159000  1.0
  H  H11  1  0.01316000  0.37975000  0.02760000  1.0
  H  H12  1  0.06922000  0.53677000  0.02230000  1.0
  H  H13  1  0.99463000  0.52420000  0.13480000  1.0
  C  C14  1  0.56300000  0.74322000  0.52688000  1.0
  C  C15  1  0.50940000  0.51076000  0.68514000  1.0
  C  C16  1  0.53193000  0.24951000  0.45555000  1.0
  C  C17  1  0.43179000  0.51524000  0.29147000  1.0
  C  C18  1  0.41702000  0.53241000  0.17929000  1.0
  C  C19  1  0.51906000  0.52829000  0.80485000  1.0
  C  C20  1  0.62359000  0.63271000  0.99166000  1.0
  C  C21  1  0.62420000  0.60836000  0.88162000  1.0
  C  C22  1  0.41806000  0.47252000  0.83979000  1.0
  C  C23  1  0.41484000  0.49698000  0.95249000  1.0
  C  C24  1  0.52321000  0.57555000  0.03266000  1.0
  C  C25  1  0.52286000  0.58113000  0.14337000  1.0
  C  C26  1  0.29675000  0.48329000  0.10158000  1.0
  C  C27  1  0.30539000  0.44998000  0.99016000  1.0
  C  C28  1  0.43871000  0.92273000  0.48674000  1.0
  C  C29  1  0.55927000  0.87580000  0.51541000  1.0
  C  C30  1  0.67113000  0.95834000  0.51959000  1.0
  C  C31  1  0.66513000  0.07538000  0.49711000  1.0
  C  C32  1  0.54256000  0.12093000  0.47145000  1.0
  C  C33  1  0.43147000  0.04015000  0.46694000  1.0
  C  C34  1  0.28319000  0.03028000  0.44188000  1.0
  C  C35  1  0.28883000  0.89014000  0.46619000  1.0
  C  C36  1  0.96124000  0.52735000  0.56486000  1.0
  C  C37  1  0.91101000  0.39891000  0.39224000  1.0
  C  C38  1  0.04750000  0.39287000  0.38792000  1.0
  C  C39  1  0.09598000  0.51533000  0.56319000  1.0
  C  C40  1  0.13866000  0.58084000  0.68467000  1.0
  C  C41  1  0.98628000  0.59090000  0.68815000  1.0
  C  C42  1  0.10624000  0.73402000  0.37070000  1.0
  C  C43  1  0.05731000  0.47777000  0.07548000  1.0
  N  N44  1  0.86447000  0.47251000  0.48022000  1.0
  N  N45  1  0.14326000  0.45198000  0.47352000  1.0
  N  N46  1  0.64282000  0.64292000  0.22573000  1.0
  N  N47  1  0.22321000  0.01163000  0.32377000  1.0
  N  N48  1  0.81167000  0.30798000  0.30233000  1.0
  N  N49  1  0.09031000  0.31455000  0.28477000  1.0
  N  N50  1  0.93016000  0.50318000  0.74775000  1.0
  N  N51  1  0.94564000  0.72743000  0.74067000  1.0
  N  N52  1  0.72623000  0.73536000  0.06385000  1.0
  N  N53  1  0.20166000  0.35650000  0.91172000  1.0
  N  N54  1  0.80720000  0.92738000  0.55329000  1.0
  N  N55  1  0.21951000  0.13294000  0.52213000  1.0
  O  O56  1  0.45565000  0.68842000  0.53462000  1.0
  O  O57  1  0.67448000  0.69285000  0.52158000  1.0
  O  O58  1  0.39080000  0.49779000  0.63228000  1.0
  O  O59  1  0.61580000  0.51105000  0.64666000  1.0
  O  O60  1  0.41662000  0.28890000  0.45073000  1.0
  O  O61  1  0.63837000  0.31157000  0.45206000  1.0
  O  O62  1  0.32805000  0.51208000  0.33443000  1.0
  O  O63  1  0.54673000  0.49742000  0.33199000  1.0
  O  O64  1  0.74969000  0.59923000  0.20673000  1.0
  O  O65  1  0.62723000  0.73509000  0.30434000  1.0
  O  O66  1  0.30204000  0.01576000  0.26178000  1.0
  O  O67  1  0.10171000  0.98775000  0.29881000  1.0
  O  O68  1  0.24159000  0.78215000  0.37781000  1.0
  O  O69  1  0.73641000  0.35330000  0.24453000  1.0
  O  O70  1  0.81700000  0.19440000  0.29960000  1.0
  O  O71  1  0.19927000  0.27259000  0.29327000  1.0
  O  O72  1  0.01066000  0.30016000  0.19994000  1.0
  O  O73  1  0.93905000  0.55151000  0.84719000  1.0
  O  O74  1  0.88692000  0.39273000  0.69060000  1.0
  O  O75  1  0.03495000  0.81597000  0.77410000  1.0
  O  O76  1  0.82680000  0.73323000  0.74450000  1.0
  O  O77  1  0.18446000  0.47348000  0.14039000  1.0
  O  O78  1  0.84176000  0.72715000  0.04693000  1.0
  O  O79  1  0.68569000  0.82564000  0.13203000  1.0
  O  O80  1  0.15241000  0.37718000  0.82607000  1.0
  O  O81  1  0.17039000  0.25960000  0.93606000  1.0
  O  O82  1  0.88087000  0.90341000  0.48387000  1.0
  O  O83  1  0.83810000  0.93453000  0.65028000  1.0
  O  O84  1  0.12570000  0.18656000  0.49001000  1.0
  O  O85  1  0.27062000  0.15338000  0.61880000  1.0
