# generated using pymatgen
data_CuH4C6IN
_symmetry_space_group_name_H-M   'P 1'
_cell_length_a   4.33063000
_cell_length_b   9.28998000
_cell_length_c   9.29094000
_cell_angle_alpha   60.17220000
_cell_angle_beta   84.39620000
_cell_angle_gamma   84.40700000
_symmetry_Int_Tables_number   1
_chemical_formula_structural   CuH4C6IN
_chemical_formula_sum   'Cu2 H8 C12 I2 N2'
_cell_volume   322.20269907
_cell_formula_units_Z   2
loop_
 _symmetry_equiv_pos_site_id
 _symmetry_equiv_pos_as_xyz
  1  'x, y, z'
loop_
 _atom_site_type_symbol
 _atom_site_label
 _atom_site_symmetry_multiplicity
 _atom_site_fract_x
 _atom_site_fract_y
 _atom_site_fract_z
 _atom_site_occupancy
  Cu  Cu0  1  0.50008000  0.13646000  0.86356000  1.0
  Cu  Cu1  1  0.49994000  0.86353000  0.13645000  1.0
  H  H2  1  0.13548000  0.35497000  0.89119000  1.0
  H  H3  1  0.86467000  0.10884000  0.64502000  1.0
  H  H4  1  0.86448000  0.64504000  0.10881000  1.0
  H  H5  1  0.13539000  0.89115000  0.35499000  1.0
  H  H6  1  0.80354000  0.59972000  0.86676000  1.0
  H  H7  1  0.19656000  0.13324000  0.40034000  1.0
  H  H8  1  0.19643000  0.40029000  0.13324000  1.0
  H  H9  1  0.80348000  0.86677000  0.59966000  1.0
  C  C10  1  0.32447000  0.48296000  0.63761000  1.0
  C  C11  1  0.67564000  0.36231000  0.51706000  1.0
  C  C12  1  0.67555000  0.51703000  0.36240000  1.0
  C  C13  1  0.32433000  0.63766000  0.48294000  1.0
  C  C14  1  0.13506000  0.47337000  0.77516000  1.0
  C  C15  1  0.86503000  0.22477000  0.52668000  1.0
  C  C16  1  0.86496000  0.52666000  0.22484000  1.0
  C  C17  1  0.13494000  0.77522000  0.47332000  1.0
  C  C18  1  0.95198000  0.60869000  0.76112000  1.0
  C  C19  1  0.04810000  0.23881000  0.39140000  1.0
  C  C20  1  0.04805000  0.39132000  0.23889000  1.0
  C  C21  1  0.95192000  0.76121000  0.60858000  1.0
  I  I22  1  0.69401000  0.12262000  0.12275000  1.0
  I  I23  1  0.30598000  0.87738000  0.87725000  1.0
  N  N24  1  0.50005000  0.34672000  0.65326000  1.0
  N  N25  1  0.49993000  0.65327000  0.34674000  1.0
