# generated using pymatgen
data_NiH20C14(SN9)2
_symmetry_space_group_name_H-M   'P 1'
_cell_length_a   6.45402000
_cell_length_b   9.25275000
_cell_length_c   10.92280000
_cell_angle_alpha   66.78350000
_cell_angle_beta   83.12710000
_cell_angle_gamma   77.16560000
_symmetry_Int_Tables_number   1
_chemical_formula_structural   NiH20C14(SN9)2
_chemical_formula_sum   'Ni1 H20 C14 S2 N18'
_cell_volume   584.10901832
_cell_formula_units_Z   1
loop_
 _symmetry_equiv_pos_site_id
 _symmetry_equiv_pos_as_xyz
  1  'x, y, z'
loop_
 _atom_site_type_symbol
 _atom_site_label
 _atom_site_symmetry_multiplicity
 _atom_site_fract_x
 _atom_site_fract_y
 _atom_site_fract_z
 _atom_site_occupancy
  Ni  Ni0  1  0.00000000  0.00000000  0.00000000  1.0
  H  H1  1  0.50217000  0.87538000  0.93332000  1.0
  H  H2  1  0.49783000  0.12461000  0.06669000  1.0
  H  H3  1  0.95802000  0.33741000  0.72703000  1.0
  H  H4  1  0.04198000  0.66258000  0.27298000  1.0
  H  H5  1  0.71697000  0.97186000  0.59089000  1.0
  H  H6  1  0.28302000  0.02814000  0.40912000  1.0
  H  H7  1  0.79142000  0.85449000  0.75859000  1.0
  H  H8  1  0.20858000  0.14551000  0.24141000  1.0
  H  H9  1  0.60676000  0.73959000  0.57271000  1.0
  H  H10  1  0.39324000  0.26042000  0.42728000  1.0
  H  H11  1  0.68067000  0.61775000  0.73806000  1.0
  H  H12  1  0.31932000  0.38225000  0.26194000  1.0
  H  H13  1  0.94991000  0.58539000  0.55263000  1.0
  H  H14  1  0.05009000  0.41461000  0.44737000  1.0
  H  H15  1  0.98425000  0.78196000  0.50924000  1.0
  H  H16  1  0.01575000  0.21804000  0.49076000  1.0
  H  H17  1  0.11932000  0.70921000  0.73799000  1.0
  H  H18  1  0.88068000  0.29079000  0.26201000  1.0
  H  H19  1  0.27725000  0.60640000  0.64080000  1.0
  H  H20  1  0.72275000  0.39360000  0.35920000  1.0
  C  C21  1  0.40205000  0.90815000  0.85029000  1.0
  C  C22  1  0.59795000  0.09185000  0.14972000  1.0
  C  C23  1  0.03505000  0.34375000  0.80716000  1.0
  C  C24  1  0.96495000  0.65624000  0.19285000  1.0
  C  C25  1  0.68837000  0.86858000  0.68045000  1.0
  C  C26  1  0.31162000  0.13142000  0.31955000  1.0
  C  C27  1  0.71947000  0.71849000  0.64863000  1.0
  C  C28  1  0.28053000  0.28151000  0.35136000  1.0
  C  C29  1  0.94460000  0.67710000  0.59404000  1.0
  C  C30  1  0.05541000  0.32290000  0.40596000  1.0
  C  C31  1  0.12173000  0.62272000  0.69217000  1.0
  C  C32  1  0.87827000  0.37727000  0.30782000  1.0
  C  C33  1  0.66596000  0.18735000  0.77973000  1.0
  C  C34  1  0.33405000  0.81265000  0.22027000  1.0
  S  S35  1  0.56302000  0.31599000  0.64075000  1.0
  S  S36  1  0.43698000  0.68401000  0.35925000  1.0
  N  N37  1  0.19242000  0.95765000  0.84707000  1.0
  N  N38  1  0.80758000  0.04235000  0.15294000  1.0
  N  N39  1  0.13494000  0.98904000  0.72200000  1.0
  N  N40  1  0.86506000  0.01096000  0.27801000  1.0
  N  N41  1  0.30272000  0.95982000  0.65032000  1.0
  N  N42  1  0.69727000  0.04018000  0.34968000  1.0
  N  N43  1  0.47143000  0.90912000  0.72941000  1.0
  N  N44  1  0.52857000  0.09088000  0.27059000  1.0
  N  N45  1  0.10838000  0.47043000  0.80293000  1.0
  N  N46  1  0.89163000  0.52958000  0.19707000  1.0
  N  N47  1  0.19196000  0.43394000  0.92169000  1.0
  N  N48  1  0.80804000  0.56606000  0.07831000  1.0
  N  N49  1  0.16727000  0.28891000  0.99613000  1.0
  N  N50  1  0.83273000  0.71109000  0.00387000  1.0
  N  N51  1  0.06990000  0.22991000  0.92767000  1.0
  N  N52  1  0.93011000  0.77010000  0.07233000  1.0
  N  N53  1  0.74234000  0.09263000  0.88149000  1.0
  N  N54  1  0.25767000  0.90737000  0.11851000  1.0
