# generated using pymatgen
data_UH10C7N2O7
_symmetry_space_group_name_H-M   'P 1'
_cell_length_a   6.92897000
_cell_length_b   8.17301000
_cell_length_c   11.12530000
_cell_angle_alpha   106.81400000
_cell_angle_beta   95.95830000
_cell_angle_gamma   110.78800000
_symmetry_Int_Tables_number   1
_chemical_formula_structural   UH10C7N2O7
_chemical_formula_sum   'U2 H20 C14 N4 O14'
_cell_volume   548.62494839
_cell_formula_units_Z   2
loop_
 _symmetry_equiv_pos_site_id
 _symmetry_equiv_pos_as_xyz
  1  'x, y, z'
loop_
 _atom_site_type_symbol
 _atom_site_label
 _atom_site_symmetry_multiplicity
 _atom_site_fract_x
 _atom_site_fract_y
 _atom_site_fract_z
 _atom_site_occupancy
  U  U0  1  0.03126000  0.14317000  0.74444000  1.0
  U  U1  1  0.96873000  0.85682000  0.25556000  1.0
  H  H2  1  0.45150000  0.17299000  0.13010000  1.0
  H  H3  1  0.54850000  0.82701000  0.86990000  1.0
  H  H4  1  0.53213000  0.41369000  0.15401000  1.0
  H  H5  1  0.46787000  0.58631000  0.84599000  1.0
  H  H6  1  0.68912000  0.15108000  0.97103000  1.0
  H  H7  1  0.31088000  0.84892000  0.02897000  1.0
  H  H8  1  0.78617000  0.39605000  0.01091000  1.0
  H  H9  1  0.21383000  0.60395000  0.98909000  1.0
  H  H10  1  0.84780000  0.19069000  0.18167000  1.0
  H  H11  1  0.15220000  0.80931000  0.81833000  1.0
  H  H12  1  0.11271000  0.35119000  0.35316000  1.0
  H  H13  1  0.88730000  0.64881000  0.64684000  1.0
  H  H14  1  0.24829000  0.64030000  0.59315000  1.0
  H  H15  1  0.75171000  0.35970000  0.40685000  1.0
  H  H16  1  0.47517000  0.83588000  0.60429000  1.0
  H  H17  1  0.52483000  0.16413000  0.39571000  1.0
  H  H18  1  0.40311000  0.72506000  0.35825000  1.0
  H  H19  1  0.59690000  0.27494000  0.64175000  1.0
  H  H20  1  0.47613000  0.58281000  0.42840000  1.0
  H  H21  1  0.52387000  0.41719000  0.57160000  1.0
  C  C22  1  0.33787000  0.22524000  0.96893000  1.0
  C  C23  1  0.66214000  0.77476000  0.03107000  1.0
  C  C24  1  0.50932000  0.27850000  0.08437000  1.0
  C  C25  1  0.49069000  0.72151000  0.91562000  1.0
  C  C26  1  0.71814000  0.28261000  0.04758000  1.0
  C  C27  1  0.28187000  0.71739000  0.95242000  1.0
  C  C28  1  0.03674000  0.46722000  0.22721000  1.0
  C  C29  1  0.96326000  0.53278000  0.77279000  1.0
  C  C30  1  0.31839000  0.73493000  0.54186000  1.0
  C  C31  1  0.68161000  0.26508000  0.45814000  1.0
  C  C32  1  0.19064000  0.84944000  0.53410000  1.0
  C  C33  1  0.80936000  0.15056000  0.46590000  1.0
  C  C34  1  0.34999000  0.63096000  0.41206000  1.0
  C  C35  1  0.65001000  0.36903000  0.58794000  1.0
  N  N36  1  0.87183000  0.30646000  0.15729000  1.0
  N  N37  1  0.12817000  0.69354000  0.84272000  1.0
  N  N38  1  0.15980000  0.47033000  0.33109000  1.0
  N  N39  1  0.84020000  0.52967000  0.66891000  1.0
  O  O40  1  0.21931000  0.31490000  0.96956000  1.0
  O  O41  1  0.78068000  0.68509000  0.03044000  1.0
  O  O42  1  0.30670000  0.08773000  0.86574000  1.0
  O  O43  1  0.69331000  0.91228000  0.13426000  1.0
  O  O44  1  0.23565000  0.29564000  0.69032000  1.0
  O  O45  1  0.76434000  0.70436000  0.30969000  1.0
  O  O46  1  0.82074000  0.98097000  0.78948000  1.0
  O  O47  1  0.17924000  0.01901000  0.21051000  1.0
  O  O48  1  0.07819000  0.61505000  0.19730000  1.0
  O  O49  1  0.92182000  0.38495000  0.80271000  1.0
  O  O50  1  0.07895000  0.87183000  0.61693000  1.0
  O  O51  1  0.92103000  0.12816000  0.38306000  1.0
  O  O52  1  0.20355000  0.92431000  0.44768000  1.0
  O  O53  1  0.79644000  0.07569000  0.55232000  1.0
