# generated using pymatgen
data_Tb2H20C28N2O17
_symmetry_space_group_name_H-M   'P 1'
_cell_length_a   10.24090000
_cell_length_b   12.11380000
_cell_length_c   13.00250000
_cell_angle_alpha   74.64660000
_cell_angle_beta   76.01680000
_cell_angle_gamma   71.15120000
_symmetry_Int_Tables_number   1
_chemical_formula_structural   Tb2H20C28N2O17
_chemical_formula_sum   'Tb4 H40 C56 N4 O34'
_cell_volume   1450.36625098
_cell_formula_units_Z   2
loop_
 _symmetry_equiv_pos_site_id
 _symmetry_equiv_pos_as_xyz
  1  'x, y, z'
loop_
 _atom_site_type_symbol
 _atom_site_label
 _atom_site_symmetry_multiplicity
 _atom_site_fract_x
 _atom_site_fract_y
 _atom_site_fract_z
 _atom_site_occupancy
  Tb  Tb0  1  0.69400000  0.21875000  0.55119000  1.0
  Tb  Tb1  1  0.30600000  0.78125000  0.44881000  1.0
  Tb  Tb2  1  0.29511000  0.28155000  0.39513000  1.0
  Tb  Tb3  1  0.70489000  0.71845000  0.60487000  1.0
  H  H4  1  0.61237000  0.07551000  0.42818000  1.0
  H  H5  1  0.38763000  0.92449000  0.57182000  1.0
  H  H6  1  0.76860000  0.00991000  0.43934000  1.0
  H  H7  1  0.23140000  0.99009000  0.56066000  1.0
  H  H8  1  0.80855000  0.96479000  0.64341000  1.0
  H  H9  1  0.19145000  0.03521000  0.35659000  1.0
  H  H10  1  0.81630000  0.03651000  0.73011000  1.0
  H  H11  1  0.18370000  0.96348000  0.26989000  1.0
  H  H12  1  0.21760000  0.51281000  0.46745000  1.0
  H  H13  1  0.78240000  0.48719000  0.53255000  1.0
  H  H14  1  0.37595000  0.46198000  0.46562000  1.0
  H  H15  1  0.62405000  0.53802000  0.53438000  1.0
  H  H16  1  0.52470000  0.24754000  0.91342000  1.0
  H  H17  1  0.47531000  0.75246000  0.08658000  1.0
  H  H18  1  0.36154000  0.32146000  0.07633000  1.0
  H  H19  1  0.63846000  0.67854000  0.92367000  1.0
  H  H20  1  0.20245000  0.52847000  0.04850000  1.0
  H  H21  1  0.79755000  0.47153000  0.95150000  1.0
  H  H22  1  0.16859000  0.96748000  0.86546000  1.0
  H  H23  1  0.83141000  0.03252000  0.13454000  1.0
  H  H24  1  0.33116000  0.76204000  0.88884000  1.0
  H  H25  1  0.66884000  0.23796000  0.11116000  1.0
  H  H26  1  0.03601000  0.62074000  0.84031000  1.0
  H  H27  1  0.96399000  0.37926000  0.15969000  1.0
  H  H28  1  0.86247000  0.81940000  0.80986000  1.0
  H  H29  1  0.13753000  0.18060000  0.19014000  1.0
  H  H30  1  0.50786000  0.86825000  0.93071000  1.0
  H  H31  1  0.49214000  0.13175000  0.06929000  1.0
  H  H32  1  0.32677000  0.98764000  0.05802000  1.0
  H  H33  1  0.67323000  0.01236000  0.94198000  1.0
  H  H34  1  0.15913000  0.17523000  0.98017000  1.0
  H  H35  1  0.84087000  0.82478000  0.01983000  1.0
  H  H36  1  0.79366000  0.34836000  0.79459000  1.0
  H  H37  1  0.20634000  0.65164000  0.20541000  1.0
  H  H38  1  0.99293000  0.16939000  0.82702000  1.0
  H  H39  1  0.00707000  0.83061000  0.17298000  1.0
  H  H40  1  0.28047000  0.37185000  0.71442000  1.0
  H  H41  1  0.71953000  0.62815000  0.28558000  1.0
  H  H42  1  0.09445000  0.55765000  0.67712000  1.0
  H  H43  1  0.90555000  0.44235000  0.32288000  1.0
  C  C44  1  0.55426000  0.35611000  0.71063000  1.0
  C  C45  1  0.44574000  0.64389000  0.28937000  1.0
  C  C46  1  0.39638000  0.62116000  0.68405000  1.0
  C  C47  1  0.60362000  0.37884000  0.31595000  1.0
  C  C48  1  0.38043000  0.53102000  0.78890000  1.0
  C  C49  1  0.61957000  0.46898000  0.21110000  1.0
  C  C50  1  0.46487000  0.41228000  0.80345000  1.0
  C  C51  1  0.53513000  0.58772000  0.19655000  1.0
  C  C52  1  0.45716000  0.33852000  0.90673000  1.0
  C  C53  1  0.54284000  0.66148000  0.09327000  1.0
  C  C54  1  0.36583000  0.37888000  0.99597000  1.0
  C  C55  1  0.63417000  0.62112000  0.00403000  1.0
  C  C56  1  0.27697000  0.49447000  0.98099000  1.0
  C  C57  1  0.72304000  0.50553000  0.01901000  1.0
  C  C58  1  0.28463000  0.56815000  0.87852000  1.0
  C  C59  1  0.71537000  0.43185000  0.12148000  1.0
  C  C60  1  0.13599000  0.89354000  0.85803000  1.0
  C  C61  1  0.86401000  0.10646000  0.14197000  1.0
  C  C62  1  0.22600000  0.78179000  0.87198000  1.0
  C  C63  1  0.77400000  0.21821000  0.12802000  1.0
  C  C64  1  0.05815000  0.70162000  0.84358000  1.0
  C  C65  1  0.94185000  0.29838000  0.15642000  1.0
  C  C66  1  0.96443000  0.81156000  0.82723000  1.0
  C  C67  1  0.03557000  0.18844000  0.17278000  1.0
  C  C68  1  0.99992000  0.91612000  0.83155000  1.0
  C  C69  1  0.00009000  0.08388000  0.16846000  1.0
  C  C70  1  0.97567000  0.30079000  0.50526000  1.0
  C  C71  1  0.02433000  0.69921000  0.49474000  1.0
  C  C72  1  0.01751000  0.19085000  0.45305000  1.0
  C  C73  1  0.98249000  0.80915000  0.54696000  1.0
  C  C74  1  0.36879000  0.15194000  0.62436000  1.0
  C  C75  1  0.63121000  0.84806000  0.37564000  1.0
  C  C76  1  0.54129000  0.90154000  0.72033000  1.0
  C  C77  1  0.45871000  0.09847000  0.27968000  1.0
  C  C78  1  0.35559000  0.09799000  0.74367000  1.0
  C  C79  1  0.64441000  0.90201000  0.25633000  1.0
  C  C80  1  0.44538000  0.98887000  0.78779000  1.0
  C  C81  1  0.55462000  0.01113000  0.21221000  1.0
  C  C82  1  0.43534000  0.95209000  0.90022000  1.0
  C  C83  1  0.56466000  0.04792000  0.09978000  1.0
  C  C84  1  0.33536000  0.01835000  0.97063000  1.0
  C  C85  1  0.66464000  0.98166000  0.02937000  1.0
  C  C86  1  0.24140000  0.12277000  0.92763000  1.0
  C  C87  1  0.75860000  0.87723000  0.07237000  1.0
  C  C88  1  0.25101000  0.16096000  0.81564000  1.0
  C  C89  1  0.74899000  0.83904000  0.18436000  1.0
  C  C90  1  0.89889000  0.35832000  0.78007000  1.0
  C  C91  1  0.10111000  0.64168000  0.21993000  1.0
  C  C92  1  0.00803000  0.25850000  0.79869000  1.0
  C  C93  1  0.99196000  0.74150000  0.20131000  1.0
  C  C94  1  0.17083000  0.37284000  0.73333000  1.0
  C  C95  1  0.82917000  0.62716000  0.26667000  1.0
  C  C96  1  0.06533000  0.47530000  0.71350000  1.0
  C  C97  1  0.93467000  0.52470000  0.28649000  1.0
  C  C98  1  0.92174000  0.47378000  0.73873000  1.0
  C  C99  1  0.07826000  0.52622000  0.26127000  1.0
  N  N100  1  0.18847000  0.68604000  0.86441000  1.0
  N  N101  1  0.81153000  0.31396000  0.13559000  1.0
  N  N102  1  0.14320000  0.26570000  0.77793000  1.0
  N  N103  1  0.85680000  0.73430000  0.22207000  1.0
  O  O104  1  0.63617000  0.25177000  0.73286000  1.0
  O  O105  1  0.36383000  0.74823000  0.26714000  1.0
  O  O106  1  0.54086000  0.40843000  0.61274000  1.0
  O  O107  1  0.45914000  0.59157000  0.38726000  1.0
  O  O108  1  0.49469000  0.66817000  0.67169000  1.0
  O  O109  1  0.50531000  0.33183000  0.32831000  1.0
  O  O110  1  0.31021000  0.64720000  0.62043000  1.0
  O  O111  1  0.68979000  0.35280000  0.37957000  1.0
  O  O112  1  0.91735000  0.02091000  0.81435000  1.0
  O  O113  1  0.08265000  0.97909000  0.18565000  1.0
  O  O114  1  0.84886000  0.33026000  0.55309000  1.0
  O  O115  1  0.15114000  0.66974000  0.44691000  1.0
  O  O116  1  0.06606000  0.35421000  0.49443000  1.0
  O  O117  1  0.93394000  0.64579000  0.50557000  1.0
  O  O118  1  0.92550000  0.13963000  0.46179000  1.0
  O  O119  1  0.07450000  0.86037000  0.53821000  1.0
  O  O120  1  0.14325000  0.16258000  0.40280000  1.0
  O  O121  1  0.85675000  0.83742000  0.59720000  1.0
  O  O122  1  0.27374000  0.15804000  0.57501000  1.0
  O  O123  1  0.72626000  0.84196000  0.42499000  1.0
  O  O124  1  0.46933000  0.19827000  0.58129000  1.0
  O  O125  1  0.53067000  0.80173000  0.41871000  1.0
  O  O126  1  0.53362000  0.91789000  0.62024000  1.0
  O  O127  1  0.46638000  0.08211000  0.37976000  1.0
  O  O128  1  0.62415000  0.80771000  0.76575000  1.0
  O  O129  1  0.37585000  0.19229000  0.23425000  1.0
  O  O130  1  0.81925000  0.56890000  0.72645000  1.0
  O  O131  1  0.18075000  0.43110000  0.27356000  1.0
  O  O132  1  0.69821000  0.08610000  0.44219000  1.0
  O  O133  1  0.30179000  0.91390000  0.55782000  1.0
  O  O134  1  0.76628000  0.04088000  0.67004000  1.0
  O  O135  1  0.23372000  0.95912000  0.32996000  1.0
  O  O136  1  0.29102000  0.43567000  0.47867000  1.0
  O  O137  1  0.70898000  0.56433000  0.52133000  1.0
