# generated using pymatgen
data_Zr3H15C23NO16
_symmetry_space_group_name_H-M   'P 1'
_cell_length_a   7.84661000
_cell_length_b   18.25050000
_cell_length_c   23.52632511
_cell_angle_alpha   90.64915941
_cell_angle_beta   97.54217108
_cell_angle_gamma   90.26510000
_symmetry_Int_Tables_number   1
_chemical_formula_structural   Zr3H15C23NO16
_chemical_formula_sum   'Zr6 H30 C46 N2 O32'
_cell_volume   3339.65155217
_cell_formula_units_Z   2
loop_
 _symmetry_equiv_pos_site_id
 _symmetry_equiv_pos_as_xyz
  1  'x, y, z'
loop_
 _atom_site_type_symbol
 _atom_site_label
 _atom_site_symmetry_multiplicity
 _atom_site_fract_x
 _atom_site_fract_y
 _atom_site_fract_z
 _atom_site_occupancy
  Zr  Zr0  1  0.98516000  0.10093000  0.92761000  1.0
  Zr  Zr1  1  0.03756000  0.89138000  0.06781000  1.0
  Zr  Zr2  1  0.76169000  0.93428000  0.94025000  1.0
  Zr  Zr3  1  0.25206000  0.05965000  0.05644000  1.0
  Zr  Zr4  1  0.80485000  0.06123000  0.05855000  1.0
  Zr  Zr5  1  0.21514000  0.92818000  0.93810000  1.0
  H  H6  1  0.02935000  0.17784000  0.04691000  1.0
  H  H7  1  0.67745000  0.90920000  0.05243000  1.0
  H  H8  1  0.38878000  0.91515000  0.05434000  1.0
  H  H9  1  0.96150000  0.96811000  0.85096000  1.0
  H  H10  1  0.66526000  0.18681000  0.13418000  1.0
  H  H11  1  0.58188000  0.83191000  0.85882000  1.0
  H  H12  1  0.07797000  0.81254000  0.87925000  1.0
  H  H13  1  0.94011000  0.16328000  0.13912000  1.0
  H  H14  1  0.39694000  0.17629000  0.13075000  1.0
  H  H15  1  0.51367000  0.10473000  0.01709000  1.0
  H  H16  1  0.32812000  0.80861000  0.86022000  1.0
  H  H17  1  0.76019000  0.03388000  0.16663000  1.0
  H  H18  1  0.98128000  0.88274000  0.17405000  1.0
  H  H19  1  0.04899000  0.10941000  0.81985000  1.0
  H  H20  1  0.40314000  0.99437000  0.85865000  1.0
  H  H21  1  0.30859000  0.11266000  0.16426000  1.0
  H  H22  1  0.80211000  0.95109000  0.14150000  1.0
  H  H23  1  0.50183000  0.98759000  0.98138000  1.0
  H  H24  1  0.54868000  0.22888000  0.08779000  1.0
  H  H25  1  0.46400000  0.76625000  0.90138000  1.0
  H  H26  1  0.64211000  0.90704000  0.82910000  1.0
  H  H27  1  0.21939000  0.03786000  0.85614000  1.0
  H  H28  1  0.20147000  0.49790000  0.00865000  1.0
  H  H29  1  0.82341000  0.49623000  0.98251000  1.0
  H  H30  1  0.13148000  0.21172000  0.78595000  1.0
  H  H31  1  0.82847000  0.18351000  0.71860000  1.0
  H  H32  1  0.84752000  0.80837000  0.21932000  1.0
  H  H33  1  0.15210000  0.83064000  0.28785000  1.0
  H  H34  1  0.80361000  0.01512000  0.49683000  1.0
  H  H35  1  0.18323000  0.99696000  0.51151000  1.0
  C  C36  1  0.74606000  0.21855000  0.98124000  1.0
  C  C37  1  0.25732000  0.21993000  0.98732000  1.0
  C  C38  1  0.65044000  0.07086000  0.83399000  1.0
  C  C39  1  0.77533000  0.77296000  0.99934000  1.0
  C  C40  1  0.27036000  0.77393000  0.01430000  1.0
  C  C41  1  0.34450000  0.94530000  0.16620000  1.0
  C  C42  1  0.42030000  0.43062000  0.99750000  1.0
  C  C43  1  0.59961000  0.43012000  0.99068000  1.0
  C  C44  1  0.68801000  0.49655000  0.98835000  1.0
  C  C45  1  0.60431000  0.56338000  0.99340000  1.0
  C  C46  1  0.42603000  0.56382000  0.00130000  1.0
  C  C47  1  0.33699000  0.49742000  0.00299000  1.0
  C  C48  1  0.23850000  0.13544000  0.72737000  1.0
  C  C49  1  0.11108000  0.17776000  0.74752000  1.0
  C  C50  1  0.95441000  0.16263000  0.71291000  1.0
  C  C51  1  0.98429000  0.11310000  0.66966000  1.0
  C  C52  1  0.74690000  0.88570000  0.27836000  1.0
  C  C53  1  0.87079000  0.84155000  0.25810000  1.0
  C  C54  1  0.02791000  0.85359000  0.29332000  1.0
  C  C55  1  0.00142000  0.90286000  0.33715000  1.0
  C  C56  1  0.61017000  0.03240000  0.55206000  1.0
  C  C57  1  0.42968000  0.02752000  0.55617000  1.0
  C  C58  1  0.32006000  0.00122000  0.50823000  1.0
  C  C59  1  0.37667000  0.97985000  0.45625000  1.0
  C  C60  1  0.55701000  0.98516000  0.45206000  1.0
  C  C61  1  0.66679000  0.01091000  0.50012000  1.0
  C  C62  1  0.63723000  0.96506000  0.40368000  1.0
  C  C63  1  0.73181000  0.94884000  0.36832000  1.0
  C  C64  1  0.24960000  0.95402000  0.41237000  1.0
  C  C65  1  0.12432000  0.93177000  0.37992000  1.0
  C  C66  1  0.34949000  0.04932000  0.60416000  1.0
  C  C67  1  0.25568000  0.06810000  0.63909000  1.0
  C  C68  1  0.86251000  0.08200000  0.62761000  1.0
  C  C69  1  0.73718000  0.05870000  0.59571000  1.0
  C  C70  1  0.33742000  0.36171000  0.99666000  1.0
  C  C71  1  0.29600000  0.29721000  0.99352000  1.0
  C  C72  1  0.73402000  0.69585000  0.99296000  1.0
  C  C73  1  0.68711000  0.63209000  0.99219000  1.0
  C  C74  1  0.30834000  0.69683000  0.01114000  1.0
  C  C75  1  0.34920000  0.63281000  0.00728000  1.0
  C  C76  1  0.67662000  0.36090000  0.98606000  1.0
  C  C77  1  0.71296000  0.29615000  0.98388000  1.0
  C  C78  1  0.46462000  0.92585000  0.21555000  1.0
  C  C79  1  0.58810000  0.90620000  0.24895000  1.0
  C  C80  1  0.52711000  0.09833000  0.78813000  1.0
  C  C81  1  0.39981000  0.11736000  0.75627000  1.0
  N  N82  1  0.16287000  0.09779000  0.67754000  1.0
  N  N83  1  0.82435000  0.92111000  0.32898000  1.0
  O  O84  1  0.11826000  0.10427000  0.85699000  1.0
  O  O85  1  0.82019000  0.19617000  0.93953000  1.0
  O  O86  1  0.78266000  0.10956000  0.85036000  1.0
  O  O87  1  0.33144000  0.17783000  0.02584000  1.0
  O  O88  1  0.61517000  0.00949000  0.85563000  1.0
  O  O89  1  0.15196000  0.20044000  0.94442000  1.0
  O  O90  1  0.70010000  0.17946000  0.02118000  1.0
  O  O91  1  0.80626000  0.04108000  0.96881000  1.0
  O  O92  1  0.02059000  0.12774000  0.03254000  1.0
  O  O93  1  0.96273000  0.97859000  0.89161000  1.0
  O  O94  1  0.18521000  0.04098000  0.96937000  1.0
  O  O95  1  0.52204000  0.05929000  0.03956000  1.0
  O  O96  1  0.55925000  0.21832000  0.12883000  1.0
  O  O97  1  0.03771000  0.00554000  0.07776000  1.0
  O  O98  1  0.76551000  0.93716000  0.03681000  1.0
  O  O99  1  0.00173000  0.89831000  0.97802000  1.0
  O  O100  1  0.28535000  0.94029000  0.03827000  1.0
  O  O101  1  0.49434000  0.94571000  0.95381000  1.0
  O  O102  1  0.70952000  0.81484000  0.95937000  1.0
  O  O103  1  0.86959000  0.79201000  0.04503000  1.0
  O  O104  1  0.27882000  0.98665000  0.86066000  1.0
  O  O105  1  0.20394000  0.79611000  0.05801000  1.0
  O  O106  1  0.68190000  0.87190000  0.85888000  1.0
  O  O107  1  0.15180000  0.85327000  0.87166000  1.0
  O  O108  1  0.44116000  0.78143000  0.86137000  1.0
  O  O109  1  0.30791000  0.81308000  0.97332000  1.0
  O  O110  1  0.90135000  0.88444000  0.13878000  1.0
  O  O111  1  0.28506000  0.14371000  0.13055000  1.0
  O  O112  1  0.23866000  0.89526000  0.14626000  1.0
  O  O113  1  0.35824000  0.00879000  0.14498000  1.0
  O  O114  1  0.83845000  0.13270000  0.12976000  1.0
  O  O115  1  0.73068000  0.99979000  0.13459000  1.0
