# generated using pymatgen
data_CdH16C16(BrN4)2
_symmetry_space_group_name_H-M   'P 1'
_cell_length_a   7.76756000
_cell_length_b   8.37015000
_cell_length_c   16.80570000
_cell_angle_alpha   90.00000000
_cell_angle_beta   89.99990000
_cell_angle_gamma   114.29400000
_symmetry_Int_Tables_number   1
_chemical_formula_structural   CdH16C16(BrN4)2
_chemical_formula_sum   'Cd2 H32 C32 Br4 N16'
_cell_volume   995.87672317
_cell_formula_units_Z   2
loop_
 _symmetry_equiv_pos_site_id
 _symmetry_equiv_pos_as_xyz
  1  'x, y, z'
loop_
 _atom_site_type_symbol
 _atom_site_label
 _atom_site_symmetry_multiplicity
 _atom_site_fract_x
 _atom_site_fract_y
 _atom_site_fract_z
 _atom_site_occupancy
  Cd  Cd0  1  0.00000000  0.50000000  0.50000000  1.0
  Cd  Cd1  1  0.99999000  0.00001000  0.00000000  1.0
  H  H2  1  0.85959000  0.06608000  0.42754000  1.0
  H  H3  1  0.14042000  0.43392000  0.92754000  1.0
  H  H4  1  0.14041000  0.93391000  0.57246000  1.0
  H  H5  1  0.85959000  0.56608000  0.07246000  1.0
  H  H6  1  0.50994000  0.33620000  0.44996000  1.0
  H  H7  1  0.49007000  0.16381000  0.94996000  1.0
  H  H8  1  0.49007000  0.66380000  0.55004000  1.0
  H  H9  1  0.50994000  0.83620000  0.05004000  1.0
  H  H10  1  0.20261000  0.08113000  0.41705000  1.0
  H  H11  1  0.79740000  0.41887000  0.91705000  1.0
  H  H12  1  0.79740000  0.91887000  0.58295000  1.0
  H  H13  1  0.20261000  0.58114000  0.08295000  1.0
  H  H14  1  0.20434000  0.87359000  0.40001000  1.0
  H  H15  1  0.79566000  0.62642000  0.90000000  1.0
  H  H16  1  0.79566000  0.12641000  0.60000000  1.0
  H  H17  1  0.20434000  0.37359000  0.09999000  1.0
  H  H18  1  0.50437000  0.08592000  0.24565000  1.0
  H  H19  1  0.49564000  0.41408000  0.74565000  1.0
  H  H20  1  0.49563000  0.91408000  0.75435000  1.0
  H  H21  1  0.50437000  0.58592000  0.25435000  1.0
  H  H22  1  0.40346000  0.09189000  0.10588000  1.0
  H  H23  1  0.59655000  0.40811000  0.60588000  1.0
  H  H24  1  0.59655000  0.90811000  0.89412000  1.0
  H  H25  1  0.40345000  0.59189000  0.39412000  1.0
  H  H26  1  0.85350000  0.98101000  0.17462000  1.0
  H  H27  1  0.14649000  0.51898000  0.67463000  1.0
  H  H28  1  0.14649000  0.01898000  0.82538000  1.0
  H  H29  1  0.85351000  0.48102000  0.32537000  1.0
  H  H30  1  0.92782000  0.95625000  0.31745000  1.0
  H  H31  1  0.07218000  0.54375000  0.81745000  1.0
  H  H32  1  0.07218000  0.04376000  0.68255000  1.0
  H  H33  1  0.92782000  0.45624000  0.18255000  1.0
  C  C34  1  0.73948000  0.09993000  0.42228000  1.0
  C  C35  1  0.26052000  0.40008000  0.92228000  1.0
  C  C36  1  0.26051000  0.90007000  0.57772000  1.0
  C  C37  1  0.73949000  0.59993000  0.07772000  1.0
  C  C38  1  0.56678000  0.24116000  0.43497000  1.0
  C  C39  1  0.43322000  0.25884000  0.93497000  1.0
  C  C40  1  0.43322000  0.75884000  0.56503000  1.0
  C  C41  1  0.56678000  0.74116000  0.06503000  1.0
  C  C42  1  0.26708000  0.01107000  0.38043000  1.0
  C  C43  1  0.73292000  0.48893000  0.88043000  1.0
  C  C44  1  0.73292000  0.98893000  0.61957000  1.0
  C  C45  1  0.26708000  0.51107000  0.11957000  1.0
  C  C46  1  0.22408000  0.02182000  0.29374000  1.0
  C  C47  1  0.77592000  0.47818000  0.79374000  1.0
  C  C48  1  0.77592000  0.97818000  0.70626000  1.0
  C  C49  1  0.22408000  0.52182000  0.20626000  1.0
  C  C50  1  0.35773000  0.05989000  0.23298000  1.0
  C  C51  1  0.64227000  0.44011000  0.73298000  1.0
  C  C52  1  0.64227000  0.94011000  0.76702000  1.0
  C  C53  1  0.35773000  0.55989000  0.26702000  1.0
  C  C54  1  0.30169000  0.06345000  0.15440000  1.0
  C  C55  1  0.69831000  0.43655000  0.65439000  1.0
  C  C56  1  0.69831000  0.93655000  0.84561000  1.0
  C  C57  1  0.30169000  0.56346000  0.34560000  1.0
  C  C58  1  0.99529000  0.99984000  0.19314000  1.0
  C  C59  1  0.00471000  0.50015000  0.69314000  1.0
  C  C60  1  0.00472000  0.00015000  0.80686000  1.0
  C  C61  1  0.99528000  0.49985000  0.30686000  1.0
  C  C62  1  0.03835000  0.99006000  0.27257000  1.0
  C  C63  1  0.96164000  0.50994000  0.77257000  1.0
  C  C64  1  0.96164000  0.00994000  0.72744000  1.0
  C  C65  1  0.03836000  0.49006000  0.22743000  1.0
  Br  Br66  1  0.80383000  0.70012000  0.46099000  1.0
  Br  Br67  1  0.19613000  0.79986000  0.96099000  1.0
  Br  Br68  1  0.19619000  0.29989000  0.53901000  1.0
  Br  Br69  1  0.80381000  0.20012000  0.03901000  1.0
  N  N70  1  0.46617000  0.08487000  0.40081000  1.0
  N  N71  1  0.53383000  0.41513000  0.90081000  1.0
  N  N72  1  0.53382000  0.91512000  0.59919000  1.0
  N  N73  1  0.46618000  0.58487000  0.09919000  1.0
  N  N74  1  0.57442000  0.99218000  0.39199000  1.0
  N  N75  1  0.42558000  0.50782000  0.89199000  1.0
  N  N76  1  0.42558000  0.00782000  0.60801000  1.0
  N  N77  1  0.57442000  0.49218000  0.10801000  1.0
  N  N78  1  0.74107000  0.25431000  0.44946000  1.0
  N  N79  1  0.25893000  0.24570000  0.94946000  1.0
  N  N80  1  0.25894000  0.74569000  0.55054000  1.0
  N  N81  1  0.74107000  0.75431000  0.05054000  1.0
  N  N82  1  0.12370000  0.03431000  0.13450000  1.0
  N  N83  1  0.87630000  0.46568000  0.63450000  1.0
  N  N84  1  0.87630000  0.96569000  0.86550000  1.0
  N  N85  1  0.12369000  0.53431000  0.36550000  1.0
