# generated using pymatgen
data_FeH12C12(SN7)2
_symmetry_space_group_name_H-M   'P 1'
_cell_length_a   7.88138000
_cell_length_b   7.88402000
_cell_length_c   16.97890000
_cell_angle_alpha   90.62860000
_cell_angle_beta   90.58190000
_cell_angle_gamma   106.78100000
_symmetry_Int_Tables_number   1
_chemical_formula_structural   FeH12C12(SN7)2
_chemical_formula_sum   'Fe2 H24 C24 S4 N28'
_cell_volume   1009.93098486
_cell_formula_units_Z   2
loop_
 _symmetry_equiv_pos_site_id
 _symmetry_equiv_pos_as_xyz
  1  'x, y, z'
loop_
 _atom_site_type_symbol
 _atom_site_label
 _atom_site_symmetry_multiplicity
 _atom_site_fract_x
 _atom_site_fract_y
 _atom_site_fract_z
 _atom_site_occupancy
  Fe  Fe0  1  0.99997000  0.00001000  0.50074000  1.0
  Fe  Fe1  1  0.00602000  0.00665000  0.99066000  1.0
  H  H2  1  0.83624000  0.58834000  0.44278000  1.0
  H  H3  1  0.16647000  0.42002000  0.93818000  1.0
  H  H4  1  0.41159000  0.16386000  0.55898000  1.0
  H  H5  1  0.57319000  0.83857000  0.06096000  1.0
  H  H6  1  0.16390000  0.41163000  0.55894000  1.0
  H  H7  1  0.83855000  0.57254000  0.06126000  1.0
  H  H8  1  0.58832000  0.83634000  0.44274000  1.0
  H  H9  1  0.41970000  0.16675000  0.93806000  1.0
  H  H10  1  0.27890000  0.98658000  0.36184000  1.0
  H  H11  1  0.72404000  0.01702000  0.85158000  1.0
  H  H12  1  0.01358000  0.72056000  0.63933000  1.0
  H  H13  1  0.97584000  0.28351000  0.14446000  1.0
  H  H14  1  0.72051000  0.01376000  0.63939000  1.0
  H  H15  1  0.28350000  0.97536000  0.14459000  1.0
  H  H16  1  0.98681000  0.27876000  0.36181000  1.0
  H  H17  1  0.01661000  0.72439000  0.85153000  1.0
  H  H18  1  0.27486000  0.56610000  0.25585000  1.0
  H  H19  1  0.72609000  0.43438000  0.74636000  1.0
  H  H20  1  0.43424000  0.72620000  0.74626000  1.0
  H  H21  1  0.56629000  0.27441000  0.25579000  1.0
  H  H22  1  0.37737000  0.80130000  0.25571000  1.0
  H  H23  1  0.62208000  0.19952000  0.74575000  1.0
  H  H24  1  0.19929000  0.62223000  0.74566000  1.0
  H  H25  1  0.80154000  0.37705000  0.25566000  1.0
  C  C26  1  0.29778000  0.29764000  0.42643000  1.0
  C  C27  1  0.69977000  0.70014000  0.91960000  1.0
  C  C28  1  0.70256000  0.70271000  0.57545000  1.0
  C  C29  1  0.30096000  0.30090000  0.07586000  1.0
  C  C30  1  0.95145000  0.65793000  0.40942000  1.0
  C  C31  1  0.05110000  0.34920000  0.90334000  1.0
  C  C32  1  0.34205000  0.04867000  0.59232000  1.0
  C  C33  1  0.64521000  0.95369000  0.09578000  1.0
  C  C34  1  0.04868000  0.34211000  0.59231000  1.0
  C  C35  1  0.95376000  0.64459000  0.09602000  1.0
  C  C36  1  0.65799000  0.95145000  0.40936000  1.0
  C  C37  1  0.34884000  0.05140000  0.90322000  1.0
  C  C38  1  0.17350000  0.86487000  0.36925000  1.0
  C  C39  1  0.82921000  0.13946000  0.85998000  1.0
  C  C40  1  0.13520000  0.82620000  0.63214000  1.0
  C  C41  1  0.85397000  0.17686000  0.13706000  1.0
  C  C42  1  0.82616000  0.13536000  0.63218000  1.0
  C  C43  1  0.17691000  0.85344000  0.13722000  1.0
  C  C44  1  0.86507000  0.17338000  0.36920000  1.0
  C  C45  1  0.13906000  0.82955000  0.85991000  1.0
  C  C46  1  0.25091000  0.69627000  0.25525000  1.0
  C  C47  1  0.74904000  0.30381000  0.74647000  1.0
  C  C48  1  0.30362000  0.74914000  0.74639000  1.0
  C  C49  1  0.69656000  0.25057000  0.25517000  1.0
  S  S50  1  0.45053000  0.45040000  0.38348000  1.0
  S  S51  1  0.54105000  0.54132000  0.88044000  1.0
  S  S52  1  0.55023000  0.55025000  0.61881000  1.0
  S  S53  1  0.45276000  0.45234000  0.12308000  1.0
  N  N54  1  0.18513000  0.18500000  0.45728000  1.0
  N  N55  1  0.81667000  0.81718000  0.94755000  1.0
  N  N56  1  0.81496000  0.81516000  0.54437000  1.0
  N  N57  1  0.18931000  0.18954000  0.04157000  1.0
  N  N58  1  0.15355000  0.71754000  0.32490000  1.0
  N  N59  1  0.84709000  0.28592000  0.81704000  1.0
  N  N60  1  0.28250000  0.84611000  0.67657000  1.0
  N  N61  1  0.71277000  0.15257000  0.18429000  1.0
  N  N62  1  0.84607000  0.28265000  0.67662000  1.0
  N  N63  1  0.15284000  0.71232000  0.18441000  1.0
  N  N64  1  0.71779000  0.15329000  0.32481000  1.0
  N  N65  1  0.28563000  0.84725000  0.81698000  1.0
  N  N66  1  0.01248000  0.58495000  0.34937000  1.0
  N  N67  1  0.98798000  0.41996000  0.84338000  1.0
  N  N68  1  0.41496000  0.98759000  0.65233000  1.0
  N  N69  1  0.57870000  0.01028000  0.15910000  1.0
  N  N70  1  0.98757000  0.41506000  0.65236000  1.0
  N  N71  1  0.01055000  0.57819000  0.15927000  1.0
  N  N72  1  0.58511000  0.01232000  0.34929000  1.0
  N  N73  1  0.41971000  0.98811000  0.84329000  1.0
  N  N74  1  0.04718000  0.83108000  0.42384000  1.0
  N  N75  1  0.95667000  0.17552000  0.91575000  1.0
  N  N76  1  0.16900000  0.95270000  0.57769000  1.0
  N  N77  1  0.81404000  0.05343000  0.08025000  1.0
  N  N78  1  0.95267000  0.16910000  0.57770000  1.0
  N  N79  1  0.05338000  0.81338000  0.08049000  1.0
  N  N80  1  0.83116000  0.04719000  0.42380000  1.0
  N  N81  1  0.17508000  0.95711000  0.91565000  1.0
