# generated using pymatgen
data_AlH27(C5O)9
_symmetry_space_group_name_H-M   'P 1'
_cell_length_a   3.97870000
_cell_length_b   23.55090000
_cell_length_c   23.55570000
_cell_angle_alpha   60.04320000
_cell_angle_beta   87.66940000
_cell_angle_gamma   87.54550000
_symmetry_Int_Tables_number   1
_chemical_formula_structural   AlH27(C5O)9
_chemical_formula_sum   'Al1 H27 C45 O9'
_cell_volume   1910.10768001
_cell_formula_units_Z   1
loop_
 _symmetry_equiv_pos_site_id
 _symmetry_equiv_pos_as_xyz
  1  'x, y, z'
loop_
 _atom_site_type_symbol
 _atom_site_label
 _atom_site_symmetry_multiplicity
 _atom_site_fract_x
 _atom_site_fract_y
 _atom_site_fract_z
 _atom_site_occupancy
  Al  Al0  1  0.94960000  0.50036000  0.49997000  1.0
  H  H1  1  0.14466000  0.32027000  0.66457000  1.0
  H  H2  1  0.15218000  0.20009000  0.72699000  1.0
  H  H3  1  0.18265000  0.10599000  0.77688000  1.0
  H  H4  1  0.17302000  0.98679000  0.83541000  1.0
  H  H5  1  0.77981000  0.72525000  0.19740000  1.0
  H  H6  1  0.70854000  0.77923000  0.10340000  1.0
  H  H7  1  0.71511000  0.83801000  0.98432000  1.0
  H  H8  1  0.47185000  0.89455000  0.89428000  1.0
  H  H9  1  0.17613000  0.51638000  0.31960000  1.0
  H  H10  1  0.18289000  0.57454000  0.19928000  1.0
  H  H11  1  0.25018000  0.61551000  0.10512000  1.0
  H  H12  1  0.23402000  0.67659000  0.98629000  1.0
  H  H13  1  0.74952000  0.57457000  0.72427000  1.0
  H  H14  1  0.71118000  0.61728000  0.77597000  1.0
  H  H15  1  0.73187000  0.67795000  0.83416000  1.0
  H  H16  1  0.46645000  0.71237000  0.89349000  1.0
  H  H17  1  0.11151000  0.66640000  0.51919000  1.0
  H  H18  1  0.11864000  0.72844000  0.57754000  1.0
  H  H19  1  0.17567000  0.78027000  0.61981000  1.0
  H  H20  1  0.17998000  0.83898000  0.68037000  1.0
  H  H21  1  0.80881000  0.19699000  0.57698000  1.0
  H  H22  1  0.77438000  0.10248000  0.62083000  1.0
  H  H23  1  0.77498000  0.98315000  0.68117000  1.0
  H  H24  1  0.46616000  0.89519000  0.71172000  1.0
  H  H25  1  0.78523000  0.48975000  0.63874000  1.0
  H  H26  1  0.84362000  0.36730000  0.49209000  1.0
  H  H27  1  0.80822000  0.64054000  0.36779000  1.0
  C  C28  1  0.45904000  0.39855000  0.55067000  1.0
  C  C29  1  0.42372000  0.55119000  0.55111000  1.0
  C  C30  1  0.45788000  0.55126000  0.39834000  1.0
  C  C31  1  0.29368000  0.29227000  0.64671000  1.0
  C  C32  1  0.29967000  0.22458000  0.68160000  1.0
  C  C33  1  0.31611000  0.08001000  0.75506000  1.0
  C  C34  1  0.31294000  0.01194000  0.78896000  1.0
  C  C35  1  0.64687000  0.64610000  0.29089000  1.0
  C  C36  1  0.64191000  0.67994000  0.22242000  1.0
  C  C37  1  0.60523000  0.75560000  0.07855000  1.0
  C  C38  1  0.60487000  0.78967000  0.01051000  1.0
  C  C39  1  0.47658000  0.32697000  0.58731000  1.0
  C  C40  1  0.48035000  0.18781000  0.65720000  1.0
  C  C41  1  0.47913000  0.11521000  0.69341000  1.0
  C  C42  1  0.47395000  0.97525000  0.76316000  1.0
  C  C43  1  0.47055000  0.90297000  0.79904000  1.0
  C  C44  1  0.47063000  0.86769000  0.86772000  1.0
  C  C45  1  0.31183000  0.56183000  0.29182000  1.0
  C  C46  1  0.31801000  0.59470000  0.22415000  1.0
  C  C47  1  0.35221000  0.66451000  0.07953000  1.0
  C  C48  1  0.34706000  0.69897000  0.01151000  1.0
  C  C49  1  0.61003000  0.56167000  0.64581000  1.0
  C  C50  1  0.60368000  0.59615000  0.67987000  1.0
  C  C51  1  0.59291000  0.66597000  0.75398000  1.0
  C  C52  1  0.60122000  0.70012000  0.78781000  1.0
  C  C53  1  0.47623000  0.58612000  0.32683000  1.0
  C  C54  1  0.48109000  0.65535000  0.18776000  1.0
  C  C55  1  0.48010000  0.69182000  0.11523000  1.0
  C  C56  1  0.47426000  0.76242000  0.97509000  1.0
  C  C57  1  0.47068000  0.79894000  0.90273000  1.0
  C  C58  1  0.46711000  0.76576000  0.86719000  1.0
  C  C59  1  0.25462000  0.64752000  0.56385000  1.0
  C  C60  1  0.26049000  0.68224000  0.59686000  1.0
  C  C61  1  0.29936000  0.75689000  0.66684000  1.0
  C  C62  1  0.30461000  0.79084000  0.70096000  1.0
  C  C63  1  0.66593000  0.29067000  0.56326000  1.0
  C  C64  1  0.65907000  0.22218000  0.59775000  1.0
  C  C65  1  0.63960000  0.07808000  0.66780000  1.0
  C  C66  1  0.63780000  0.01002000  0.70176000  1.0
  C  C67  1  0.43082000  0.58718000  0.58668000  1.0
  C  C68  1  0.43508000  0.65684000  0.65627000  1.0
  C  C69  1  0.44226000  0.69329000  0.69238000  1.0
  C  C70  1  0.45632000  0.76339000  0.76227000  1.0
  C  C71  1  0.46355000  0.79947000  0.79850000  1.0
  C  C72  1  0.46696000  0.86817000  0.76514000  1.0
  O  O73  1  0.67780000  0.56468000  0.42910000  1.0
  O  O74  1  0.69324000  0.42903000  0.50665000  1.0
  O  O75  1  0.65859000  0.50643000  0.56369000  1.0
  O  O76  1  0.22627000  0.50986000  0.42811000  1.0
  O  O77  1  0.19160000  0.56339000  0.51038000  1.0
  O  O78  1  0.21414000  0.42846000  0.56234000  1.0
  O  O79  1  0.78584000  0.50416000  0.67191000  1.0
  O  O80  1  0.84970000  0.31967000  0.50682000  1.0
  O  O81  1  0.81113000  0.67326000  0.32017000  1.0
