# generated using pymatgen
data_ZnH18C27(NO4)2
_symmetry_space_group_name_H-M   'P 1'
_cell_length_a   8.36051000
_cell_length_b   11.27230000
_cell_length_c   13.00070000
_cell_angle_alpha   100.39100000
_cell_angle_beta   92.61010000
_cell_angle_gamma   109.17100000
_symmetry_Int_Tables_number   1
_chemical_formula_structural   ZnH18C27(NO4)2
_chemical_formula_sum   'Zn2 H36 C54 N4 O16'
_cell_volume   1131.02685647
_cell_formula_units_Z   2
loop_
 _symmetry_equiv_pos_site_id
 _symmetry_equiv_pos_as_xyz
  1  'x, y, z'
loop_
 _atom_site_type_symbol
 _atom_site_label
 _atom_site_symmetry_multiplicity
 _atom_site_fract_x
 _atom_site_fract_y
 _atom_site_fract_z
 _atom_site_occupancy
  Zn  Zn0  1  0.25671000  0.41020000  0.37788000  1.0
  Zn  Zn1  1  0.74329000  0.58980000  0.62212000  1.0
  H  H2  1  0.67540000  0.08307000  0.06932000  1.0
  H  H3  1  0.32460000  0.91692000  0.93068000  1.0
  H  H4  1  0.80664000  0.32092000  0.10413000  1.0
  H  H5  1  0.19337000  0.67908000  0.89587000  1.0
  H  H6  1  0.57582000  0.52019000  0.14903000  1.0
  H  H7  1  0.42418000  0.47981000  0.85096000  1.0
  H  H8  1  0.64412000  0.62046000  0.99307000  1.0
  H  H9  1  0.35589000  0.37955000  0.00693000  1.0
  H  H10  1  0.94514000  0.69848000  0.95173000  1.0
  H  H11  1  0.05487000  0.30153000  0.04827000  1.0
  H  H12  1  0.17709000  0.68178000  0.07184000  1.0
  H  H13  1  0.82291000  0.31823000  0.92816000  1.0
  H  H14  1  0.48100000  0.11067000  0.36972000  1.0
  H  H15  1  0.51901000  0.88933000  0.63028000  1.0
  H  H16  1  0.02720000  0.38888000  0.56498000  1.0
  H  H17  1  0.97279000  0.61112000  0.43502000  1.0
  H  H18  1  0.79845000  0.20878000  0.61971000  1.0
  H  H19  1  0.20154000  0.79122000  0.38029000  1.0
  H  H20  1  0.71096000  0.98752000  0.50909000  1.0
  H  H21  1  0.28904000  0.01248000  0.49091000  1.0
  H  H22  1  0.87963000  0.81603000  0.18111000  1.0
  H  H23  1  0.12037000  0.18397000  0.81889000  1.0
  H  H24  1  0.74395000  0.84162000  0.34444000  1.0
  H  H25  1  0.25605000  0.15838000  0.65556000  1.0
  H  H26  1  0.09093000  0.91535000  0.05971000  1.0
  H  H27  1  0.90907000  0.08465000  0.94029000  1.0
  H  H28  1  0.31436000  0.11267000  0.02426000  1.0
  H  H29  1  0.68564000  0.88733000  0.97574000  1.0
  H  H30  1  0.38917000  0.31812000  0.15805000  1.0
  H  H31  1  0.61082000  0.68188000  0.84195000  1.0
  H  H32  1  0.42374000  0.58870000  0.30055000  1.0
  H  H33  1  0.57627000  0.41130000  0.69945000  1.0
  H  H34  1  0.52642000  0.59151000  0.40856000  1.0
  H  H35  1  0.47358000  0.40848000  0.59144000  1.0
  H  H36  1  0.36008000  0.79189000  0.24664000  1.0
  H  H37  1  0.63992000  0.20811000  0.75336000  1.0
  C  C38  1  0.66618000  0.14117000  0.14383000  1.0
  C  C39  1  0.33382000  0.85883000  0.85617000  1.0
  C  C40  1  0.73851000  0.27359000  0.16290000  1.0
  C  C41  1  0.26149000  0.72640000  0.83710000  1.0
  C  C42  1  0.72230000  0.34861000  0.25766000  1.0
  C  C43  1  0.27771000  0.65139000  0.74234000  1.0
  C  C44  1  0.83417000  0.53663000  0.19079000  1.0
  C  C45  1  0.16583000  0.46336000  0.80920000  1.0
  C  C46  1  0.70544000  0.55194000  0.12796000  1.0
  C  C47  1  0.29457000  0.44806000  0.87203000  1.0
  C  C48  1  0.74562000  0.60940000  0.04177000  1.0
  C  C49  1  0.25438000  0.39060000  0.95823000  1.0
  C  C50  1  0.91480000  0.65497000  0.02004000  1.0
  C  C51  1  0.08521000  0.34503000  0.97996000  1.0
  C  C52  1  0.04370000  0.64496000  0.08609000  1.0
  C  C53  1  0.95630000  0.35504000  0.91391000  1.0
  C  C54  1  0.00529000  0.58393000  0.17151000  1.0
  C  C55  1  0.99471000  0.41607000  0.82849000  1.0
  C  C56  1  0.14461000  0.56350000  0.23495000  1.0
  C  C57  1  0.85539000  0.43650000  0.76506000  1.0
  C  C58  1  0.60527000  0.36601000  0.43597000  1.0
  C  C59  1  0.39474000  0.63399000  0.56403000  1.0
  C  C60  1  0.63068000  0.28983000  0.33434000  1.0
  C  C61  1  0.36933000  0.71017000  0.66566000  1.0
  C  C62  1  0.55676000  0.15603000  0.31245000  1.0
  C  C63  1  0.44325000  0.84397000  0.68755000  1.0
  C  C64  1  0.57412000  0.08035000  0.21841000  1.0
  C  C65  1  0.42588000  0.91965000  0.78159000  1.0
  C  C66  1  0.49134000  0.93880000  0.19161000  1.0
  C  C67  1  0.50866000  0.06120000  0.80839000  1.0
  C  C68  1  0.98421000  0.29103000  0.51880000  1.0
  C  C69  1  0.01578000  0.70897000  0.48120000  1.0
  C  C70  1  0.85733000  0.18986000  0.54877000  1.0
  C  C71  1  0.14266000  0.81013000  0.45123000  1.0
  C  C72  1  0.80863000  0.06760000  0.48733000  1.0
  C  C73  1  0.19137000  0.93240000  0.51267000  1.0
  C  C74  1  0.88551000  0.04599000  0.39452000  1.0
  C  C75  1  0.11448000  0.95401000  0.60549000  1.0
  C  C76  1  0.01215000  0.15337000  0.37034000  1.0
  C  C77  1  0.98785000  0.84663000  0.62966000  1.0
  C  C78  1  0.09371000  0.13790000  0.27605000  1.0
  C  C79  1  0.90629000  0.86210000  0.72395000  1.0
  C  C80  1  0.04409000  0.01585000  0.20717000  1.0
  C  C81  1  0.95591000  0.98415000  0.79283000  1.0
  C  C82  1  0.91654000  0.90920000  0.23436000  1.0
  C  C83  1  0.08346000  0.09080000  0.76564000  1.0
  C  C84  1  0.84103000  0.92351000  0.32464000  1.0
  C  C85  1  0.15896000  0.07649000  0.67536000  1.0
  C  C86  1  0.12526000  0.00762000  0.11434000  1.0
  C  C87  1  0.87473000  0.99238000  0.88566000  1.0
  C  C88  1  0.24767000  0.11559000  0.09444000  1.0
  C  C89  1  0.75232000  0.88441000  0.90556000  1.0
  C  C90  1  0.28979000  0.23162000  0.16878000  1.0
  C  C91  1  0.71021000  0.76838000  0.83122000  1.0
  N  N92  1  0.21536000  0.24245000  0.25637000  1.0
  N  N93  1  0.78463000  0.75755000  0.74363000  1.0
  N  N94  1  0.05975000  0.27239000  0.43240000  1.0
  N  N95  1  0.94025000  0.72761000  0.56760000  1.0
  O  O96  1  0.10443000  0.46578000  0.27616000  1.0
  O  O97  1  0.89557000  0.53422000  0.72384000  1.0
  O  O98  1  0.45562000  0.33435000  0.46536000  1.0
  O  O99  1  0.54438000  0.66565000  0.53463000  1.0
  O  O100  1  0.47829000  0.53707000  0.33633000  1.0
  O  O101  1  0.52171000  0.46293000  0.66367000  1.0
  O  O102  1  0.29627000  0.64382000  0.24110000  1.0
  O  O103  1  0.70373000  0.35618000  0.75890000  1.0
  O  O104  1  0.78922000  0.47965000  0.27642000  1.0
  O  O105  1  0.21079000  0.52035000  0.72358000  1.0
  O  O106  1  0.40923000  0.88984000  0.26886000  1.0
  O  O107  1  0.59077000  0.11016000  0.73114000  1.0
  O  O108  1  0.49568000  0.87201000  0.10594000  1.0
  O  O109  1  0.50432000  0.12799000  0.89406000  1.0
  O  O110  1  0.73596000  0.45556000  0.48658000  1.0
  O  O111  1  0.26404000  0.54444000  0.51342000  1.0
