# generated using pymatgen
data_CdH16C22(NO2)2
_symmetry_space_group_name_H-M   'P 1'
_cell_length_a   8.60545000
_cell_length_b   10.34730000
_cell_length_c   11.93170000
_cell_angle_alpha   83.46560000
_cell_angle_beta   73.31620000
_cell_angle_gamma   68.90940000
_symmetry_Int_Tables_number   1
_chemical_formula_structural   CdH16C22(NO2)2
_chemical_formula_sum   'Cd2 H32 C44 N4 O8'
_cell_volume   949.47246872
_cell_formula_units_Z   2
loop_
 _symmetry_equiv_pos_site_id
 _symmetry_equiv_pos_as_xyz
  1  'x, y, z'
loop_
 _atom_site_type_symbol
 _atom_site_label
 _atom_site_symmetry_multiplicity
 _atom_site_fract_x
 _atom_site_fract_y
 _atom_site_fract_z
 _atom_site_occupancy
  Cd  Cd0  1  0.17858000  0.30962000  0.41444000  1.0
  Cd  Cd1  1  0.82143000  0.69038000  0.58556000  1.0
  H  H2  1  0.27152000  0.05442000  0.57839000  1.0
  H  H3  1  0.72849000  0.94558000  0.42161000  1.0
  H  H4  1  0.37959000  0.97364000  0.75511000  1.0
  H  H5  1  0.62042000  0.02635000  0.24488000  1.0
  H  H6  1  0.40146000  0.38179000  0.77225000  1.0
  H  H7  1  0.59854000  0.61821000  0.22775000  1.0
  H  H8  1  0.28407000  0.44726000  0.59645000  1.0
  H  H9  1  0.71593000  0.55274000  0.40355000  1.0
  H  H10  1  0.49062000  0.21428000  0.91916000  1.0
  H  H11  1  0.50938000  0.78571000  0.08085000  1.0
  H  H12  1  0.43550000  0.93567000  0.91897000  1.0
  H  H13  1  0.56449000  0.06433000  0.08103000  1.0
  H  H14  1  0.58355000  0.23618000  0.44447000  1.0
  H  H15  1  0.41647000  0.76382000  0.55553000  1.0
  H  H16  1  0.84742000  0.29132000  0.33850000  1.0
  H  H17  1  0.15259000  0.70869000  0.66149000  1.0
  H  H18  1  0.64329000  0.39503000  0.03518000  1.0
  H  H19  1  0.35669000  0.60496000  0.96482000  1.0
  H  H20  1  0.38559000  0.33850000  0.15597000  1.0
  H  H21  1  0.61441000  0.66149000  0.84404000  1.0
  H  H22  1  0.02474000  0.35153000  0.15887000  1.0
  H  H23  1  0.97525000  0.64848000  0.84113000  1.0
  H  H24  1  0.81680000  0.52560000  0.98702000  1.0
  H  H25  1  0.18319000  0.47441000  0.01298000  1.0
  H  H26  1  0.10726000  0.07906000  0.11166000  1.0
  H  H27  1  0.89273000  0.92095000  0.88834000  1.0
  H  H28  1  0.06737000  0.88598000  0.02610000  1.0
  H  H29  1  0.93263000  0.11402000  0.97390000  1.0
  H  H30  1  0.07845000  0.66758000  0.14152000  1.0
  H  H31  1  0.92156000  0.33242000  0.85848000  1.0
  H  H32  1  0.16268000  0.83536000  0.42306000  1.0
  H  H33  1  0.83731000  0.16464000  0.57694000  1.0
  C  C34  1  0.30134000  0.12303000  0.62530000  1.0
  C  C35  1  0.69867000  0.87697000  0.37470000  1.0
  C  C36  1  0.36038000  0.07983000  0.72429000  1.0
  C  C37  1  0.63963000  0.92017000  0.27571000  1.0
  C  C38  1  0.39578000  0.17281000  0.78235000  1.0
  C  C39  1  0.60423000  0.82719000  0.21765000  1.0
  C  C40  1  0.37181000  0.30650000  0.73309000  1.0
  C  C41  1  0.62819000  0.69350000  0.26692000  1.0
  C  C42  1  0.30919000  0.34327000  0.63479000  1.0
  C  C43  1  0.69082000  0.65673000  0.36521000  1.0
  C  C44  1  0.45446000  0.13663000  0.88781000  1.0
  C  C45  1  0.54553000  0.86336000  0.11219000  1.0
  C  C46  1  0.46952000  0.01551000  0.94866000  1.0
  C  C47  1  0.53048000  0.98448000  0.05135000  1.0
  C  C48  1  0.60123000  0.27261000  0.35371000  1.0
  C  C49  1  0.39878000  0.72739000  0.64629000  1.0
  C  C50  1  0.74870000  0.30271000  0.29426000  1.0
  C  C51  1  0.25130000  0.69729000  0.70574000  1.0
  C  C52  1  0.76721000  0.35210000  0.17783000  1.0
  C  C53  1  0.23278000  0.64790000  0.82216000  1.0
  C  C54  1  0.63442000  0.36274000  0.12635000  1.0
  C  C55  1  0.36557000  0.63725000  0.87365000  1.0
  C  C56  1  0.49186000  0.32981000  0.19219000  1.0
  C  C57  1  0.50815000  0.67017000  0.80781000  1.0
  C  C58  1  0.91642000  0.39211000  0.11918000  1.0
  C  C59  1  0.08357000  0.60790000  0.88081000  1.0
  C  C60  1  0.92598000  0.47966000  0.02562000  1.0
  C  C61  1  0.07401000  0.52035000  0.97437000  1.0
  C  C62  1  0.16374000  0.08244000  0.32259000  1.0
  C  C63  1  0.83626000  0.91756000  0.67742000  1.0
  C  C64  1  0.13980000  0.96765000  0.27137000  1.0
  C  C65  1  0.86019000  0.03235000  0.72863000  1.0
  C  C66  1  0.11065000  0.98262000  0.16007000  1.0
  C  C67  1  0.88934000  0.01738000  0.83993000  1.0
  C  C68  1  0.08983000  0.87470000  0.11266000  1.0
  C  C69  1  0.91016000  0.12530000  0.88735000  1.0
  C  C70  1  0.09775000  0.75183000  0.17617000  1.0
  C  C71  1  0.90225000  0.24817000  0.82383000  1.0
  C  C72  1  0.12459000  0.73636000  0.28821000  1.0
  C  C73  1  0.87541000  0.26364000  0.71179000  1.0
  C  C74  1  0.14476000  0.84503000  0.33549000  1.0
  C  C75  1  0.85524000  0.15497000  0.66451000  1.0
  C  C76  1  0.12545000  0.60586000  0.35763000  1.0
  C  C77  1  0.87455000  0.39414000  0.64237000  1.0
  N  N78  1  0.27420000  0.25309000  0.58134000  1.0
  N  N79  1  0.72580000  0.74691000  0.41866000  1.0
  N  N80  1  0.47310000  0.28700000  0.30484000  1.0
  N  N81  1  0.52690000  0.71299000  0.69516000  1.0
  O  O82  1  0.16855000  0.19061000  0.25933000  1.0
  O  O83  1  0.83145000  0.80940000  0.74067000  1.0
  O  O84  1  0.17510000  0.07083000  0.42733000  1.0
  O  O85  1  0.82490000  0.92917000  0.57267000  1.0
  O  O86  1  0.12749000  0.50546000  0.30325000  1.0
  O  O87  1  0.87252000  0.49454000  0.69675000  1.0
  O  O88  1  0.12305000  0.60049000  0.46564000  1.0
  O  O89  1  0.87696000  0.39951000  0.53436000  1.0
