# generated using pymatgen
data_ZnH24C26S2N2(ClO4)2
_symmetry_space_group_name_H-M   'P 1'
_cell_length_a   11.31910000
_cell_length_b   11.31794583
_cell_length_c   14.03280000
_cell_angle_alpha   101.79026654
_cell_angle_beta   101.79800000
_cell_angle_gamma   119.39539739
_symmetry_Int_Tables_number   1
_chemical_formula_structural   ZnH24C26S2N2(ClO4)2
_chemical_formula_sum   'Zn2 H48 C52 S4 N4 Cl4 O16'
_cell_volume   1432.00600354
_cell_formula_units_Z   2
loop_
 _symmetry_equiv_pos_site_id
 _symmetry_equiv_pos_as_xyz
  1  'x, y, z'
loop_
 _atom_site_type_symbol
 _atom_site_label
 _atom_site_symmetry_multiplicity
 _atom_site_fract_x
 _atom_site_fract_y
 _atom_site_fract_z
 _atom_site_occupancy
  Zn  Zn0  1  0.79956000  0.79961000  0.99999000  1.0
  Zn  Zn1  1  0.04966000  0.54957000  0.49995000  1.0
  H  H2  1  0.72390000  0.60331000  0.44449000  1.0
  H  H3  1  0.15884000  0.27879000  0.55539000  1.0
  H  H4  1  0.52880000  0.90871000  0.05519000  1.0
  H  H5  1  0.85319000  0.47374000  0.94414000  1.0
  H  H6  1  0.69927000  0.42074000  0.29910000  1.0
  H  H7  1  0.12190000  0.39964000  0.70106000  1.0
  H  H8  1  0.64973000  0.87175000  0.20081000  1.0
  H  H9  1  0.67070000  0.44912000  0.79870000  1.0
  H  H10  1  0.26386000  0.10986000  0.28055000  1.0
  H  H11  1  0.82870000  0.98317000  0.71992000  1.0
  H  H12  1  0.23334000  0.57888000  0.21994000  1.0
  H  H13  1  0.35948000  0.01397000  0.78055000  1.0
  H  H14  1  0.29514000  0.29415000  0.43444000  1.0
  H  H15  1  0.85908000  0.86056000  0.56592000  1.0
  H  H16  1  0.11077000  0.60926000  0.06595000  1.0
  H  H17  1  0.54373000  0.04533000  0.93450000  1.0
  H  H18  1  0.61779000  0.49013000  0.65424000  1.0
  H  H19  1  0.83596000  0.96404000  0.34603000  1.0
  H  H20  1  0.21398000  0.58598000  0.84599000  1.0
  H  H21  1  0.74005000  0.36796000  0.15421000  1.0
  H  H22  1  0.76083000  0.63633000  0.63314000  1.0
  H  H23  1  0.00328000  0.12768000  0.36662000  1.0
  H  H24  1  0.37761000  0.75330000  0.86658000  1.0
  H  H25  1  0.88636000  0.51083000  0.13306000  1.0
  H  H26  1  0.71431000  0.64277000  0.15185000  1.0
  H  H27  1  0.49143000  0.56299000  0.84811000  1.0
  H  H28  1  0.81309000  0.24129000  0.34805000  1.0
  H  H29  1  0.89298000  0.46421000  0.65181000  1.0
  H  H30  1  0.49975000  0.42970000  0.15984000  1.0
  H  H31  1  0.27066000  0.34039000  0.84023000  1.0
  H  H32  1  0.59049000  0.02051000  0.34016000  1.0
  H  H33  1  0.67976000  0.24965000  0.65974000  1.0
  H  H34  1  0.21003000  0.08666000  0.85989000  1.0
  H  H35  1  0.22632000  0.34950000  0.14007000  1.0
  H  H36  1  0.59958000  0.97635000  0.64010000  1.0
  H  H37  1  0.33687000  0.96024000  0.35991000  1.0
  H  H38  1  0.99594000  0.87357000  0.86815000  1.0
  H  H39  1  0.00488000  0.12744000  0.13180000  1.0
  H  H40  1  0.37737000  0.75497000  0.63181000  1.0
  H  H41  1  0.12370000  0.74624000  0.36818000  1.0
  H  H42  1  0.98818000  0.72384000  0.00910000  1.0
  H  H43  1  0.71498000  0.97948000  0.99091000  1.0
  H  H44  1  0.22953000  0.46510000  0.49084000  1.0
  H  H45  1  0.97392000  0.73827000  0.50901000  1.0
  H  H46  1  0.99376000  0.79838000  0.12407000  1.0
  H  H47  1  0.67426000  0.86992000  0.87593000  1.0
  H  H48  1  0.11993000  0.42425000  0.37582000  1.0
  H  H49  1  0.04835000  0.74374000  0.62400000  1.0
  C  C50  1  0.51042000  0.45810000  0.44840000  1.0
  C  C51  1  0.00947000  0.06170000  0.55175000  1.0
  C  C52  1  0.31177000  0.75948000  0.05164000  1.0
  C  C53  1  0.70786000  0.26046000  0.94825000  1.0
  C  C54  1  0.62336000  0.49562000  0.40990000  1.0
  C  C55  1  0.08568000  0.21297000  0.59017000  1.0
  C  C56  1  0.46301000  0.83558000  0.09000000  1.0
  C  C57  1  0.74546000  0.37324000  0.90961000  1.0
  C  C58  1  0.60834000  0.39309000  0.32579000  1.0
  C  C59  1  0.06735000  0.28207000  0.67439000  1.0
  C  C60  1  0.53216000  0.81727000  0.17422000  1.0
  C  C61  1  0.64297000  0.35823000  0.82547000  1.0
  C  C62  1  0.47826000  0.25590000  0.27966000  1.0
  C  C63  1  0.97613000  0.19828000  0.72069000  1.0
  C  C64  1  0.44844000  0.72620000  0.22063000  1.0
  C  C65  1  0.50572000  0.22822000  0.77938000  1.0
  C  C66  1  0.36448000  0.21771000  0.31717000  1.0
  C  C67  1  0.90009000  0.04708000  0.68319000  1.0
  C  C68  1  0.29727000  0.65024000  0.18320000  1.0
  C  C69  1  0.46739000  0.11453000  0.81705000  1.0
  C  C70  1  0.38164000  0.32044000  0.40297000  1.0
  C  C71  1  0.91701000  0.97849000  0.59732000  1.0
  C  C72  1  0.22866000  0.66715000  0.09731000  1.0
  C  C73  1  0.57011000  0.13177000  0.90291000  1.0
  C  C74  1  0.66316000  0.60099000  0.65420000  1.0
  C  C75  1  0.94671000  0.00905000  0.34577000  1.0
  C  C76  1  0.25898000  0.69671000  0.84572000  1.0
  C  C77  1  0.85090000  0.41314000  0.15415000  1.0
  C  C78  1  0.69822000  0.70694000  0.75930000  1.0
  C  C79  1  0.94743000  0.93889000  0.24061000  1.0
  C  C80  1  0.18882000  0.69739000  0.74055000  1.0
  C  C81  1  0.95682000  0.44806000  0.25922000  1.0
  C  C82  1  0.61330000  0.57380000  0.08475000  1.0
  C  C83  1  0.48944000  0.52878000  0.91523000  1.0
  C  C84  1  0.77894000  0.23927000  0.41518000  1.0
  C  C85  1  0.82403000  0.36318000  0.58473000  1.0
  C  C86  1  0.49342000  0.45445000  0.08868000  1.0
  C  C87  1  0.36629000  0.40497000  0.91138000  1.0
  C  C88  1  0.65510000  0.11610000  0.41131000  1.0
  C  C89  1  0.70460000  0.24335000  0.58862000  1.0
  C  C90  1  0.36644000  0.36624000  0.00002000  1.0
  C  C91  1  0.61640000  0.11636000  0.49996000  1.0
  C  C92  1  0.23710000  0.23692000  0.00002000  1.0
  C  C93  1  0.48706000  0.98712000  0.50000000  1.0
  C  C94  1  0.16836000  0.10097000  0.92173000  1.0
  C  C95  1  0.17904000  0.24624000  0.07824000  1.0
  C  C96  1  0.49636000  0.92911000  0.57826000  1.0
  C  C97  1  0.35116000  0.91857000  0.42176000  1.0
  C  C98  1  0.04818000  0.98163000  0.92549000  1.0
  C  C99  1  0.05588000  0.12244000  0.07450000  1.0
  C  C100  1  0.37246000  0.80598000  0.57449000  1.0
  C  C101  1  0.23176000  0.79842000  0.42551000  1.0
  S  S102  1  0.52837000  0.59439000  0.55319000  1.0
  S  S103  1  0.04086000  0.97493000  0.44673000  1.0
  S  S104  1  0.22486000  0.79085000  0.94667000  1.0
  S  S105  1  0.84406000  0.27825000  0.05307000  1.0
  N  N106  1  0.61168000  0.61164000  0.99997000  1.0
  N  N107  1  0.86183000  0.36154000  0.49993000  1.0
  N  N108  1  0.99144000  0.99151000  0.99998000  1.0
  N  N109  1  0.24157000  0.74163000  0.49999000  1.0
  Cl  Cl110  1  0.45782000  0.13029000  0.17211000  1.0
  Cl  Cl111  1  0.95831000  0.28538000  0.82841000  1.0
  Cl  Cl112  1  0.53556000  0.70840000  0.32838000  1.0
  Cl  Cl113  1  0.38015000  0.20771000  0.67179000  1.0
  O  O114  1  0.39058000  0.52198000  0.57717000  1.0
  O  O115  1  0.94449000  0.81333000  0.42292000  1.0
  O  O116  1  0.06330000  0.69443000  0.92294000  1.0
  O  O117  1  0.77151000  0.14046000  0.07706000  1.0
  O  O118  1  0.67636000  0.80636000  0.75920000  1.0
  O  O119  1  0.04731000  0.91778000  0.24052000  1.0
  O  O120  1  0.16753000  0.79717000  0.74044000  1.0
  O  O121  1  0.05616000  0.42614000  0.25904000  1.0
  O  O122  1  0.74737000  0.68360000  0.83835000  1.0
  O  O123  1  0.84452000  0.90807000  0.16168000  1.0
  O  O124  1  0.15827000  0.59461000  0.66164000  1.0
  O  O125  1  0.93351000  0.49715000  0.33829000  1.0
  O  O126  1  0.92865000  0.71997000  0.05337000  1.0
  O  O127  1  0.66683000  0.87577000  0.94682000  1.0
  O  O128  1  0.12579000  0.41683000  0.44674000  1.0
  O  O129  1  0.97000000  0.67869000  0.55327000  1.0
