# generated using pymatgen
data_VH4C4O6F
_symmetry_space_group_name_H-M   'P 1'
_cell_length_a   3.82842000
_cell_length_b   7.88704000
_cell_length_c   11.23740000
_cell_angle_alpha   89.99270000
_cell_angle_beta   89.99680000
_cell_angle_gamma   78.80600000
_symmetry_Int_Tables_number   1
_chemical_formula_structural   VH4C4O6F
_chemical_formula_sum   'V2 H8 C8 O12 F2'
_cell_volume   332.85693717
_cell_formula_units_Z   2
loop_
 _symmetry_equiv_pos_site_id
 _symmetry_equiv_pos_as_xyz
  1  'x, y, z'
loop_
 _atom_site_type_symbol
 _atom_site_label
 _atom_site_symmetry_multiplicity
 _atom_site_fract_x
 _atom_site_fract_y
 _atom_site_fract_z
 _atom_site_occupancy
  V  V0  1  0.49999000  0.50000000  0.50000000  1.0
  V  V1  1  0.00000000  0.00000000  0.00000000  1.0
  H  H2  1  0.63328000  0.48549000  0.26705000  1.0
  H  H3  1  0.86666000  0.01450000  0.76706000  1.0
  H  H4  1  0.36672000  0.51451000  0.73295000  1.0
  H  H5  1  0.13334000  0.98550000  0.23294000  1.0
  H  H6  1  0.44909000  0.31271000  0.30357000  1.0
  H  H7  1  0.05090000  0.18728000  0.80358000  1.0
  H  H8  1  0.55091000  0.68729000  0.69643000  1.0
  H  H9  1  0.94910000  0.81272000  0.19642000  1.0
  C  C10  1  0.45023000  0.88158000  0.47252000  1.0
  C  C11  1  0.04978000  0.61845000  0.97251000  1.0
  C  C12  1  0.54978000  0.11841000  0.52748000  1.0
  C  C13  1  0.95022000  0.38156000  0.02749000  1.0
  C  C14  1  0.40814000  0.05394000  0.41777000  1.0
  C  C15  1  0.09189000  0.44607000  0.91777000  1.0
  C  C16  1  0.59186000  0.94606000  0.58223000  1.0
  C  C17  1  0.90812000  0.55394000  0.08223000  1.0
  O  O18  1  0.38486000  0.74008000  0.43413000  1.0
  O  O19  1  0.11516000  0.75994000  0.93414000  1.0
  O  O20  1  0.61514000  0.25992000  0.56587000  1.0
  O  O21  1  0.88484000  0.24007000  0.06586000  1.0
  O  O22  1  0.29863000  0.11693000  0.31858000  1.0
  O  O23  1  0.20139000  0.38306000  0.81859000  1.0
  O  O24  1  0.70137000  0.88307000  0.68142000  1.0
  O  O25  1  0.79861000  0.61694000  0.18141000  1.0
  O  O26  1  0.53775000  0.41673000  0.33103000  1.0
  O  O27  1  0.96220000  0.08326000  0.83104000  1.0
  O  O28  1  0.46225000  0.58326000  0.66897000  1.0
  O  O29  1  0.03780000  0.91674000  0.16896000  1.0
  F  F30  1  0.00000000  0.50000000  0.50000000  1.0
  F  F31  1  0.50000000  0.99999000  0.00000000  1.0
