# generated using pymatgen
data_Zn4H11C24S4N4O13F
_symmetry_space_group_name_H-M   'P 1'
_cell_length_a   19.66560000
_cell_length_b   19.66920000
_cell_length_c   33.37400000
_cell_angle_alpha   79.21490000
_cell_angle_beta   79.23040000
_cell_angle_gamma   63.94060000
_symmetry_Int_Tables_number   1
_chemical_formula_structural   Zn4H11C24S4N4O13F
_chemical_formula_sum   'Zn16 H44 C96 S16 N16 O52 F4'
_cell_volume   11311.67113936
_cell_formula_units_Z   4
loop_
 _symmetry_equiv_pos_site_id
 _symmetry_equiv_pos_as_xyz
  1  'x, y, z'
loop_
 _atom_site_type_symbol
 _atom_site_label
 _atom_site_symmetry_multiplicity
 _atom_site_fract_x
 _atom_site_fract_y
 _atom_site_fract_z
 _atom_site_occupancy
  Zn  Zn0  1  0.59916000  0.94487000  0.52185000  1.0
  Zn  Zn1  1  0.51650000  0.01622000  0.43973000  1.0
  Zn  Zn2  1  0.43994000  0.94048000  0.51769000  1.0
  Zn  Zn3  1  0.44366000  0.09899000  0.52071000  1.0
  Zn  Zn4  1  0.65072000  0.30663000  0.72836000  1.0
  Zn  Zn5  1  0.81052000  0.31019000  0.73329000  1.0
  Zn  Zn6  1  0.73263000  0.23205000  0.80963000  1.0
  Zn  Zn7  1  0.80534000  0.15184000  0.72821000  1.0
  Zn  Zn8  1  0.23286000  0.73319000  0.30960000  1.0
  Zn  Zn9  1  0.30446000  0.65149000  0.22812000  1.0
  Zn  Zn10  1  0.15043000  0.80759000  0.22872000  1.0
  Zn  Zn11  1  0.31047000  0.80994000  0.23259000  1.0
  Zn  Zn12  1  0.93994000  0.44026000  0.01698000  1.0
  Zn  Zn13  1  0.94479000  0.59824000  0.02133000  1.0
  Zn  Zn14  1  0.09960000  0.44382000  0.02137000  1.0
  Zn  Zn15  1  0.01712000  0.51731000  0.93973000  1.0
  H  H16  1  0.75115000  0.04520000  0.64846000  1.0
  H  H17  1  0.54557000  0.25316000  0.64995000  1.0
  H  H18  1  0.70014000  0.00050000  0.60003000  1.0
  H  H19  1  0.40301000  0.90300000  0.29982000  1.0
  H  H20  1  0.29935000  0.79788000  0.40206000  1.0
  H  H21  1  0.44972000  0.94980000  0.34938000  1.0
  H  H22  1  0.95018000  0.45003000  0.84672000  1.0
  H  H23  1  0.84691000  0.34899000  0.95122000  1.0
  H  H24  1  0.90101000  0.39996000  0.80006000  1.0
  H  H25  1  0.20453000  0.49849000  0.10157000  1.0
  H  H26  1  0.99646000  0.70394000  0.10058000  1.0
  H  H27  1  0.24966000  0.54949000  0.14977000  1.0
  H  H28  1  0.44521000  0.68470000  0.60451000  1.0
  H  H29  1  0.44776000  0.76629000  0.57393000  1.0
  H  H30  1  0.79734000  0.57459000  0.65502000  1.0
  H  H31  1  0.80067000  0.48598000  0.67821000  1.0
  H  H32  1  0.47667000  0.23482000  0.31438000  1.0
  H  H33  1  0.48300000  0.16518000  0.35623000  1.0
  H  H34  1  0.29625000  0.51567000  0.43544000  1.0
  H  H35  1  0.27239000  0.58490000  0.39306000  1.0
  H  H36  1  0.73399000  0.95354000  0.31435000  1.0
  H  H37  1  0.66498000  0.97748000  0.35675000  1.0
  H  H38  1  0.01487000  0.77438000  0.43550000  1.0
  H  H39  1  0.08477000  0.76704000  0.39360000  1.0
  H  H40  1  0.19568000  0.25662000  0.61508000  1.0
  H  H41  1  0.27429000  0.20465000  0.58201000  1.0
  H  H42  1  0.06510000  0.98478000  0.64495000  1.0
  H  H43  1  0.97803000  0.04405000  0.66973000  1.0
  H  H44  1  0.51527000  0.27621000  0.93533000  1.0
  H  H45  1  0.58536000  0.26694000  0.89318000  1.0
  H  H46  1  0.23382000  0.45613000  0.81404000  1.0
  H  H47  1  0.16457000  0.47909000  0.85663000  1.0
  H  H48  1  0.91366000  0.85427000  0.77385000  1.0
  H  H49  1  0.88218000  0.95240000  0.76067000  1.0
  H  H50  1  0.81523000  0.89580000  0.97497000  1.0
  H  H51  1  0.86313000  0.79773000  0.98894000  1.0
  H  H52  1  0.56477000  0.48420000  0.14478000  1.0
  H  H53  1  0.47818000  0.54315000  0.17014000  1.0
  H  H54  1  0.69634000  0.75510000  0.11595000  1.0
  H  H55  1  0.77441000  0.70353000  0.08266000  1.0
  H  H56  1  0.29715000  0.07558000  0.15493000  1.0
  H  H57  1  0.30098000  0.98677000  0.17796000  1.0
  H  H58  1  0.94490000  0.18430000  0.10483000  1.0
  H  H59  1  0.94713000  0.26601000  0.07429000  1.0
  C  C60  1  0.68411000  0.93986000  0.43761000  1.0
  C  C61  1  0.43038000  0.93054000  0.43106000  1.0
  C  C62  1  0.56139000  0.81507000  0.56149000  1.0
  C  C63  1  0.31485000  0.06288000  0.56167000  1.0
  C  C64  1  0.56754000  0.07059000  0.56916000  1.0
  C  C65  1  0.43768000  0.18408000  0.43696000  1.0
  C  C66  1  0.68966000  0.43497000  0.68805000  1.0
  C  C67  1  0.81953000  0.31798000  0.81944000  1.0
  C  C68  1  0.56540000  0.31159000  0.81204000  1.0
  C  C69  1  0.81224000  0.06387000  0.81061000  1.0
  C  C70  1  0.68095000  0.17971000  0.68111000  1.0
  C  C71  1  0.93490000  0.18757000  0.68807000  1.0
  C  C72  1  0.31049000  0.56578000  0.31206000  1.0
  C  C73  1  0.17959000  0.68176000  0.18101000  1.0
  C  C74  1  0.06565000  0.81285000  0.31269000  1.0
  C  C75  1  0.19005000  0.93556000  0.18822000  1.0
  C  C76  1  0.32015000  0.81874000  0.31886000  1.0
  C  C77  1  0.43489000  0.68698000  0.18822000  1.0
  C  C78  1  0.81475000  0.56303000  0.06141000  1.0
  C  C79  1  0.06918000  0.56871000  0.06951000  1.0
  C  C80  1  0.06062000  0.31489000  0.06123000  1.0
  C  C81  1  0.18461000  0.43946000  0.93762000  1.0
  C  C82  1  0.93068000  0.43167000  0.93032000  1.0
  C  C83  1  0.93830000  0.68579000  0.93891000  1.0
  C  C84  1  0.59499000  0.10043000  0.59794000  1.0
  C  C85  1  0.65158000  0.15164000  0.65236000  1.0
  C  C86  1  0.55266000  0.17171000  0.61266000  1.0
  C  C87  1  0.69531000  0.08027000  0.63823000  1.0
  C  C88  1  0.57993000  0.19751000  0.63938000  1.0
  C  C89  1  0.66706000  0.05563000  0.61144000  1.0
  C  C90  1  0.40116000  0.90092000  0.40307000  1.0
  C  C91  1  0.34842000  0.84754000  0.34778000  1.0
  C  C92  1  0.35835000  0.85775000  0.41702000  1.0
  C  C93  1  0.39082000  0.89057000  0.33285000  1.0
  C  C94  1  0.33224000  0.83116000  0.39011000  1.0
  C  C95  1  0.41657000  0.91642000  0.36029000  1.0
  C  C96  1  0.54579000  0.69588000  0.59842000  1.0
  C  C97  1  0.70583000  0.55352000  0.65047000  1.0
  C  C98  1  0.58663000  0.74123000  0.58563000  1.0
  C  C99  1  0.66507000  0.50813000  0.66319000  1.0
  C  C100  1  0.66129000  0.62239000  0.62700000  1.0
  C  C101  1  0.58991000  0.62754000  0.62243000  1.0
  C  C102  1  0.42318000  0.27351000  0.36978000  1.0
  C  C103  1  0.32467000  0.47641000  0.37921000  1.0
  C  C104  1  0.41258000  0.25799000  0.41278000  1.0
  C  C105  1  0.33487000  0.49190000  0.33619000  1.0
  C  C106  1  0.35794000  0.39619000  0.39116000  1.0
  C  C107  1  0.39138000  0.35374000  0.35789000  1.0
  C  C108  1  0.77348000  0.92567000  0.37046000  1.0
  C  C109  1  0.97638000  0.82699000  0.37988000  1.0
  C  C110  1  0.75804000  0.91552000  0.41348000  1.0
  C  C111  1  0.99183000  0.83776000  0.33687000  1.0
  C  C112  1  0.89614000  0.85889000  0.39177000  1.0
  C  C113  1  0.85366000  0.89244000  0.35849000  1.0
  C  C114  1  0.19922000  0.15710000  0.60209000  1.0
  C  C115  1  0.04999000  0.09422000  0.64689000  1.0
  C  C116  1  0.24106000  0.08725000  0.58581000  1.0
  C  C117  1  0.00803000  0.16398000  0.66324000  1.0
  C  C118  1  0.12035000  0.09201000  0.62503000  1.0
  C  C119  1  0.12973000  0.15851000  0.62486000  1.0
  C  C120  1  0.84706000  0.34653000  0.84884000  1.0
  C  C121  1  0.90184000  0.40256000  0.90181000  1.0
  C  C122  1  0.83265000  0.33321000  0.89181000  1.0
  C  C123  1  0.91709000  0.41705000  0.85908000  1.0
  C  C124  1  0.85929000  0.36048000  0.91813000  1.0
  C  C125  1  0.88985000  0.38933000  0.83332000  1.0
  C  C126  1  0.47660000  0.32640000  0.87937000  1.0
  C  C127  1  0.27345000  0.42555000  0.87035000  1.0
  C  C128  1  0.49171000  0.33692000  0.83630000  1.0
  C  C129  1  0.25833000  0.41525000  0.91342000  1.0
  C  C130  1  0.35363000  0.39220000  0.85825000  1.0
  C  C131  1  0.39635000  0.35863000  0.89141000  1.0
  C  C132  1  0.87740000  0.91852000  0.82172000  1.0
  C  C133  1  0.87527000  0.83124000  0.92785000  1.0
  C  C134  1  0.83766000  0.99075000  0.83550000  1.0
  C  C135  1  0.91487000  0.75891000  0.91409000  1.0
  C  C136  1  0.86116000  0.88920000  0.89367000  1.0
  C  C137  1  0.89015000  0.86049000  0.85582000  1.0
  C  C138  1  0.14960000  0.65442000  0.15225000  1.0
  C  C139  1  0.09771000  0.59784000  0.09814000  1.0
  C  C140  1  0.07813000  0.69682000  0.13771000  1.0
  C  C141  1  0.16940000  0.55416000  0.11195000  1.0
  C  C142  1  0.05209000  0.66949000  0.11115000  1.0
  C  C143  1  0.19432000  0.58248000  0.13859000  1.0
  C  C144  1  0.55003000  0.59350000  0.14703000  1.0
  C  C145  1  0.69883000  0.65689000  0.10196000  1.0
  C  C146  1  0.50812000  0.66322000  0.16341000  1.0
  C  C147  1  0.74083000  0.58725000  0.08553000  1.0
  C  C148  1  0.62943000  0.65817000  0.12474000  1.0
  C  C149  1  0.62019000  0.59158000  0.12491000  1.0
  C  C150  1  0.20591000  0.05410000  0.15038000  1.0
  C  C151  1  0.04539000  0.19572000  0.09848000  1.0
  C  C152  1  0.16532000  0.00860000  0.16331000  1.0
  C  C153  1  0.08596000  0.24124000  0.08551000  1.0
  C  C154  1  0.08974000  0.12761000  0.12253000  1.0
  C  C155  1  0.16109000  0.12279000  0.12693000  1.0
  S  S156  1  0.67710000  0.70014000  0.60228000  1.0
  S  S157  1  0.57485000  0.54894000  0.64629000  1.0
  S  S158  1  0.36401000  0.33999000  0.43777000  1.0
  S  S159  1  0.38331000  0.40985000  0.31120000  1.0
  S  S160  1  0.84008000  0.86706000  0.43845000  1.0
  S  S161  1  0.90977000  0.88657000  0.31188000  1.0
  S  S162  1  0.19555000  0.02572000  0.59773000  1.0
  S  S163  1  0.05359000  0.22550000  0.65132000  1.0
  S  S164  1  0.40941000  0.38594000  0.81151000  1.0
  S  S165  1  0.34064000  0.36663000  0.93821000  1.0
  S  S166  1  0.81761000  0.98727000  0.88898000  1.0
  S  S167  1  0.93521000  0.76246000  0.86058000  1.0
  S  S168  1  0.55339000  0.72499000  0.15134000  1.0
  S  S169  1  0.69541000  0.52561000  0.09741000  1.0
  S  S170  1  0.07501000  0.04897000  0.14659000  1.0
  S  S171  1  0.17652000  0.20063000  0.10201000  1.0
  N  N172  1  0.47561000  0.71321000  0.58846000  1.0
  N  N173  1  0.77806000  0.53372000  0.65825000  1.0
  N  N174  1  0.45648000  0.21983000  0.34318000  1.0
  N  N175  1  0.28636000  0.52991000  0.40568000  1.0
  N  N176  1  0.71983000  0.96412000  0.34400000  1.0
  N  N177  1  0.03000000  0.79342000  0.40646000  1.0
  N  N178  1  0.22059000  0.21564000  0.59604000  1.0
  N  N179  1  0.02616000  0.03783000  0.65020000  1.0
  N  N180  1  0.53032000  0.29260000  0.90576000  1.0
  N  N181  1  0.21974000  0.46377000  0.84409000  1.0
  N  N182  1  0.90237000  0.90575000  0.78170000  1.0
  N  N183  1  0.85538000  0.84433000  0.96790000  1.0
  N  N184  1  0.52626000  0.53708000  0.15060000  1.0
  N  N185  1  0.72003000  0.71574000  0.09593000  1.0
  N  N186  1  0.27824000  0.03447000  0.15798000  1.0
  N  N187  1  0.97520000  0.21278000  0.08859000  1.0
  O  O188  1  0.50051000  0.00001000  0.49960000  1.0
  O  O189  1  0.68252000  0.92403000  0.47673000  1.0
  O  O190  1  0.47162000  0.96565000  0.41368000  1.0
  O  O191  1  0.49432000  0.84250000  0.54967000  1.0
  O  O192  1  0.62514000  0.97581000  0.41769000  1.0
  O  O193  1  0.60700000  0.84794000  0.55363000  1.0
  O  O194  1  0.41196000  0.91880000  0.46942000  1.0
  O  O195  1  0.34474000  0.99520000  0.55124000  1.0
  O  O196  1  0.50145000  0.11208000  0.55835000  1.0
  O  O197  1  0.34517000  0.11118000  0.55248000  1.0
  O  O198  1  0.61321000  0.00544000  0.55793000  1.0
  O  O199  1  0.47289000  0.12485000  0.41724000  1.0
  O  O200  1  0.42318000  0.18293000  0.47611000  1.0
  O  O201  1  0.75020000  0.25013000  0.74957000  1.0
  O  O202  1  0.64305000  0.40328000  0.69665000  1.0
  O  O203  1  0.83428000  0.33779000  0.78127000  1.0
  O  O204  1  0.62457000  0.27579000  0.83176000  1.0
  O  O205  1  0.75683000  0.40712000  0.69983000  1.0
  O  O206  1  0.56673000  0.32632000  0.77282000  1.0
  O  O207  1  0.78412000  0.27659000  0.83464000  1.0
  O  O208  1  0.77396000  0.12311000  0.82940000  1.0
  O  O209  1  0.74606000  0.13477000  0.69262000  1.0
  O  O210  1  0.82996000  0.06387000  0.77124000  1.0
  O  O211  1  0.63848000  0.24597000  0.69156000  1.0
  O  O212  1  0.90694000  0.25326000  0.70087000  1.0
  O  O213  1  0.90322000  0.14031000  0.69562000  1.0
  O  O214  1  0.25016000  0.75015000  0.24980000  1.0
  O  O215  1  0.27375000  0.62476000  0.33187000  1.0
  O  O216  1  0.24516000  0.63614000  0.19192000  1.0
  O  O217  1  0.06706000  0.82787000  0.27355000  1.0
  O  O218  1  0.32714000  0.56739000  0.27293000  1.0
  O  O219  1  0.12490000  0.77707000  0.33246000  1.0
  O  O220  1  0.13800000  0.74741000  0.19220000  1.0
  O  O221  1  0.14318000  0.90424000  0.19732000  1.0
  O  O222  1  0.33453000  0.83729000  0.28060000  1.0
  O  O223  1  0.25762000  0.90738000  0.19955000  1.0
  O  O224  1  0.28408000  0.77810000  0.33509000  1.0
  O  O225  1  0.40310000  0.63989000  0.19603000  1.0
  O  O226  1  0.40711000  0.75298000  0.20065000  1.0
  O  O227  1  0.00028000  0.50008000  0.99983000  1.0
  O  O228  1  0.84433000  0.49585000  0.05037000  1.0
  O  O229  1  0.00254000  0.61158000  0.05930000  1.0
  O  O230  1  0.10641000  0.34750000  0.05320000  1.0
  O  O231  1  0.84552000  0.61106000  0.05285000  1.0
  O  O232  1  0.99343000  0.34245000  0.04947000  1.0
  O  O233  1  0.11357000  0.50383000  0.05786000  1.0
  O  O234  1  0.18323000  0.42342000  0.97677000  1.0
  O  O235  1  0.97046000  0.46847000  0.91378000  1.0
  O  O236  1  0.12544000  0.47548000  0.91788000  1.0
  O  O237  1  0.91295000  0.41707000  0.96869000  1.0
  O  O238  1  0.92274000  0.68597000  0.97838000  1.0
  O  O239  1  0.97255000  0.62624000  0.92002000  1.0
  F  F240  1  0.48278000  0.21902000  0.60124000  1.0
  F  F241  1  0.34079000  0.83964000  0.45765000  1.0
  F  F242  1  0.79152000  0.29308000  0.90969000  1.0
  F  F243  1  0.03097000  0.76670000  0.14905000  1.0
