# generated using pymatgen
data_ZnH12C10S2(NO)4
_symmetry_space_group_name_H-M   'P 1'
_cell_length_a   8.29422000
_cell_length_b   10.79350000
_cell_length_c   15.84160000
_cell_angle_alpha   90.00020000
_cell_angle_beta   90.00010000
_cell_angle_gamma   90.00000000
_symmetry_Int_Tables_number   1
_chemical_formula_structural   ZnH12C10S2(NO)4
_chemical_formula_sum   'Zn4 H48 C40 S8 N16 O16'
_cell_volume   1418.19806880
_cell_formula_units_Z   4
loop_
 _symmetry_equiv_pos_site_id
 _symmetry_equiv_pos_as_xyz
  1  'x, y, z'
loop_
 _atom_site_type_symbol
 _atom_site_label
 _atom_site_symmetry_multiplicity
 _atom_site_fract_x
 _atom_site_fract_y
 _atom_site_fract_z
 _atom_site_occupancy
  Zn  Zn0  1  0.81878000  0.90192000  0.66145000  1.0
  Zn  Zn1  1  0.68122000  0.09808000  0.16145000  1.0
  Zn  Zn2  1  0.18122000  0.40192000  0.83855000  1.0
  Zn  Zn3  1  0.31878000  0.59808000  0.33855000  1.0
  H  H4  1  0.72266000  0.97968000  0.50393000  1.0
  H  H5  1  0.77734000  0.02032000  0.00393000  1.0
  H  H6  1  0.27734000  0.47968000  0.99607000  1.0
  H  H7  1  0.22266000  0.52032000  0.49607000  1.0
  H  H8  1  0.79494000  0.00183000  0.39945000  1.0
  H  H9  1  0.70506000  0.99817000  0.89946000  1.0
  H  H10  1  0.20506000  0.50183000  0.10055000  1.0
  H  H11  1  0.29494000  0.49817000  0.60055000  1.0
  H  H12  1  0.03147000  0.73325000  0.39623000  1.0
  H  H13  1  0.46853000  0.26675000  0.89623000  1.0
  H  H14  1  0.96853000  0.23325000  0.10377000  1.0
  H  H15  1  0.53148000  0.76675000  0.60377000  1.0
  H  H16  1  0.92855000  0.83793000  0.33216000  1.0
  H  H17  1  0.57145000  0.16207000  0.83216000  1.0
  H  H18  1  0.07145000  0.33793000  0.16784000  1.0
  H  H19  1  0.42855000  0.66207000  0.66784000  1.0
  H  H20  1  0.04194000  0.76193000  0.76083000  1.0
  H  H21  1  0.45806000  0.23807000  0.26083000  1.0
  H  H22  1  0.95806000  0.26193000  0.73917000  1.0
  H  H23  1  0.54194000  0.73807000  0.23917000  1.0
  H  H24  1  0.24857000  0.75916000  0.77789000  1.0
  H  H25  1  0.25143000  0.24084000  0.27788000  1.0
  H  H26  1  0.75143000  0.25916000  0.72212000  1.0
  H  H27  1  0.74857000  0.74084000  0.22211000  1.0
  H  H28  1  0.27694000  0.09213000  0.77673000  1.0
  H  H29  1  0.22306000  0.90787000  0.27672000  1.0
  H  H30  1  0.72306000  0.59213000  0.72327000  1.0
  H  H31  1  0.77694000  0.40788000  0.22327000  1.0
  H  H32  1  0.38859000  0.95344000  0.79124000  1.0
  H  H33  1  0.11141000  0.04656000  0.29124000  1.0
  H  H34  1  0.61141000  0.45344000  0.70876000  1.0
  H  H35  1  0.88859000  0.54657000  0.20876000  1.0
  H  H36  1  0.91763000  0.81357000  0.90191000  1.0
  H  H37  1  0.58237000  0.18643000  0.40191000  1.0
  H  H38  1  0.08237000  0.31356000  0.59809000  1.0
  H  H39  1  0.41762000  0.68644000  0.09809000  1.0
  H  H40  1  0.00633000  0.67665000  0.01912000  1.0
  H  H41  1  0.49367000  0.32336000  0.51912000  1.0
  H  H42  1  0.99367000  0.17664000  0.48088000  1.0
  H  H43  1  0.50633000  0.82336000  0.98088000  1.0
  H  H44  1  0.83720000  0.49583000  0.06100000  1.0
  H  H45  1  0.66281000  0.50417000  0.56100000  1.0
  H  H46  1  0.16280000  0.99583000  0.43899000  1.0
  H  H47  1  0.33719000  0.00417000  0.93899000  1.0
  H  H48  1  0.57990000  0.45566000  0.98826000  1.0
  H  H49  1  0.92011000  0.54434000  0.48826000  1.0
  H  H50  1  0.42011000  0.95566000  0.51173000  1.0
  H  H51  1  0.07989000  0.04434000  0.01174000  1.0
  C  C52  1  0.88100000  0.84965000  0.46058000  1.0
  C  C53  1  0.61900000  0.15034000  0.96058000  1.0
  C  C54  1  0.11900000  0.34965000  0.03942000  1.0
  C  C55  1  0.38100000  0.65035000  0.53942000  1.0
  C  C56  1  0.14522000  0.93398000  0.76645000  1.0
  C  C57  1  0.35478000  0.06602000  0.26644000  1.0
  C  C58  1  0.85478000  0.43398000  0.73356000  1.0
  C  C59  1  0.64522000  0.56602000  0.23355000  1.0
  C  C60  1  0.66034000  0.79563000  0.80549000  1.0
  C  C61  1  0.83966000  0.20437000  0.30549000  1.0
  C  C62  1  0.33966000  0.29563000  0.69451000  1.0
  C  C63  1  0.16034000  0.70437000  0.19451000  1.0
  C  C64  1  0.69911000  0.71073000  0.87791000  1.0
  C  C65  1  0.80090000  0.28927000  0.37791000  1.0
  C  C66  1  0.30089000  0.21072000  0.62209000  1.0
  C  C67  1  0.19911000  0.78928000  0.12209000  1.0
  C  C68  1  0.84324000  0.73489000  0.92090000  1.0
  C  C69  1  0.65677000  0.26511000  0.42090000  1.0
  C  C70  1  0.15676000  0.23488000  0.57910000  1.0
  C  C71  1  0.34323000  0.76512000  0.07910000  1.0
  C  C72  1  0.89330000  0.65814000  0.98665000  1.0
  C  C73  1  0.60671000  0.34186000  0.48665000  1.0
  C  C74  1  0.10671000  0.15813000  0.51335000  1.0
  C  C75  1  0.39330000  0.84186000  0.01335000  1.0
  C  C76  1  0.79858000  0.55713000  0.01042000  1.0
  C  C77  1  0.70142000  0.44287000  0.51043000  1.0
  C  C78  1  0.20142000  0.05713000  0.48957000  1.0
  C  C79  1  0.29858000  0.94287000  0.98958000  1.0
  C  C80  1  0.65352000  0.53442000  0.96934000  1.0
  C  C81  1  0.84649000  0.46558000  0.46934000  1.0
  C  C82  1  0.34649000  0.03442000  0.53066000  1.0
  C  C83  1  0.15352000  0.96558000  0.03066000  1.0
  C  C84  1  0.60217000  0.61019000  0.90261000  1.0
  C  C85  1  0.89783000  0.38981000  0.40261000  1.0
  C  C86  1  0.39783000  0.11019000  0.59739000  1.0
  C  C87  1  0.10218000  0.88981000  0.09739000  1.0
  C  C88  1  0.44762000  0.58263000  0.85798000  1.0
  C  C89  1  0.05239000  0.41737000  0.35798000  1.0
  C  C90  1  0.55239000  0.08263000  0.64202000  1.0
  C  C91  1  0.94761000  0.91737000  0.14202000  1.0
  S  S92  1  0.91685000  0.77499000  0.55506000  1.0
  S  S93  1  0.58314000  0.22501000  0.05506000  1.0
  S  S94  1  0.08315000  0.27499000  0.94494000  1.0
  S  S95  1  0.41685000  0.72502000  0.44494000  1.0
  S  S96  1  0.96818000  0.01751000  0.75380000  1.0
  S  S97  1  0.53182000  0.98249000  0.25379000  1.0
  S  S98  1  0.03182000  0.51751000  0.74621000  1.0
  S  S99  1  0.46818000  0.48249000  0.24620000  1.0
  N  N100  1  0.78774000  0.94918000  0.45317000  1.0
  N  N101  1  0.71226000  0.05082000  0.95317000  1.0
  N  N102  1  0.21226000  0.44918000  0.04683000  1.0
  N  N103  1  0.28774000  0.55082000  0.54683000  1.0
  N  N104  1  0.95235000  0.80441000  0.39125000  1.0
  N  N105  1  0.54765000  0.19559000  0.89125000  1.0
  N  N106  1  0.04765000  0.30441000  0.10875000  1.0
  N  N107  1  0.45235000  0.69559000  0.60875000  1.0
  N  N108  1  0.14638000  0.81048000  0.76609000  1.0
  N  N109  1  0.35362000  0.18952000  0.26608000  1.0
  N  N110  1  0.85362000  0.31048000  0.73392000  1.0
  N  N111  1  0.64638000  0.68952000  0.23391000  1.0
  N  N112  1  0.28030000  0.99687000  0.77965000  1.0
  N  N113  1  0.21970000  0.00313000  0.27965000  1.0
  N  N114  1  0.71970000  0.49687000  0.72035000  1.0
  N  N115  1  0.78030000  0.50314000  0.22035000  1.0
  O  O116  1  0.72132000  0.76292000  0.73361000  1.0
  O  O117  1  0.77868000  0.23708000  0.23361000  1.0
  O  O118  1  0.27868000  0.26292000  0.76639000  1.0
  O  O119  1  0.22132000  0.73708000  0.26639000  1.0
  O  O120  1  0.59056000  0.89680000  0.81901000  1.0
  O  O121  1  0.90943000  0.10320000  0.31901000  1.0
  O  O122  1  0.40943000  0.39679000  0.68099000  1.0
  O  O123  1  0.09056000  0.60321000  0.18099000  1.0
  O  O124  1  0.40575000  0.64477000  0.79460000  1.0
  O  O125  1  0.09425000  0.35523000  0.29460000  1.0
  O  O126  1  0.59424000  0.14476000  0.70540000  1.0
  O  O127  1  0.90575000  0.85524000  0.20540000  1.0
  O  O128  1  0.36486000  0.49149000  0.88968000  1.0
  O  O129  1  0.13514000  0.50852000  0.38968000  1.0
  O  O130  1  0.63515000  0.99149000  0.61032000  1.0
  O  O131  1  0.86485000  0.00851000  0.11031000  1.0
