# generated using pymatgen
data_ZnH9C4SN7O
_symmetry_space_group_name_H-M   'P 1'
_cell_length_a   10.01570000
_cell_length_b   10.24780000
_cell_length_c   10.28070000
_cell_angle_alpha   89.99990000
_cell_angle_beta   77.57000000
_cell_angle_gamma   89.99990000
_symmetry_Int_Tables_number   1
_chemical_formula_structural   ZnH9C4SN7O
_chemical_formula_sum   'Zn4 H36 C16 S4 N28 O4'
_cell_volume   1030.46545482
_cell_formula_units_Z   4
loop_
 _symmetry_equiv_pos_site_id
 _symmetry_equiv_pos_as_xyz
  1  'x, y, z'
loop_
 _atom_site_type_symbol
 _atom_site_label
 _atom_site_symmetry_multiplicity
 _atom_site_fract_x
 _atom_site_fract_y
 _atom_site_fract_z
 _atom_site_occupancy
  Zn  Zn0  1  0.64551000  0.58935000  0.94780000  1.0
  Zn  Zn1  1  0.35449000  0.08935000  0.55220000  1.0
  Zn  Zn2  1  0.35449000  0.41065000  0.05220000  1.0
  Zn  Zn3  1  0.64551000  0.91065000  0.44780000  1.0
  H  H4  1  0.54844000  0.96834000  0.75015000  1.0
  H  H5  1  0.45156000  0.46834000  0.74985000  1.0
  H  H6  1  0.45156000  0.03166000  0.24985000  1.0
  H  H7  1  0.54844000  0.53166000  0.25015000  1.0
  H  H8  1  0.55857000  0.88158000  0.89778000  1.0
  H  H9  1  0.44143000  0.38158000  0.60222000  1.0
  H  H10  1  0.44142000  0.11842000  0.10222000  1.0
  H  H11  1  0.55858000  0.61842000  0.39778000  1.0
  H  H12  1  0.42091000  0.85192000  0.81757000  1.0
  H  H13  1  0.57909000  0.35192000  0.68243000  1.0
  H  H14  1  0.57908000  0.14808000  0.18243000  1.0
  H  H15  1  0.42092000  0.64808000  0.31757000  1.0
  H  H16  1  0.01032000  0.77609000  0.96939000  1.0
  H  H17  1  0.98968000  0.27609000  0.53061000  1.0
  H  H18  1  0.98968000  0.22391000  0.03061000  1.0
  H  H19  1  0.01032000  0.72391000  0.46939000  1.0
  H  H20  1  0.16295000  0.74154000  0.84446000  1.0
  H  H21  1  0.83705000  0.24154000  0.65555000  1.0
  H  H22  1  0.83705000  0.25846000  0.15554000  1.0
  H  H23  1  0.16295000  0.75846000  0.34445000  1.0
  H  H24  1  0.10533000  0.62758000  0.98032000  1.0
  H  H25  1  0.89467000  0.12758000  0.51968000  1.0
  H  H26  1  0.89467000  0.37242000  0.01968000  1.0
  H  H27  1  0.10533000  0.87242000  0.48032000  1.0
  H  H28  1  0.11437000  0.43591000  0.83053000  1.0
  H  H29  1  0.88563000  0.93591000  0.66947000  1.0
  H  H30  1  0.88563000  0.56409000  0.16947000  1.0
  H  H31  1  0.11437000  0.06409000  0.33052000  1.0
  H  H32  1  0.17449000  0.53103000  0.68016000  1.0
  H  H33  1  0.82551000  0.03103000  0.81984000  1.0
  H  H34  1  0.82551000  0.46897000  0.31984000  1.0
  H  H35  1  0.17448000  0.96896000  0.18016000  1.0
  H  H36  1  0.02901000  0.42606000  0.69253000  1.0
  H  H37  1  0.97099000  0.92606000  0.80746000  1.0
  H  H38  1  0.97099000  0.57394000  0.30746000  1.0
  H  H39  1  0.02901000  0.07394000  0.19253000  1.0
  C  C40  1  0.61261000  0.77085000  0.71857000  1.0
  C  C41  1  0.38738000  0.27085000  0.78143000  1.0
  C  C42  1  0.38738000  0.22915000  0.28143000  1.0
  C  C43  1  0.61262000  0.72915000  0.21857000  1.0
  C  C44  1  0.53075000  0.87369000  0.80063000  1.0
  C  C45  1  0.46925000  0.37369000  0.69937000  1.0
  C  C46  1  0.46925000  0.12631000  0.19937000  1.0
  C  C47  1  0.53075000  0.62631000  0.30063000  1.0
  C  C48  1  0.07426000  0.69928000  0.91324000  1.0
  C  C49  1  0.92574000  0.19928000  0.58676000  1.0
  C  C50  1  0.92574000  0.30072000  0.08676000  1.0
  C  C51  1  0.07426000  0.80072000  0.41324000  1.0
  C  C52  1  0.08548000  0.48884000  0.74801000  1.0
  C  C53  1  0.91452000  0.98884000  0.75198000  1.0
  C  C54  1  0.91452000  0.51116000  0.25198000  1.0
  C  C55  1  0.08548000  0.01116000  0.24802000  1.0
  S  S56  1  0.97119000  0.61832000  0.81521000  1.0
  S  S57  1  0.02881000  0.11832000  0.68479000  1.0
  S  S58  1  0.02881000  0.38168000  0.18479000  1.0
  S  S59  1  0.97119000  0.88168000  0.31521000  1.0
  N  N60  1  0.40388000  0.59621000  0.00018000  1.0
  N  N61  1  0.59612000  0.09621000  0.49982000  1.0
  N  N62  1  0.59612000  0.40380000  0.99982000  1.0
  N  N63  1  0.40388000  0.90379000  0.50018000  1.0
  N  N64  1  0.34560000  0.68878000  0.05973000  1.0
  N  N65  1  0.65440000  0.18878000  0.44027000  1.0
  N  N66  1  0.65440000  0.31122000  0.94027000  1.0
  N  N67  1  0.34560000  0.81122000  0.55973000  1.0
  N  N68  1  0.29369000  0.78099000  0.11402000  1.0
  N  N69  1  0.70631000  0.28099000  0.38598000  1.0
  N  N70  1  0.70631000  0.21902000  0.88598000  1.0
  N  N71  1  0.29370000  0.71902000  0.61402000  1.0
  N  N72  1  0.65694000  0.65901000  0.76295000  1.0
  N  N73  1  0.34306000  0.15901000  0.73706000  1.0
  N  N74  1  0.34306000  0.34099000  0.23706000  1.0
  N  N75  1  0.65694000  0.84099000  0.26294000  1.0
  N  N76  1  0.72807000  0.59331000  0.65509000  1.0
  N  N77  1  0.27193000  0.09331000  0.84491000  1.0
  N  N78  1  0.27193000  0.40669000  0.34491000  1.0
  N  N79  1  0.72808000  0.90669000  0.15509000  1.0
  N  N80  1  0.72732000  0.66201000  0.54888000  1.0
  N  N81  1  0.27268000  0.16201000  0.95112000  1.0
  N  N82  1  0.27268000  0.33799000  0.45112000  1.0
  N  N83  1  0.72732000  0.83799000  0.04888000  1.0
  N  N84  1  0.65581000  0.77379000  0.58563000  1.0
  N  N85  1  0.34418000  0.27379000  0.91437000  1.0
  N  N86  1  0.34418000  0.22621000  0.41437000  1.0
  N  N87  1  0.65582000  0.72621000  0.08563000  1.0
  O  O88  1  0.85832000  0.54961000  0.91754000  1.0
  O  O89  1  0.14168000  0.04961000  0.58246000  1.0
  O  O90  1  0.14168000  0.45039000  0.08246000  1.0
  O  O91  1  0.85832000  0.95039000  0.41754000  1.0
