# generated using pymatgen
data_AlH7(C7O3)2
_symmetry_space_group_name_H-M   'P 1'
_cell_length_a   6.69071000
_cell_length_b   19.39830000
_cell_length_c   21.50620000
_cell_angle_alpha   87.03090000
_cell_angle_beta   89.99960000
_cell_angle_gamma   89.99970000
_symmetry_Int_Tables_number   1
_chemical_formula_structural   AlH7(C7O3)2
_chemical_formula_sum   'Al4 H28 C56 O24'
_cell_volume   2787.50834336
_cell_formula_units_Z   4
loop_
 _symmetry_equiv_pos_site_id
 _symmetry_equiv_pos_as_xyz
  1  'x, y, z'
loop_
 _atom_site_type_symbol
 _atom_site_label
 _atom_site_symmetry_multiplicity
 _atom_site_fract_x
 _atom_site_fract_y
 _atom_site_fract_z
 _atom_site_occupancy
  Al  Al0  1  0.73373000  0.74862000  0.25040000  1.0
  Al  Al1  1  0.26631000  0.25138000  0.74964000  1.0
  Al  Al2  1  0.23374000  0.75138000  0.24964000  1.0
  Al  Al3  1  0.76632000  0.24862000  0.75040000  1.0
  H  H4  1  0.72439000  0.34585000  0.91627000  1.0
  H  H5  1  0.27560000  0.65415000  0.08376000  1.0
  H  H6  1  0.22446000  0.15416000  0.58376000  1.0
  H  H7  1  0.77567000  0.84586000  0.41626000  1.0
  H  H8  1  0.29556000  0.42609000  0.85563000  1.0
  H  H9  1  0.70445000  0.57390000  0.14441000  1.0
  H  H10  1  0.79563000  0.07392000  0.64440000  1.0
  H  H11  1  0.20452000  0.92611000  0.35562000  1.0
  H  H12  1  0.44490000  0.52528000  0.90566000  1.0
  H  H13  1  0.55509000  0.47472000  0.09438000  1.0
  H  H14  1  0.94503000  0.97476000  0.59435000  1.0
  H  H15  1  0.05523000  0.02533000  0.40563000  1.0
  H  H16  1  0.56386000  0.64050000  0.90219000  1.0
  H  H17  1  0.70341000  0.57673000  0.94774000  1.0
  H  H18  1  0.72166000  0.66588000  0.96488000  1.0
  H  H19  1  0.29659000  0.42327000  0.05231000  1.0
  H  H20  1  0.43616000  0.35950000  0.09785000  1.0
  H  H21  1  0.27832000  0.33412000  0.03517000  1.0
  H  H22  1  0.06416000  0.85956000  0.59780000  1.0
  H  H23  1  0.20356000  0.92336000  0.55224000  1.0
  H  H24  1  0.22194000  0.83422000  0.53508000  1.0
  H  H25  1  0.79675000  0.07682000  0.44768000  1.0
  H  H26  1  0.93645000  0.14056000  0.40213000  1.0
  H  H27  1  0.77860000  0.16598000  0.46481000  1.0
  H  H28  1  0.47847000  0.65965000  0.24572000  1.0
  H  H29  1  0.52157000  0.34038000  0.75421000  1.0
  H  H30  1  0.97847000  0.84037000  0.25426000  1.0
  H  H31  1  0.02157000  0.15965000  0.74572000  1.0
  C  C32  1  0.48557000  0.83446000  0.16270000  1.0
  C  C33  1  0.51448000  0.16555000  0.83733000  1.0
  C  C34  1  0.98556000  0.66555000  0.33733000  1.0
  C  C35  1  0.01450000  0.33447000  0.66270000  1.0
  C  C36  1  0.48598000  0.83241000  0.33055000  1.0
  C  C37  1  0.51409000  0.16759000  0.66949000  1.0
  C  C38  1  0.98594000  0.66759000  0.16949000  1.0
  C  C39  1  0.01408000  0.33241000  0.83055000  1.0
  C  C40  1  0.84653000  0.38200000  0.92191000  1.0
  C  C41  1  0.15346000  0.61799000  0.07813000  1.0
  C  C42  1  0.34659000  0.11801000  0.57812000  1.0
  C  C43  1  0.65355000  0.88202000  0.42190000  1.0
  C  C44  1  0.01035000  0.38182000  0.88131000  1.0
  C  C45  1  0.98966000  0.61817000  0.11873000  1.0
  C  C46  1  0.51040000  0.11818000  0.61872000  1.0
  C  C47  1  0.48972000  0.88183000  0.38131000  1.0
  C  C48  1  0.16896000  0.42788000  0.88742000  1.0
  C  C49  1  0.83105000  0.57212000  0.11262000  1.0
  C  C50  1  0.66903000  0.07213000  0.61261000  1.0
  C  C51  1  0.33114000  0.92789000  0.38740000  1.0
  C  C52  1  0.16505000  0.47675000  0.93326000  1.0
  C  C53  1  0.83496000  0.52325000  0.06678000  1.0
  C  C54  1  0.66515000  0.02327000  0.56676000  1.0
  C  C55  1  0.33505000  0.97677000  0.43323000  1.0
  C  C56  1  0.00099000  0.47617000  0.97597000  1.0
  C  C57  1  0.99901000  0.52383000  0.02407000  1.0
  C  C58  1  0.50110000  0.02386000  0.52405000  1.0
  C  C59  1  0.49913000  0.97620000  0.47595000  1.0
  C  C60  1  0.84228000  0.42767000  0.97022000  1.0
  C  C61  1  0.15771000  0.57232000  0.02982000  1.0
  C  C62  1  0.34240000  0.07235000  0.52980000  1.0
  C  C63  1  0.65783000  0.92771000  0.47019000  1.0
  C  C64  1  0.32189000  0.52619000  0.93872000  1.0
  C  C65  1  0.67811000  0.47381000  0.06132000  1.0
  C  C66  1  0.82200000  0.97385000  0.56129000  1.0
  C  C67  1  0.17824000  0.02622000  0.43869000  1.0
  C  C68  1  0.31903000  0.57247000  0.98489000  1.0
  C  C69  1  0.68095000  0.42752000  0.01514000  1.0
  C  C70  1  0.81916000  0.92756000  0.51512000  1.0
  C  C71  1  0.18110000  0.07252000  0.48486000  1.0
  C  C72  1  0.01104000  0.38450000  0.61073000  1.0
  C  C73  1  0.98905000  0.61551000  0.38930000  1.0
  C  C74  1  0.51106000  0.11549000  0.88929000  1.0
  C  C75  1  0.48903000  0.88449000  0.11072000  1.0
  C  C76  1  0.00744000  0.42878000  0.56791000  1.0
  C  C77  1  0.99266000  0.57123000  0.43212000  1.0
  C  C78  1  0.50751000  0.07120000  0.93210000  1.0
  C  C79  1  0.49271000  0.92876000  0.06789000  1.0
  C  C80  1  0.00264000  0.47746000  0.52133000  1.0
  C  C81  1  0.99747000  0.52255000  0.47871000  1.0
  C  C82  1  0.50273000  0.02251000  0.97868000  1.0
  C  C83  1  0.49754000  0.97743000  0.02130000  1.0
  C  C84  1  0.62151000  0.62580000  0.94899000  1.0
  C  C85  1  0.37849000  0.37421000  0.05105000  1.0
  C  C86  1  0.12173000  0.87428000  0.55098000  1.0
  C  C87  1  0.87871000  0.12587000  0.44893000  1.0
  O  O88  1  0.31578000  0.81596000  0.30900000  1.0
  O  O89  1  0.68428000  0.18404000  0.69104000  1.0
  O  O90  1  0.81578000  0.68404000  0.19104000  1.0
  O  O91  1  0.18425000  0.31596000  0.80900000  1.0
  O  O92  1  0.65496000  0.81440000  0.18357000  1.0
  O  O93  1  0.34508000  0.18561000  0.81647000  1.0
  O  O94  1  0.15499000  0.68561000  0.31646000  1.0
  O  O95  1  0.84509000  0.31441000  0.68358000  1.0
  O  O96  1  0.65447000  0.81098000  0.31180000  1.0
  O  O97  1  0.34559000  0.18901000  0.68825000  1.0
  O  O98  1  0.15446000  0.68901000  0.18824000  1.0
  O  O99  1  0.84557000  0.31097000  0.81180000  1.0
  O  O100  1  0.81359000  0.68355000  0.31716000  1.0
  O  O101  1  0.18647000  0.31646000  0.68287000  1.0
  O  O102  1  0.31357000  0.81646000  0.18287000  1.0
  O  O103  1  0.68647000  0.18355000  0.81715000  1.0
  O  O104  1  0.48240000  0.70886000  0.25109000  1.0
  O  O105  1  0.51765000  0.29114000  0.74893000  1.0
  O  O106  1  0.98240000  0.79114000  0.24893000  1.0
  O  O107  1  0.01765000  0.20886000  0.75109000  1.0
  O  O108  1  0.46180000  0.62094000  0.99324000  1.0
  O  O109  1  0.53818000  0.37905000  0.00680000  1.0
  O  O110  1  0.96197000  0.87911000  0.50675000  1.0
  O  O111  1  0.03836000  0.12100000  0.49320000  1.0
