# generated using pymatgen
data_KH4C14BrN4O
_symmetry_space_group_name_H-M   'P 1'
_cell_length_a   7.95975000
_cell_length_b   9.62628000
_cell_length_c   18.50450000
_cell_angle_alpha   89.99990000
_cell_angle_beta   77.65700000
_cell_angle_gamma   89.99970000
_symmetry_Int_Tables_number   1
_chemical_formula_structural   KH4C14BrN4O
_chemical_formula_sum   'K4 H16 C56 Br4 N16 O4'
_cell_volume   1385.09289287
_cell_formula_units_Z   4
loop_
 _symmetry_equiv_pos_site_id
 _symmetry_equiv_pos_as_xyz
  1  'x, y, z'
loop_
 _atom_site_type_symbol
 _atom_site_label
 _atom_site_symmetry_multiplicity
 _atom_site_fract_x
 _atom_site_fract_y
 _atom_site_fract_z
 _atom_site_occupancy
  K  K0  1  0.92615000  0.86783000  0.09831000  1.0
  K  K1  1  0.57383000  0.36783000  0.90169000  1.0
  K  K2  1  0.07383000  0.13217000  0.90169000  1.0
  K  K3  1  0.42616000  0.63217000  0.09831000  1.0
  H  H4  1  0.72379000  0.81981000  0.26900000  1.0
  H  H5  1  0.77623000  0.31981000  0.73100000  1.0
  H  H6  1  0.27622000  0.18019000  0.73101000  1.0
  H  H7  1  0.22378000  0.68020000  0.26900000  1.0
  H  H8  1  0.87326000  0.40719000  0.32443000  1.0
  H  H9  1  0.62674000  0.90720000  0.67557000  1.0
  H  H10  1  0.12674000  0.59281000  0.67557000  1.0
  H  H11  1  0.37326000  0.09281000  0.32444000  1.0
  H  H12  1  0.94455000  0.49807000  0.43794000  1.0
  H  H13  1  0.55544000  0.99808000  0.56206000  1.0
  H  H14  1  0.05545000  0.50191000  0.56206000  1.0
  H  H15  1  0.44455000  0.00191000  0.43794000  1.0
  H  H16  1  0.80581000  0.91270000  0.38126000  1.0
  H  H17  1  0.69419000  0.41270000  0.61874000  1.0
  H  H18  1  0.19420000  0.08729000  0.61874000  1.0
  H  H19  1  0.30580000  0.58729000  0.38125000  1.0
  C  C20  1  0.74743000  0.55848000  0.21992000  1.0
  C  C21  1  0.75257000  0.05847000  0.78008000  1.0
  C  C22  1  0.25257000  0.44153000  0.78008000  1.0
  C  C23  1  0.24743000  0.94153000  0.21992000  1.0
  C  C24  1  0.78092000  0.40809000  0.19553000  1.0
  C  C25  1  0.71908000  0.90809000  0.80447000  1.0
  C  C26  1  0.21907000  0.59191000  0.80447000  1.0
  C  C27  1  0.28093000  0.09191000  0.19553000  1.0
  C  C28  1  0.90554000  0.38995000  0.12939000  1.0
  C  C29  1  0.59446000  0.88996000  0.87061000  1.0
  C  C30  1  0.09445000  0.61005000  0.87061000  1.0
  C  C31  1  0.40554000  0.11004000  0.12938000  1.0
  C  C32  1  0.68455000  0.30360000  0.23835000  1.0
  C  C33  1  0.81544000  0.80360000  0.76165000  1.0
  C  C34  1  0.31545000  0.69640000  0.76165000  1.0
  C  C35  1  0.18455000  0.19641000  0.23835000  1.0
  C  C36  1  0.00327000  0.50401000  0.09569000  1.0
  C  C37  1  0.49674000  0.00402000  0.90431000  1.0
  C  C38  1  0.99672000  0.49598000  0.90431000  1.0
  C  C39  1  0.50327000  0.99597000  0.09568000  1.0
  C  C40  1  0.94710000  0.26198000  0.09287000  1.0
  C  C41  1  0.55289000  0.76199000  0.90713000  1.0
  C  C42  1  0.05289000  0.73801000  0.90713000  1.0
  C  C43  1  0.44710000  0.23800000  0.09287000  1.0
  C  C44  1  0.71363000  0.16057000  0.22383000  1.0
  C  C45  1  0.78637000  0.66057000  0.77616000  1.0
  C  C46  1  0.28638000  0.83943000  0.77616000  1.0
  C  C47  1  0.21362000  0.33943000  0.22384000  1.0
  C  C48  1  0.55383000  0.33577000  0.30091000  1.0
  C  C49  1  0.94618000  0.83577000  0.69908000  1.0
  C  C50  1  0.44618000  0.66423000  0.69908000  1.0
  C  C51  1  0.05383000  0.16423000  0.30092000  1.0
  C  C52  1  0.79287000  0.60703000  0.28816000  1.0
  C  C53  1  0.70714000  0.10704000  0.71184000  1.0
  C  C54  1  0.20714000  0.39297000  0.71184000  1.0
  C  C55  1  0.29287000  0.89297000  0.28816000  1.0
  C  C56  1  0.77382000  0.74977000  0.30559000  1.0
  C  C57  1  0.72620000  0.24977000  0.69441000  1.0
  C  C58  1  0.22620000  0.25023000  0.69441000  1.0
  C  C59  1  0.27381000  0.75023000  0.30559000  1.0
  C  C60  1  0.81777000  0.80204000  0.36882000  1.0
  C  C61  1  0.68224000  0.30204000  0.63117000  1.0
  C  C62  1  0.18224000  0.19795000  0.63118000  1.0
  C  C63  1  0.31776000  0.69795000  0.36882000  1.0
  C  C64  1  0.87762000  0.71045000  0.41658000  1.0
  C  C65  1  0.62238000  0.21045000  0.58342000  1.0
  C  C66  1  0.12239000  0.28955000  0.58342000  1.0
  C  C67  1  0.37762000  0.78954000  0.41658000  1.0
  C  C68  1  0.89784000  0.56853000  0.40059000  1.0
  C  C69  1  0.60216000  0.06853000  0.59941000  1.0
  C  C70  1  0.10217000  0.43147000  0.59941000  1.0
  C  C71  1  0.39783000  0.93147000  0.40059000  1.0
  C  C72  1  0.85714000  0.51769000  0.33628000  1.0
  C  C73  1  0.64286000  0.01769000  0.66372000  1.0
  C  C74  1  0.14287000  0.48231000  0.66372000  1.0
  C  C75  1  0.35714000  0.98231000  0.33629000  1.0
  Br  Br76  1  0.93228000  0.78007000  0.50412000  1.0
  Br  Br77  1  0.56772000  0.28009000  0.49588000  1.0
  Br  Br78  1  0.06773000  0.21992000  0.49588000  1.0
  Br  Br79  1  0.43229000  0.71989000  0.50411000  1.0
  N  N80  1  0.08672000  0.59794000  0.06804000  1.0
  N  N81  1  0.41327000  0.09795000  0.93197000  1.0
  N  N82  1  0.91326000  0.40206000  0.93197000  1.0
  N  N83  1  0.58673000  0.90205000  0.06803000  1.0
  N  N84  1  0.98583000  0.15818000  0.06050000  1.0
  N  N85  1  0.51417000  0.65819000  0.93949000  1.0
  N  N86  1  0.01417000  0.84182000  0.93949000  1.0
  N  N87  1  0.48582000  0.34182000  0.06051000  1.0
  N  N88  1  0.73970000  0.04202000  0.21276000  1.0
  N  N89  1  0.76028000  0.54203000  0.78724000  1.0
  N  N90  1  0.26029000  0.95798000  0.78724000  1.0
  N  N91  1  0.23970000  0.45798000  0.21276000  1.0
  N  N92  1  0.44399000  0.35871000  0.35271000  1.0
  N  N93  1  0.05601000  0.85870000  0.64729000  1.0
  N  N94  1  0.55601000  0.64129000  0.64729000  1.0
  N  N95  1  0.94399000  0.14129000  0.35271000  1.0
  O  O96  1  0.68792000  0.63622000  0.17777000  1.0
  O  O97  1  0.81208000  0.13622000  0.82223000  1.0
  O  O98  1  0.31209000  0.36379000  0.82223000  1.0
  O  O99  1  0.18791000  0.86379000  0.17777000  1.0
