# generated using pymatgen
data_CuH8C15(NO)4
_symmetry_space_group_name_H-M   'P 1'
_cell_length_a   7.20104000
_cell_length_b   9.15712000
_cell_length_c   14.95690000
_cell_angle_alpha   95.94800000
_cell_angle_beta   98.81270000
_cell_angle_gamma   100.01600000
_symmetry_Int_Tables_number   1
_chemical_formula_structural   CuH8C15(NO)4
_chemical_formula_sum   'Cu2 H16 C30 N8 O8'
_cell_volume   951.13346205
_cell_formula_units_Z   2
loop_
 _symmetry_equiv_pos_site_id
 _symmetry_equiv_pos_as_xyz
  1  'x, y, z'
loop_
 _atom_site_type_symbol
 _atom_site_label
 _atom_site_symmetry_multiplicity
 _atom_site_fract_x
 _atom_site_fract_y
 _atom_site_fract_z
 _atom_site_occupancy
  Cu  Cu0  1  0.99999000  0.50000000  0.99999000  1.0
  Cu  Cu1  1  0.00000000  0.00001000  0.50000000  1.0
  H  H2  1  0.48619000  0.76199000  0.82534000  1.0
  H  H3  1  0.10538000  0.46440000  0.60301000  1.0
  H  H4  1  0.54931000  0.30470000  0.76782000  1.0
  H  H5  1  0.16863000  0.72214000  0.53934000  1.0
  H  H6  1  0.24678000  0.08543000  0.88452000  1.0
  H  H7  1  0.27468000  0.06091000  0.04991000  1.0
  H  H8  1  0.19320000  0.80205000  0.09722000  1.0
  H  H9  1  0.03906000  0.60708000  0.82814000  1.0
  H  H10  1  0.51382000  0.23802000  0.17465000  1.0
  H  H11  1  0.89463000  0.53559000  0.39699000  1.0
  H  H12  1  0.45069000  0.69531000  0.23219000  1.0
  H  H13  1  0.83135000  0.27787000  0.46065000  1.0
  H  H14  1  0.75322000  0.91457000  0.11548000  1.0
  H  H15  1  0.72532000  0.93909000  0.95009000  1.0
  H  H16  1  0.80679000  0.19795000  0.90278000  1.0
  H  H17  1  0.96096000  0.39291000  0.17186000  1.0
  C  C18  1  0.68086000  0.56200000  0.89166000  1.0
  C  C19  1  0.52923000  0.53506000  0.80716000  1.0
  C  C20  1  0.43925000  0.65287000  0.78413000  1.0
  C  C21  1  0.28953000  0.62719000  0.70981000  1.0
  C  C22  1  0.22815000  0.48642000  0.65831000  1.0
  C  C23  1  0.32458000  0.37091000  0.67867000  1.0
  C  C24  1  0.47547000  0.39574000  0.75274000  1.0
  C  C25  1  0.26791000  0.21940000  0.62110000  1.0
  C  C26  1  0.13894000  0.77858000  0.60137000  1.0
  C  C27  1  0.13156000  0.84893000  0.74451000  1.0
  C  C28  1  0.14782000  0.84688000  0.84301000  1.0
  C  C29  1  0.21038000  0.97597000  0.90676000  1.0
  C  C30  1  0.22698000  0.96145000  0.99942000  1.0
  C  C31  1  0.18015000  0.82019000  0.02587000  1.0
  C  C32  1  0.09765000  0.70967000  0.87504000  1.0
  C  C33  1  0.31915000  0.43800000  0.10835000  1.0
  C  C34  1  0.47077000  0.46495000  0.19284000  1.0
  C  C35  1  0.56075000  0.34714000  0.21586000  1.0
  C  C36  1  0.71047000  0.37281000  0.29018000  1.0
  C  C37  1  0.77186000  0.51358000  0.34169000  1.0
  C  C38  1  0.67543000  0.62909000  0.32133000  1.0
  C  C39  1  0.52453000  0.60427000  0.24727000  1.0
  C  C40  1  0.73209000  0.78060000  0.37890000  1.0
  C  C41  1  0.86105000  0.22143000  0.39863000  1.0
  C  C42  1  0.86844000  0.15106000  0.25549000  1.0
  C  C43  1  0.85219000  0.15311000  0.15699000  1.0
  C  C44  1  0.78963000  0.02403000  0.09324000  1.0
  C  C45  1  0.77302000  0.03855000  0.00058000  1.0
  C  C46  1  0.81984000  0.17981000  0.97413000  1.0
  C  C47  1  0.90236000  0.29033000  0.12497000  1.0
  N  N48  1  0.19196000  0.74507000  0.68686000  1.0
  N  N49  1  0.05373000  0.89486000  0.60698000  1.0
  N  N50  1  0.04839000  0.94061000  0.69629000  1.0
  N  N51  1  0.11299000  0.69715000  0.96398000  1.0
  N  N52  1  0.80804000  0.25493000  0.31313000  1.0
  N  N53  1  0.94626000  0.10514000  0.39303000  1.0
  N  N54  1  0.95161000  0.05939000  0.30372000  1.0
  N  N55  1  0.88701000  0.30285000  0.03602000  1.0
  O  O56  1  0.69219000  0.67081000  0.95102000  1.0
  O  O57  1  0.79333000  0.46453000  0.89450000  1.0
  O  O58  1  0.38150000  0.13181000  0.62382000  1.0
  O  O59  1  0.09697000  0.19671000  0.57172000  1.0
  O  O60  1  0.30781000  0.32919000  0.04898000  1.0
  O  O61  1  0.20668000  0.53547000  0.10550000  1.0
  O  O62  1  0.61849000  0.86819000  0.37618000  1.0
  O  O63  1  0.90302000  0.80329000  0.42828000  1.0
