# generated using pymatgen
data_VH2(CO)5
_symmetry_space_group_name_H-M   'P 1'
_cell_length_a   6.27613000
_cell_length_b   6.86419000
_cell_length_c   9.12093000
_cell_angle_alpha   68.55380000
_cell_angle_beta   84.97560000
_cell_angle_gamma   77.45710000
_symmetry_Int_Tables_number   1
_chemical_formula_structural   VH2(CO)5
_chemical_formula_sum   'V2 H4 C10 O10'
_cell_volume   356.98533363
_cell_formula_units_Z   2
loop_
 _symmetry_equiv_pos_site_id
 _symmetry_equiv_pos_as_xyz
  1  'x, y, z'
loop_
 _atom_site_type_symbol
 _atom_site_label
 _atom_site_symmetry_multiplicity
 _atom_site_fract_x
 _atom_site_fract_y
 _atom_site_fract_z
 _atom_site_occupancy
  V  V0  1  0.99999000  0.50003000  0.49998000  1.0
  V  V1  1  0.00002000  0.00000000  0.50002000  1.0
  H  H2  1  0.83603000  0.63841000  0.99713000  1.0
  H  H3  1  0.08800000  0.83894000  0.28805000  1.0
  H  H4  1  0.16402000  0.36148000  0.00287000  1.0
  H  H5  1  0.91189000  0.16120000  0.71191000  1.0
  C  C6  1  0.40123000  0.53479000  0.85825000  1.0
  C  C7  1  0.27299000  0.60543000  0.71109000  1.0
  C  C8  1  0.59088000  0.61415000  0.85650000  1.0
  C  C9  1  0.71358000  0.69687000  0.70613000  1.0
  C  C10  1  0.68654000  0.58133000  0.99844000  1.0
  C  C11  1  0.59880000  0.46515000  0.14176000  1.0
  C  C12  1  0.72702000  0.39456000  0.28892000  1.0
  C  C13  1  0.40915000  0.38580000  0.14350000  1.0
  C  C14  1  0.28643000  0.30314000  0.29388000  1.0
  C  C15  1  0.31350000  0.41859000  0.00156000  1.0
  O  O16  1  0.01585000  0.79925000  0.39089000  1.0
  O  O17  1  0.80296000  0.85585000  0.68098000  1.0
  O  O18  1  0.18261000  0.47401000  0.68301000  1.0
  O  O19  1  0.25252000  0.80484000  0.62958000  1.0
  O  O20  1  0.73356000  0.58318000  0.61961000  1.0
  O  O21  1  0.98411000  0.20082000  0.60910000  1.0
  O  O22  1  0.19707000  0.14413000  0.31906000  1.0
  O  O23  1  0.81736000  0.52601000  0.31698000  1.0
  O  O24  1  0.74749000  0.19515000  0.37045000  1.0
  O  O25  1  0.26640000  0.41690000  0.38034000  1.0
