# generated using pymatgen
data_KH11C9N16O5
_symmetry_space_group_name_H-M   'P 1'
_cell_length_a   7.97048000
_cell_length_b   9.73810000
_cell_length_c   12.45200000
_cell_angle_alpha   84.09130000
_cell_angle_beta   86.35540000
_cell_angle_gamma   69.67100000
_symmetry_Int_Tables_number   1
_chemical_formula_structural   KH11C9N16O5
_chemical_formula_sum   'K2 H22 C18 N32 O10'
_cell_volume   901.07584123
_cell_formula_units_Z   2
loop_
 _symmetry_equiv_pos_site_id
 _symmetry_equiv_pos_as_xyz
  1  'x, y, z'
loop_
 _atom_site_type_symbol
 _atom_site_label
 _atom_site_symmetry_multiplicity
 _atom_site_fract_x
 _atom_site_fract_y
 _atom_site_fract_z
 _atom_site_occupancy
  K  K0  1  0.41364000  0.52178000  0.33153000  1.0
  K  K1  1  0.58636000  0.47822000  0.66847000  1.0
  H  H2  1  0.69386000  0.82451000  0.58238000  1.0
  H  H3  1  0.30614000  0.17549000  0.41762000  1.0
  H  H4  1  0.19102000  0.92579000  0.29372000  1.0
  H  H5  1  0.80898000  0.07421000  0.70628000  1.0
  H  H6  1  0.66666667  0.01956000  0.08087000  1.0
  H  H7  1  0.33333333  0.98044000  0.91913000  1.0
  H  H8  1  0.79062000  0.73830000  0.87276000  1.0
  H  H9  1  0.20938000  0.26170000  0.12724000  1.0
  H  H10  1  0.51382000  0.92928000  0.40039000  1.0
  H  H11  1  0.48618000  0.07072000  0.59962000  1.0
  H  H12  1  0.60039000  0.73538000  0.43776000  1.0
  H  H13  1  0.39961000  0.26462000  0.56224000  1.0
  H  H14  1  0.36888000  0.83426000  0.45815000  1.0
  H  H15  1  0.63112000  0.16574000  0.54185000  1.0
  H  H16  1  0.35801000  0.70680000  0.06766000  1.0
  H  H17  1  0.64199000  0.29320000  0.93234000  1.0
  H  H18  1  0.78722000  0.30962000  0.18878000  1.0
  H  H19  1  0.21279000  0.69039000  0.81122000  1.0
  H  H20  1  0.07283000  0.43549000  0.70465000  1.0
  H  H21  1  0.92717000  0.56451000  0.29535000  1.0
  H  H22  1  0.54526000  0.80805000  0.24928000  1.0
  H  H23  1  0.45474000  0.19195000  0.75072000  1.0
  C  C24  1  0.11434000  0.59438000  0.57409000  1.0
  C  C25  1  0.88565000  0.40562000  0.42591000  1.0
  C  C26  1  0.82041000  0.73550000  0.59325000  1.0
  C  C27  1  0.17959000  0.26450000  0.40675000  1.0
  C  C28  1  0.76030000  0.14372000  0.30754000  1.0
  C  C29  1  0.23970000  0.85629000  0.69246000  1.0
  C  C30  1  0.05980000  0.01250000  0.28612000  1.0
  C  C31  1  0.94020000  0.98750000  0.71388000  1.0
  C  C32  1  0.03239000  0.74008000  0.15219000  1.0
  C  C33  1  0.96761000  0.25991000  0.84781000  1.0
  C  C34  1  0.76691000  0.91838000  0.11334000  1.0
  C  C35  1  0.23309000  0.08162000  0.88666000  1.0
  C  C36  1  0.63027000  0.57072000  0.07744000  1.0
  C  C37  1  0.36974000  0.42928000  0.92255000  1.0
  C  C38  1  0.70892000  0.70199000  0.93455000  1.0
  C  C39  1  0.29108000  0.29801000  0.06545000  1.0
  C  C40  1  0.48490000  0.82609000  0.40368000  1.0
  C  C41  1  0.51511000  0.17391000  0.59632000  1.0
  N  N42  1  0.02512000  0.53593000  0.65191000  1.0
  N  N43  1  0.97488000  0.46407000  0.34808000  1.0
  N  N44  1  0.84781000  0.62162000  0.66352000  1.0
  N  N45  1  0.15219000  0.37838000  0.33648000  1.0
  N  N46  1  0.97760000  0.72593000  0.53490000  1.0
  N  N47  1  0.02240000  0.27407000  0.46510000  1.0
  N  N48  1  0.01277000  0.81438000  0.45075000  1.0
  N  N49  1  0.98723000  0.18562000  0.54925000  1.0
  N  N50  1  0.87364000  0.92264000  0.42645000  1.0
  N  N51  1  0.12636000  0.07737000  0.57355000  1.0
  N  N52  1  0.90386000  0.01368000  0.34387000  1.0
  N  N53  1  0.09614000  0.98632000  0.65613000  1.0
  N  N54  1  0.84681000  0.20785000  0.23093000  1.0
  N  N55  1  0.15319000  0.79215000  0.76907000  1.0
  N  N56  1  0.02604000  0.12992000  0.21848000  1.0
  N  N57  1  0.97397000  0.87008000  0.78152000  1.0
  N  N58  1  0.89890000  0.70975000  0.21033000  1.0
  N  N59  1  0.10110000  0.29025000  0.78967000  1.0
  N  N60  1  0.73799000  0.82004000  0.18493000  1.0
  N  N61  1  0.26201000  0.17996000  0.81507000  1.0
  N  N62  1  0.94859000  0.87513000  0.08880000  1.0
  N  N63  1  0.05141000  0.12487000  0.91120000  1.0
  N  N64  1  0.04752000  0.93870000  0.02230000  1.0
  N  N65  1  0.95248000  0.06130000  0.97770000  1.0
  N  N66  1  0.48912000  0.68373000  0.03646000  1.0
  N  N67  1  0.51088000  0.31627000  0.96354000  1.0
  N  N68  1  0.53626000  0.76342000  0.94984000  1.0
  N  N69  1  0.46374000  0.23658000  0.05016000  1.0
  N  N70  1  0.77463000  0.58245000  0.01039000  1.0
  N  N71  1  0.22537000  0.41755000  0.98961000  1.0
  N  N72  1  0.94139000  0.48508000  0.03040000  1.0
  N  N73  1  0.05861000  0.51492000  0.96960000  1.0
  O  O74  1  0.27321000  0.54953000  0.54253000  1.0
  O  O75  1  0.72679000  0.45046000  0.45747000  1.0
  O  O76  1  0.60298000  0.18420000  0.33949000  1.0
  O  O77  1  0.39702000  0.81580000  0.66051000  1.0
  O  O78  1  0.19753000  0.66929000  0.15055000  1.0
  O  O79  1  0.80247000  0.33071000  0.84945000  1.0
  O  O80  1  0.63579000  0.47837000  0.15506000  1.0
  O  O81  1  0.36421000  0.52163000  0.84494000  1.0
  O  O82  1  0.44556000  0.79734000  0.29949000  1.0
  O  O83  1  0.55444000  0.20266000  0.70051000  1.0
