# generated using pymatgen
data_CoH18C16S2(N2O)2
_symmetry_space_group_name_H-M   'P 1'
_cell_length_a   7.04088000
_cell_length_b   7.81730000
_cell_length_c   8.77865000
_cell_angle_alpha   66.88930000
_cell_angle_beta   89.41520000
_cell_angle_gamma   76.22060000
_symmetry_Int_Tables_number   1
_chemical_formula_structural   CoH18C16S2(N2O)2
_chemical_formula_sum   'Co1 H18 C16 S2 N4 O2'
_cell_volume   429.73649459
_cell_formula_units_Z   1
loop_
 _symmetry_equiv_pos_site_id
 _symmetry_equiv_pos_as_xyz
  1  'x, y, z'
loop_
 _atom_site_type_symbol
 _atom_site_label
 _atom_site_symmetry_multiplicity
 _atom_site_fract_x
 _atom_site_fract_y
 _atom_site_fract_z
 _atom_site_occupancy
  Co  Co0  1  0.50000000  0.50001000  0.49999000  1.0
  H  H1  1  0.35149000  0.08741000  0.20216000  1.0
  H  H2  1  0.64851000  0.91260000  0.79784000  1.0
  H  H3  1  0.18457000  0.37092000  0.95111000  1.0
  H  H4  1  0.81544000  0.62908000  0.04889000  1.0
  H  H5  1  0.18393000  0.70366000  0.93617000  1.0
  H  H6  1  0.81608000  0.29634000  0.06382000  1.0
  H  H7  1  0.34228000  0.72744000  0.17225000  1.0
  H  H8  1  0.65772000  0.27257000  0.82774000  1.0
  H  H9  1  0.62999000  0.10862000  0.54855000  1.0
  H  H10  1  0.37000000  0.89138000  0.45145000  1.0
  H  H11  1  0.09258000  0.77358000  0.33772000  1.0
  H  H12  1  0.90742000  0.22641000  0.66228000  1.0
  H  H13  1  0.99711000  0.59182000  0.61162000  1.0
  H  H14  1  0.00289000  0.40818000  0.38839000  1.0
  H  H15  1  0.93874000  0.84884000  0.53684000  1.0
  H  H16  1  0.06126000  0.15116000  0.46316000  1.0
  H  H17  1  0.15061000  0.70512000  0.67976000  1.0
  H  H18  1  0.84939000  0.29488000  0.32024000  1.0
  C  C19  1  0.28433000  0.22379000  0.73336000  1.0
  C  C20  1  0.71569000  0.77621000  0.26664000  1.0
  C  C21  1  0.42482000  0.25384000  0.32821000  1.0
  C  C22  1  0.57517000  0.74616000  0.67179000  1.0
  C  C23  1  0.34071000  0.23186000  0.19443000  1.0
  C  C24  1  0.65928000  0.76813000  0.80557000  1.0
  C  C25  1  0.25028000  0.39059000  0.05289000  1.0
  C  C26  1  0.74973000  0.60940000  0.94711000  1.0
  C  C27  1  0.24939000  0.57255000  0.04423000  1.0
  C  C28  1  0.75062000  0.42744000  0.95577000  1.0
  C  C29  1  0.33773000  0.58739000  0.17727000  1.0
  C  C30  1  0.66226000  0.41260000  0.82274000  1.0
  C  C31  1  0.52011000  0.08665000  0.47651000  1.0
  C  C32  1  0.47987000  0.91335000  0.52349000  1.0
  C  C33  1  0.05894000  0.71747000  0.57405000  1.0
  C  C34  1  0.94106000  0.28253000  0.42595000  1.0
  S  S35  1  0.15842000  0.08266000  0.85229000  1.0
  S  S36  1  0.84158000  0.91734000  0.14771000  1.0
  N  N37  1  0.37661000  0.32659000  0.64740000  1.0
  N  N38  1  0.62338000  0.67341000  0.35261000  1.0
  N  N39  1  0.42176000  0.43408000  0.31813000  1.0
  N  N40  1  0.57824000  0.56592000  0.68187000  1.0
  O  O41  1  0.18133000  0.72739000  0.44085000  1.0
  O  O42  1  0.81867000  0.27260000  0.55915000  1.0
