# generated using pymatgen
data_KCoH20C13N2O9
_symmetry_space_group_name_H-M   'P 1'
_cell_length_a   9.59697000
_cell_length_b   12.98460000
_cell_length_c   13.74160000
_cell_angle_alpha   87.65480000
_cell_angle_beta   89.99980000
_cell_angle_gamma   89.99860000
_symmetry_Int_Tables_number   1
_chemical_formula_structural   KCoH20C13N2O9
_chemical_formula_sum   'K4 Co4 H80 C52 N8 O36'
_cell_volume   1710.94523412
_cell_formula_units_Z   4
loop_
 _symmetry_equiv_pos_site_id
 _symmetry_equiv_pos_as_xyz
  1  'x, y, z'
loop_
 _atom_site_type_symbol
 _atom_site_label
 _atom_site_symmetry_multiplicity
 _atom_site_fract_x
 _atom_site_fract_y
 _atom_site_fract_z
 _atom_site_occupancy
  K  K0  1  0.83143000  0.74994000  0.50000000  1.0
  K  K1  1  0.16855000  0.25000000  0.50001000  1.0
  K  K2  1  0.43965000  0.75000000  0.50001000  1.0
  K  K3  1  0.56035000  0.25000000  0.50000000  1.0
  Co  Co4  1  0.34376000  0.84360000  0.72823000  1.0
  Co  Co5  1  0.34376000  0.65639000  0.27177000  1.0
  Co  Co6  1  0.65624000  0.15640000  0.27177000  1.0
  Co  Co7  1  0.65623000  0.34360000  0.72823000  1.0
  H  H8  1  0.38945000  0.07703000  0.89083000  1.0
  H  H9  1  0.38945000  0.42296000  0.10917000  1.0
  H  H10  1  0.61057000  0.92297000  0.10917000  1.0
  H  H11  1  0.61054000  0.57704000  0.89082000  1.0
  H  H12  1  0.31809000  0.95402000  0.91801000  1.0
  H  H13  1  0.31809000  0.54597000  0.08199000  1.0
  H  H14  1  0.68192000  0.04598000  0.08199000  1.0
  H  H15  1  0.68190000  0.45403000  0.91800000  1.0
  H  H16  1  0.20172000  0.13201000  0.79048000  1.0
  H  H17  1  0.20174000  0.36798000  0.20953000  1.0
  H  H18  1  0.79829000  0.86799000  0.20952000  1.0
  H  H19  1  0.79826000  0.63202000  0.79048000  1.0
  H  H20  1  0.12619000  0.05876000  0.88767000  1.0
  H  H21  1  0.12619000  0.44123000  0.11234000  1.0
  H  H22  1  0.87382000  0.94124000  0.11233000  1.0
  H  H23  1  0.87380000  0.55876000  0.88766000  1.0
  H  H24  1  0.00258000  0.00270000  0.75105000  1.0
  H  H25  1  0.00259000  0.49730000  0.24896000  1.0
  H  H26  1  0.99743000  0.99731000  0.24895000  1.0
  H  H27  1  0.99740000  0.50270000  0.75103000  1.0
  H  H28  1  0.14534000  0.01900000  0.67244000  1.0
  H  H29  1  0.14535000  0.48100000  0.32757000  1.0
  H  H30  1  0.85467000  0.98101000  0.32756000  1.0
  H  H31  1  0.85464000  0.51900000  0.67243000  1.0
  H  H32  1  0.06718000  0.88664000  0.60738000  1.0
  H  H33  1  0.06720000  0.61336000  0.39262000  1.0
  H  H34  1  0.93281000  0.11337000  0.39261000  1.0
  H  H35  1  0.93281000  0.38664000  0.60738000  1.0
  H  H36  1  0.95789000  0.81672000  0.69016000  1.0
  H  H37  1  0.95789000  0.68328000  0.30984000  1.0
  H  H38  1  0.04211000  0.18328000  0.30984000  1.0
  H  H39  1  0.04210000  0.31672000  0.69016000  1.0
  H  H40  1  0.73122000  0.95134000  0.74988000  1.0
  H  H41  1  0.73121000  0.54865000  0.25011000  1.0
  H  H42  1  0.26880000  0.04866000  0.25012000  1.0
  H  H43  1  0.26878000  0.45134000  0.74988000  1.0
  H  H44  1  0.75024000  0.85968000  0.84623000  1.0
  H  H45  1  0.75025000  0.64031000  0.15376000  1.0
  H  H46  1  0.24976000  0.14032000  0.15377000  1.0
  H  H47  1  0.24975000  0.35969000  0.84624000  1.0
  H  H48  1  0.51375000  0.87500000  0.90210000  1.0
  H  H49  1  0.51374000  0.62499000  0.09790000  1.0
  H  H50  1  0.48626000  0.12500000  0.09790000  1.0
  H  H51  1  0.48625000  0.37500000  0.90210000  1.0
  H  H52  1  0.58768000  0.00086000  0.88738000  1.0
  H  H53  1  0.58768000  0.49914000  0.11262000  1.0
  H  H54  1  0.41233000  0.99914000  0.11263000  1.0
  H  H55  1  0.41231000  0.50086000  0.88738000  1.0
  H  H56  1  0.57871000  0.03495000  0.69129000  1.0
  H  H57  1  0.57871000  0.46504000  0.30871000  1.0
  H  H58  1  0.42130000  0.96504000  0.30871000  1.0
  H  H59  1  0.42128000  0.53497000  0.69129000  1.0
  H  H60  1  0.44615000  0.11941000  0.72559000  1.0
  H  H61  1  0.44614000  0.38059000  0.27441000  1.0
  H  H62  1  0.55388000  0.88059000  0.27442000  1.0
  H  H63  1  0.55385000  0.61941000  0.72559000  1.0
  H  H64  1  0.06083000  0.69302000  0.92888000  1.0
  H  H65  1  0.06085000  0.80698000  0.07111000  1.0
  H  H66  1  0.93916000  0.30699000  0.07111000  1.0
  H  H67  1  0.93916000  0.19302000  0.92888000  1.0
  H  H68  1  0.08673000  0.67511000  0.80454000  1.0
  H  H69  1  0.08674000  0.82489000  0.19546000  1.0
  H  H70  1  0.91325000  0.32490000  0.19546000  1.0
  H  H71  1  0.91327000  0.17512000  0.80454000  1.0
  H  H72  1  0.97640000  0.84843000  0.84713000  1.0
  H  H73  1  0.97640000  0.65158000  0.15287000  1.0
  H  H74  1  0.02361000  0.15158000  0.15287000  1.0
  H  H75  1  0.02359000  0.34843000  0.84713000  1.0
  H  H76  1  0.13613000  0.87840000  0.90558000  1.0
  H  H77  1  0.13613000  0.62160000  0.09442000  1.0
  H  H78  1  0.86387000  0.12161000  0.09442000  1.0
  H  H79  1  0.86385000  0.37840000  0.90557000  1.0
  H  H80  1  0.73993000  0.53235000  0.45839000  1.0
  H  H81  1  0.73996000  0.96762000  0.54162000  1.0
  H  H82  1  0.26006000  0.46763000  0.54162000  1.0
  H  H83  1  0.26006000  0.03236000  0.45838000  1.0
  H  H84  1  0.85262000  0.45550000  0.42018000  1.0
  H  H85  1  0.85260000  0.04451000  0.57983000  1.0
  H  H86  1  0.14740000  0.54451000  0.57983000  1.0
  H  H87  1  0.14741000  0.95549000  0.42017000  1.0
  C  C88  1  0.33200000  0.01276000  0.85930000  1.0
  C  C89  1  0.33201000  0.48724000  0.14071000  1.0
  C  C90  1  0.66801000  0.98725000  0.14071000  1.0
  C  C91  1  0.66798000  0.51276000  0.85929000  1.0
  C  C92  1  0.19141000  0.05333000  0.82219000  1.0
  C  C93  1  0.19142000  0.44666000  0.17781000  1.0
  C  C94  1  0.80860000  0.94667000  0.17781000  1.0
  C  C95  1  0.80857000  0.55334000  0.82219000  1.0
  C  C96  1  0.11627000  0.99169000  0.74598000  1.0
  C  C97  1  0.11627000  0.50830000  0.25402000  1.0
  C  C98  1  0.88375000  0.00831000  0.25402000  1.0
  C  C99  1  0.88372000  0.49170000  0.74598000  1.0
  C  C100  1  0.06740000  0.83153000  0.67028000  1.0
  C  C101  1  0.06741000  0.66847000  0.32973000  1.0
  C  C102  1  0.93260000  0.16848000  0.32972000  1.0
  C  C103  1  0.93259000  0.33153000  0.67027000  1.0
  C  C104  1  0.13861000  0.73502000  0.63854000  1.0
  C  C105  1  0.13860000  0.76498000  0.36146000  1.0
  C  C106  1  0.86140000  0.26498000  0.36146000  1.0
  C  C107  1  0.86140000  0.23502000  0.63854000  1.0
  C  C108  1  0.64680000  0.80869000  0.72063000  1.0
  C  C109  1  0.64680000  0.69131000  0.27936000  1.0
  C  C110  1  0.35321000  0.19130000  0.27937000  1.0
  C  C111  1  0.35320000  0.30869000  0.72063000  1.0
  C  C112  1  0.67452000  0.89097000  0.79276000  1.0
  C  C113  1  0.67452000  0.60902000  0.20723000  1.0
  C  C114  1  0.32549000  0.10903000  0.20724000  1.0
  C  C115  1  0.32547000  0.39098000  0.79276000  1.0
  C  C116  1  0.55248000  0.93296000  0.84854000  1.0
  C  C117  1  0.55249000  0.56704000  0.15145000  1.0
  C  C118  1  0.44753000  0.06704000  0.15146000  1.0
  C  C119  1  0.44751000  0.43297000  0.84854000  1.0
  C  C120  1  0.46660000  0.03966000  0.70665000  1.0
  C  C121  1  0.46660000  0.46034000  0.29336000  1.0
  C  C122  1  0.53341000  0.96034000  0.29336000  1.0
  C  C123  1  0.53339000  0.53966000  0.70665000  1.0
  C  C124  1  0.39241000  0.01594000  0.61309000  1.0
  C  C125  1  0.39241000  0.48406000  0.38691000  1.0
  C  C126  1  0.60760000  0.98406000  0.38691000  1.0
  C  C127  1  0.60757000  0.51593000  0.61309000  1.0
  C  C128  1  0.27398000  0.69929000  0.88626000  1.0
  C  C129  1  0.27398000  0.80070000  0.11374000  1.0
  C  C130  1  0.72602000  0.30071000  0.11374000  1.0
  C  C131  1  0.72602000  0.19929000  0.88625000  1.0
  C  C132  1  0.12093000  0.72150000  0.86531000  1.0
  C  C133  1  0.12094000  0.77850000  0.13468000  1.0
  C  C134  1  0.87906000  0.27851000  0.13469000  1.0
  C  C135  1  0.87907000  0.22150000  0.86531000  1.0
  C  C136  1  0.08988000  0.83512000  0.84679000  1.0
  C  C137  1  0.08988000  0.66488000  0.15321000  1.0
  C  C138  1  0.91012000  0.16489000  0.15321000  1.0
  C  C139  1  0.91011000  0.33512000  0.84678000  1.0
  N  N140  1  0.42816000  0.96515000  0.78813000  1.0
  N  N141  1  0.42816000  0.53484000  0.21187000  1.0
  N  N142  1  0.57185000  0.03484000  0.21187000  1.0
  N  N143  1  0.57183000  0.46516000  0.78813000  1.0
  N  N144  1  0.14408000  0.87867000  0.75201000  1.0
  N  N145  1  0.14409000  0.62133000  0.24799000  1.0
  N  N146  1  0.85592000  0.12134000  0.24799000  1.0
  N  N147  1  0.85591000  0.37867000  0.75201000  1.0
  O  O148  1  0.26937000  0.72664000  0.66145000  1.0
  O  O149  1  0.26936000  0.77336000  0.33855000  1.0
  O  O150  1  0.73063000  0.27336000  0.33855000  1.0
  O  O151  1  0.73063000  0.22664000  0.66145000  1.0
  O  O152  1  0.07321000  0.67053000  0.59109000  1.0
  O  O153  1  0.07320000  0.82946000  0.40892000  1.0
  O  O154  1  0.92680000  0.32948000  0.40891000  1.0
  O  O155  1  0.92679000  0.17054000  0.59108000  1.0
  O  O156  1  0.52275000  0.79633000  0.68580000  1.0
  O  O157  1  0.52276000  0.70367000  0.31420000  1.0
  O  O158  1  0.47725000  0.20367000  0.31420000  1.0
  O  O159  1  0.47724000  0.29633000  0.68580000  1.0
  O  O160  1  0.74704000  0.75642000  0.69115000  1.0
  O  O161  1  0.74703000  0.74358000  0.30882000  1.0
  O  O162  1  0.25296000  0.24358000  0.30885000  1.0
  O  O163  1  0.25296000  0.25642000  0.69117000  1.0
  O  O164  1  0.33471000  0.92556000  0.61025000  1.0
  O  O165  1  0.33471000  0.57444000  0.38976000  1.0
  O  O166  1  0.66530000  0.07444000  0.38976000  1.0
  O  O167  1  0.66528000  0.42555000  0.61024000  1.0
  O  O168  1  0.38902000  0.08000000  0.54279000  1.0
  O  O169  1  0.38902000  0.42000000  0.45721000  1.0
  O  O170  1  0.61098000  0.92000000  0.45721000  1.0
  O  O171  1  0.61095000  0.57999000  0.54278000  1.0
  O  O172  1  0.36774000  0.75632000  0.84233000  1.0
  O  O173  1  0.36774000  0.74368000  0.15767000  1.0
  O  O174  1  0.63226000  0.24368000  0.15767000  1.0
  O  O175  1  0.63226000  0.25632000  0.84233000  1.0
  O  O176  1  0.30536000  0.62806000  0.94602000  1.0
  O  O177  1  0.30537000  0.87193000  0.05398000  1.0
  O  O178  1  0.69463000  0.37193000  0.05397000  1.0
  O  O179  1  0.69464000  0.12805000  0.94601000  1.0
  O  O180  1  0.82050000  0.52783000  0.41417000  1.0
  O  O181  1  0.82047000  0.97218000  0.58588000  1.0
  O  O182  1  0.17953000  0.47218000  0.58587000  1.0
  O  O183  1  0.17954000  0.02781000  0.41412000  1.0
