# generated using pymatgen
data_KSmH9C9NO12
_symmetry_space_group_name_H-M   'P 1'
_cell_length_a   6.76260000
_cell_length_b   13.98950000
_cell_length_c   14.26510000
_cell_angle_alpha   90.00000000
_cell_angle_beta   92.49500000
_cell_angle_gamma   90.00000000
_symmetry_Int_Tables_number   1
_chemical_formula_structural   KSmH9C9NO12
_chemical_formula_sum   'K4 Sm4 H36 C36 N4 O48'
_cell_volume   1348.27604167
_cell_formula_units_Z   4
loop_
 _symmetry_equiv_pos_site_id
 _symmetry_equiv_pos_as_xyz
  1  'x, y, z'
loop_
 _atom_site_type_symbol
 _atom_site_label
 _atom_site_symmetry_multiplicity
 _atom_site_fract_x
 _atom_site_fract_y
 _atom_site_fract_z
 _atom_site_occupancy
  K  K0  1  0.72855000  0.28704000  0.25626000  1.0
  K  K1  1  0.77141000  0.78702000  0.24375000  1.0
  K  K2  1  0.27142000  0.71298000  0.74375000  1.0
  K  K3  1  0.22858000  0.21298000  0.75625000  1.0
  Sm  Sm4  1  0.77662000  0.25342000  0.93261000  1.0
  Sm  Sm5  1  0.72338000  0.75342000  0.56739000  1.0
  Sm  Sm6  1  0.22338000  0.74657000  0.06739000  1.0
  Sm  Sm7  1  0.27662000  0.24658000  0.43261000  1.0
  H  H8  1  0.71232000  0.70086000  0.86524000  1.0
  H  H9  1  0.78768000  0.20086000  0.63475000  1.0
  H  H10  1  0.28767000  0.29914000  0.13476000  1.0
  H  H11  1  0.21232000  0.79914000  0.36524000  1.0
  H  H12  1  0.11174000  0.19016000  0.07178000  1.0
  H  H13  1  0.38826000  0.69016000  0.42822000  1.0
  H  H14  1  0.88825000  0.80984000  0.92822000  1.0
  H  H15  1  0.61174000  0.30984000  0.57178000  1.0
  H  H16  1  0.07965000  0.10372000  0.00501000  1.0
  H  H17  1  0.42035000  0.60371000  0.49499000  1.0
  H  H18  1  0.92035000  0.89628000  0.99499000  1.0
  H  H19  1  0.57965000  0.39629000  0.50501000  1.0
  H  H20  1  0.51861000  0.12704000  0.08020000  1.0
  H  H21  1  0.98140000  0.62704000  0.41980000  1.0
  H  H22  1  0.48139000  0.87296000  0.91980000  1.0
  H  H23  1  0.01860000  0.37296000  0.58020000  1.0
  H  H24  1  0.45080000  0.11028000  0.97587000  1.0
  H  H25  1  0.04920000  0.61029000  0.52413000  1.0
  H  H26  1  0.54919000  0.88971000  0.02413000  1.0
  H  H27  1  0.95080000  0.38971000  0.47587000  1.0
  H  H28  1  0.72019000  0.48836000  0.38752000  1.0
  H  H29  1  0.77981000  0.98835000  0.11248000  1.0
  H  H30  1  0.27981000  0.51164000  0.61248000  1.0
  H  H31  1  0.22019000  0.01165000  0.88752000  1.0
  H  H32  1  0.79518000  0.52022000  0.48489000  1.0
  H  H33  1  0.70482000  0.02022000  0.01512000  1.0
  H  H34  1  0.20482000  0.47978000  0.51511000  1.0
  H  H35  1  0.29518000  0.97978000  0.98489000  1.0
  H  H36  1  0.93094000  0.10073000  0.16540000  1.0
  H  H37  1  0.56906000  0.60073000  0.33461000  1.0
  H  H38  1  0.06906000  0.89927000  0.83460000  1.0
  H  H39  1  0.43094000  0.39927000  0.66540000  1.0
  H  H40  1  0.83050000  0.05542000  0.25582000  1.0
  H  H41  1  0.66951000  0.55542000  0.24418000  1.0
  H  H42  1  0.16950000  0.94458000  0.74418000  1.0
  H  H43  1  0.33050000  0.44458000  0.75582000  1.0
  C  C44  1  0.75276000  0.43794000  0.07535000  1.0
  C  C45  1  0.74724000  0.93794000  0.42465000  1.0
  C  C46  1  0.24724000  0.56206000  0.92465000  1.0
  C  C47  1  0.25277000  0.06207000  0.57535000  1.0
  C  C48  1  0.75757000  0.48932000  0.98199000  1.0
  C  C49  1  0.74242000  0.98932000  0.51800000  1.0
  C  C50  1  0.24242000  0.51068000  0.01801000  1.0
  C  C51  1  0.25758000  0.01068000  0.48200000  1.0
  C  C52  1  0.73477000  0.58863000  0.97064000  1.0
  C  C53  1  0.76522000  0.08862000  0.52935000  1.0
  C  C54  1  0.26522000  0.41137000  0.02936000  1.0
  C  C55  1  0.23478000  0.91138000  0.47065000  1.0
  C  C56  1  0.73503000  0.62471000  0.87924000  1.0
  C  C57  1  0.76497000  0.12470000  0.62076000  1.0
  C  C58  1  0.26497000  0.37529000  0.12076000  1.0
  C  C59  1  0.23503000  0.87530000  0.37924000  1.0
  C  C60  1  0.76216000  0.56416000  0.80302000  1.0
  C  C61  1  0.73784000  0.06415000  0.69698000  1.0
  C  C62  1  0.23784000  0.43584000  0.19698000  1.0
  C  C63  1  0.26216000  0.93585000  0.30302000  1.0
  C  C64  1  0.78798000  0.46651000  0.82079000  1.0
  C  C65  1  0.71202000  0.96651000  0.67921000  1.0
  C  C66  1  0.21202000  0.53349000  0.17921000  1.0
  C  C67  1  0.28798000  0.03349000  0.32079000  1.0
  C  C68  1  0.82275000  0.39317000  0.74532000  1.0
  C  C69  1  0.67724000  0.89316000  0.75467000  1.0
  C  C70  1  0.17725000  0.60683000  0.25468000  1.0
  C  C71  1  0.32276000  0.10684000  0.24532000  1.0
  C  C72  1  0.71978000  0.65935000  0.05002000  1.0
  C  C73  1  0.78023000  0.15935000  0.44998000  1.0
  C  C74  1  0.28022000  0.34065000  0.94998000  1.0
  C  C75  1  0.21978000  0.84065000  0.55002000  1.0
  C  C76  1  0.76040000  0.60758000  0.70689000  1.0
  C  C77  1  0.73960000  0.10758000  0.79311000  1.0
  C  C78  1  0.23960000  0.39242000  0.29311000  1.0
  C  C79  1  0.26040000  0.89242000  0.20689000  1.0
  N  N80  1  0.78258000  0.43226000  0.90808000  1.0
  N  N81  1  0.71741000  0.93226000  0.59191000  1.0
  N  N82  1  0.21742000  0.56774000  0.09192000  1.0
  N  N83  1  0.28259000  0.06774000  0.40808000  1.0
  O  O84  1  0.77432000  0.34625000  0.07279000  1.0
  O  O85  1  0.72567000  0.84624000  0.42721000  1.0
  O  O86  1  0.22567000  0.65375000  0.92722000  1.0
  O  O87  1  0.27435000  0.15376000  0.57278000  1.0
  O  O88  1  0.72786000  0.48555000  0.14795000  1.0
  O  O89  1  0.77214000  0.98554000  0.35205000  1.0
  O  O90  1  0.27214000  0.51445000  0.85205000  1.0
  O  O91  1  0.22786000  0.01446000  0.64795000  1.0
  O  O92  1  0.55262000  0.68074000  0.07996000  1.0
  O  O93  1  0.94739000  0.18073000  0.42004000  1.0
  O  O94  1  0.44738000  0.31926000  0.92004000  1.0
  O  O95  1  0.05261000  0.81927000  0.57996000  1.0
  O  O96  1  0.88024000  0.69910000  0.07794000  1.0
  O  O97  1  0.61977000  0.19911000  0.42206000  1.0
  O  O98  1  0.11976000  0.30090000  0.92206000  1.0
  O  O99  1  0.38023000  0.80089000  0.57794000  1.0
  O  O100  1  0.91836000  0.64596000  0.67999000  1.0
  O  O101  1  0.58165000  0.14596000  0.82001000  1.0
  O  O102  1  0.08165000  0.35404000  0.32001000  1.0
  O  O103  1  0.41835000  0.85404000  0.17999000  1.0
  O  O104  1  0.59536000  0.61431000  0.66077000  1.0
  O  O105  1  0.90466000  0.11431000  0.83922000  1.0
  O  O106  1  0.40466000  0.38569000  0.33922000  1.0
  O  O107  1  0.09534000  0.88569000  0.16078000  1.0
  O  O108  1  0.84736000  0.42140000  0.66310000  1.0
  O  O109  1  0.65264000  0.92139000  0.83690000  1.0
  O  O110  1  0.15265000  0.57860000  0.33690000  1.0
  O  O111  1  0.34736000  0.07861000  0.16310000  1.0
  O  O112  1  0.82297000  0.30559000  0.77218000  1.0
  O  O113  1  0.67703000  0.80559000  0.72781000  1.0
  O  O114  1  0.17703000  0.69441000  0.22781000  1.0
  O  O115  1  0.32298000  0.19441000  0.27219000  1.0
  O  O116  1  0.00527000  0.15347000  0.04086000  1.0
  O  O117  1  0.49473000  0.65347000  0.45914000  1.0
  O  O118  1  0.99473000  0.84652000  0.95914000  1.0
  O  O119  1  0.50527000  0.34653000  0.54086000  1.0
  O  O120  1  0.56364000  0.13675000  0.01536000  1.0
  O  O121  1  0.93636000  0.63675000  0.48464000  1.0
  O  O122  1  0.43635000  0.86325000  0.98464000  1.0
  O  O123  1  0.06364000  0.36325000  0.51536000  1.0
  O  O124  1  0.74631000  0.46229000  0.45157000  1.0
  O  O125  1  0.75369000  0.96229000  0.04843000  1.0
  O  O126  1  0.25369000  0.53770000  0.54843000  1.0
  O  O127  1  0.24631000  0.03771000  0.95157000  1.0
  O  O128  1  0.80674000  0.09106000  0.19679000  1.0
  O  O129  1  0.69327000  0.59105000  0.30322000  1.0
  O  O130  1  0.19326000  0.90894000  0.80321000  1.0
  O  O131  1  0.30673000  0.40894000  0.69679000  1.0
