# generated using pymatgen
data_CdH8C8(N3O2)2
_symmetry_space_group_name_H-M   'P 1'
_cell_length_a   4.88973000
_cell_length_b   8.74855000
_cell_length_c   12.41890000
_cell_angle_alpha   91.47760000
_cell_angle_beta   90.00000000
_cell_angle_gamma   89.99990000
_symmetry_Int_Tables_number   1
_chemical_formula_structural   CdH8C8(N3O2)2
_chemical_formula_sum   'Cd2 H16 C16 N12 O8'
_cell_volume   531.07964076
_cell_formula_units_Z   2
loop_
 _symmetry_equiv_pos_site_id
 _symmetry_equiv_pos_as_xyz
  1  'x, y, z'
loop_
 _atom_site_type_symbol
 _atom_site_label
 _atom_site_symmetry_multiplicity
 _atom_site_fract_x
 _atom_site_fract_y
 _atom_site_fract_z
 _atom_site_occupancy
  Cd  Cd0  1  0.00000000  0.00000000  0.50000000  1.0
  Cd  Cd1  1  0.50000000  0.50000000  0.00000000  1.0
  H  H2  1  0.54620000  0.32847000  0.50591000  1.0
  H  H3  1  0.04620000  0.17153000  0.99409000  1.0
  H  H4  1  0.45380000  0.67153000  0.49409000  1.0
  H  H5  1  0.95380000  0.82847000  0.00591000  1.0
  H  H6  1  0.25511000  0.25695000  0.31987000  1.0
  H  H7  1  0.75511000  0.24305000  0.18013000  1.0
  H  H8  1  0.74489000  0.74305000  0.68013000  1.0
  H  H9  1  0.24489000  0.75695000  0.81987000  1.0
  H  H10  1  0.33769000  0.54527000  0.27302000  1.0
  H  H11  1  0.83768000  0.95473000  0.22698000  1.0
  H  H12  1  0.66231000  0.45473000  0.72698000  1.0
  H  H13  1  0.16231000  0.04527000  0.77302000  1.0
  H  H14  1  0.08587000  0.67957000  0.31918000  1.0
  H  H15  1  0.58587000  0.82042000  0.18082000  1.0
  H  H16  1  0.91413000  0.32042000  0.68082000  1.0
  H  H17  1  0.41413000  0.17958000  0.81919000  1.0
  C  C18  1  0.71635000  0.34706000  0.45145000  1.0
  C  C19  1  0.21635000  0.15294000  0.04855000  1.0
  C  C20  1  0.28365000  0.65294000  0.54855000  1.0
  C  C21  1  0.78365000  0.84706000  0.95145000  1.0
  C  C22  1  0.07658000  0.30731000  0.35814000  1.0
  C  C23  1  0.57658000  0.19269000  0.14186000  1.0
  C  C24  1  0.92342000  0.69269000  0.64186000  1.0
  C  C25  1  0.42342000  0.80731000  0.85814000  1.0
  C  C26  1  0.11715000  0.56736000  0.27921000  1.0
  C  C27  1  0.61715000  0.93264000  0.22079000  1.0
  C  C28  1  0.88285000  0.43264000  0.72079000  1.0
  C  C29  1  0.38285000  0.06736000  0.77921000  1.0
  C  C30  1  0.98817000  0.57291000  0.16642000  1.0
  C  C31  1  0.48817000  0.92709000  0.33358000  1.0
  C  C32  1  0.01183000  0.42709000  0.83358000  1.0
  C  C33  1  0.51183000  0.07291000  0.66642000  1.0
  N  N34  1  0.90454000  0.23700000  0.42443000  1.0
  N  N35  1  0.40454000  0.26300000  0.07557000  1.0
  N  N36  1  0.09546000  0.76300000  0.57557000  1.0
  N  N37  1  0.59546000  0.73700000  0.92442000  1.0
  N  N38  1  0.99441000  0.45256000  0.34639000  1.0
  N  N39  1  0.49441000  0.04744000  0.15361000  1.0
  N  N40  1  0.00559000  0.54744000  0.65361000  1.0
  N  N41  1  0.50558000  0.95256000  0.84639000  1.0
  N  N42  1  0.76322000  0.47986000  0.40496000  1.0
  N  N43  1  0.26322000  0.02014000  0.09504000  1.0
  N  N44  1  0.23678000  0.52014000  0.59504000  1.0
  N  N45  1  0.73677000  0.97986000  0.90496000  1.0
  O  O46  1  0.13348000  0.62625000  0.09231000  1.0
  O  O47  1  0.63348000  0.87375000  0.40770000  1.0
  O  O48  1  0.86652000  0.37375000  0.90769000  1.0
  O  O49  1  0.36652000  0.12625000  0.59231000  1.0
  O  O50  1  0.74128000  0.52858000  0.15871000  1.0
  O  O51  1  0.24128000  0.97142000  0.34129000  1.0
  O  O52  1  0.25873000  0.47142000  0.84129000  1.0
  O  O53  1  0.75872000  0.02858000  0.65871000  1.0
