# generated using pymatgen
data_CuH9C12BrNO
_symmetry_space_group_name_H-M   'P 1'
_cell_length_a   3.83800000
_cell_length_b   11.19970000
_cell_length_c   24.30710000
_cell_angle_alpha   90.00010000
_cell_angle_beta   90.00070000
_cell_angle_gamma   88.28380000
_symmetry_Int_Tables_number   1
_chemical_formula_structural   CuH9C12BrNO
_chemical_formula_sum   'Cu4 H36 C48 Br4 N4 O4'
_cell_volume   1044.35861464
_cell_formula_units_Z   4
loop_
 _symmetry_equiv_pos_site_id
 _symmetry_equiv_pos_as_xyz
  1  'x, y, z'
loop_
 _atom_site_type_symbol
 _atom_site_label
 _atom_site_symmetry_multiplicity
 _atom_site_fract_x
 _atom_site_fract_y
 _atom_site_fract_z
 _atom_site_occupancy
  Cu  Cu0  1  0.20163000  0.94675000  0.53732000  1.0
  Cu  Cu1  1  0.29838000  0.55324000  0.03732000  1.0
  Cu  Cu2  1  0.79837000  0.05324000  0.46268000  1.0
  Cu  Cu3  1  0.70164000  0.44676000  0.96268000  1.0
  H  H4  1  0.49713000  0.84088000  0.63960000  1.0
  H  H5  1  0.00286000  0.65912000  0.13960000  1.0
  H  H6  1  0.50287000  0.15912000  0.36040000  1.0
  H  H7  1  0.99712000  0.34088000  0.86040000  1.0
  H  H8  1  0.54413000  0.90042000  0.73673000  1.0
  H  H9  1  0.95587000  0.59959000  0.23673000  1.0
  H  H10  1  0.45588000  0.09959000  0.26327000  1.0
  H  H11  1  0.04411000  0.40041000  0.76327000  1.0
  H  H12  1  0.96389000  0.22551000  0.69595000  1.0
  H  H13  1  0.53612000  0.27450000  0.19595000  1.0
  H  H14  1  0.03612000  0.77450000  0.30405000  1.0
  H  H15  1  0.46389000  0.72551000  0.80405000  1.0
  H  H16  1  0.92378000  0.14867000  0.59960000  1.0
  H  H17  1  0.57622000  0.35133000  0.09960000  1.0
  H  H18  1  0.07623000  0.85133000  0.40040000  1.0
  H  H19  1  0.42379000  0.64867000  0.90040000  1.0
  H  H20  1  0.02583000  0.89962000  0.79253000  1.0
  H  H21  1  0.47414000  0.60038000  0.29254000  1.0
  H  H22  1  0.97415000  0.10038000  0.20747000  1.0
  H  H23  1  0.52583000  0.39962000  0.70747000  1.0
  H  H24  1  0.94426000  0.79152000  0.88017000  1.0
  H  H25  1  0.55576000  0.70847000  0.38018000  1.0
  H  H26  1  0.05575000  0.20848000  0.11983000  1.0
  H  H27  1  0.44424000  0.29152000  0.61983000  1.0
  H  H28  1  0.13879000  0.87778000  0.96798000  1.0
  H  H29  1  0.36126000  0.62220000  0.46798000  1.0
  H  H30  1  0.86124000  0.12222000  0.03202000  1.0
  H  H31  1  0.63873000  0.37778000  0.53202000  1.0
  H  H32  1  0.40325000  0.07998000  0.96907000  1.0
  H  H33  1  0.09679000  0.42001000  0.46907000  1.0
  H  H34  1  0.59677000  0.92002000  0.03093000  1.0
  H  H35  1  0.90321000  0.57998000  0.53093000  1.0
  H  H36  1  0.48388000  0.18951000  0.88175000  1.0
  H  H37  1  0.01613000  0.31049000  0.38175000  1.0
  H  H38  1  0.51612000  0.81050000  0.11825000  1.0
  H  H39  1  0.98386000  0.68950000  0.61825000  1.0
  C  C40  1  0.37526000  0.92445000  0.65375000  1.0
  C  C41  1  0.12474000  0.57555000  0.15375000  1.0
  C  C42  1  0.62474000  0.07555000  0.34625000  1.0
  C  C43  1  0.87525000  0.42445000  0.84625000  1.0
  C  C44  1  0.40044000  0.95893000  0.70854000  1.0
  C  C45  1  0.09956000  0.54107000  0.20854000  1.0
  C  C46  1  0.59957000  0.04107000  0.29145000  1.0
  C  C47  1  0.90043000  0.45893000  0.79146000  1.0
  C  C48  1  0.25740000  0.06967000  0.72484000  1.0
  C  C49  1  0.24260000  0.43033000  0.22484000  1.0
  C  C50  1  0.74262000  0.93033000  0.27516000  1.0
  C  C51  1  0.75739000  0.56967000  0.77516000  1.0
  C  C52  1  0.08249000  0.13929000  0.68496000  1.0
  C  C53  1  0.41751000  0.36071000  0.18496000  1.0
  C  C54  1  0.91752000  0.86070000  0.31504000  1.0
  C  C55  1  0.58249000  0.63930000  0.81504000  1.0
  C  C56  1  0.05985000  0.09740000  0.63156000  1.0
  C  C57  1  0.44015000  0.40260000  0.13156000  1.0
  C  C58  1  0.94016000  0.90260000  0.36844000  1.0
  C  C59  1  0.55986000  0.59740000  0.86844000  1.0
  C  C60  1  0.31051000  0.12303000  0.78054000  1.0
  C  C61  1  0.18949000  0.37698000  0.28054000  1.0
  C  C62  1  0.68949000  0.87698000  0.21945000  1.0
  C  C63  1  0.81049000  0.62302000  0.71946000  1.0
  C  C64  1  0.26627000  0.05181000  0.83117000  1.0
  C  C65  1  0.23373000  0.44820000  0.33117000  1.0
  C  C66  1  0.73372000  0.94820000  0.16883000  1.0
  C  C67  1  0.76626000  0.55181000  0.66883000  1.0
  C  C68  1  0.11322000  0.93906000  0.83093000  1.0
  C  C69  1  0.38677000  0.56095000  0.33094000  1.0
  C  C70  1  0.88677000  0.06095000  0.16906000  1.0
  C  C71  1  0.61321000  0.43905000  0.66907000  1.0
  C  C72  1  0.06804000  0.87776000  0.88016000  1.0
  C  C73  1  0.43197000  0.62224000  0.38017000  1.0
  C  C74  1  0.93197000  0.12224000  0.11983000  1.0
  C  C75  1  0.56801000  0.37776000  0.61983000  1.0
  C  C76  1  0.17483000  0.92733000  0.92985000  1.0
  C  C77  1  0.32521000  0.57266000  0.42986000  1.0
  C  C78  1  0.82520000  0.07267000  0.07015000  1.0
  C  C79  1  0.67478000  0.42733000  0.57015000  1.0
  C  C80  1  0.32379000  0.03978000  0.93042000  1.0
  C  C81  1  0.17624000  0.46022000  0.43043000  1.0
  C  C82  1  0.67622000  0.96023000  0.06957000  1.0
  C  C83  1  0.82375000  0.53978000  0.56957000  1.0
  C  C84  1  0.36811000  0.10184000  0.88158000  1.0
  C  C85  1  0.13190000  0.39815000  0.38158000  1.0
  C  C86  1  0.63190000  0.89816000  0.11842000  1.0
  C  C87  1  0.86808000  0.60184000  0.61842000  1.0
  Br  Br88  1  0.71930000  0.83345000  0.50367000  1.0
  Br  Br89  1  0.78070000  0.66655000  0.00367000  1.0
  Br  Br90  1  0.28072000  0.16655000  0.49633000  1.0
  Br  Br91  1  0.21931000  0.33345000  0.99633000  1.0
  N  N92  1  0.20985000  0.99215000  0.61535000  1.0
  N  N93  1  0.29015000  0.50785000  0.11535000  1.0
  N  N94  1  0.79016000  0.00785000  0.38465000  1.0
  N  N95  1  0.70984000  0.49215000  0.88465000  1.0
  O  O96  1  0.39122000  0.22956000  0.78250000  1.0
  O  O97  1  0.10879000  0.27043000  0.28250000  1.0
  O  O98  1  0.60879000  0.77044000  0.21750000  1.0
  O  O99  1  0.89121000  0.72957000  0.71750000  1.0
