# generated using pymatgen
data_TbH13C13(N3O4)2
_symmetry_space_group_name_H-M   'P 1'
_cell_length_a   9.37765000
_cell_length_b   9.61691000
_cell_length_c   10.42220000
_cell_angle_alpha   98.08980000
_cell_angle_beta   102.40800000
_cell_angle_gamma   100.49200000
_symmetry_Int_Tables_number   1
_chemical_formula_structural   TbH13C13(N3O4)2
_chemical_formula_sum   'Tb2 H26 C26 N12 O16'
_cell_volume   886.64228807
_cell_formula_units_Z   2
loop_
 _symmetry_equiv_pos_site_id
 _symmetry_equiv_pos_as_xyz
  1  'x, y, z'
loop_
 _atom_site_type_symbol
 _atom_site_label
 _atom_site_symmetry_multiplicity
 _atom_site_fract_x
 _atom_site_fract_y
 _atom_site_fract_z
 _atom_site_occupancy
  Tb  Tb0  1  0.11891000  0.76141000  0.28014000  1.0
  Tb  Tb1  1  0.88109000  0.23859000  0.71986000  1.0
  H  H2  1  0.04182000  0.57053000  0.65255000  1.0
  H  H3  1  0.95818000  0.42947000  0.34745000  1.0
  H  H4  1  0.13219000  0.83431000  0.75818000  1.0
  H  H5  1  0.86781000  0.16569000  0.24182000  1.0
  H  H6  1  0.15383000  0.90229000  0.00527000  1.0
  H  H7  1  0.84617000  0.09771000  0.99473000  1.0
  H  H8  1  0.63767000  0.89754000  0.61487000  1.0
  H  H9  1  0.36234000  0.10246000  0.38513000  1.0
  H  H10  1  0.61034000  0.64268000  0.49134000  1.0
  H  H11  1  0.38966000  0.35732000  0.50866000  1.0
  H  H12  1  0.81058000  0.59729000  0.37515000  1.0
  H  H13  1  0.18942000  0.40271000  0.62485000  1.0
  H  H14  1  0.45611000  0.09384000  0.12259000  1.0
  H  H15  1  0.54389000  0.90616000  0.87741000  1.0
  H  H16  1  0.60974000  0.00590000  0.12529000  1.0
  H  H17  1  0.39026000  0.99410000  0.87471000  1.0
  H  H18  1  0.57750000  0.09228000  0.27691000  1.0
  H  H19  1  0.42250000  0.90772000  0.72309000  1.0
  H  H20  1  0.56387000  0.75989000  0.12240000  1.0
  H  H21  1  0.43613000  0.24011000  0.87759000  1.0
  H  H22  1  0.45575000  0.43608000  0.24331000  1.0
  H  H23  1  0.54425000  0.56392000  0.75669000  1.0
  H  H24  1  0.56588000  0.52027000  0.14267000  1.0
  H  H25  1  0.43412000  0.47973000  0.85733000  1.0
  H  H26  1  0.37688000  0.42492000  0.07170000  1.0
  H  H27  1  0.62312000  0.57508000  0.92830000  1.0
  C  C28  1  0.02438000  0.55405000  0.96023000  1.0
  C  C29  1  0.97562000  0.44595000  0.03977000  1.0
  C  C30  1  0.05275000  0.60802000  0.75855000  1.0
  C  C31  1  0.94725000  0.39198000  0.24145000  1.0
  C  C32  1  0.10295000  0.75293000  0.81631000  1.0
  C  C33  1  0.89705000  0.24707000  0.18369000  1.0
  C  C34  1  0.11455000  0.79098000  0.95248000  1.0
  C  C35  1  0.88545000  0.20902000  0.04752000  1.0
  C  C36  1  0.93595000  0.94131000  0.49888000  1.0
  C  C37  1  0.06405000  0.05869000  0.50112000  1.0
  C  C38  1  0.71851000  0.86825000  0.56107000  1.0
  C  C39  1  0.28149000  0.13174000  0.43893000  1.0
  C  C40  1  0.70418000  0.72888000  0.49342000  1.0
  C  C41  1  0.29582000  0.27112000  0.50659000  1.0
  C  C42  1  0.81499000  0.70423000  0.42900000  1.0
  C  C43  1  0.18501000  0.29577000  0.57100000  1.0
  C  C44  1  0.52356000  0.02822000  0.17628000  1.0
  C  C45  1  0.47644000  0.97178000  0.82372000  1.0
  C  C46  1  0.42564000  0.89225000  0.19094000  1.0
  C  C47  1  0.57436000  0.10775000  0.80906000  1.0
  C  C48  1  0.46663000  0.76029000  0.16326000  1.0
  C  C49  1  0.53337000  0.23970000  0.83673000  1.0
  C  C50  1  0.39585000  0.62957000  0.19149000  1.0
  C  C51  1  0.60415000  0.37043000  0.80851000  1.0
  C  C52  1  0.45414000  0.49614000  0.16123000  1.0
  C  C53  1  0.54586000  0.50386000  0.83876000  1.0
  N  N54  1  0.07632000  0.69124000  0.02463000  1.0
  N  N55  1  0.92368000  0.30876000  0.97537000  1.0
  N  N56  1  0.01253000  0.50806000  0.82978000  1.0
  N  N57  1  0.98747000  0.49194000  0.17022000  1.0
  N  N58  1  0.93090000  0.81044000  0.43049000  1.0
  N  N59  1  0.06910000  0.18956000  0.56951000  1.0
  N  N60  1  0.83517000  0.97471000  0.56515000  1.0
  N  N61  1  0.16483000  0.02528000  0.43485000  1.0
  N  N62  1  0.27441000  0.68196000  0.52315000  1.0
  N  N63  1  0.72559000  0.31804000  0.47685000  1.0
  N  N64  1  0.85489000  0.83599000  0.11239000  1.0
  N  N65  1  0.14511000  0.16401000  0.88761000  1.0
  O  O66  1  0.30797000  0.90748000  0.23221000  1.0
  O  O67  1  0.69203000  0.09252000  0.76779000  1.0
  O  O68  1  0.28266000  0.61535000  0.24270000  1.0
  O  O69  1  0.71734000  0.38465000  0.75730000  1.0
  O  O70  1  0.32552000  0.80029000  0.48986000  1.0
  O  O71  1  0.67448000  0.19971000  0.51014000  1.0
  O  O72  1  0.13930000  0.61657000  0.46065000  1.0
  O  O73  1  0.86070000  0.38343000  0.53935000  1.0
  O  O74  1  0.34940000  0.63153000  0.61074000  1.0
  O  O75  1  0.65060000  0.36847000  0.38926000  1.0
  O  O76  1  0.83763000  0.71223000  0.14543000  1.0
  O  O77  1  0.16237000  0.28777000  0.85457000  1.0
  O  O78  1  0.97910000  0.92643000  0.17142000  1.0
  O  O79  1  0.02090000  0.07357000  0.82858000  1.0
  O  O80  1  0.75860000  0.86803000  0.02682000  1.0
  O  O81  1  0.24140000  0.13197000  0.97318000  1.0
