# generated using pymatgen
data_ZnH12(C2O)8
_symmetry_space_group_name_H-M   'P 1'
_cell_length_a   7.29317000
_cell_length_b   11.95830000
_cell_length_c   17.77460000
_cell_angle_alpha   104.47500000
_cell_angle_beta   90.00000000
_cell_angle_gamma   90.00000000
_symmetry_Int_Tables_number   1
_chemical_formula_structural   ZnH12(C2O)8
_chemical_formula_sum   'Zn4 H48 C64 O32'
_cell_volume   1500.98437672
_cell_formula_units_Z   4
loop_
 _symmetry_equiv_pos_site_id
 _symmetry_equiv_pos_as_xyz
  1  'x, y, z'
loop_
 _atom_site_type_symbol
 _atom_site_label
 _atom_site_symmetry_multiplicity
 _atom_site_fract_x
 _atom_site_fract_y
 _atom_site_fract_z
 _atom_site_occupancy
  Zn  Zn0  1  0.94935000  0.04116000  0.19799000  1.0
  Zn  Zn1  1  0.44935000  0.95884000  0.30201000  1.0
  Zn  Zn2  1  0.05065000  0.95884000  0.80201000  1.0
  Zn  Zn3  1  0.55065000  0.04116000  0.69799000  1.0
  H  H4  1  0.00589000  0.49113000  0.41520000  1.0
  H  H5  1  0.50589000  0.50887000  0.08480000  1.0
  H  H6  1  0.99411000  0.50887000  0.58480000  1.0
  H  H7  1  0.49410000  0.49113000  0.91520000  1.0
  H  H8  1  0.80514000  0.64043000  0.49740000  1.0
  H  H9  1  0.30514000  0.35957000  0.00260000  1.0
  H  H10  1  0.19486000  0.35957000  0.50260000  1.0
  H  H11  1  0.69486000  0.64043000  0.99740000  1.0
  H  H12  1  0.34492000  0.50590000  0.35011000  1.0
  H  H13  1  0.84492000  0.49410000  0.14989000  1.0
  H  H14  1  0.65508000  0.49410000  0.64989000  1.0
  H  H15  1  0.15508000  0.50590000  0.85011000  1.0
  H  H16  1  0.54420000  0.35579000  0.26983000  1.0
  H  H17  1  0.04420000  0.64421000  0.23018000  1.0
  H  H18  1  0.45580000  0.64421000  0.73018000  1.0
  H  H19  1  0.95580000  0.35579000  0.76982000  1.0
  H  H20  1  0.37444000  0.64311000  0.52480000  1.0
  H  H21  1  0.87443000  0.35689000  0.97520000  1.0
  H  H22  1  0.62556000  0.35689000  0.47520000  1.0
  H  H23  1  0.12557000  0.64311000  0.02480000  1.0
  H  H24  1  0.51373000  0.75424000  0.50366000  1.0
  H  H25  1  0.01373000  0.24576000  0.99634000  1.0
  H  H26  1  0.48627000  0.24576000  0.49634000  1.0
  H  H27  1  0.98627000  0.75424000  0.00366000  1.0
  H  H28  1  0.22101000  0.80345000  0.57801000  1.0
  H  H29  1  0.72101000  0.19655000  0.92199000  1.0
  H  H30  1  0.77899000  0.19655000  0.42199000  1.0
  H  H31  1  0.27899000  0.80345000  0.07801000  1.0
  H  H32  1  0.71577000  0.95018000  0.52112000  1.0
  H  H33  1  0.21577000  0.04982000  0.97888000  1.0
  H  H34  1  0.28423000  0.04982000  0.47888000  1.0
  H  H35  1  0.78423000  0.95018000  0.02112000  1.0
  H  H36  1  0.05632000  0.74631000  0.33921000  1.0
  H  H37  1  0.55632000  0.25368000  0.16079000  1.0
  H  H38  1  0.94368000  0.25368000  0.66079000  1.0
  H  H39  1  0.44368000  0.74632000  0.83921000  1.0
  H  H40  1  0.15091000  0.27027000  0.26263000  1.0
  H  H41  1  0.65091000  0.72973000  0.23737000  1.0
  H  H42  1  0.84909000  0.72973000  0.73737000  1.0
  H  H43  1  0.34909000  0.27027000  0.76263000  1.0
  H  H44  1  0.14526000  0.85847000  0.20167000  1.0
  H  H45  1  0.64526000  0.14153000  0.29833000  1.0
  H  H46  1  0.85474000  0.14153000  0.79833000  1.0
  H  H47  1  0.35474000  0.85847000  0.70167000  1.0
  H  H48  1  0.94220000  0.84351000  0.22611000  1.0
  H  H49  1  0.44220000  0.15649000  0.27389000  1.0
  H  H50  1  0.05780000  0.15649000  0.77389000  1.0
  H  H51  1  0.55780000  0.84351000  0.72611000  1.0
  C  C52  1  0.90283000  0.32280000  0.28637000  1.0
  C  C53  1  0.40283000  0.67720000  0.21363000  1.0
  C  C54  1  0.09717000  0.67719000  0.71363000  1.0
  C  C55  1  0.59717000  0.32281000  0.78637000  1.0
  C  C56  1  0.78811000  0.41341000  0.33702000  1.0
  C  C57  1  0.28811000  0.58659000  0.16298000  1.0
  C  C58  1  0.21189000  0.58659000  0.66298000  1.0
  C  C59  1  0.71189000  0.41341000  0.83702000  1.0
  C  C60  1  0.86046000  0.49382000  0.40173000  1.0
  C  C61  1  0.36046000  0.50618000  0.09827000  1.0
  C  C62  1  0.13954000  0.50618000  0.59827000  1.0
  C  C63  1  0.63954000  0.49382000  0.90173000  1.0
  C  C64  1  0.74719000  0.57752000  0.44776000  1.0
  C  C65  1  0.24719000  0.42248000  0.05224000  1.0
  C  C66  1  0.25281000  0.42248000  0.55224000  1.0
  C  C67  1  0.75281000  0.57752000  0.94776000  1.0
  C  C68  1  0.56106000  0.58317000  0.42943000  1.0
  C  C69  1  0.06106000  0.41683000  0.07057000  1.0
  C  C70  1  0.43894000  0.41683000  0.57057000  1.0
  C  C71  1  0.93894000  0.58317000  0.92943000  1.0
  C  C72  1  0.48905000  0.50212000  0.36517000  1.0
  C  C73  1  0.98905000  0.49788000  0.13483000  1.0
  C  C74  1  0.51095000  0.49788000  0.63483000  1.0
  C  C75  1  0.01095000  0.50212000  0.86517000  1.0
  C  C76  1  0.60117000  0.41802000  0.31973000  1.0
  C  C77  1  0.10117000  0.58198000  0.18027000  1.0
  C  C78  1  0.39883000  0.58198000  0.68027000  1.0
  C  C79  1  0.89883000  0.41802000  0.81973000  1.0
  C  C80  1  0.43764000  0.67437000  0.47739000  1.0
  C  C81  1  0.93764000  0.32563000  0.02262000  1.0
  C  C82  1  0.56236000  0.32563000  0.52262000  1.0
  C  C83  1  0.06236000  0.67437000  0.97738000  1.0
  C  C84  1  0.15320000  0.76399000  0.45541000  1.0
  C  C85  1  0.65320000  0.23601000  0.04459000  1.0
  C  C86  1  0.84680000  0.23601000  0.54459000  1.0
  C  C87  1  0.34680000  0.76399000  0.95541000  1.0
  C  C88  1  0.12312000  0.81346000  0.53414000  1.0
  C  C89  1  0.62312000  0.18654000  0.96587000  1.0
  C  C90  1  0.87689000  0.18654000  0.46586000  1.0
  C  C91  1  0.37688000  0.81346000  0.03413000  1.0
  C  C92  1  0.96466000  0.88010000  0.55742000  1.0
  C  C93  1  0.46466000  0.11990000  0.94258000  1.0
  C  C94  1  0.03534000  0.11990000  0.44258000  1.0
  C  C95  1  0.53534000  0.88010000  0.05742000  1.0
  C  C96  1  0.83669000  0.89696000  0.50289000  1.0
  C  C97  1  0.33669000  0.10304000  0.99711000  1.0
  C  C98  1  0.16331000  0.10304000  0.49711000  1.0
  C  C99  1  0.66331000  0.89696000  0.00289000  1.0
  C  C100  1  0.86966000  0.84754000  0.42369000  1.0
  C  C101  1  0.36966000  0.15246000  0.07631000  1.0
  C  C102  1  0.13034000  0.15246000  0.57631000  1.0
  C  C103  1  0.63034000  0.84754000  0.92369000  1.0
  C  C104  1  0.02716000  0.78227000  0.40034000  1.0
  C  C105  1  0.52716000  0.21773000  0.09966000  1.0
  C  C106  1  0.97284000  0.21773000  0.59966000  1.0
  C  C107  1  0.47284000  0.78227000  0.90034000  1.0
  C  C108  1  0.93995000  0.93646000  0.64171000  1.0
  C  C109  1  0.43995000  0.06354000  0.85829000  1.0
  C  C110  1  0.06005000  0.06354000  0.35829000  1.0
  C  C111  1  0.56005000  0.93646000  0.14171000  1.0
  C  C112  1  0.74106000  0.86574000  0.36277000  1.0
  C  C113  1  0.24106000  0.13426000  0.13723000  1.0
  C  C114  1  0.25894000  0.13426000  0.63723000  1.0
  C  C115  1  0.75894000  0.86574000  0.86277000  1.0
  O  O116  1  0.08194000  0.33573000  0.29967000  1.0
  O  O117  1  0.58194000  0.66427000  0.20033000  1.0
  O  O118  1  0.91806000  0.66427000  0.70033000  1.0
  O  O119  1  0.41806000  0.33573000  0.79967000  1.0
  O  O120  1  0.83533000  0.24165000  0.23617000  1.0
  O  O121  1  0.33533000  0.75835000  0.26383000  1.0
  O  O122  1  0.16467000  0.75835000  0.76383000  1.0
  O  O123  1  0.66467000  0.24165000  0.73617000  1.0
  O  O124  1  0.29880000  0.69647000  0.42588000  1.0
  O  O125  1  0.79880000  0.30353000  0.07412000  1.0
  O  O126  1  0.70120000  0.30353000  0.57412000  1.0
  O  O127  1  0.20120000  0.69647000  0.92588000  1.0
  O  O128  1  0.06527000  0.91650000  0.68736000  1.0
  O  O129  1  0.56527000  0.08350000  0.81264000  1.0
  O  O130  1  0.93473000  0.08350000  0.31264000  1.0
  O  O131  1  0.43473000  0.91650000  0.18736000  1.0
  O  O132  1  0.80536000  0.00287000  0.66444000  1.0
  O  O133  1  0.30536000  0.99713000  0.83556000  1.0
  O  O134  1  0.19464000  0.99713000  0.33556000  1.0
  O  O135  1  0.69464000  0.00287000  0.16444000  1.0
  O  O136  1  0.77779000  0.82178000  0.29112000  1.0
  O  O137  1  0.27779000  0.17822000  0.20888000  1.0
  O  O138  1  0.22221000  0.17822000  0.70888000  1.0
  O  O139  1  0.72221000  0.82178000  0.79112000  1.0
  O  O140  1  0.59750000  0.92655000  0.38553000  1.0
  O  O141  1  0.09750000  0.07345000  0.11447000  1.0
  O  O142  1  0.40250000  0.07345000  0.61447000  1.0
  O  O143  1  0.90250000  0.92655000  0.88553000  1.0
  O  O144  1  0.01812000  0.86534000  0.18538000  1.0
  O  O145  1  0.51812000  0.13466000  0.31462000  1.0
  O  O146  1  0.98188000  0.13466000  0.81462000  1.0
  O  O147  1  0.48188000  0.86534000  0.68538000  1.0
