# generated using pymatgen
data_CdH12(C7N5)2
_symmetry_space_group_name_H-M   'P 1'
_cell_length_a   7.69310000
_cell_length_b   7.69310000
_cell_length_c   25.60740000
_cell_angle_alpha   92.89870000
_cell_angle_beta   92.89840000
_cell_angle_gamma   93.25680000
_symmetry_Int_Tables_number   1
_chemical_formula_structural   CdH12(C7N5)2
_chemical_formula_sum   'Cd4 H48 C56 N40'
_cell_volume   1508.98747859
_cell_formula_units_Z   4
loop_
 _symmetry_equiv_pos_site_id
 _symmetry_equiv_pos_as_xyz
  1  'x, y, z'
loop_
 _atom_site_type_symbol
 _atom_site_label
 _atom_site_symmetry_multiplicity
 _atom_site_fract_x
 _atom_site_fract_y
 _atom_site_fract_z
 _atom_site_occupancy
  Cd  Cd0  1  0.43028000  0.23923000  0.96856000  1.0
  Cd  Cd1  1  0.23923000  0.43028000  0.46856000  1.0
  Cd  Cd2  1  0.56972000  0.76077000  0.03144000  1.0
  Cd  Cd3  1  0.76077000  0.56972000  0.53144000  1.0
  H  H4  1  0.09011000  0.18455000  0.98778000  1.0
  H  H5  1  0.18455000  0.09011000  0.48778000  1.0
  H  H6  1  0.90989000  0.81544000  0.01222000  1.0
  H  H7  1  0.81545000  0.90989000  0.51222000  1.0
  H  H8  1  0.12563000  0.99711000  0.95571000  1.0
  H  H9  1  0.99711000  0.12563000  0.45571000  1.0
  H  H10  1  0.87437000  0.00289000  0.04429000  1.0
  H  H11  1  0.00289000  0.87437000  0.54429000  1.0
  H  H12  1  0.65304000  0.28389000  0.89313000  1.0
  H  H13  1  0.28389000  0.65304000  0.39312000  1.0
  H  H14  1  0.34696000  0.71611000  0.10688000  1.0
  H  H15  1  0.71611000  0.34696000  0.60688000  1.0
  H  H16  1  0.54452000  0.46153000  0.88631000  1.0
  H  H17  1  0.46152000  0.54452000  0.38631000  1.0
  H  H18  1  0.45548000  0.53848000  0.11369000  1.0
  H  H19  1  0.53848000  0.45548000  0.61369000  1.0
  H  H20  1  0.22127000  0.01971000  0.71263000  1.0
  H  H21  1  0.01970000  0.22127000  0.21263000  1.0
  H  H22  1  0.77872000  0.98030000  0.28737000  1.0
  H  H23  1  0.98030000  0.77873000  0.78737000  1.0
  H  H24  1  0.93887000  0.56774000  0.85373000  1.0
  H  H25  1  0.56774000  0.93887000  0.35373000  1.0
  H  H26  1  0.06113000  0.43226000  0.14627000  1.0
  H  H27  1  0.43226000  0.06113000  0.64627000  1.0
  H  H28  1  0.38900000  0.48761000  0.80652000  1.0
  H  H29  1  0.48760000  0.38900000  0.30652000  1.0
  H  H30  1  0.61100000  0.51240000  0.19348000  1.0
  H  H31  1  0.51240000  0.61100000  0.69348000  1.0
  H  H32  1  0.97461000  0.93284000  0.87525000  1.0
  H  H33  1  0.93284000  0.97461000  0.37525000  1.0
  H  H34  1  0.02539000  0.06715000  0.12475000  1.0
  H  H35  1  0.06715000  0.02539000  0.62475000  1.0
  H  H36  1  0.83101000  0.03775000  0.79407000  1.0
  H  H37  1  0.03775000  0.83100000  0.29407000  1.0
  H  H38  1  0.16899000  0.96225000  0.20593000  1.0
  H  H39  1  0.96225000  0.16899000  0.70593000  1.0
  H  H40  1  0.34600000  0.84194000  0.78203000  1.0
  H  H41  1  0.84194000  0.34600000  0.28203000  1.0
  H  H42  1  0.65400000  0.15807000  0.21797000  1.0
  H  H43  1  0.15807000  0.65400000  0.71798000  1.0
  H  H44  1  0.24551000  0.34529000  0.72451000  1.0
  H  H45  1  0.34529000  0.24550000  0.22451000  1.0
  H  H46  1  0.75449000  0.65471000  0.27549000  1.0
  H  H47  1  0.65471000  0.75449000  0.77549000  1.0
  H  H48  1  0.81239000  0.35747000  0.78336000  1.0
  H  H49  1  0.35747000  0.81239000  0.28336000  1.0
  H  H50  1  0.18761000  0.64253000  0.21664000  1.0
  H  H51  1  0.64252000  0.18761000  0.71664000  1.0
  C  C52  1  0.50191000  0.94762000  0.87230000  1.0
  C  C53  1  0.94761000  0.50191000  0.37230000  1.0
  C  C54  1  0.49809000  0.05239000  0.12770000  1.0
  C  C55  1  0.05239000  0.49809000  0.62770000  1.0
  C  C56  1  0.44838000  0.24583000  0.83988000  1.0
  C  C57  1  0.24583000  0.44838000  0.33988000  1.0
  C  C58  1  0.55162000  0.75417000  0.16012000  1.0
  C  C59  1  0.75418000  0.55162000  0.66012000  1.0
  C  C60  1  0.11512000  0.50467000  0.94035000  1.0
  C  C61  1  0.50467000  0.11512000  0.44035000  1.0
  C  C62  1  0.88488000  0.49533000  0.05965000  1.0
  C  C63  1  0.49533000  0.88488000  0.55965000  1.0
  C  C64  1  0.04300000  0.19065000  0.90890000  1.0
  C  C65  1  0.19065000  0.04299000  0.40890000  1.0
  C  C66  1  0.95700000  0.80935000  0.09110000  1.0
  C  C67  1  0.80935000  0.95700000  0.59110000  1.0
  C  C68  1  0.43593000  0.06195000  0.83301000  1.0
  C  C69  1  0.06195000  0.43593000  0.33301000  1.0
  C  C70  1  0.56407000  0.93806000  0.16699000  1.0
  C  C71  1  0.93805000  0.56407000  0.66699000  1.0
  C  C72  1  0.03300000  0.37160000  0.90280000  1.0
  C  C73  1  0.37161000  0.03299000  0.40280000  1.0
  C  C74  1  0.96700000  0.62840000  0.09720000  1.0
  C  C75  1  0.62840000  0.96700000  0.59720000  1.0
  C  C76  1  0.28514000  0.08400000  0.74796000  1.0
  C  C77  1  0.08400000  0.28514000  0.24796000  1.0
  C  C78  1  0.71486000  0.91601000  0.25204000  1.0
  C  C79  1  0.91600000  0.71486000  0.75204000  1.0
  C  C80  1  0.94711000  0.42812000  0.85757000  1.0
  C  C81  1  0.42811000  0.94711000  0.35756000  1.0
  C  C82  1  0.05289000  0.57188000  0.14243000  1.0
  C  C83  1  0.57188000  0.05289000  0.64243000  1.0
  C  C84  1  0.37713000  0.34575000  0.80084000  1.0
  C  C85  1  0.34575000  0.37713000  0.30084000  1.0
  C  C86  1  0.62287000  0.65425000  0.19916000  1.0
  C  C87  1  0.65425000  0.62287000  0.69916000  1.0
  C  C88  1  0.96859000  0.07221000  0.86957000  1.0
  C  C89  1  0.07221000  0.96858000  0.36958000  1.0
  C  C90  1  0.03141000  0.92779000  0.13042000  1.0
  C  C91  1  0.92779000  0.03141000  0.63042000  1.0
  C  C92  1  0.88729000  0.13131000  0.82447000  1.0
  C  C93  1  0.13130000  0.88728000  0.32447000  1.0
  C  C94  1  0.11272000  0.86869000  0.17553000  1.0
  C  C95  1  0.86869000  0.11272000  0.67553000  1.0
  C  C96  1  0.35464000  0.98390000  0.78659000  1.0
  C  C97  1  0.98389000  0.35464000  0.28659000  1.0
  C  C98  1  0.64536000  0.01611000  0.21341000  1.0
  C  C99  1  0.01611000  0.64536000  0.71341000  1.0
  C  C100  1  0.29624000  0.26576000  0.75518000  1.0
  C  C101  1  0.26576000  0.29623000  0.25518000  1.0
  C  C102  1  0.70376000  0.73424000  0.24482000  1.0
  C  C103  1  0.73424000  0.70377000  0.74482000  1.0
  C  C104  1  0.87627000  0.30983000  0.81831000  1.0
  C  C105  1  0.30983000  0.87627000  0.31831000  1.0
  C  C106  1  0.12373000  0.69017000  0.18169000  1.0
  C  C107  1  0.69017000  0.12373000  0.68169000  1.0
  N  N108  1  0.13210000  0.13021000  0.95362000  1.0
  N  N109  1  0.13021000  0.13210000  0.45362000  1.0
  N  N110  1  0.86790000  0.86979000  0.04638000  1.0
  N  N111  1  0.86979000  0.86790000  0.54638000  1.0
  N  N112  1  0.17927000  0.75397000  0.97998000  1.0
  N  N113  1  0.75397000  0.17927000  0.47998000  1.0
  N  N114  1  0.82073000  0.24603000  0.02002000  1.0
  N  N115  1  0.24603000  0.82073000  0.52002000  1.0
  N  N116  1  0.53242000  0.98658000  0.92422000  1.0
  N  N117  1  0.98657000  0.53242000  0.42422000  1.0
  N  N118  1  0.46758000  0.01343000  0.07578000  1.0
  N  N119  1  0.01342000  0.46758000  0.57578000  1.0
  N  N120  1  0.25735000  0.48691000  0.97254000  1.0
  N  N121  1  0.48691000  0.25735000  0.47254000  1.0
  N  N122  1  0.74265000  0.51309000  0.02746000  1.0
  N  N123  1  0.51309000  0.74265000  0.52746000  1.0
  N  N124  1  0.29380000  0.64455000  0.99661000  1.0
  N  N125  1  0.64455000  0.29379000  0.49661000  1.0
  N  N126  1  0.70621000  0.35545000  0.00339000  1.0
  N  N127  1  0.35545000  0.70620000  0.50339000  1.0
  N  N128  1  0.53118000  0.32748000  0.88614000  1.0
  N  N129  1  0.32748000  0.53118000  0.38614000  1.0
  N  N130  1  0.46882000  0.67252000  0.11386000  1.0
  N  N131  1  0.67252000  0.46882000  0.61386000  1.0
  N  N132  1  0.06499000  0.67028000  0.94492000  1.0
  N  N133  1  0.67029000  0.06499000  0.44492000  1.0
  N  N134  1  0.93501000  0.32971000  0.05508000  1.0
  N  N135  1  0.32971000  0.93502000  0.55508000  1.0
  N  N136  1  0.53494000  0.77949000  0.86088000  1.0
  N  N137  1  0.77949000  0.53494000  0.36088000  1.0
  N  N138  1  0.46506000  0.22051000  0.13912000  1.0
  N  N139  1  0.22051000  0.46506000  0.63912000  1.0
  N  N140  1  0.58502000  0.71519000  0.90628000  1.0
  N  N141  1  0.71518000  0.58502000  0.40628000  1.0
  N  N142  1  0.41498000  0.28482000  0.09372000  1.0
  N  N143  1  0.28482000  0.41498000  0.59372000  1.0
  N  N144  1  0.58381000  0.83831000  0.94416000  1.0
  N  N145  1  0.83830000  0.58382000  0.44416000  1.0
  N  N146  1  0.41619000  0.16170000  0.05584000  1.0
  N  N147  1  0.16170000  0.41619000  0.55584000  1.0
