# generated using pymatgen
data_Zn2H11C24N5O14
_symmetry_space_group_name_H-M   'P 1'
_cell_length_a   9.72381000
_cell_length_b   11.05760000
_cell_length_c   14.09660000
_cell_angle_alpha   91.58950000
_cell_angle_beta   95.75630000
_cell_angle_gamma   90.22720000
_symmetry_Int_Tables_number   1
_chemical_formula_structural   Zn2H11C24N5O14
_chemical_formula_sum   'Zn2 H11 C24 N5 O14'
_cell_volume   1507.43678175
_cell_formula_units_Z   1
loop_
 _symmetry_equiv_pos_site_id
 _symmetry_equiv_pos_as_xyz
  1  'x, y, z'
loop_
 _atom_site_type_symbol
 _atom_site_label
 _atom_site_symmetry_multiplicity
 _atom_site_fract_x
 _atom_site_fract_y
 _atom_site_fract_z
 _atom_site_occupancy
  Zn  Zn0  1  0.62598000  0.49037000  0.51715000  1.0
  Zn  Zn1  1  0.33979000  0.48932000  0.51035000  1.0
  H  H2  1  0.61110000  0.57426000  0.02705000  1.0
  H  H3  1  0.35353000  0.40710000  0.99959000  1.0
  H  H4  1  0.26024000  0.10016000  0.53702000  1.0
  H  H5  1  0.25970000  0.87544000  0.52579000  1.0
  H  H6  1  0.76871000  0.88591000  0.42017000  1.0
  H  H7  1  0.77613000  0.11101000  0.43886000  1.0
  H  H8  1  0.08637000  0.54685000  0.37287000  1.0
  H  H9  1  0.82767000  0.54701000  0.37855000  1.0
  H  H10  1  0.88629000  0.32999000  0.70464000  1.0
  H  H11  1  0.15955000  0.47582000  0.73833000  1.0
  H  H12  1  0.14370000  0.32240000  0.69236000  1.0
  C  C13  1  0.47938000  0.25554000  0.52513000  1.0
  C  C14  1  0.50644000  0.51024000  0.69920000  1.0
  C  C15  1  0.47706000  0.72414000  0.50547000  1.0
  C  C16  1  0.46455000  0.46985000  0.32795000  1.0
  C  C17  1  0.45333000  0.46409000  0.22528000  1.0
  C  C18  1  0.43732000  0.46020000  0.03835000  1.0
  C  C19  1  0.52728000  0.52113000  0.98839000  1.0
  C  C20  1  0.51922000  0.51862000  0.88862000  1.0
  C  C21  1  0.44664000  0.46235000  0.13829000  1.0
  C  C22  1  0.51485000  0.51622000  0.80178000  1.0
  C  C23  1  0.59696000  0.05326000  0.51594000  1.0
  C  C24  1  0.47778000  0.12056000  0.52455000  1.0
  C  C25  1  0.35643000  0.05231000  0.52917000  1.0
  C  C26  1  0.35597000  0.92550000  0.52268000  1.0
  C  C27  1  0.47672000  0.85901000  0.51184000  1.0
  C  C28  1  0.59679000  0.92780000  0.50986000  1.0
  C  C29  1  0.74672000  0.92023000  0.49059000  1.0
  C  C30  1  0.74716000  0.06420000  0.50150000  1.0
  C  C31  1  0.06882000  0.45910000  0.58851000  1.0
  C  C32  1  0.04072000  0.52152000  0.43704000  1.0
  C  C33  1  0.89754000  0.52257000  0.44030000  1.0
  C  C34  1  0.92672000  0.46218000  0.59225000  1.0
  C  C35  1  0.93635000  0.41647000  0.69305000  1.0
  C  C36  1  0.09948000  0.41342000  0.68826000  1.0
  N  N37  1  0.12952000  0.48797000  0.51181000  1.0
  N  N38  1  0.83743000  0.49153000  0.51903000  1.0
  N  N39  1  0.89810000  0.50656000  0.76876000  1.0
  N  N40  1  0.84566000  0.85445000  0.56163000  1.0
  N  N41  1  0.84195000  0.11751000  0.58450000  1.0
  O  O42  1  0.59310000  0.30513000  0.50901000  1.0
  O  O43  1  0.36812000  0.30987000  0.53973000  1.0
  O  O44  1  0.61778000  0.48699000  0.66180000  1.0
  O  O45  1  0.38784000  0.52806000  0.65493000  1.0
  O  O46  1  0.59548000  0.67469000  0.51849000  1.0
  O  O47  1  0.36115000  0.67043000  0.48843000  1.0
  O  O48  1  0.58479000  0.49174000  0.37020000  1.0
  O  O49  1  0.35394000  0.45305000  0.36764000  1.0
  O  O50  1  0.89962000  0.61467000  0.74949000  1.0
  O  O51  1  0.87494000  0.46402000  0.84561000  1.0
  O  O52  1  0.93270000  0.78905000  0.52755000  1.0
  O  O53  1  0.83337000  0.87204000  0.64687000  1.0
  O  O54  1  0.96617000  0.12444000  0.57169000  1.0
  O  O55  1  0.79049000  0.15220000  0.65664000  1.0
