# generated using pymatgen
data_CdH14C12S2N4O
_symmetry_space_group_name_H-M   'P 1'
_cell_length_a   9.70662000
_cell_length_b   10.55190000
_cell_length_c   16.20200000
_cell_angle_alpha   90.00000000
_cell_angle_beta   90.00000000
_cell_angle_gamma   105.28400000
_symmetry_Int_Tables_number   1
_chemical_formula_structural   CdH14C12S2N4O
_chemical_formula_sum   'Cd4 H56 C48 S8 N16 O4'
_cell_volume   1600.76864064
_cell_formula_units_Z   4
loop_
 _symmetry_equiv_pos_site_id
 _symmetry_equiv_pos_as_xyz
  1  'x, y, z'
loop_
 _atom_site_type_symbol
 _atom_site_label
 _atom_site_symmetry_multiplicity
 _atom_site_fract_x
 _atom_site_fract_y
 _atom_site_fract_z
 _atom_site_occupancy
  Cd  Cd0  1  0.73815000  0.45147000  0.58627000  1.0
  Cd  Cd1  1  0.26185000  0.04853000  0.08627000  1.0
  Cd  Cd2  1  0.26185000  0.54853000  0.41373000  1.0
  Cd  Cd3  1  0.73815000  0.95147000  0.91373000  1.0
  H  H4  1  0.58515000  0.17834000  0.65850000  1.0
  H  H5  1  0.41485000  0.32165000  0.15850000  1.0
  H  H6  1  0.41485000  0.82165000  0.34150000  1.0
  H  H7  1  0.58515000  0.67834000  0.84150000  1.0
  H  H8  1  0.39854000  0.73080000  0.76241000  1.0
  H  H9  1  0.60146000  0.76920000  0.26241000  1.0
  H  H10  1  0.60146000  0.26920000  0.23759000  1.0
  H  H11  1  0.39854000  0.23080000  0.73759000  1.0
  H  H12  1  0.26395000  0.74628000  0.69219000  1.0
  H  H13  1  0.73605000  0.75373000  0.19219000  1.0
  H  H14  1  0.73605000  0.25373000  0.30781000  1.0
  H  H15  1  0.26395000  0.24628000  0.80781000  1.0
  H  H16  1  0.36970000  0.93133000  0.83982000  1.0
  H  H17  1  0.63030000  0.56868000  0.33982000  1.0
  H  H18  1  0.63030000  0.06868000  0.16018000  1.0
  H  H19  1  0.36970000  0.43133000  0.66018000  1.0
  H  H20  1  0.22670000  0.93840000  0.77219000  1.0
  H  H21  1  0.77329000  0.56160000  0.27219000  1.0
  H  H22  1  0.77330000  0.06160000  0.22781000  1.0
  H  H23  1  0.22671000  0.43840000  0.72781000  1.0
  H  H24  1  0.21094000  0.80185000  0.83853000  1.0
  H  H25  1  0.78906000  0.69815000  0.33853000  1.0
  H  H26  1  0.78906000  0.19815000  0.16147000  1.0
  H  H27  1  0.21094000  0.30185000  0.66147000  1.0
  H  H28  1  0.85390000  0.91166000  0.66569000  1.0
  H  H29  1  0.14610000  0.58834000  0.16569000  1.0
  H  H30  1  0.14610000  0.08834000  0.33431000  1.0
  H  H31  1  0.85390000  0.41166000  0.83431000  1.0
  H  H32  1  0.04206000  0.08479000  0.59192000  1.0
  H  H33  1  0.95794000  0.41521000  0.09192000  1.0
  H  H34  1  0.95794000  0.91521000  0.40808000  1.0
  H  H35  1  0.04206000  0.58479000  0.90808000  1.0
  H  H36  1  0.99019000  0.29907000  0.55764000  1.0
  H  H37  1  0.00981000  0.20092000  0.05764000  1.0
  H  H38  1  0.00981000  0.70092000  0.44236000  1.0
  H  H39  1  0.99019000  0.79907000  0.94236000  1.0
  H  H40  1  0.37331000  0.81497000  0.56834000  1.0
  H  H41  1  0.62669000  0.68503000  0.06833000  1.0
  H  H42  1  0.62669000  0.18503000  0.43167000  1.0
  H  H43  1  0.37331000  0.31497000  0.93166000  1.0
  H  H44  1  0.51090000  0.96203000  0.56337000  1.0
  H  H45  1  0.48910000  0.53797000  0.06336000  1.0
  H  H46  1  0.48910000  0.03797000  0.43664000  1.0
  H  H47  1  0.51091000  0.46203000  0.93663000  1.0
  H  H48  1  0.27398000  0.00018000  0.52735000  1.0
  H  H49  1  0.72602000  0.49982000  0.02735000  1.0
  H  H50  1  0.72602000  0.99982000  0.47265000  1.0
  H  H51  1  0.27398000  0.50018000  0.97265000  1.0
  H  H52  1  0.34187000  0.08866000  0.61831000  1.0
  H  H53  1  0.65813000  0.41135000  0.11831000  1.0
  H  H54  1  0.65813000  0.91134000  0.38170000  1.0
  H  H55  1  0.34187000  0.58866000  0.88169000  1.0
  H  H56  1  0.20415000  0.93860000  0.62488000  1.0
  H  H57  1  0.79586000  0.56140000  0.12488000  1.0
  H  H58  1  0.79586000  0.06140000  0.37512000  1.0
  H  H59  1  0.20415000  0.43860000  0.87512000  1.0
  C  C60  1  0.91264000  0.43728000  0.40397000  1.0
  C  C61  1  0.08736000  0.06273000  0.90397000  1.0
  C  C62  1  0.08736000  0.56273000  0.59603000  1.0
  C  C63  1  0.91264000  0.93728000  0.09603000  1.0
  C  C64  1  0.30223000  0.98966000  0.59219000  1.0
  C  C65  1  0.69777000  0.51034000  0.09219000  1.0
  C  C66  1  0.69777000  0.01034000  0.40781000  1.0
  C  C67  1  0.30223000  0.48966000  0.90781000  1.0
  C  C68  1  0.34777000  0.80132000  0.73372000  1.0
  C  C69  1  0.65223000  0.69868000  0.23372000  1.0
  C  C70  1  0.65223000  0.19868000  0.26628000  1.0
  C  C71  1  0.34777000  0.30132000  0.76627000  1.0
  C  C72  1  0.28571000  0.87335000  0.79962000  1.0
  C  C73  1  0.71429000  0.62665000  0.29962000  1.0
  C  C74  1  0.71429000  0.12665000  0.20038000  1.0
  C  C75  1  0.28571000  0.37335000  0.70038000  1.0
  C  C76  1  0.42677000  0.33127000  0.48743000  1.0
  C  C77  1  0.57322000  0.16873000  0.98743000  1.0
  C  C78  1  0.57322000  0.66873000  0.51257000  1.0
  C  C79  1  0.42677000  0.83127000  0.01256000  1.0
  C  C80  1  0.68358000  0.15183000  0.64397000  1.0
  C  C81  1  0.31642000  0.34817000  0.14397000  1.0
  C  C82  1  0.31642000  0.84817000  0.35603000  1.0
  C  C83  1  0.68358000  0.65183000  0.85603000  1.0
  C  C84  1  0.70213000  0.02895000  0.66461000  1.0
  C  C85  1  0.29788000  0.47105000  0.16461000  1.0
  C  C86  1  0.29788000  0.97105000  0.33539000  1.0
  C  C87  1  0.70213000  0.52895000  0.83539000  1.0
  C  C88  1  0.83447000  0.00478000  0.64777000  1.0
  C  C89  1  0.16554000  0.49522000  0.14777000  1.0
  C  C90  1  0.16554000  0.99522000  0.35223000  1.0
  C  C91  1  0.83447000  0.50478000  0.85223000  1.0
  C  C92  1  0.93896000  0.10105000  0.60759000  1.0
  C  C93  1  0.06105000  0.39895000  0.10759000  1.0
  C  C94  1  0.06105000  0.89895000  0.39241000  1.0
  C  C95  1  0.93896000  0.60105000  0.89241000  1.0
  C  C96  1  0.91099000  0.22060000  0.58845000  1.0
  C  C97  1  0.08900000  0.27940000  0.08845000  1.0
  C  C98  1  0.08901000  0.77940000  0.41154000  1.0
  C  C99  1  0.91099000  0.72060000  0.91155000  1.0
  C  C100  1  0.59004000  0.93117000  0.71177000  1.0
  C  C101  1  0.40995000  0.56883000  0.21177000  1.0
  C  C102  1  0.40996000  0.06883000  0.28823000  1.0
  C  C103  1  0.59005000  0.43117000  0.78823000  1.0
  C  C104  1  0.41420000  0.91210000  0.59724000  1.0
  C  C105  1  0.58580000  0.58790000  0.09724000  1.0
  C  C106  1  0.58580000  0.08790000  0.40276000  1.0
  C  C107  1  0.41420000  0.41210000  0.90276000  1.0
  S  S108  1  0.01861000  0.42278000  0.32839000  1.0
  S  S109  1  0.98139000  0.07722000  0.82839000  1.0
  S  S110  1  0.98139000  0.57722000  0.67162000  1.0
  S  S111  1  0.01861000  0.92278000  0.17161000  1.0
  S  S112  1  0.30080000  0.30961000  0.41783000  1.0
  S  S113  1  0.69919000  0.19038000  0.91782000  1.0
  S  S114  1  0.69919000  0.69038000  0.58218000  1.0
  S  S115  1  0.30080000  0.80961000  0.08216000  1.0
  N  N116  1  0.83396000  0.44917000  0.45735000  1.0
  N  N117  1  0.16604000  0.05083000  0.95735000  1.0
  N  N118  1  0.16604000  0.55083000  0.54265000  1.0
  N  N119  1  0.83396000  0.94917000  0.04265000  1.0
  N  N120  1  0.51560000  0.34284000  0.53882000  1.0
  N  N121  1  0.48439000  0.15716000  0.03882000  1.0
  N  N122  1  0.48440000  0.65716000  0.46118000  1.0
  N  N123  1  0.51560000  0.84284000  0.96118000  1.0
  N  N124  1  0.78613000  0.24581000  0.60772000  1.0
  N  N125  1  0.21387000  0.25419000  0.10772000  1.0
  N  N126  1  0.21387000  0.75419000  0.39229000  1.0
  N  N127  1  0.78613000  0.74581000  0.89229000  1.0
  N  N128  1  0.45587000  0.89035000  0.68194000  1.0
  N  N129  1  0.54412000  0.60965000  0.18194000  1.0
  N  N130  1  0.54412000  0.10965000  0.31806000  1.0
  N  N131  1  0.45588000  0.39035000  0.81806000  1.0
  O  O132  1  0.62316000  0.89025000  0.77977000  1.0
  O  O133  1  0.37684000  0.60975000  0.27977000  1.0
  O  O134  1  0.37685000  0.10975000  0.22023000  1.0
  O  O135  1  0.62316000  0.39024000  0.72022000  1.0
