# generated using pymatgen
data_H12PbC13Br2N4O
_symmetry_space_group_name_H-M   'P 1'
_cell_length_a   8.15592000
_cell_length_b   8.68671000
_cell_length_c   11.03040000
_cell_angle_alpha   100.65700000
_cell_angle_beta   92.07390000
_cell_angle_gamma   95.68440000
_symmetry_Int_Tables_number   1
_chemical_formula_structural   H12PbC13Br2N4O
_chemical_formula_sum   'H24 Pb2 C26 Br4 N8 O2'
_cell_volume   763.03931554
_cell_formula_units_Z   2
loop_
 _symmetry_equiv_pos_site_id
 _symmetry_equiv_pos_as_xyz
  1  'x, y, z'
loop_
 _atom_site_type_symbol
 _atom_site_label
 _atom_site_symmetry_multiplicity
 _atom_site_fract_x
 _atom_site_fract_y
 _atom_site_fract_z
 _atom_site_occupancy
  H  H0  1  0.80890000  0.12555000  0.66913000  1.0
  H  H1  1  0.19110000  0.87445000  0.33087000  1.0
  H  H2  1  0.24028000  0.51220000  0.25609000  1.0
  H  H3  1  0.75971000  0.48779000  0.74391000  1.0
  H  H4  1  0.11993000  0.38373000  0.42346000  1.0
  H  H5  1  0.88007000  0.61627000  0.57654000  1.0
  H  H6  1  0.29801000  0.23568000  0.53834000  1.0
  H  H7  1  0.70199000  0.76431000  0.46166000  1.0
  H  H8  1  0.69619000  0.35919000  0.31349000  1.0
  H  H9  1  0.30380000  0.64081000  0.68651000  1.0
  H  H10  1  0.83436000  0.06143000  0.48353000  1.0
  H  H11  1  0.16563000  0.93857000  0.51647000  1.0
  H  H12  1  0.86631000  0.24370000  0.43354000  1.0
  H  H13  1  0.13369000  0.75630000  0.56646000  1.0
  H  H14  1  0.73464000  0.08428000  0.34262000  1.0
  H  H15  1  0.26536000  0.91572000  0.65738000  1.0
  H  H16  1  0.96535000  0.99911000  0.74197000  1.0
  H  H17  1  0.03465000  0.00090000  0.25804000  1.0
  H  H18  1  0.12426000  0.83540000  0.85787000  1.0
  H  H19  1  0.87575000  0.16461000  0.14214000  1.0
  H  H20  1  0.98446000  0.70369000  0.01437000  1.0
  H  H21  1  0.01555000  0.29631000  0.98564000  1.0
  H  H22  1  0.54488000  0.88501000  0.94945000  1.0
  H  H23  1  0.45512000  0.11499000  0.05055000  1.0
  Pb  Pb24  1  0.62078000  0.66163000  0.16292000  1.0
  Pb  Pb25  1  0.37923000  0.33839000  0.83710000  1.0
  C  C26  1  0.31482000  0.44679000  0.30868000  1.0
  C  C27  1  0.68518000  0.55321000  0.69131000  1.0
  C  C28  1  0.24808000  0.37442000  0.40125000  1.0
  C  C29  1  0.75192000  0.62557000  0.59874000  1.0
  C  C30  1  0.34792000  0.29244000  0.46542000  1.0
  C  C31  1  0.65208000  0.70756000  0.53457000  1.0
  C  C32  1  0.51301000  0.28300000  0.43557000  1.0
  C  C33  1  0.48699000  0.71699000  0.56442000  1.0
  C  C34  1  0.56884000  0.35932000  0.34077000  1.0
  C  C35  1  0.43116000  0.64067000  0.65923000  1.0
  C  C36  1  0.62494000  0.19821000  0.50116000  1.0
  C  C37  1  0.37506000  0.80179000  0.49884000  1.0
  C  C38  1  0.77403000  0.14380000  0.43753000  1.0
  C  C39  1  0.22596000  0.85620000  0.56247000  1.0
  C  C40  1  0.62317000  0.03628000  0.77006000  1.0
  C  C41  1  0.37683000  0.96372000  0.22994000  1.0
  C  C42  1  0.73964000  0.95425000  0.83614000  1.0
  C  C43  1  0.26036000  0.04575000  0.16386000  1.0
  C  C44  1  0.90522000  0.93970000  0.81008000  1.0
  C  C45  1  0.09478000  0.06030000  0.18993000  1.0
  C  C46  1  0.99514000  0.84929000  0.87422000  1.0
  C  C47  1  0.00487000  0.15072000  0.12578000  1.0
  C  C48  1  0.91833000  0.77628000  0.96272000  1.0
  C  C49  1  0.08168000  0.22372000  0.03728000  1.0
  C  C50  1  0.67352000  0.87815000  0.92764000  1.0
  C  C51  1  0.32648000  0.12185000  0.07236000  1.0
  Br  Br52  1  0.69869000  0.37668000  0.99708000  1.0
  Br  Br53  1  0.30133000  0.62333000  0.00292000  1.0
  Br  Br54  1  0.94948000  0.68775000  0.29935000  1.0
  Br  Br55  1  0.05053000  0.31225000  0.70064000  1.0
  N  N56  1  0.47280000  0.43980000  0.27993000  1.0
  N  N57  1  0.52719000  0.56019000  0.72007000  1.0
  N  N58  1  0.57983000  0.17362000  0.60856000  1.0
  N  N59  1  0.42016000  0.82638000  0.39144000  1.0
  N  N60  1  0.68304000  0.10027000  0.67430000  1.0
  N  N61  1  0.31696000  0.89973000  0.32570000  1.0
  N  N62  1  0.76071000  0.79216000  0.98948000  1.0
  N  N63  1  0.23929000  0.20784000  0.01052000  1.0
  O  O64  1  0.47562000  0.03713000  0.79704000  1.0
  O  O65  1  0.52438000  0.96287000  0.20296000  1.0
