# generated using pymatgen
data_AgH5C15N4
_symmetry_space_group_name_H-M   'P 1'
_cell_length_a   7.71605000
_cell_length_b   11.73640000
_cell_length_c   14.05890000
_cell_angle_alpha   79.99190000
_cell_angle_beta   75.60080000
_cell_angle_gamma   88.28690000
_symmetry_Int_Tables_number   1
_chemical_formula_structural   AgH5C15N4
_chemical_formula_sum   'Ag4 H20 C60 N16'
_cell_volume   1214.27768905
_cell_formula_units_Z   4
loop_
 _symmetry_equiv_pos_site_id
 _symmetry_equiv_pos_as_xyz
  1  'x, y, z'
loop_
 _atom_site_type_symbol
 _atom_site_label
 _atom_site_symmetry_multiplicity
 _atom_site_fract_x
 _atom_site_fract_y
 _atom_site_fract_z
 _atom_site_occupancy
  Ag  Ag0  1  0.00000000  0.00001000  0.00000000  1.0
  Ag  Ag1  1  0.49995000  0.49993000  0.99999000  1.0
  Ag  Ag2  1  0.49995000  0.99999000  0.49998000  1.0
  Ag  Ag3  1  0.99998000  0.99987000  0.50011000  1.0
  H  H4  1  0.30044000  0.91973000  0.72999000  1.0
  H  H5  1  0.69956000  0.08030000  0.27000000  1.0
  H  H6  1  0.02181000  0.64085000  0.05742000  1.0
  H  H7  1  0.97821000  0.35915000  0.94258000  1.0
  H  H8  1  0.16810000  0.61322000  0.19693000  1.0
  H  H9  1  0.83191000  0.38679000  0.80307000  1.0
  H  H10  1  0.45360000  0.71682000  0.18181000  1.0
  H  H11  1  0.54641000  0.28319000  0.81819000  1.0
  H  H12  1  0.59598000  0.84798000  0.02779000  1.0
  H  H13  1  0.40404000  0.15203000  0.97220000  1.0
  H  H14  1  0.30713000  0.40196000  0.78388000  1.0
  H  H15  1  0.69289000  0.59804000  0.21611000  1.0
  H  H16  1  0.13461000  0.31374000  0.47020000  1.0
  H  H17  1  0.86536000  0.68625000  0.52981000  1.0
  H  H18  1  0.14750000  0.46798000  0.32544000  1.0
  H  H19  1  0.85247000  0.53201000  0.67456000  1.0
  H  H20  1  0.24405000  0.66870000  0.32730000  1.0
  H  H21  1  0.75594000  0.33129000  0.67269000  1.0
  H  H22  1  0.33483000  0.71605000  0.47115000  1.0
  H  H23  1  0.66518000  0.28395000  0.52884000  1.0
  C  C24  1  0.43614000  0.89380000  0.85357000  1.0
  C  C25  1  0.56388000  0.10621000  0.14644000  1.0
  C  C26  1  0.30317000  0.87733000  0.80459000  1.0
  C  C27  1  0.69684000  0.12268000  0.19542000  1.0
  C  C28  1  0.17403000  0.79619000  0.86638000  1.0
  C  C29  1  0.82597000  0.20381000  0.13363000  1.0
  C  C30  1  0.22485000  0.76212000  0.96226000  1.0
  C  C31  1  0.77516000  0.23787000  0.03774000  1.0
  C  C32  1  0.14567000  0.68737000  0.04933000  1.0
  C  C33  1  0.85435000  0.31263000  0.95066000  1.0
  C  C34  1  0.22990000  0.67178000  0.12854000  1.0
  C  C35  1  0.77013000  0.32823000  0.87146000  1.0
  C  C36  1  0.38952000  0.72944000  0.11997000  1.0
  C  C37  1  0.61050000  0.27057000  0.88003000  1.0
  C  C38  1  0.47102000  0.80475000  0.03177000  1.0
  C  C39  1  0.52900000  0.19525000  0.96822000  1.0
  C  C40  1  0.38805000  0.82103000  0.95359000  1.0
  C  C41  1  0.61197000  0.17898000  0.04641000  1.0
  C  C42  1  0.58825000  0.96712000  0.81357000  1.0
  C  C43  1  0.41176000  0.03290000  0.18643000  1.0
  C  C44  1  0.72136000  0.97839000  0.86345000  1.0
  C  C45  1  0.27864000  0.02162000  0.13654000  1.0
  C  C46  1  0.61402000  0.03337000  0.71719000  1.0
  C  C47  1  0.38600000  0.96663000  0.28280000  1.0
  C  C48  1  0.02808000  0.75240000  0.84022000  1.0
  C  C49  1  0.97190000  0.24761000  0.15979000  1.0
  C  C50  1  0.90292000  0.67306000  0.90754000  1.0
  C  C51  1  0.09706000  0.32696000  0.09245000  1.0
  C  C52  1  0.99969000  0.78572000  0.74361000  1.0
  C  C53  1  0.00031000  0.21434000  0.25640000  1.0
  C  C54  1  0.33066000  0.53981000  0.65157000  1.0
  C  C55  1  0.66932000  0.46018000  0.34843000  1.0
  C  C56  1  0.29041000  0.42900000  0.70877000  1.0
  C  C57  1  0.70960000  0.57100000  0.29122000  1.0
  C  C58  1  0.23144000  0.35696000  0.65235000  1.0
  C  C59  1  0.76857000  0.64303000  0.34765000  1.0
  C  C60  1  0.22909000  0.42678000  0.55448000  1.0
  C  C61  1  0.77090000  0.57322000  0.44552000  1.0
  C  C62  1  0.18015000  0.39996000  0.47231000  1.0
  C  C63  1  0.81982000  0.60003000  0.52769000  1.0
  C  C64  1  0.18755000  0.48832000  0.38978000  1.0
  C  C65  1  0.81242000  0.51167000  0.61022000  1.0
  C  C66  1  0.24253000  0.59999000  0.39052000  1.0
  C  C67  1  0.75745000  0.40000000  0.60948000  1.0
  C  C68  1  0.29383000  0.62756000  0.47316000  1.0
  C  C69  1  0.70616000  0.37243000  0.52684000  1.0
  C  C70  1  0.28769000  0.54054000  0.55456000  1.0
  C  C71  1  0.71230000  0.45946000  0.44544000  1.0
  C  C72  1  0.40831000  0.63049000  0.68196000  1.0
  C  C73  1  0.59166000  0.36951000  0.31805000  1.0
  C  C74  1  0.45266000  0.73942000  0.62298000  1.0
  C  C75  1  0.54729000  0.26058000  0.37703000  1.0
  C  C76  1  0.45299000  0.60807000  0.77465000  1.0
  C  C77  1  0.54701000  0.39192000  0.22534000  1.0
  C  C78  1  0.18687000  0.23894000  0.68586000  1.0
  C  C79  1  0.81316000  0.76105000  0.31413000  1.0
  C  C80  1  0.13167000  0.16661000  0.62928000  1.0
  C  C81  1  0.86835000  0.83338000  0.37074000  1.0
  C  C82  1  0.20208000  0.18611000  0.78153000  1.0
  C  C83  1  0.79795000  0.81390000  0.21847000  1.0
  N  N84  1  0.83557000  0.98800000  0.90301000  1.0
  N  N85  1  0.16444000  0.01203000  0.09698000  1.0
  N  N86  1  0.63146000  0.08649000  0.63646000  1.0
  N  N87  1  0.36859000  0.91349000  0.36353000  1.0
  N  N88  1  0.80011000  0.60699000  0.96433000  1.0
  N  N89  1  0.19986000  0.39303000  0.03566000  1.0
  N  N90  1  0.97774000  0.81154000  0.66306000  1.0
  N  N91  1  0.02231000  0.18857000  0.33694000  1.0
  N  N92  1  0.49089000  0.83063000  0.57416000  1.0
  N  N93  1  0.50905000  0.16937000  0.42584000  1.0
  N  N94  1  0.48699000  0.58017000  0.85184000  1.0
  N  N95  1  0.51304000  0.41982000  0.14815000  1.0
  N  N96  1  0.08631000  0.10322000  0.58425000  1.0
  N  N97  1  0.91370000  0.89677000  0.41576000  1.0
  N  N98  1  0.21666000  0.14420000  0.86103000  1.0
  N  N99  1  0.78335000  0.85582000  0.13898000  1.0
