# generated using pymatgen
data_Zn4H19C32(N5O6)3
_symmetry_space_group_name_H-M   'P 1'
_cell_length_a   13.64650000
_cell_length_b   13.64650000
_cell_length_c   14.15450000
_cell_angle_alpha   88.39660000
_cell_angle_beta   88.39670000
_cell_angle_gamma   60.16180000
_symmetry_Int_Tables_number   1
_chemical_formula_structural   Zn4H19C32(N5O6)3
_chemical_formula_sum   'Zn8 H38 C64 N30 O36'
_cell_volume   2285.31639309
_cell_formula_units_Z   2
loop_
 _symmetry_equiv_pos_site_id
 _symmetry_equiv_pos_as_xyz
  1  'x, y, z'
loop_
 _atom_site_type_symbol
 _atom_site_label
 _atom_site_symmetry_multiplicity
 _atom_site_fract_x
 _atom_site_fract_y
 _atom_site_fract_z
 _atom_site_occupancy
  Zn  Zn0  1  0.15131000  0.46749000  0.99087000  1.0
  Zn  Zn1  1  0.53251000  0.84869000  0.50914000  1.0
  Zn  Zn2  1  0.84869000  0.53251000  0.00913000  1.0
  Zn  Zn3  1  0.46749000  0.15131000  0.49087000  1.0
  Zn  Zn4  1  0.97799000  0.44065000  0.60858000  1.0
  Zn  Zn5  1  0.55935000  0.02201000  0.89142000  1.0
  Zn  Zn6  1  0.02201000  0.55935000  0.39142000  1.0
  Zn  Zn7  1  0.44065000  0.97799000  0.10858000  1.0
  H  H8  1  0.16641000  0.43611000  0.76218000  1.0
  H  H9  1  0.56389000  0.83360000  0.73782000  1.0
  H  H10  1  0.83359000  0.56389000  0.23782000  1.0
  H  H11  1  0.43611000  0.16641000  0.26218000  1.0
  H  H12  1  0.81535000  0.55620000  0.78672000  1.0
  H  H13  1  0.44380000  0.18465000  0.71328000  1.0
  H  H14  1  0.18465000  0.44380000  0.21328000  1.0
  H  H15  1  0.55620000  0.81535000  0.28672000  1.0
  H  H16  1  0.70392000  0.61462000  0.62082000  1.0
  H  H17  1  0.38538000  0.29608000  0.87918000  1.0
  H  H18  1  0.29608000  0.38538000  0.37918000  1.0
  H  H19  1  0.61462000  0.70392000  0.12082000  1.0
  H  H20  1  0.76694000  0.76933000  0.38399000  1.0
  H  H21  1  0.23067000  0.23306000  0.11601000  1.0
  H  H22  1  0.23306000  0.23067000  0.61601000  1.0
  H  H23  1  0.76933000  0.76693000  0.88399000  1.0
  H  H24  1  0.45872000  0.50753000  0.86576000  1.0
  H  H25  1  0.49247000  0.54128000  0.63424000  1.0
  H  H26  1  0.54128000  0.49247000  0.13424000  1.0
  H  H27  1  0.50753000  0.45872000  0.36576000  1.0
  H  H28  1  0.45270000  0.82613000  0.86821000  1.0
  H  H29  1  0.17387000  0.54730000  0.63179000  1.0
  H  H30  1  0.54730000  0.17387000  0.13179000  1.0
  H  H31  1  0.82614000  0.45270000  0.36821000  1.0
  H  H32  1  0.16773000  0.80146000  0.97842000  1.0
  H  H33  1  0.19854000  0.83227000  0.52158000  1.0
  H  H34  1  0.83226000  0.19854000  0.02158000  1.0
  H  H35  1  0.80146000  0.16773000  0.47842000  1.0
  H  H36  1  0.70606000  0.29394000  0.75000000  1.0
  H  H37  1  0.29394000  0.70606000  0.25000000  1.0
  H  H38  1  0.06354000  0.10557000  0.68810000  1.0
  H  H39  1  0.89443000  0.93646000  0.81190000  1.0
  H  H40  1  0.93645000  0.89443000  0.31190000  1.0
  H  H41  1  0.10557000  0.06355000  0.18810000  1.0
  H  H42  1  0.69837000  0.46348000  0.76134000  1.0
  H  H43  1  0.53652000  0.30163000  0.73866000  1.0
  H  H44  1  0.30163000  0.53652000  0.23866000  1.0
  H  H45  1  0.46348000  0.69837000  0.26134000  1.0
  C  C46  1  0.08094000  0.46716000  0.79007000  1.0
  C  C47  1  0.53284000  0.91906000  0.70993000  1.0
  C  C48  1  0.91906000  0.53284000  0.20993000  1.0
  C  C49  1  0.46716000  0.08094000  0.29007000  1.0
  C  C50  1  0.90316000  0.52789000  0.80240000  1.0
  C  C51  1  0.47211000  0.09684000  0.69760000  1.0
  C  C52  1  0.09684000  0.47211000  0.19760000  1.0
  C  C53  1  0.52789000  0.90316000  0.30240000  1.0
  C  C54  1  0.74589000  0.63222000  0.56212000  1.0
  C  C55  1  0.36778000  0.25411000  0.93788000  1.0
  C  C56  1  0.25411000  0.36778000  0.43788000  1.0
  C  C57  1  0.63222000  0.74588000  0.06212000  1.0
  C  C58  1  0.77734000  0.71097000  0.44151000  1.0
  C  C59  1  0.28903000  0.22266000  0.05848000  1.0
  C  C60  1  0.22266000  0.28903000  0.55848000  1.0
  C  C61  1  0.71098000  0.77734000  0.94151000  1.0
  C  C62  1  0.30923000  0.64589000  0.92620000  1.0
  C  C63  1  0.35411000  0.69077000  0.57380000  1.0
  C  C64  1  0.69077000  0.35411000  0.07380000  1.0
  C  C65  1  0.64589000  0.30923000  0.42620000  1.0
  C  C66  1  0.41720000  0.59617000  0.88465000  1.0
  C  C67  1  0.40383000  0.58280000  0.61535000  1.0
  C  C68  1  0.58280000  0.40383000  0.11535000  1.0
  C  C69  1  0.59617000  0.41720000  0.38465000  1.0
  C  C70  1  0.47103000  0.65920000  0.86572000  1.0
  C  C71  1  0.34080000  0.52897000  0.63428000  1.0
  C  C72  1  0.52897000  0.34080000  0.13428000  1.0
  C  C73  1  0.65921000  0.47103000  0.36572000  1.0
  C  C74  1  0.41437000  0.77445000  0.88519000  1.0
  C  C75  1  0.22555000  0.58563000  0.61481000  1.0
  C  C76  1  0.58563000  0.22555000  0.11481000  1.0
  C  C77  1  0.77445000  0.41436000  0.38519000  1.0
  C  C78  1  0.30568000  0.82338000  0.92409000  1.0
  C  C79  1  0.17662000  0.69431000  0.57591000  1.0
  C  C80  1  0.69431000  0.17662000  0.07591000  1.0
  C  C81  1  0.82338000  0.30568000  0.42409000  1.0
  C  C82  1  0.25254000  0.76077000  0.94746000  1.0
  C  C83  1  0.23923000  0.74746000  0.55254000  1.0
  C  C84  1  0.74746000  0.23923000  0.05254000  1.0
  C  C85  1  0.76077000  0.25254000  0.44746000  1.0
  C  C86  1  0.25590000  0.57335000  0.93977000  1.0
  C  C87  1  0.42665000  0.74410000  0.56023000  1.0
  C  C88  1  0.74410000  0.42665000  0.06023000  1.0
  C  C89  1  0.57335000  0.25590000  0.43977000  1.0
  C  C90  1  0.58558000  0.60579000  0.81999000  1.0
  C  C91  1  0.39421000  0.41442000  0.68001000  1.0
  C  C92  1  0.41442000  0.39421000  0.18001000  1.0
  C  C93  1  0.60579000  0.58558000  0.31999000  1.0
  C  C94  1  0.88463000  0.21128000  0.71641000  1.0
  C  C95  1  0.78872000  0.11537000  0.78359000  1.0
  C  C96  1  0.11537000  0.78872000  0.28359000  1.0
  C  C97  1  0.21128000  0.88463000  0.21641000  1.0
  C  C98  1  0.78563000  0.21437000  0.75000000  1.0
  C  C99  1  0.21437000  0.78563000  0.25000000  1.0
  C  C100  1  0.98798000  0.01202000  0.75000000  1.0
  C  C101  1  0.01202000  0.98798000  0.25000000  1.0
  C  C102  1  0.98679000  0.10895000  0.71555000  1.0
  C  C103  1  0.89105000  0.01321000  0.78445000  1.0
  C  C104  1  0.01321000  0.89105000  0.28445000  1.0
  C  C105  1  0.10895000  0.98679000  0.21555000  1.0
  C  C106  1  0.88454000  0.31572000  0.68099000  1.0
  C  C107  1  0.68428000  0.11545000  0.81901000  1.0
  C  C108  1  0.11545000  0.68428000  0.31901000  1.0
  C  C109  1  0.31572000  0.88454000  0.18099000  1.0
  N  N110  1  0.05298000  0.48705000  0.88121000  1.0
  N  N111  1  0.51295000  0.94702000  0.61880000  1.0
  N  N112  1  0.94701000  0.51295000  0.11879000  1.0
  N  N113  1  0.48705000  0.05299000  0.38121000  1.0
  N  N114  1  0.93905000  0.52566000  0.88917000  1.0
  N  N115  1  0.47433000  0.06095000  0.61083000  1.0
  N  N116  1  0.06095000  0.47434000  0.11083000  1.0
  N  N117  1  0.52566000  0.93905000  0.38917000  1.0
  N  N118  1  0.98920000  0.49143000  0.73828000  1.0
  N  N119  1  0.50857000  0.01080000  0.76172000  1.0
  N  N120  1  0.01080000  0.50857000  0.26172000  1.0
  N  N121  1  0.49143000  0.98920000  0.23828000  1.0
  N  N122  1  0.85404000  0.56695000  0.53754000  1.0
  N  N123  1  0.43305000  0.14596000  0.96246000  1.0
  N  N124  1  0.14596000  0.43305000  0.46246000  1.0
  N  N125  1  0.56695000  0.85404000  0.03754000  1.0
  N  N126  1  0.87408000  0.61742000  0.45994000  1.0
  N  N127  1  0.38258000  0.12592000  0.04006000  1.0
  N  N128  1  0.12592000  0.38258000  0.54006000  1.0
  N  N129  1  0.61742000  0.87408000  0.95994000  1.0
  N  N130  1  0.69510000  0.72321000  0.50344000  1.0
  N  N131  1  0.27679000  0.30490000  0.99655000  1.0
  N  N132  1  0.30490000  0.27679000  0.49655000  1.0
  N  N133  1  0.72321000  0.69510000  0.00345000  1.0
  N  N134  1  0.24261000  0.94698000  0.93568000  1.0
  N  N135  1  0.05302000  0.75739000  0.56432000  1.0
  N  N136  1  0.75739000  0.05302000  0.06432000  1.0
  N  N137  1  0.94698000  0.24261000  0.43568000  1.0
  N  N138  1  0.09552000  0.90449000  0.75000000  1.0
  N  N139  1  0.90449000  0.09551000  0.25000000  1.0
  O  O140  1  0.18308000  0.59513000  0.00792000  1.0
  O  O141  1  0.40487000  0.81692000  0.49208000  1.0
  O  O142  1  0.81691000  0.40487000  0.99208000  1.0
  O  O143  1  0.59513000  0.18308000  0.50792000  1.0
  O  O144  1  0.28487000  0.49260000  0.88424000  1.0
  O  O145  1  0.50740000  0.71513000  0.61576000  1.0
  O  O146  1  0.71513000  0.50740000  0.11576000  1.0
  O  O147  1  0.49260000  0.28487000  0.38424000  1.0
  O  O148  1  0.62461000  0.49797000  0.80052000  1.0
  O  O149  1  0.50203000  0.37538000  0.69948000  1.0
  O  O150  1  0.37538000  0.50203000  0.19948000  1.0
  O  O151  1  0.49797000  0.62461000  0.30052000  1.0
  O  O152  1  0.63720000  0.65762000  0.80268000  1.0
  O  O153  1  0.34239000  0.36280000  0.69732000  1.0
  O  O154  1  0.36279000  0.34239000  0.19732000  1.0
  O  O155  1  0.65762000  0.63720000  0.30268000  1.0
  O  O156  1  0.29343000  0.00003000  0.91819000  1.0
  O  O157  1  0.99997000  0.70656000  0.58181000  1.0
  O  O158  1  0.70656000  0.99997000  0.08181000  1.0
  O  O159  1  0.00003000  0.29343000  0.41819000  1.0
  O  O160  1  0.14189000  0.99127000  0.96057000  1.0
  O  O161  1  0.00873000  0.85811000  0.53943000  1.0
  O  O162  1  0.85811000  0.00873000  0.03943000  1.0
  O  O163  1  0.99127000  0.14189000  0.46057000  1.0
  O  O164  1  0.97601000  0.29969000  0.63872000  1.0
  O  O165  1  0.70031000  0.02399000  0.86128000  1.0
  O  O166  1  0.02399000  0.70031000  0.36128000  1.0
  O  O167  1  0.29969000  0.97601000  0.13872000  1.0
  O  O168  1  0.79993000  0.41293000  0.69227000  1.0
  O  O169  1  0.58707000  0.20007000  0.80773000  1.0
  O  O170  1  0.20007000  0.58707000  0.30773000  1.0
  O  O171  1  0.41293000  0.79993000  0.19227000  1.0
  O  O172  1  0.09303000  0.81704000  0.77221000  1.0
  O  O173  1  0.18296000  0.90697000  0.72779000  1.0
  O  O174  1  0.90697000  0.18296000  0.22779000  1.0
  O  O175  1  0.81704000  0.09303000  0.27221000  1.0
