# generated using pymatgen
data_MnH8(C5N7)2
_symmetry_space_group_name_H-M   'P 1'
_cell_length_a   8.17396000
_cell_length_b   8.26673000
_cell_length_c   11.88500000
_cell_angle_alpha   82.97140000
_cell_angle_beta   69.90350000
_cell_angle_gamma   81.47830000
_symmetry_Int_Tables_number   1
_chemical_formula_structural   MnH8(C5N7)2
_chemical_formula_sum   'Mn2 H16 C20 N28'
_cell_volume   743.65934696
_cell_formula_units_Z   2
loop_
 _symmetry_equiv_pos_site_id
 _symmetry_equiv_pos_as_xyz
  1  'x, y, z'
loop_
 _atom_site_type_symbol
 _atom_site_label
 _atom_site_symmetry_multiplicity
 _atom_site_fract_x
 _atom_site_fract_y
 _atom_site_fract_z
 _atom_site_occupancy
  Mn  Mn0  1  0.02960000  0.28897000  0.47953000  1.0
  Mn  Mn1  1  0.97165000  0.68995000  0.51787000  1.0
  H  H2  1  0.40613000  0.28598000  0.45418000  1.0
  H  H3  1  0.57383000  0.72058000  0.55426000  1.0
  H  H4  1  0.69317000  0.30176000  0.29079000  1.0
  H  H5  1  0.28529000  0.70555000  0.71810000  1.0
  H  H6  1  0.41088000  0.35192000  0.03733000  1.0
  H  H7  1  0.56973000  0.64187000  0.97111000  1.0
  H  H8  1  0.13880000  0.32976000  0.21013000  1.0
  H  H9  1  0.84341000  0.66334000  0.79681000  1.0
  H  H10  1  0.65707000  0.29214000  0.50256000  1.0
  H  H11  1  0.35526000  0.71354000  0.48846000  1.0
  H  H12  1  0.39159000  0.18433000  0.65055000  1.0
  H  H13  1  0.62054000  0.83120000  0.34423000  1.0
  H  H14  1  0.66532000  0.11219000  0.90976000  1.0
  H  H15  1  0.35497000  0.90024000  0.08019000  1.0
  H  H16  1  0.92148000  0.21577000  0.75004000  1.0
  H  H17  1  0.10079000  0.78281000  0.23687000  1.0
  C  C18  1  0.41345000  0.30091000  0.36049000  1.0
  C  C19  1  0.56647000  0.70191000  0.64811000  1.0
  C  C20  1  0.57283000  0.31006000  0.26913000  1.0
  C  C21  1  0.40644000  0.69355000  0.73926000  1.0
  C  C22  1  0.57569000  0.33082000  0.14926000  1.0
  C  C23  1  0.40527000  0.66965000  0.85870000  1.0
  C  C24  1  0.41586000  0.33870000  0.12835000  1.0
  C  C25  1  0.56507000  0.65836000  0.88005000  1.0
  C  C26  1  0.26297000  0.32720000  0.22519000  1.0
  C  C27  1  0.71797000  0.66910000  0.78268000  1.0
  C  C28  1  0.65378000  0.24950000  0.59348000  1.0
  C  C29  1  0.36143000  0.75673000  0.39690000  1.0
  C  C30  1  0.50586000  0.19076000  0.67652000  1.0
  C  C31  1  0.50876000  0.82058000  0.31645000  1.0
  C  C32  1  0.50767000  0.13854000  0.79315000  1.0
  C  C33  1  0.50837000  0.87178000  0.19947000  1.0
  C  C34  1  0.65876000  0.15084000  0.82038000  1.0
  C  C35  1  0.35977000  0.85867000  0.16962000  1.0
  C  C36  1  0.80179000  0.20913000  0.73107000  1.0
  C  C37  1  0.21854000  0.79390000  0.25709000  1.0
  N  N38  1  0.10462000  0.47274000  0.58162000  1.0
  N  N39  1  0.91041000  0.51258000  0.41971000  1.0
  N  N40  1  0.12170000  0.44166000  0.67918000  1.0
  N  N41  1  0.88505000  0.54617000  0.32456000  1.0
  N  N42  1  0.14170000  0.41322000  0.77256000  1.0
  N  N43  1  0.85615000  0.58178000  0.23466000  1.0
  N  N44  1  0.95803000  0.15099000  0.38242000  1.0
  N  N45  1  0.05489000  0.83779000  0.62777000  1.0
  N  N46  1  0.89725000  0.02387000  0.40895000  1.0
  N  N47  1  0.10123000  0.96935000  0.59244000  1.0
  N  N48  1  0.84105000  0.89503000  0.43091000  1.0
  N  N49  1  0.15268000  0.09937000  0.55525000  1.0
  N  N50  1  0.25766000  0.30929000  0.34149000  1.0
  N  N51  1  0.72085000  0.68925000  0.66779000  1.0
  N  N52  1  0.72708000  0.34268000  0.04830000  1.0
  N  N53  1  0.25407000  0.65802000  0.95962000  1.0
  N  N54  1  0.87345000  0.32737000  0.05957000  1.0
  N  N55  1  0.10828000  0.67094000  0.94723000  1.0
  N  N56  1  0.01773000  0.31290000  0.05378000  1.0
  N  N57  1  0.96487000  0.68160000  0.95229000  1.0
  N  N58  1  0.80495000  0.25481000  0.61647000  1.0
  N  N59  1  0.21687000  0.74433000  0.36976000  1.0
  N  N60  1  0.36702000  0.07529000  0.88524000  1.0
  N  N61  1  0.64958000  0.93622000  0.10862000  1.0
  N  N62  1  0.23109000  0.06057000  0.86631000  1.0
  N  N63  1  0.78668000  0.94308000  0.12885000  1.0
  N  N64  1  0.09722000  0.03795000  0.86361000  1.0
  N  N65  1  0.92159000  0.95854000  0.13290000  1.0
