# generated using pymatgen
data_Zn4H50C60N4O19
_symmetry_space_group_name_H-M   'P 1'
_cell_length_a   17.90960000
_cell_length_b   19.19250000
_cell_length_c   19.24730000
_cell_angle_alpha   95.03000000
_cell_angle_beta   99.15500000
_cell_angle_gamma   103.80300000
_symmetry_Int_Tables_number   1
_chemical_formula_structural   Zn4H50C60N4O19
_chemical_formula_sum   'Zn4 H50 C60 N4 O19'
_cell_volume   6288.28003591
_cell_formula_units_Z   1
loop_
 _symmetry_equiv_pos_site_id
 _symmetry_equiv_pos_as_xyz
  1  'x, y, z'
loop_
 _atom_site_type_symbol
 _atom_site_label
 _atom_site_symmetry_multiplicity
 _atom_site_fract_x
 _atom_site_fract_y
 _atom_site_fract_z
 _atom_site_occupancy
  Zn  Zn0  1  0.56501000  0.45512000  0.45297000  1.0
  Zn  Zn1  1  0.42836000  0.43056000  0.54425000  1.0
  Zn  Zn2  1  0.43656000  0.54298000  0.43217000  1.0
  Zn  Zn3  1  0.56777000  0.57800000  0.57706000  1.0
  H  H4  1  0.06924000  0.59700000  0.67790000  1.0
  H  H5  1  0.59536000  0.25435000  0.43648000  1.0
  H  H6  1  0.18985000  0.36704000  0.34320000  1.0
  H  H7  1  0.94850000  0.61736000  0.70653000  1.0
  H  H8  1  0.80435000  0.60290000  0.67344000  1.0
  H  H9  1  0.14119000  0.54600000  0.59804000  1.0
  H  H10  1  0.85370000  0.42592000  0.41946000  1.0
  H  H11  1  0.09673000  0.36572000  0.22942000  1.0
  H  H12  1  0.01286000  0.39907000  0.23600000  1.0
  H  H13  1  0.92573000  0.27298000  0.19479000  1.0
  H  H14  1  0.98330000  0.30351000  0.13063000  1.0
  H  H15  1  0.59768000  0.59146000  0.80079000  1.0
  H  H16  1  0.00965000  0.24063000  0.18670000  1.0
  H  H17  1  0.54254000  0.65942000  0.98177000  1.0
  H  H18  1  0.59166000  0.69637000  0.91428000  1.0
  H  H19  1  0.72171000  0.71318000  0.99634000  1.0
  H  H20  1  0.66116000  0.76112000  0.03467000  1.0
  H  H21  1  0.67151000  0.67744000  0.06342000  1.0
  H  H22  1  0.61126000  0.44621000  0.24551000  1.0
  H  H23  1  0.37725000  0.43063000  0.74655000  1.0
  H  H24  1  0.30179000  0.04483000  0.48312000  1.0
  H  H25  1  0.31101000  0.11499000  0.55370000  1.0
  H  H26  1  0.61862000  0.44707000  0.11583000  1.0
  H  H27  1  0.30302000  0.02648000  0.64111000  1.0
  H  H28  1  0.22028000  0.99692000  0.57066000  1.0
  H  H29  1  0.29979000  0.95557000  0.57369000  1.0
  H  H30  1  0.57561000  0.92107000  0.63319000  1.0
  H  H31  1  0.32555000  0.89077000  0.44714000  1.0
  H  H32  1  0.32907000  0.81728000  0.38462000  1.0
  H  H33  1  0.33713000  0.89998000  0.28977000  1.0
  H  H34  1  0.25083000  0.89566000  0.32594000  1.0
  H  H35  1  0.33257000  0.97265000  0.35185000  1.0
  H  H36  1  0.60841000  0.12672000  0.43993000  1.0
  H  H37  1  0.43503000  0.55662000  0.08874000  1.0
  H  H38  1  0.43836000  0.68851000  0.31126000  1.0
  H  H39  1  0.52381000  0.71691000  0.37808000  1.0
  H  H40  1  0.54984000  0.84267000  0.34096000  1.0
  H  H41  1  0.54708000  0.77560000  0.26985000  1.0
  H  H42  1  0.46546000  0.81336000  0.27268000  1.0
  H  H43  1  0.92316000  0.36104000  0.34705000  1.0
  H  H44  1  0.88495000  0.55967000  0.39853000  1.0
  H  H45  1  0.81547000  0.60790000  0.41883000  1.0
  H  H46  1  0.70964000  0.51790000  0.33101000  1.0
  H  H47  1  0.78694000  0.56096000  0.28888000  1.0
  H  H48  1  0.37102000  0.43193000  0.87639000  1.0
  H  H49  1  0.77951000  0.47115000  0.30937000  1.0
  H  H50  1  0.43066000  0.55947000  0.21916000  1.0
  H  H51  1  0.40084000  0.20548000  0.54447000  1.0
  H  H52  1  0.19863000  0.50629000  0.53332000  1.0
  H  H53  1  0.57300000  0.78925000  0.61734000  1.0
  C  C54  1  0.49244000  0.50907000  0.68911000  1.0
  C  C55  1  0.91699000  0.43686000  0.43282000  1.0
  C  C56  1  0.95552000  0.40059000  0.39241000  1.0
  C  C57  1  0.51724000  0.50476000  0.31676000  1.0
  C  C58  1  0.03821000  0.41313000  0.40847000  1.0
  C  C59  1  0.08127000  0.46100000  0.47057000  1.0
  C  C60  1  0.07862000  0.37848000  0.36404000  1.0
  C  C61  1  0.15930000  0.39291000  0.37824000  1.0
  C  C62  1  0.16336000  0.47146000  0.48598000  1.0
  C  C63  1  0.52098000  0.50337000  0.23975000  1.0
  C  C64  1  0.47112000  0.53461000  0.19573000  1.0
  C  C65  1  0.83687000  0.58287000  0.63637000  1.0
  C  C66  1  0.47343000  0.53321000  0.12395000  1.0
  C  C67  1  0.52674000  0.50112000  0.09554000  1.0
  C  C68  1  0.57752000  0.47094000  0.13943000  1.0
  C  C69  1  0.48992000  0.31211000  0.48917000  1.0
  C  C70  1  0.57365000  0.47092000  0.21100000  1.0
  C  C71  1  0.54781000  0.55371000  0.88945000  1.0
  C  C72  1  0.54853000  0.55565000  0.81734000  1.0
  C  C73  1  0.48324000  0.50749000  0.91063000  1.0
  C  C74  1  0.48821000  0.51031000  0.76603000  1.0
  C  C75  1  0.42396000  0.46521000  0.78705000  1.0
  C  C76  1  0.83641000  0.52593000  0.51809000  1.0
  C  C77  1  0.42074000  0.46561000  0.85860000  1.0
  C  C78  1  0.50467000  0.76804000  0.51211000  1.0
  C  C79  1  0.46725000  0.79816000  0.45622000  1.0
  C  C80  1  0.46837000  0.87235000  0.46487000  1.0
  C  C81  1  0.50121000  0.68943000  0.50974000  1.0
  C  C82  1  0.50939000  0.91662000  0.52882000  1.0
  C  C83  1  0.54585000  0.88603000  0.58406000  1.0
  C  C84  1  0.54440000  0.81347000  0.57520000  1.0
  C  C85  1  0.45399000  0.11697000  0.52583000  1.0
  C  C86  1  0.44594000  0.18726000  0.52182000  1.0
  C  C87  1  0.91642000  0.52480000  0.53803000  1.0
  C  C88  1  0.51503000  0.09593000  0.49688000  1.0
  C  C89  1  0.49718000  0.23651000  0.49065000  1.0
  C  C90  1  0.55659000  0.21544000  0.46112000  1.0
  C  C91  1  0.56417000  0.14560000  0.46361000  1.0
  C  C92  1  0.28869000  0.45434000  0.45647000  1.0
  C  C93  1  0.70943000  0.53983000  0.55075000  1.0
  C  C94  1  0.79588000  0.55019000  0.56793000  1.0
  C  C95  1  0.20140000  0.43928000  0.44011000  1.0
  C  C96  1  0.91609000  0.59012000  0.65453000  1.0
  C  C97  1  0.03589000  0.35064000  0.23834000  1.0
  C  C98  1  0.95682000  0.56115000  0.60673000  1.0
  C  C99  1  0.98570000  0.28818000  0.18446000  1.0
  C  C100  1  0.59761000  0.66706000  0.96094000  1.0
  C  C101  1  0.66725000  0.70703000  0.01725000  1.0
  C  C102  1  0.32279000  0.06209000  0.54061000  1.0
  C  C103  1  0.28418000  0.00696000  0.58416000  1.0
  C  C104  1  0.34631000  0.87649000  0.39809000  1.0
  C  C105  1  0.31507000  0.91357000  0.33793000  1.0
  C  C106  1  0.47746000  0.73566000  0.34638000  1.0
  C  C107  1  0.51181000  0.79547000  0.30509000  1.0
  C  C108  1  0.82250000  0.55430000  0.39984000  1.0
  C  C109  1  0.95747000  0.48750000  0.49402000  1.0
  C  C110  1  0.77151000  0.52421000  0.32798000  1.0
  C  C111  1  0.03940000  0.49660000  0.51498000  1.0
  C  C112  1  0.07854000  0.53877000  0.58123000  1.0
  C  C113  1  0.03861000  0.56782000  0.62607000  1.0
  N  N114  1  0.53486000  0.49897000  0.02350000  1.0
  N  N115  1  0.47471000  0.50388000  0.98172000  1.0
  N  N116  1  0.51088000  0.98999000  0.54189000  1.0
  N  N117  1  0.52496000  0.02577000  0.49108000  1.0
  O  O118  1  0.49941000  0.50255000  0.50271000  1.0
  O  O119  1  0.31843000  0.43279000  0.51262000  1.0
  O  O120  1  0.68069000  0.58657000  0.58139000  1.0
  O  O121  1  0.32576000  0.48770000  0.41273000  1.0
  O  O122  1  0.67046000  0.48315000  0.50903000  1.0
  O  O123  1  0.03462000  0.32812000  0.30789000  1.0
  O  O124  1  0.60900000  0.59690000  0.93889000  1.0
  O  O125  1  0.40574000  0.06722000  0.55603000  1.0
  O  O126  1  0.43114000  0.90180000  0.41174000  1.0
  O  O127  1  0.42878000  0.75912000  0.39223000  1.0
  O  O128  1  0.79709000  0.50475000  0.44919000  1.0
  O  O129  1  0.53089000  0.35021000  0.45086000  1.0
  O  O130  1  0.55073000  0.67228000  0.55635000  1.0
  O  O131  1  0.44326000  0.45740000  0.64715000  1.0
  O  O132  1  0.46833000  0.53582000  0.33893000  1.0
  O  O133  1  0.54470000  0.55901000  0.67170000  1.0
  O  O134  1  0.56317000  0.47487000  0.35428000  1.0
  O  O135  1  0.44381000  0.33301000  0.52607000  1.0
  O  O136  1  0.44845000  0.64511000  0.46310000  1.0
