# generated using pymatgen
data_CdH4C5I2(NO)2
_symmetry_space_group_name_H-M   'P 1'
_cell_length_a   7.40934000
_cell_length_b   7.68582000
_cell_length_c   19.87200000
_cell_angle_alpha   90.00060000
_cell_angle_beta   90.00040000
_cell_angle_gamma   113.94000000
_symmetry_Int_Tables_number   1
_chemical_formula_structural   CdH4C5I2(NO)2
_chemical_formula_sum   'Cd4 H16 C20 I8 N8 O8'
_cell_volume   1034.29321467
_cell_formula_units_Z   4
loop_
 _symmetry_equiv_pos_site_id
 _symmetry_equiv_pos_as_xyz
  1  'x, y, z'
loop_
 _atom_site_type_symbol
 _atom_site_label
 _atom_site_symmetry_multiplicity
 _atom_site_fract_x
 _atom_site_fract_y
 _atom_site_fract_z
 _atom_site_occupancy
  Cd  Cd0  1  0.84626000  0.81104000  0.54702000  1.0
  Cd  Cd1  1  0.15374000  0.18896000  0.04702000  1.0
  Cd  Cd2  1  0.31926000  0.75554000  0.47576000  1.0
  Cd  Cd3  1  0.68073000  0.24446000  0.97576000  1.0
  H  H4  1  0.05242000  0.10177000  0.80154000  1.0
  H  H5  1  0.94759000  0.89823000  0.30154000  1.0
  H  H6  1  0.45533000  0.42826000  0.65765000  1.0
  H  H7  1  0.54467000  0.57174000  0.15765000  1.0
  H  H8  1  0.25712000  0.20335000  0.56637000  1.0
  H  H9  1  0.74287000  0.79666000  0.06637000  1.0
  H  H10  1  0.59853000  0.71852000  0.77714000  1.0
  H  H11  1  0.40149000  0.28147000  0.27714000  1.0
  H  H12  1  0.01439000  0.49515000  0.22637000  1.0
  H  H13  1  0.98562000  0.50485000  0.72637000  1.0
  H  H14  1  0.67457000  0.14759000  0.37929000  1.0
  H  H15  1  0.32544000  0.85242000  0.87929000  1.0
  H  H16  1  0.91541000  0.35434000  0.46574000  1.0
  H  H17  1  0.08459000  0.64566000  0.96575000  1.0
  H  H18  1  0.45006000  0.89250000  0.23490000  1.0
  H  H19  1  0.54991000  0.10749000  0.73489000  1.0
  C  C20  1  0.98422000  0.00393000  0.69803000  1.0
  C  C21  1  0.01580000  0.99609000  0.19803000  1.0
  C  C22  1  0.09727000  0.12585000  0.74870000  1.0
  C  C23  1  0.90273000  0.87414000  0.24871000  1.0
  C  C24  1  0.32045000  0.30449000  0.66992000  1.0
  C  C25  1  0.67956000  0.69553000  0.16992000  1.0
  C  C26  1  0.21036000  0.18040000  0.61894000  1.0
  C  C27  1  0.78963000  0.81960000  0.11894000  1.0
  C  C28  1  0.79332000  0.83778000  0.71033000  1.0
  C  C29  1  0.20669000  0.16224000  0.21032000  1.0
  C  C30  1  0.12743000  0.57692000  0.32764000  1.0
  C  C31  1  0.87257000  0.42307000  0.82763000  1.0
  C  C32  1  0.99212000  0.46353000  0.28006000  1.0
  C  C33  1  0.00788000  0.53646000  0.78006000  1.0
  C  C34  1  0.80462000  0.27212000  0.36377000  1.0
  C  C35  1  0.19537000  0.72789000  0.86378000  1.0
  C  C36  1  0.93907000  0.38612000  0.41211000  1.0
  C  C37  1  0.06092000  0.61387000  0.91211000  1.0
  C  C38  1  0.31005000  0.74618000  0.30966000  1.0
  C  C39  1  0.68994000  0.25382000  0.80966000  1.0
  I  I40  1  0.61560000  0.05178000  0.55178000  1.0
  I  I41  1  0.38442000  0.94822000  0.05179000  1.0
  I  I42  1  0.54408000  0.51707000  0.47240000  1.0
  I  I43  1  0.45593000  0.48293000  0.97240000  1.0
  I  I44  1  0.10593000  0.00327000  0.43802000  1.0
  I  I45  1  0.89409000  0.99673000  0.93802000  1.0
  I  I46  1  0.06167000  0.57321000  0.58845000  1.0
  I  I47  1  0.93832000  0.42678000  0.08845000  1.0
  N  N48  1  0.04395000  0.03090000  0.63329000  1.0
  N  N49  1  0.95607000  0.96912000  0.13329000  1.0
  N  N50  1  0.26634000  0.27660000  0.73467000  1.0
  N  N51  1  0.73365000  0.72338000  0.23467000  1.0
  N  N52  1  0.09838000  0.53815000  0.39398000  1.0
  N  N53  1  0.90162000  0.46184000  0.89397000  1.0
  N  N54  1  0.82917000  0.31058000  0.29799000  1.0
  N  N55  1  0.17081000  0.68941000  0.79799000  1.0
  O  O56  1  0.70403000  0.72066000  0.66684000  1.0
  O  O57  1  0.29597000  0.27933000  0.16684000  1.0
  O  O58  1  0.72617000  0.82890000  0.77366000  1.0
  O  O59  1  0.27384000  0.17109000  0.27366000  1.0
  O  O60  1  0.43280000  0.84362000  0.35095000  1.0
  O  O61  1  0.56719000  0.15639000  0.85095000  1.0
  O  O62  1  0.32598000  0.78142000  0.24315000  1.0
  O  O63  1  0.67399000  0.21857000  0.74315000  1.0
