# generated using pymatgen
data_MnH8C10N2Cl3
_symmetry_space_group_name_H-M   'P 1'
_cell_length_a   8.10425000
_cell_length_b   8.99209375
_cell_length_c   9.65171000
_cell_angle_alpha   81.18912112
_cell_angle_beta   70.11370000
_cell_angle_gamma   63.22428529
_symmetry_Int_Tables_number   1
_chemical_formula_structural   MnH8C10N2Cl3
_chemical_formula_sum   'Mn2 H16 C20 N4 Cl6'
_cell_volume   590.49927258
_cell_formula_units_Z   2
loop_
 _symmetry_equiv_pos_site_id
 _symmetry_equiv_pos_as_xyz
  1  'x, y, z'
loop_
 _atom_site_type_symbol
 _atom_site_label
 _atom_site_symmetry_multiplicity
 _atom_site_fract_x
 _atom_site_fract_y
 _atom_site_fract_z
 _atom_site_occupancy
  Mn  Mn0  1  0.80023000  0.95610000  0.26778000  1.0
  Mn  Mn1  1  0.75627000  0.04388000  0.76782000  1.0
  H  H2  1  0.41811000  0.91786000  0.36323000  1.0
  H  H3  1  0.33588000  0.08213000  0.86320000  1.0
  H  H4  1  0.06366000  0.11302000  0.41603000  1.0
  H  H5  1  0.17661000  0.88695000  0.91606000  1.0
  H  H6  1  0.97100000  0.42055000  0.37720000  1.0
  H  H7  1  0.39130000  0.57947000  0.87722000  1.0
  H  H8  1  0.22980000  0.51777000  0.27663000  1.0
  H  H9  1  0.74738000  0.48218000  0.77661000  1.0
  H  H10  1  0.46507000  0.57799000  0.19125000  1.0
  H  H11  1  0.04277000  0.42200000  0.69109000  1.0
  H  H12  1  0.76483000  0.62603000  0.08060000  1.0
  H  H13  1  0.39054000  0.37399000  0.58059000  1.0
  H  H14  1  0.09042000  0.37784000  0.02868000  1.0
  H  H15  1  0.46807000  0.62211000  0.52867000  1.0
  H  H16  1  0.10183000  0.09575000  0.10725000  1.0
  H  H17  1  0.19739000  0.90426000  0.60724000  1.0
  C  C18  1  0.36918000  0.05157000  0.34669000  1.0
  C  C19  1  0.42065000  0.94844000  0.84662000  1.0
  C  C20  1  0.17371000  0.16060000  0.37605000  1.0
  C  C21  1  0.33426000  0.83935000  0.87603000  1.0
  C  C22  1  0.12255000  0.33041000  0.35333000  1.0
  C  C23  1  0.45284000  0.66953000  0.85329000  1.0
  C  C24  1  0.26786000  0.38549000  0.29767000  1.0
  C  C25  1  0.65319000  0.61445000  0.79760000  1.0
  C  C26  1  0.46171000  0.26958000  0.27000000  1.0
  C  C27  1  0.73108000  0.73045000  0.76981000  1.0
  C  C28  1  0.62642000  0.31215000  0.20754000  1.0
  C  C29  1  0.93836000  0.68784000  0.70735000  1.0
  C  C30  1  0.60847000  0.47376000  0.17073000  1.0
  C  C31  1  0.08193000  0.52624000  0.67055000  1.0
  C  C32  1  0.77504000  0.50043000  0.10742000  1.0
  C  C33  1  0.27516000  0.49960000  0.60733000  1.0
  C  C34  1  0.95583000  0.36391000  0.07946000  1.0
  C  C35  1  0.31950000  0.63613000  0.57934000  1.0
  C  C36  1  0.96452000  0.20596000  0.12079000  1.0
  C  C37  1  0.17033000  0.79405000  0.62071000  1.0
  N  N38  1  0.50965000  0.10483000  0.29824000  1.0
  N  N39  1  0.61436000  0.89519000  0.79811000  1.0
  N  N40  1  0.80428000  0.18058000  0.18514000  1.0
  N  N41  1  0.98470000  0.81940000  0.68504000  1.0
  Cl  Cl42  1  0.84383000  0.86705000  0.02723000  1.0
  Cl  Cl43  1  0.71088000  0.13303000  0.52737000  1.0
  Cl  Cl44  1  0.74366000  0.74882000  0.40317000  1.0
  Cl  Cl45  1  0.49241000  0.25122000  0.90316000  1.0
  Cl  Cl46  1  0.11399000  0.83760000  0.25814000  1.0
  Cl  Cl47  1  0.95150000  0.16246000  0.75811000  1.0
