# generated using pymatgen
data_CdP2H28C26S4(NO2)2
_symmetry_space_group_name_H-M   'P 1'
_cell_length_a   8.04216000
_cell_length_b   10.40620000
_cell_length_c   17.57350000
_cell_angle_alpha   90.00000000
_cell_angle_beta   90.00000000
_cell_angle_gamma   100.40500000
_symmetry_Int_Tables_number   1
_chemical_formula_structural   CdP2H28C26S4(NO2)2
_chemical_formula_sum   'Cd2 P4 H56 C52 S8 N4 O8'
_cell_volume   1446.51222741
_cell_formula_units_Z   2
loop_
 _symmetry_equiv_pos_site_id
 _symmetry_equiv_pos_as_xyz
  1  'x, y, z'
loop_
 _atom_site_type_symbol
 _atom_site_label
 _atom_site_symmetry_multiplicity
 _atom_site_fract_x
 _atom_site_fract_y
 _atom_site_fract_z
 _atom_site_occupancy
  Cd  Cd0  1  0.50000000  0.00000000  0.50000000  1.0
  Cd  Cd1  1  0.00000000  0.00000000  0.00000000  1.0
  P  P2  1  0.69213000  0.83449000  0.61224000  1.0
  P  P3  1  0.80787000  0.16551000  0.11224000  1.0
  P  P4  1  0.30787000  0.16551000  0.38776000  1.0
  P  P5  1  0.19213000  0.83449000  0.88776000  1.0
  H  H6  1  0.00518000  0.01165000  0.58088000  1.0
  H  H7  1  0.49482000  0.98836000  0.08088000  1.0
  H  H8  1  0.99482000  0.98835000  0.41912000  1.0
  H  H9  1  0.50518000  0.01165000  0.91912000  1.0
  H  H10  1  0.08728000  0.00131000  0.67586000  1.0
  H  H11  1  0.41272000  0.99869000  0.17586000  1.0
  H  H12  1  0.91272000  0.99869000  0.32414000  1.0
  H  H13  1  0.58728000  0.00131000  0.82415000  1.0
  H  H14  1  0.90380000  0.07369000  0.66030000  1.0
  H  H15  1  0.59620000  0.92632000  0.16030000  1.0
  H  H16  1  0.09620000  0.92631000  0.33970000  1.0
  H  H17  1  0.40379000  0.07369000  0.83970000  1.0
  H  H18  1  0.75603000  0.70963000  0.75685000  1.0
  H  H19  1  0.74397000  0.29037000  0.25685000  1.0
  H  H20  1  0.24397000  0.29037000  0.24315000  1.0
  H  H21  1  0.25604000  0.70962000  0.74315000  1.0
  H  H22  1  0.63346000  0.49284000  0.81117000  1.0
  H  H23  1  0.86654000  0.50716000  0.31117000  1.0
  H  H24  1  0.36653000  0.50716000  0.18883000  1.0
  H  H25  1  0.13346000  0.49284000  0.68883000  1.0
  H  H26  1  0.35858000  0.38863000  0.60235000  1.0
  H  H27  1  0.14142000  0.61138000  0.10235000  1.0
  H  H28  1  0.64141000  0.61137000  0.39765000  1.0
  H  H29  1  0.85858000  0.38863000  0.89765000  1.0
  H  H30  1  0.47943000  0.60484000  0.54895000  1.0
  H  H31  1  0.02058000  0.39516000  0.04895000  1.0
  H  H32  1  0.52057000  0.39516000  0.45105000  1.0
  H  H33  1  0.97943000  0.60484000  0.95105000  1.0
  H  H34  1  0.19194000  0.26286000  0.68902000  1.0
  H  H35  1  0.30806000  0.73714000  0.18902000  1.0
  H  H36  1  0.80806000  0.73714000  0.31098000  1.0
  H  H37  1  0.69194000  0.26286000  0.81098000  1.0
  H  H38  1  0.25699000  0.14264000  0.74920000  1.0
  H  H39  1  0.24301000  0.85736000  0.24920000  1.0
  H  H40  1  0.74301000  0.85736000  0.25080000  1.0
  H  H41  1  0.75699000  0.14264000  0.75080000  1.0
  H  H42  1  0.35982000  0.18068000  0.65910000  1.0
  H  H43  1  0.14017000  0.81932000  0.15910000  1.0
  H  H44  1  0.64017000  0.81932000  0.34090000  1.0
  H  H45  1  0.85982000  0.18068000  0.84090000  1.0
  H  H46  1  0.19378000  0.83862000  0.60400000  1.0
  H  H47  1  0.30622000  0.16138000  0.10400000  1.0
  H  H48  1  0.80622000  0.16138000  0.39600000  1.0
  H  H49  1  0.69378000  0.83862000  0.89600000  1.0
  H  H50  1  0.98856000  0.63272000  0.61005000  1.0
  H  H51  1  0.51144000  0.36728000  0.11005000  1.0
  H  H52  1  0.01144000  0.36728000  0.38995000  1.0
  H  H53  1  0.48857000  0.63272000  0.88995000  1.0
  H  H54  1  0.16089000  0.54277000  0.38532000  1.0
  H  H55  1  0.33911000  0.45723000  0.88532000  1.0
  H  H56  1  0.83911000  0.45723000  0.61468000  1.0
  H  H57  1  0.66089000  0.54277000  0.11468000  1.0
  H  H58  1  0.34498000  0.75949000  0.38682000  1.0
  H  H59  1  0.15502000  0.24051000  0.88682000  1.0
  H  H60  1  0.65502000  0.24051000  0.61318000  1.0
  H  H61  1  0.84498000  0.75949000  0.11318000  1.0
  C  C62  1  0.97320000  0.99765000  0.64148000  1.0
  C  C63  1  0.52680000  0.00235000  0.14148000  1.0
  C  C64  1  0.02680000  0.00234000  0.35852000  1.0
  C  C65  1  0.47319000  0.99765000  0.85852000  1.0
  C  C66  1  0.62210000  0.67278000  0.64962000  1.0
  C  C67  1  0.87790000  0.32722000  0.14962000  1.0
  C  C68  1  0.37790000  0.32721000  0.35038000  1.0
  C  C69  1  0.12211000  0.67278000  0.85038000  1.0
  C  C70  1  0.66710000  0.64018000  0.72357000  1.0
  C  C71  1  0.83289000  0.35982000  0.22357000  1.0
  C  C72  1  0.33290000  0.35982000  0.27643000  1.0
  C  C73  1  0.16711000  0.64018000  0.77643000  1.0
  C  C74  1  0.59902000  0.51918000  0.75410000  1.0
  C  C75  1  0.90098000  0.48082000  0.25410000  1.0
  C  C76  1  0.40098000  0.48082000  0.24590000  1.0
  C  C77  1  0.09902000  0.51918000  0.74590000  1.0
  C  C78  1  0.48439000  0.42887000  0.71181000  1.0
  C  C79  1  0.01561000  0.57113000  0.21181000  1.0
  C  C80  1  0.51561000  0.57113000  0.28819000  1.0
  C  C81  1  0.98439000  0.42887000  0.78819000  1.0
  C  C82  1  0.44232000  0.45904000  0.63725000  1.0
  C  C83  1  0.05769000  0.54096000  0.13725000  1.0
  C  C84  1  0.55768000  0.54096000  0.36275000  1.0
  C  C85  1  0.94232000  0.45904000  0.86276000  1.0
  C  C86  1  0.51122000  0.58099000  0.60698000  1.0
  C  C87  1  0.98878000  0.41901000  0.10698000  1.0
  C  C88  1  0.48878000  0.41901000  0.39302000  1.0
  C  C89  1  0.01122000  0.58099000  0.89301000  1.0
  C  C90  1  0.30054000  0.22054000  0.70808000  1.0
  C  C91  1  0.19946000  0.77946000  0.20808000  1.0
  C  C92  1  0.69946000  0.77946000  0.29192000  1.0
  C  C93  1  0.80054000  0.22054000  0.79192000  1.0
  C  C94  1  0.17948000  0.77106000  0.55612000  1.0
  C  C95  1  0.32052000  0.22894000  0.05612000  1.0
  C  C96  1  0.82052000  0.22893000  0.44388000  1.0
  C  C97  1  0.67948000  0.77106000  0.94388000  1.0
  C  C98  1  0.06682000  0.65306000  0.55951000  1.0
  C  C99  1  0.43318000  0.34694000  0.05951000  1.0
  C  C100  1  0.93318000  0.34694000  0.44049000  1.0
  C  C101  1  0.56682000  0.65306000  0.94049000  1.0
  C  C102  1  0.05692000  0.56439000  0.49871000  1.0
  C  C103  1  0.44308000  0.43561000  0.99871000  1.0
  C  C104  1  0.94308000  0.43560000  0.50129000  1.0
  C  C105  1  0.55692000  0.56440000  0.00129000  1.0
  C  C106  1  0.15995000  0.60440000  0.43528000  1.0
  C  C107  1  0.34005000  0.39560000  0.93528000  1.0
  C  C108  1  0.84005000  0.39560000  0.56472000  1.0
  C  C109  1  0.65995000  0.60440000  0.06472000  1.0
  C  C110  1  0.26564000  0.72581000  0.43581000  1.0
  C  C111  1  0.23436000  0.27419000  0.93581000  1.0
  C  C112  1  0.73436000  0.27419000  0.56419000  1.0
  C  C113  1  0.76564000  0.72581000  0.06419000  1.0
  S  S114  1  0.72012000  0.83174000  0.49893000  1.0
  S  S115  1  0.77988000  0.16826000  0.99893000  1.0
  S  S116  1  0.27988000  0.16826000  0.50107000  1.0
  S  S117  1  0.22012000  0.83174000  0.00107000  1.0
  S  S118  1  0.54049000  0.95652000  0.64922000  1.0
  S  S119  1  0.95951000  0.04348000  0.14922000  1.0
  S  S120  1  0.45951000  0.04348000  0.35078000  1.0
  S  S121  1  0.04049000  0.95652000  0.85078000  1.0
  N  N122  1  0.27800000  0.80764000  0.49545000  1.0
  N  N123  1  0.22200000  0.19236000  0.99545000  1.0
  N  N124  1  0.72200000  0.19236000  0.50455000  1.0
  N  N125  1  0.77800000  0.80764000  0.00455000  1.0
  O  O126  1  0.87371000  0.86980000  0.65444000  1.0
  O  O127  1  0.62628000  0.13020000  0.15444000  1.0
  O  O128  1  0.12629000  0.13020000  0.34556000  1.0
  O  O129  1  0.37371000  0.86980000  0.84556000  1.0
  O  O130  1  0.42079000  0.31498000  0.74826000  1.0
  O  O131  1  0.07921000  0.68502000  0.24826000  1.0
  O  O132  1  0.57921000  0.68502000  0.25174000  1.0
  O  O133  1  0.92079000  0.31498000  0.75174000  1.0
