# generated using pymatgen
data_Mn3H22C22(N2O7)2
_symmetry_space_group_name_H-M   'P 1'
_cell_length_a   14.11900000
_cell_length_b   15.15117129
_cell_length_c   15.15500000
_cell_angle_alpha   110.80739603
_cell_angle_beta   108.10600000
_cell_angle_gamma   108.07476144
_symmetry_Int_Tables_number   1
_chemical_formula_structural   Mn3H22C22(N2O7)2
_chemical_formula_sum   'Mn9 H66 C66 N12 O42'
_cell_volume   2537.16217272
_cell_formula_units_Z   3
loop_
 _symmetry_equiv_pos_site_id
 _symmetry_equiv_pos_as_xyz
  1  'x, y, z'
loop_
 _atom_site_type_symbol
 _atom_site_label
 _atom_site_symmetry_multiplicity
 _atom_site_fract_x
 _atom_site_fract_y
 _atom_site_fract_z
 _atom_site_occupancy
  Mn  Mn0  1  0.72884000  0.52239000  0.24573000  1.0
  Mn  Mn1  1  0.48279000  0.75424000  0.27645000  1.0
  Mn  Mn2  1  0.20611000  0.72349000  0.47753000  1.0
  Mn  Mn3  1  0.27119000  0.47761000  0.75420000  1.0
  Mn  Mn4  1  0.51733000  0.24583000  0.72364000  1.0
  Mn  Mn5  1  0.79385000  0.27654000  0.52244000  1.0
  Mn  Mn6  1  0.49997000  0.49991000  0.49990000  1.0
  Mn  Mn7  1  0.99995000  0.49993000  0.99998000  1.0
  Mn  Mn8  1  0.00006000  0.00007000  0.50011000  1.0
  H  H9  1  0.92510000  0.70288000  0.43437000  1.0
  H  H10  1  0.49090000  0.56575000  0.26844000  1.0
  H  H11  1  0.22235000  0.73163000  0.29714000  1.0
  H  H12  1  0.07490000  0.29713000  0.56563000  1.0
  H  H13  1  0.50911000  0.43424000  0.73155000  1.0
  H  H14  1  0.77765000  0.26836000  0.70284000  1.0
  H  H15  1  0.83092000  0.73536000  0.40322000  1.0
  H  H16  1  0.42776000  0.59675000  0.33196000  1.0
  H  H17  1  0.09569000  0.66804000  0.26455000  1.0
  H  H18  1  0.16907000  0.26464000  0.59678000  1.0
  H  H19  1  0.57225000  0.40324000  0.66803000  1.0
  H  H20  1  0.90431000  0.33196000  0.73542000  1.0
  H  H21  1  0.67298000  0.62135000  0.12260000  1.0
  H  H22  1  0.55023000  0.87721000  0.49862000  1.0
  H  H23  1  0.05164000  0.50148000  0.37867000  1.0
  H  H24  1  0.32705000  0.37864000  0.87740000  1.0
  H  H25  1  0.44979000  0.12280000  0.50137000  1.0
  H  H26  1  0.94837000  0.49855000  0.62134000  1.0
  H  H27  1  0.67682000  0.68264000  0.23593000  1.0
  H  H28  1  0.44064000  0.76391000  0.44649000  1.0
  H  H29  1  0.99427000  0.55348000  0.31719000  1.0
  H  H30  1  0.32316000  0.31734000  0.76405000  1.0
  H  H31  1  0.55936000  0.23610000  0.55352000  1.0
  H  H32  1  0.00572000  0.44652000  0.68279000  1.0
  H  H33  1  0.33616000  0.32764000  0.33948000  1.0
  H  H34  1  0.99650000  0.66046000  0.98821000  1.0
  H  H35  1  0.00843000  0.01198000  0.67236000  1.0
  H  H36  1  0.66387000  0.67240000  0.66056000  1.0
  H  H37  1  0.00348000  0.33946000  0.01180000  1.0
  H  H38  1  0.99162000  0.98807000  0.32777000  1.0
  H  H39  1  0.33127000  0.29487000  0.42477000  1.0
  H  H40  1  0.90634000  0.57531000  0.87014000  1.0
  H  H41  1  0.03592000  0.12994000  0.70502000  1.0
  H  H42  1  0.66869000  0.70508000  0.57521000  1.0
  H  H43  1  0.09365000  0.42468000  0.12986000  1.0
  H  H44  1  0.96409000  0.87010000  0.29509000  1.0
  H  H45  1  0.97103000  0.38534000  0.47242000  1.0
  H  H46  1  0.49813000  0.52774000  0.91267000  1.0
  H  H47  1  0.58536000  0.08708000  0.61508000  1.0
  H  H48  1  0.02897000  0.61468000  0.52757000  1.0
  H  H49  1  0.50188000  0.47226000  0.08731000  1.0
  H  H50  1  0.41465000  0.91293000  0.38491000  1.0
  H  H51  1  0.10707000  0.34520000  0.41656000  1.0
  H  H52  1  0.68997000  0.58335000  0.92825000  1.0
  H  H53  1  0.76166000  0.07152000  0.65522000  1.0
  H  H54  1  0.89292000  0.65481000  0.58345000  1.0
  H  H55  1  0.31004000  0.41665000  0.07175000  1.0
  H  H56  1  0.23835000  0.92849000  0.34478000  1.0
  H  H57  1  0.06849000  0.28258000  0.22710000  1.0
  H  H58  1  0.84108000  0.77269000  0.05529000  1.0
  H  H59  1  0.78577000  0.94442000  0.71752000  1.0
  H  H60  1  0.93151000  0.71742000  0.77291000  1.0
  H  H61  1  0.15893000  0.22731000  0.94471000  1.0
  H  H62  1  0.21422000  0.05559000  0.28248000  1.0
  H  H63  1  0.89023000  0.25825000  0.09341000  1.0
  H  H64  1  0.79680000  0.90649000  0.16495000  1.0
  H  H65  1  0.63183000  0.83476000  0.74160000  1.0
  H  H66  1  0.10977000  0.74174000  0.90658000  1.0
  H  H67  1  0.20320000  0.09350000  0.83506000  1.0
  H  H68  1  0.36815000  0.16524000  0.25839000  1.0
  H  H69  1  0.75520000  0.29886000  0.15041000  1.0
  H  H70  1  0.60484000  0.84971000  0.14866000  1.0
  H  H71  1  0.45613000  0.85105000  0.70101000  1.0
  H  H72  1  0.24480000  0.70114000  0.84956000  1.0
  H  H73  1  0.39516000  0.15028000  0.85134000  1.0
  H  H74  1  0.54386000  0.14895000  0.29898000  1.0
  C  C75  1  0.62797000  0.36253000  0.50244000  1.0
  C  C76  1  0.12541000  0.49741000  0.86013000  1.0
  C  C77  1  0.26535000  0.13986000  0.63745000  1.0
  C  C78  1  0.37204000  0.63749000  0.49760000  1.0
  C  C79  1  0.87458000  0.50257000  0.13984000  1.0
  C  C80  1  0.73466000  0.86015000  0.36255000  1.0
  C  C81  1  0.66780000  0.37608000  0.42686000  1.0
  C  C82  1  0.24079000  0.57304000  0.94916000  1.0
  C  C83  1  0.29159000  0.05071000  0.62398000  1.0
  C  C84  1  0.33220000  0.62394000  0.57316000  1.0
  C  C85  1  0.75921000  0.42694000  0.05081000  1.0
  C  C86  1  0.70840000  0.94929000  0.37601000  1.0
  C  C87  1  0.64482000  0.41656000  0.35703000  1.0
  C  C88  1  0.28759000  0.64298000  0.05941000  1.0
  C  C89  1  0.22811000  0.94047000  0.58372000  1.0
  C  C90  1  0.35520000  0.58347000  0.64299000  1.0
  C  C91  1  0.71240000  0.35699000  0.94057000  1.0
  C  C92  1  0.77187000  0.05953000  0.41629000  1.0
  C  C93  1  0.56551000  0.45739000  0.32662000  1.0
  C  C94  1  0.23862000  0.67344000  0.13052000  1.0
  C  C95  1  0.10799000  0.86937000  0.54297000  1.0
  C  C96  1  0.43452000  0.54264000  0.67338000  1.0
  C  C97  1  0.76136000  0.32651000  0.86945000  1.0
  C  C98  1  0.89198000  0.13063000  0.45704000  1.0
  C  C99  1  0.77333000  0.36844000  0.34844000  1.0
  C  C100  1  0.42473000  0.65171000  0.01998000  1.0
  C  C101  1  0.40464000  0.97978000  0.63166000  1.0
  C  C102  1  0.22665000  0.63155000  0.65155000  1.0
  C  C103  1  0.57525000  0.34828000  0.98000000  1.0
  C  C104  1  0.59534000  0.02022000  0.36833000  1.0
  C  C105  1  0.85387000  0.34497000  0.31520000  1.0
  C  C106  1  0.53845000  0.68493000  0.02970000  1.0
  C  C107  1  0.50862000  0.97001000  0.65518000  1.0
  C  C108  1  0.14612000  0.65504000  0.68479000  1.0
  C  C109  1  0.46153000  0.31505000  0.97028000  1.0
  C  C110  1  0.49136000  0.02999000  0.34480000  1.0
  C  C111  1  0.95350000  0.35732000  0.38944000  1.0
  C  C112  1  0.56372000  0.61069000  0.96768000  1.0
  C  C113  1  0.59592000  0.03205000  0.64302000  1.0
  C  C114  1  0.04650000  0.64270000  0.61056000  1.0
  C  C115  1  0.43628000  0.38931000  0.03232000  1.0
  C  C116  1  0.40408000  0.96796000  0.35698000  1.0
  C  C117  1  0.03022000  0.33492000  0.35780000  1.0
  C  C118  1  0.67201000  0.64217000  0.97682000  1.0
  C  C119  1  0.69507000  0.02290000  0.66539000  1.0
  C  C120  1  0.96977000  0.66509000  0.64220000  1.0
  C  C121  1  0.32800000  0.35782000  0.02317000  1.0
  C  C122  1  0.30491000  0.97710000  0.33460000  1.0
  C  C123  1  0.00814000  0.29966000  0.25128000  1.0
  C  C124  1  0.75659000  0.74866000  0.04820000  1.0
  C  C125  1  0.70833000  0.95152000  0.70051000  1.0
  C  C126  1  0.99187000  0.70035000  0.74873000  1.0
  C  C127  1  0.24342000  0.25134000  0.95181000  1.0
  C  C128  1  0.29166000  0.04848000  0.29949000  1.0
  C  C129  1  0.90911000  0.28677000  0.17697000  1.0
  C  C130  1  0.73199000  0.82298000  0.10976000  1.0
  C  C131  1  0.62216000  0.88994000  0.71323000  1.0
  C  C132  1  0.09089000  0.71324000  0.82302000  1.0
  C  C133  1  0.26801000  0.17701000  0.89024000  1.0
  C  C134  1  0.37783000  0.11007000  0.28676000  1.0
  C  C135  1  0.83252000  0.30931000  0.20848000  1.0
  C  C136  1  0.62397000  0.79161000  0.10091000  1.0
  C  C137  1  0.52300000  0.89884000  0.69070000  1.0
  C  C138  1  0.16749000  0.69070000  0.79152000  1.0
  C  C139  1  0.37604000  0.20839000  0.89909000  1.0
  C  C140  1  0.47700000  0.10118000  0.30930000  1.0
  N  N141  1  0.71268000  0.41234000  0.30912000  1.0
  N  N142  1  0.40337000  0.69103000  0.10314000  1.0
  N  N143  1  0.30014000  0.89668000  0.58793000  1.0
  N  N144  1  0.28731000  0.58766000  0.69087000  1.0
  N  N145  1  0.59662000  0.30895000  0.89684000  1.0
  N  N146  1  0.69985000  0.10333000  0.41209000  1.0
  N  N147  1  0.74880000  0.34582000  0.41980000  1.0
  N  N148  1  0.32886000  0.58022000  0.92601000  1.0
  N  N149  1  0.40279000  0.07381000  0.65420000  1.0
  N  N150  1  0.25119000  0.65418000  0.58019000  1.0
  N  N151  1  0.67113000  0.41978000  0.07397000  1.0
  N  N152  1  0.59718000  0.92618000  0.34576000  1.0
  O  O153  1  0.56526000  0.40023000  0.52768000  1.0
  O  O154  1  0.03753000  0.47224000  0.87266000  1.0
  O  O155  1  0.16496000  0.12744000  0.59976000  1.0
  O  O156  1  0.43473000  0.59977000  0.47237000  1.0
  O  O157  1  0.96247000  0.52771000  0.12733000  1.0
  O  O158  1  0.83506000  0.87260000  0.40029000  1.0
  O  O159  1  0.66069000  0.30951000  0.54364000  1.0
  O  O160  1  0.11685000  0.45607000  0.76592000  1.0
  O  O161  1  0.35106000  0.23404000  0.69034000  1.0
  O  O162  1  0.33934000  0.69051000  0.45640000  1.0
  O  O163  1  0.88314000  0.54392000  0.23406000  1.0
  O  O164  1  0.64896000  0.76597000  0.30962000  1.0
  O  O165  1  0.48241000  0.43869000  0.34746000  1.0
  O  O166  1  0.13468000  0.65258000  0.09097000  1.0
  O  O167  1  0.04365000  0.90898000  0.56177000  1.0
  O  O168  1  0.51761000  0.56134000  0.65253000  1.0
  O  O169  1  0.86530000  0.34734000  0.90900000  1.0
  O  O170  1  0.95634000  0.09102000  0.43828000  1.0
  O  O171  1  0.58287000  0.51015000  0.27852000  1.0
  O  O172  1  0.30406000  0.72161000  0.23138000  1.0
  O  O173  1  0.07251000  0.76849000  0.49012000  1.0
  O  O174  1  0.41716000  0.48987000  0.72148000  1.0
  O  O175  1  0.69591000  0.27836000  0.76859000  1.0
  O  O176  1  0.92743000  0.23150000  0.50984000  1.0
  O  O177  1  0.84142000  0.67429000  0.40391000  1.0
  O  O178  1  0.43751000  0.59605000  0.27020000  1.0
  O  O179  1  0.16719000  0.72982000  0.32564000  1.0
  O  O180  1  0.15858000  0.32570000  0.59606000  1.0
  O  O181  1  0.56250000  0.40394000  0.72979000  1.0
  O  O182  1  0.83282000  0.27018000  0.67434000  1.0
  O  O183  1  0.70015000  0.63271000  0.19527000  1.0
  O  O184  1  0.50457000  0.80461000  0.43718000  1.0
  O  O185  1  0.06751000  0.56263000  0.36703000  1.0
  O  O186  1  0.29990000  0.36732000  0.80474000  1.0
  O  O187  1  0.49544000  0.19539000  0.56282000  1.0
  O  O188  1  0.93248000  0.43738000  0.63296000  1.0
  O  O189  1  0.32207000  0.34529000  0.40130000  1.0
  O  O190  1  0.92056000  0.59871000  0.94399000  1.0
  O  O191  1  0.97647000  0.05601000  0.65465000  1.0
  O  O192  1  0.67792000  0.65470000  0.59872000  1.0
  O  O193  1  0.07942000  0.40125000  0.05601000  1.0
  O  O194  1  0.02356000  0.94402000  0.34546000  1.0
