# generated using pymatgen
data_ZnH12C18SN2O7
_symmetry_space_group_name_H-M   'P 1'
_cell_length_a   9.72270000
_cell_length_b   16.30580000
_cell_length_c   19.85230000
_cell_angle_alpha   89.99970000
_cell_angle_beta   91.72200000
_cell_angle_gamma   89.99980000
_symmetry_Int_Tables_number   1
_chemical_formula_structural   ZnH12C18SN2O7
_chemical_formula_sum   'Zn4 H48 C72 S4 N8 O28'
_cell_volume   3145.89086599
_cell_formula_units_Z   4
loop_
 _symmetry_equiv_pos_site_id
 _symmetry_equiv_pos_as_xyz
  1  'x, y, z'
loop_
 _atom_site_type_symbol
 _atom_site_label
 _atom_site_symmetry_multiplicity
 _atom_site_fract_x
 _atom_site_fract_y
 _atom_site_fract_z
 _atom_site_occupancy
  Zn  Zn0  1  0.41945000  0.07948000  0.06033000  1.0
  Zn  Zn1  1  0.58055000  0.57948000  0.43967000  1.0
  Zn  Zn2  1  0.58056000  0.92052000  0.93967000  1.0
  Zn  Zn3  1  0.41944000  0.42052000  0.56033000  1.0
  H  H4  1  0.02986000  0.11308000  0.76459000  1.0
  H  H5  1  0.97014000  0.61308000  0.73542000  1.0
  H  H6  1  0.97015000  0.88692000  0.23541000  1.0
  H  H7  1  0.02984000  0.38692000  0.26458000  1.0
  H  H8  1  0.29081000  0.90998000  0.26663000  1.0
  H  H9  1  0.70918000  0.40998000  0.23337000  1.0
  H  H10  1  0.70918000  0.09002000  0.73337000  1.0
  H  H11  1  0.29081000  0.59002000  0.76663000  1.0
  H  H12  1  0.15949000  0.16780000  0.91113000  1.0
  H  H13  1  0.84051000  0.66780000  0.58887000  1.0
  H  H14  1  0.84052000  0.83220000  0.08887000  1.0
  H  H15  1  0.15949000  0.33221000  0.41113000  1.0
  H  H16  1  0.63573000  0.95791000  0.09463000  1.0
  H  H17  1  0.36427000  0.45791000  0.40537000  1.0
  H  H18  1  0.36427000  0.04209000  0.90538000  1.0
  H  H19  1  0.63572000  0.54209000  0.59463000  1.0
  H  H20  1  0.25686000  0.01301000  0.17360000  1.0
  H  H21  1  0.74314000  0.51301000  0.32640000  1.0
  H  H22  1  0.74314000  0.98699000  0.82640000  1.0
  H  H23  1  0.25685000  0.48699000  0.67360000  1.0
  H  H24  1  0.68270000  0.84997000  0.18168000  1.0
  H  H25  1  0.31730000  0.34997000  0.31832000  1.0
  H  H26  1  0.31730000  0.15003000  0.81832000  1.0
  H  H27  1  0.68270000  0.65002000  0.68168000  1.0
  H  H28  1  0.72482000  0.21330000  0.87216000  1.0
  H  H29  1  0.27518000  0.71330000  0.62783000  1.0
  H  H30  1  0.27519000  0.78670000  0.12783000  1.0
  H  H31  1  0.72481000  0.28671000  0.37217000  1.0
  H  H32  1  0.86164000  0.08218000  0.05016000  1.0
  H  H33  1  0.13835000  0.58218000  0.44984000  1.0
  H  H34  1  0.13837000  0.91782000  0.94984000  1.0
  H  H35  1  0.86164000  0.41782000  0.55016000  1.0
  H  H36  1  0.29970000  0.76989000  0.28699000  1.0
  H  H37  1  0.70030000  0.26989000  0.21301000  1.0
  H  H38  1  0.70030000  0.23011000  0.71301000  1.0
  H  H39  1  0.29970000  0.73011000  0.78700000  1.0
  H  H40  1  0.73638000  0.82350000  0.29376000  1.0
  H  H41  1  0.26362000  0.32350000  0.20624000  1.0
  H  H42  1  0.26362000  0.17649000  0.70624000  1.0
  H  H43  1  0.73638000  0.67649000  0.79376000  1.0
  H  H44  1  0.34827000  0.65912000  0.37026000  1.0
  H  H45  1  0.65174000  0.15912000  0.12974000  1.0
  H  H46  1  0.65173000  0.34088000  0.62974000  1.0
  H  H47  1  0.34827000  0.84088000  0.87026000  1.0
  H  H48  1  0.76705000  0.70700000  0.37387000  1.0
  H  H49  1  0.23295000  0.20699000  0.12613000  1.0
  H  H50  1  0.23295000  0.29300000  0.62613000  1.0
  H  H51  1  0.76706000  0.79300000  0.87387000  1.0
  C  C52  1  0.94495000  0.19108000  0.88386000  1.0
  C  C53  1  0.05505000  0.69107000  0.61614000  1.0
  C  C54  1  0.05506000  0.80892000  0.11614000  1.0
  C  C55  1  0.94495000  0.30893000  0.38386000  1.0
  C  C56  1  0.13808000  0.09420000  0.03201000  1.0
  C  C57  1  0.86192000  0.59419000  0.46799000  1.0
  C  C58  1  0.86193000  0.90581000  0.96799000  1.0
  C  C59  1  0.13808000  0.40581000  0.53201000  1.0
  C  C60  1  0.02212000  0.12255000  0.98565000  1.0
  C  C61  1  0.97788000  0.62255000  0.51435000  1.0
  C  C62  1  0.97789000  0.87745000  0.01435000  1.0
  C  C63  1  0.02212000  0.37745000  0.48565000  1.0
  C  C64  1  0.49197000  0.87248000  0.23270000  1.0
  C  C65  1  0.50803000  0.37248000  0.26730000  1.0
  C  C66  1  0.50803000  0.12752000  0.76731000  1.0
  C  C67  1  0.49196000  0.62752000  0.73270000  1.0
  C  C68  1  0.37047000  0.91901000  0.22994000  1.0
  C  C69  1  0.62953000  0.41901000  0.27006000  1.0
  C  C70  1  0.62953000  0.08099000  0.77006000  1.0
  C  C71  1  0.37047000  0.58099000  0.72994000  1.0
  C  C72  1  0.05259000  0.16070000  0.92477000  1.0
  C  C73  1  0.94741000  0.66070000  0.57523000  1.0
  C  C74  1  0.94742000  0.83930000  0.07523000  1.0
  C  C75  1  0.05259000  0.33930000  0.42477000  1.0
  C  C76  1  0.56351000  0.94616000  0.13449000  1.0
  C  C77  1  0.43649000  0.44616000  0.36551000  1.0
  C  C78  1  0.43649000  0.05384000  0.86551000  1.0
  C  C79  1  0.56351000  0.55384000  0.63449000  1.0
  C  C80  1  0.35091000  0.97668000  0.17912000  1.0
  C  C81  1  0.64909000  0.47668000  0.32088000  1.0
  C  C82  1  0.64909000  0.02332000  0.82088000  1.0
  C  C83  1  0.35090000  0.52332000  0.67912000  1.0
  C  C84  1  0.58975000  0.88718000  0.18365000  1.0
  C  C85  1  0.41024000  0.38718000  0.31635000  1.0
  C  C86  1  0.41024000  0.11282000  0.81636000  1.0
  C  C87  1  0.58975000  0.61282000  0.68365000  1.0
  C  C88  1  0.80802000  0.18633000  0.90274000  1.0
  C  C89  1  0.19197000  0.68633000  0.59725000  1.0
  C  C90  1  0.19198000  0.81367000  0.09725000  1.0
  C  C91  1  0.80802000  0.31367000  0.40275000  1.0
  C  C92  1  0.88495000  0.11378000  0.00351000  1.0
  C  C93  1  0.11505000  0.61378000  0.49648000  1.0
  C  C94  1  0.11506000  0.88622000  0.99648000  1.0
  C  C95  1  0.88494000  0.38622000  0.50352000  1.0
  C  C96  1  0.77808000  0.14603000  0.96277000  1.0
  C  C97  1  0.22192000  0.64603000  0.53723000  1.0
  C  C98  1  0.22193000  0.85397000  0.03723000  1.0
  C  C99  1  0.77807000  0.35397000  0.46277000  1.0
  C  C100  1  0.63012000  0.13958000  0.98280000  1.0
  C  C101  1  0.36987000  0.63958000  0.51720000  1.0
  C  C102  1  0.36988000  0.86042000  0.01720000  1.0
  C  C103  1  0.63012000  0.36042000  0.48280000  1.0
  C  C104  1  0.40451000  0.76058000  0.30637000  1.0
  C  C105  1  0.59549000  0.26057000  0.19364000  1.0
  C  C106  1  0.59549000  0.23943000  0.69364000  1.0
  C  C107  1  0.40451000  0.73942000  0.80637000  1.0
  C  C108  1  0.51465000  0.80771000  0.28369000  1.0
  C  C109  1  0.48535000  0.30771000  0.21631000  1.0
  C  C110  1  0.48535000  0.19229000  0.71631000  1.0
  C  C111  1  0.51465000  0.69229000  0.78369000  1.0
  C  C112  1  0.64698000  0.78904000  0.30928000  1.0
  C  C113  1  0.35302000  0.28904000  0.19072000  1.0
  C  C114  1  0.35302000  0.21096000  0.69073000  1.0
  C  C115  1  0.64698000  0.71096000  0.80928000  1.0
  C  C116  1  0.43096000  0.69764000  0.35194000  1.0
  C  C117  1  0.56905000  0.19764000  0.14807000  1.0
  C  C118  1  0.56904000  0.30236000  0.64807000  1.0
  C  C119  1  0.43096000  0.80236000  0.85194000  1.0
  C  C120  1  0.66516000  0.72475000  0.35452000  1.0
  C  C121  1  0.33485000  0.22475000  0.14548000  1.0
  C  C122  1  0.33484000  0.27525000  0.64548000  1.0
  C  C123  1  0.66516000  0.77524000  0.85452000  1.0
  S  S124  1  0.98491000  0.23326000  0.80470000  1.0
  S  S125  1  0.01510000  0.73326000  0.69529000  1.0
  S  S126  1  0.01510000  0.76674000  0.19529000  1.0
  S  S127  1  0.98490000  0.26675000  0.30471000  1.0
  N  N128  1  0.44594000  0.99004000  0.13220000  1.0
  N  N129  1  0.55406000  0.49004000  0.36779000  1.0
  N  N130  1  0.55406000  0.00996000  0.86780000  1.0
  N  N131  1  0.44594000  0.50997000  0.63220000  1.0
  N  N132  1  0.55876000  0.67964000  0.37549000  1.0
  N  N133  1  0.44124000  0.17964000  0.12451000  1.0
  N  N134  1  0.44124000  0.32036000  0.62451000  1.0
  N  N135  1  0.55877000  0.82035000  0.87549000  1.0
  O  O136  1  0.25679000  0.09316000  0.00352000  1.0
  O  O137  1  0.74321000  0.59316000  0.49649000  1.0
  O  O138  1  0.74322000  0.90684000  0.99648000  1.0
  O  O139  1  0.25678000  0.40684000  0.50352000  1.0
  O  O140  1  0.12910000  0.25385000  0.80471000  1.0
  O  O141  1  0.87091000  0.75385000  0.69529000  1.0
  O  O142  1  0.87091000  0.74615000  0.19529000  1.0
  O  O143  1  0.12908000  0.24615000  0.30470000  1.0
  O  O144  1  0.88108000  0.29040000  0.78210000  1.0
  O  O145  1  0.11892000  0.79040000  0.71789000  1.0
  O  O146  1  0.11893000  0.70960000  0.21789000  1.0
  O  O147  1  0.88106000  0.20960000  0.28211000  1.0
  O  O148  1  0.60460000  0.07749000  0.02235000  1.0
  O  O149  1  0.39540000  0.57749000  0.47765000  1.0
  O  O150  1  0.39541000  0.92251000  0.97765000  1.0
  O  O151  1  0.60460000  0.42251000  0.52235000  1.0
  O  O152  1  0.96063000  0.15510000  0.75383000  1.0
  O  O153  1  0.03938000  0.65509000  0.74616000  1.0
  O  O154  1  0.03939000  0.84490000  0.24616000  1.0
  O  O155  1  0.96060000  0.34491000  0.25383000  1.0
  O  O156  1  0.11713000  0.07694000  0.09208000  1.0
  O  O157  1  0.88287000  0.57694000  0.40792000  1.0
  O  O158  1  0.88288000  0.92306000  0.90792000  1.0
  O  O159  1  0.11713000  0.42306000  0.59208000  1.0
  O  O160  1  0.54410000  0.19049000  0.96187000  1.0
  O  O161  1  0.45590000  0.69049000  0.53813000  1.0
  O  O162  1  0.45591000  0.80951000  0.03813000  1.0
  O  O163  1  0.54410000  0.30951000  0.46187000  1.0
