# generated using pymatgen
data_ZnH20C23N2O5
_symmetry_space_group_name_H-M   'P 1'
_cell_length_a   9.56413000
_cell_length_b   11.45290000
_cell_length_c   11.56260000
_cell_angle_alpha   100.50400000
_cell_angle_beta   100.80900000
_cell_angle_gamma   113.63000000
_symmetry_Int_Tables_number   1
_chemical_formula_structural   ZnH20C23N2O5
_chemical_formula_sum   'Zn2 H40 C46 N4 O10'
_cell_volume   1092.10412770
_cell_formula_units_Z   2
loop_
 _symmetry_equiv_pos_site_id
 _symmetry_equiv_pos_as_xyz
  1  'x, y, z'
loop_
 _atom_site_type_symbol
 _atom_site_label
 _atom_site_symmetry_multiplicity
 _atom_site_fract_x
 _atom_site_fract_y
 _atom_site_fract_z
 _atom_site_occupancy
  Zn  Zn0  1  0.18649000  0.87998000  0.11873000  1.0
  Zn  Zn1  1  0.81351000  0.12002000  0.88127000  1.0
  H  H2  1  0.50774000  0.10647000  0.26070000  1.0
  H  H3  1  0.49226000  0.89353000  0.73930000  1.0
  H  H4  1  0.73029000  0.88707000  0.07564000  1.0
  H  H5  1  0.26971000  0.11292000  0.92435000  1.0
  H  H6  1  0.04133000  0.04693000  0.20252000  1.0
  H  H7  1  0.95867000  0.95307000  0.79748000  1.0
  H  H8  1  0.62708000  0.50723000  0.84396000  1.0
  H  H9  1  0.37293000  0.49277000  0.15604000  1.0
  H  H10  1  0.24334000  0.60767000  0.87986000  1.0
  H  H11  1  0.75666000  0.39233000  0.12014000  1.0
  H  H12  1  0.12484000  0.27259000  0.34332000  1.0
  H  H13  1  0.87516000  0.72741000  0.65668000  1.0
  H  H14  1  0.61341000  0.33524000  0.40354000  1.0
  H  H15  1  0.38659000  0.66476000  0.59646000  1.0
  H  H16  1  0.32580000  0.47656000  0.48056000  1.0
  H  H17  1  0.67420000  0.52344000  0.51944000  1.0
  H  H18  1  0.02975000  0.43568000  0.20970000  1.0
  H  H19  1  0.97025000  0.56432000  0.79030000  1.0
  H  H20  1  0.23600000  0.91481000  0.39556000  1.0
  H  H21  1  0.76400000  0.08519000  0.60444000  1.0
  H  H22  1  0.95804000  0.38381000  0.38718000  1.0
  H  H23  1  0.04196000  0.61620000  0.61282000  1.0
  H  H24  1  0.11881000  0.59808000  0.09412000  1.0
  H  H25  1  0.88119000  0.40192000  0.90588000  1.0
  H  H26  1  0.41650000  0.30791000  0.80684000  1.0
  H  H27  1  0.58350000  0.69209000  0.19315000  1.0
  H  H28  1  0.42868000  0.35696000  0.66944000  1.0
  H  H29  1  0.57131000  0.64304000  0.33056000  1.0
  H  H30  1  0.15190000  0.76721000  0.52593000  1.0
  H  H31  1  0.84810000  0.23279000  0.47407000  1.0
  H  H32  1  0.13070000  0.21860000  0.58228000  1.0
  H  H33  1  0.86930000  0.78140000  0.41772000  1.0
  H  H34  1  0.12605000  0.16762000  0.71766000  1.0
  H  H35  1  0.87395000  0.83238000  0.28234000  1.0
  H  H36  1  0.31063000  0.11505000  0.53833000  1.0
  H  H37  1  0.68937000  0.88495000  0.46167000  1.0
  H  H38  1  0.13025000  0.99513000  0.55140000  1.0
  H  H39  1  0.86975000  0.00487000  0.44860000  1.0
  H  H40  1  0.30960000  0.06540000  0.67552000  1.0
  H  H41  1  0.69041000  0.93460000  0.32448000  1.0
  C  C42  1  0.42499000  0.84706000  0.04946000  1.0
  C  C43  1  0.57500000  0.15293000  0.95054000  1.0
  C  C44  1  0.42925000  0.14884000  0.28439000  1.0
  C  C45  1  0.57075000  0.85116000  0.71561000  1.0
  C  C46  1  0.07521000  0.58513000  0.37853000  1.0
  C  C47  1  0.92479000  0.41488000  0.62147000  1.0
  C  C48  1  0.64409000  0.79140000  0.01127000  1.0
  C  C49  1  0.35591000  0.20860000  0.98873000  1.0
  C  C50  1  0.86652000  0.73053000  0.99436000  1.0
  C  C51  1  0.13348000  0.26946000  0.00564000  1.0
  C  C52  1  0.42020000  0.54329000  0.84853000  1.0
  C  C53  1  0.57980000  0.45671000  0.15147000  1.0
  C  C54  1  0.48132000  0.75758000  0.98243000  1.0
  C  C55  1  0.51868000  0.24242000  0.01757000  1.0
  C  C56  1  0.16613000  0.11432000  0.25141000  1.0
  C  C57  1  0.83387000  0.88568000  0.74859000  1.0
  C  C58  1  0.58239000  0.57578000  0.87921000  1.0
  C  C59  1  0.41761000  0.42422000  0.12079000  1.0
  C  C60  1  0.69388000  0.70027000  0.96001000  1.0
  C  C61  1  0.30612000  0.29973000  0.03999000  1.0
  C  C62  1  0.37690000  0.32353000  0.38807000  1.0
  C  C63  1  0.62310000  0.67647000  0.61194000  1.0
  C  C64  1  0.36991000  0.63454000  0.90033000  1.0
  C  C65  1  0.63009000  0.36546000  0.09967000  1.0
  C  C66  1  0.21405000  0.23944000  0.32923000  1.0
  C  C67  1  0.78595000  0.76056000  0.67077000  1.0
  C  C68  1  0.48530000  0.27505000  0.36300000  1.0
  C  C69  1  0.51470000  0.72495000  0.63700000  1.0
  C  C70  1  0.42424000  0.45413000  0.46958000  1.0
  C  C71  1  0.57576000  0.54587000  0.53042000  1.0
  C  C72  1  0.07354000  0.54076000  0.25643000  1.0
  C  C73  1  0.92646000  0.45924000  0.74357000  1.0
  C  C74  1  0.18915000  0.80763000  0.35827000  1.0
  C  C75  1  0.81085000  0.19237000  0.64173000  1.0
  C  C76  1  0.00624000  0.48716000  0.44220000  1.0
  C  C77  1  0.99377000  0.51284000  0.55781000  1.0
  C  C78  1  0.12446000  0.63150000  0.18999000  1.0
  C  C79  1  0.87554000  0.36850000  0.81001000  1.0
  C  C80  1  0.34987000  0.32394000  0.72771000  1.0
  C  C81  1  0.65013000  0.67606000  0.27229000  1.0
  C  C82  1  0.14113000  0.72376000  0.43068000  1.0
  C  C83  1  0.85887000  0.27625000  0.56932000  1.0
  C  C84  1  0.20001000  0.19749000  0.65588000  1.0
  C  C85  1  0.79999000  0.80251000  0.34412000  1.0
  C  C86  1  0.23990000  0.08662000  0.60247000  1.0
  C  C87  1  0.76010000  0.91338000  0.39753000  1.0
  N  N88  1  0.27196000  0.06912000  0.23017000  1.0
  N  N89  1  0.72804000  0.93088000  0.76983000  1.0
  N  N90  1  0.17740000  0.76300000  0.23874000  1.0
  N  N91  1  0.82260000  0.23700000  0.76125000  1.0
  O  O92  1  0.27936000  0.82379000  0.99836000  1.0
  O  O93  1  0.72063000  0.17621000  0.00164000  1.0
  O  O94  1  0.96474000  0.85142000  0.06189000  1.0
  O  O95  1  0.03526000  0.14858000  0.93811000  1.0
  O  O96  1  0.51218000  0.93086000  0.15071000  1.0
  O  O97  1  0.48782000  0.06914000  0.84929000  1.0
  O  O98  1  0.30279000  0.42467000  0.77023000  1.0
  O  O99  1  0.69720000  0.57533000  0.22977000  1.0
  O  O100  1  0.90802000  0.64264000  0.95990000  1.0
  O  O101  1  0.09198000  0.35736000  0.04010000  1.0
