# generated using pymatgen
data_BaH26C14S2N2O7
_symmetry_space_group_name_H-M   'P 1'
_cell_length_a   7.77230000
_cell_length_b   11.50970000
_cell_length_c   13.15980000
_cell_angle_alpha   82.02190000
_cell_angle_beta   80.95950000
_cell_angle_gamma   76.54530000
_symmetry_Int_Tables_number   1
_chemical_formula_structural   BaH26C14S2N2O7
_chemical_formula_sum   'Ba2 H52 C28 S4 N4 O14'
_cell_volume   1124.27771985
_cell_formula_units_Z   2
loop_
 _symmetry_equiv_pos_site_id
 _symmetry_equiv_pos_as_xyz
  1  'x, y, z'
loop_
 _atom_site_type_symbol
 _atom_site_label
 _atom_site_symmetry_multiplicity
 _atom_site_fract_x
 _atom_site_fract_y
 _atom_site_fract_z
 _atom_site_occupancy
  Ba  Ba0  1  0.30241000  0.32040000  0.26958000  1.0
  Ba  Ba1  1  0.69760000  0.67960000  0.73042000  1.0
  H  H2  1  0.14070000  0.30504000  0.02278000  1.0
  H  H3  1  0.85929000  0.69496000  0.97722000  1.0
  H  H4  1  0.09936000  0.41370000  0.09203000  1.0
  H  H5  1  0.90063000  0.58631000  0.90797000  1.0
  H  H6  1  0.14772000  0.11298000  0.60060000  1.0
  H  H7  1  0.85228000  0.88702000  0.39940000  1.0
  H  H8  1  0.00315000  0.21699000  0.51966000  1.0
  H  H9  1  0.99686000  0.78300000  0.48035000  1.0
  H  H10  1  0.13673000  0.31633000  0.63834000  1.0
  H  H11  1  0.86328000  0.68367000  0.36166000  1.0
  H  H12  1  0.35446000  0.25502000  0.57598000  1.0
  H  H13  1  0.64554000  0.74498000  0.42402000  1.0
  H  H14  1  0.37702000  0.45563000  0.54225000  1.0
  H  H15  1  0.62299000  0.54436000  0.45775000  1.0
  H  H16  1  0.14798000  0.52813000  0.57204000  1.0
  H  H17  1  0.85202000  0.47187000  0.42797000  1.0
  H  H18  1  0.13959000  0.60315000  0.38312000  1.0
  H  H19  1  0.86041000  0.39685000  0.61688000  1.0
  H  H20  1  0.29857000  0.65426000  0.44172000  1.0
  H  H21  1  0.70143000  0.34574000  0.55828000  1.0
  H  H22  1  0.50113000  0.67558000  0.29080000  1.0
  H  H23  1  0.49888000  0.32441000  0.70920000  1.0
  H  H24  1  0.34400000  0.64568000  0.21649000  1.0
  H  H25  1  0.65600000  0.35433000  0.78352000  1.0
  H  H26  1  0.66279000  0.60291000  0.13052000  1.0
  H  H27  1  0.33722000  0.39709000  0.86948000  1.0
  H  H28  1  0.72201000  0.49230000  0.23591000  1.0
  H  H29  1  0.27799000  0.50770000  0.76409000  1.0
  H  H30  1  0.74018000  0.44956000  0.01238000  1.0
  H  H31  1  0.25981000  0.55044000  0.98762000  1.0
  H  H32  1  0.80841000  0.34407000  0.12093000  1.0
  H  H33  1  0.19158000  0.65593000  0.87907000  1.0
  H  H34  1  0.51305000  0.33347000  0.99435000  1.0
  H  H35  1  0.48694000  0.66653000  0.00565000  1.0
  H  H36  1  0.73966000  0.24761000  0.97879000  1.0
  H  H37  1  0.26033000  0.75240000  0.02120000  1.0
  H  H38  1  0.66314000  0.06325000  0.02920000  1.0
  H  H39  1  0.33685000  0.93675000  0.97080000  1.0
  H  H40  1  0.42818000  0.12827000  0.04573000  1.0
  H  H41  1  0.57182000  0.87173000  0.95427000  1.0
  H  H42  1  0.51248000  0.92908000  0.15329000  1.0
  H  H43  1  0.48752000  0.07093000  0.84671000  1.0
  H  H44  1  0.64864000  0.99309000  0.21775000  1.0
  H  H45  1  0.35135000  0.00691000  0.78226000  1.0
  H  H46  1  0.47775000  0.95756000  0.37501000  1.0
  H  H47  1  0.52224000  0.04244000  0.62499000  1.0
  H  H48  1  0.32334000  0.89871000  0.31954000  1.0
  H  H49  1  0.67665000  0.10129000  0.68045000  1.0
  H  H50  1  0.07843000  0.07224000  0.37789000  1.0
  H  H51  1  0.92156000  0.92776000  0.62211000  1.0
  H  H52  1  0.18284000  0.97504000  0.48127000  1.0
  H  H53  1  0.81716000  0.02496000  0.51872000  1.0
  C  C54  1  0.14253000  0.18547000  0.53581000  1.0
  C  C55  1  0.85748000  0.81453000  0.46419000  1.0
  C  C56  1  0.21230000  0.28635000  0.56486000  1.0
  C  C57  1  0.78770000  0.71365000  0.43514000  1.0
  C  C58  1  0.24795000  0.48525000  0.51168000  1.0
  C  C59  1  0.75205000  0.51475000  0.48832000  1.0
  C  C60  1  0.26510000  0.57474000  0.41769000  1.0
  C  C61  1  0.73490000  0.42526000  0.58231000  1.0
  C  C62  1  0.45757000  0.60414000  0.25985000  1.0
  C  C63  1  0.54244000  0.39586000  0.74015000  1.0
  C  C64  1  0.61223000  0.53811000  0.19107000  1.0
  C  C65  1  0.38777000  0.46189000  0.80893000  1.0
  C  C66  1  0.69607000  0.38675000  0.07694000  1.0
  C  C67  1  0.30392000  0.61326000  0.92306000  1.0
  C  C68  1  0.63094000  0.29273000  0.03400000  1.0
  C  C69  1  0.36905000  0.70727000  0.96600000  1.0
  C  C70  1  0.54988000  0.10346000  0.08462000  1.0
  C  C71  1  0.45012000  0.89654000  0.91538000  1.0
  C  C72  1  0.52844000  0.01352000  0.17795000  1.0
  C  C73  1  0.47156000  0.98648000  0.82205000  1.0
  C  C74  1  0.35322000  0.98175000  0.33899000  1.0
  C  C75  1  0.64677000  0.01825000  0.66100000  1.0
  C  C76  1  0.20246000  0.04114000  0.41378000  1.0
  C  C77  1  0.79754000  0.95886000  0.58622000  1.0
  C  C78  1  0.81878000  0.25585000  0.34441000  1.0
  C  C79  1  0.18123000  0.74415000  0.65559000  1.0
  C  C80  1  0.00495000  0.64109000  0.16216000  1.0
  C  C81  1  0.99504000  0.35891000  0.83785000  1.0
  S  S82  1  0.64663000  0.20040000  0.39759000  1.0
  S  S83  1  0.35338000  0.79960000  0.60240000  1.0
  S  S84  1  0.90605000  0.77633000  0.12044000  1.0
  S  S85  1  0.09395000  0.22368000  0.87956000  1.0
  N  N86  1  0.94675000  0.29447000  0.30843000  1.0
  N  N87  1  0.05328000  0.70554000  0.69156000  1.0
  N  N88  1  0.07807000  0.54245000  0.19241000  1.0
  N  N89  1  0.92192000  0.45756000  0.80760000  1.0
  O  O90  1  0.25344000  0.14137000  0.44569000  1.0
  O  O91  1  0.74657000  0.85863000  0.55431000  1.0
  O  O92  1  0.19530000  0.38343000  0.48362000  1.0
  O  O93  1  0.80470000  0.61657000  0.51638000  1.0
  O  O94  1  0.40495000  0.51991000  0.34314000  1.0
  O  O95  1  0.59506000  0.48009000  0.65686000  1.0
  O  O96  1  0.55267000  0.45126000  0.14448000  1.0
  O  O97  1  0.44732000  0.54874000  0.85552000  1.0
  O  O98  1  0.58522000  0.20717000  0.11840000  1.0
  O  O99  1  0.41478000  0.79283000  0.88160000  1.0
  O  O100  1  0.37529000  0.06241000  0.24701000  1.0
  O  O101  1  0.62471000  0.93759000  0.75299000  1.0
  O  O102  1  0.18921000  0.34284000  0.07156000  1.0
  O  O103  1  0.81079000  0.65716000  0.92845000  1.0
