# generated using pymatgen
data_CdH13C10(NO2)2
_symmetry_space_group_name_H-M   'P 1'
_cell_length_a   8.34827000
_cell_length_b   9.33221000
_cell_length_c   14.91250000
_cell_angle_alpha   100.97300000
_cell_angle_beta   89.99980000
_cell_angle_gamma   89.99970000
_symmetry_Int_Tables_number   1
_chemical_formula_structural   CdH13C10(NO2)2
_chemical_formula_sum   'Cd4 H52 C40 N8 O16'
_cell_volume   1140.55899496
_cell_formula_units_Z   4
loop_
 _symmetry_equiv_pos_site_id
 _symmetry_equiv_pos_as_xyz
  1  'x, y, z'
loop_
 _atom_site_type_symbol
 _atom_site_label
 _atom_site_symmetry_multiplicity
 _atom_site_fract_x
 _atom_site_fract_y
 _atom_site_fract_z
 _atom_site_occupancy
  Cd  Cd0  1  0.99347000  0.75001000  0.25000000  1.0
  Cd  Cd1  1  0.00653000  0.25000000  0.75000000  1.0
  Cd  Cd2  1  0.00000000  0.00000000  0.50000000  1.0
  Cd  Cd3  1  1.00000000  0.50000000  0.00000000  1.0
  H  H4  1  0.70525000  0.20122000  0.30523000  1.0
  H  H5  1  0.70525000  0.29878000  0.19477000  1.0
  H  H6  1  0.29475000  0.79878000  0.69477000  1.0
  H  H7  1  0.29475000  0.70122000  0.80523000  1.0
  H  H8  1  0.68322000  0.14625000  0.41259000  1.0
  H  H9  1  0.68323000  0.35375000  0.08741000  1.0
  H  H10  1  0.31677000  0.85375000  0.58741000  1.0
  H  H11  1  0.31677000  0.64625000  0.91259000  1.0
  H  H12  1  0.41937000  0.16841000  0.32575000  1.0
  H  H13  1  0.41938000  0.33159000  0.17425000  1.0
  H  H14  1  0.58063000  0.83159000  0.67425000  1.0
  H  H15  1  0.58062000  0.66841000  0.82575000  1.0
  H  H16  1  0.48501000  0.02148000  0.24132000  1.0
  H  H17  1  0.48500000  0.47852000  0.25868000  1.0
  H  H18  1  0.51499000  0.97852000  0.75868000  1.0
  H  H19  1  0.51500000  0.52147000  0.74132000  1.0
  H  H20  1  0.50810000  0.86579000  0.36453000  1.0
  H  H21  1  0.50810000  0.63421000  0.13547000  1.0
  H  H22  1  0.49190000  0.13421000  0.63547000  1.0
  H  H23  1  0.49190000  0.36579000  0.86453000  1.0
  H  H24  1  0.42918000  0.01158000  0.44406000  1.0
  H  H25  1  0.42917000  0.48842000  0.05594000  1.0
  H  H26  1  0.57083000  0.98842000  0.55594000  1.0
  H  H27  1  0.57082000  0.51158000  0.94406000  1.0
  H  H28  1  0.03146000  0.16920000  0.30982000  1.0
  H  H29  1  0.03146000  0.33080000  0.19018000  1.0
  H  H30  1  0.96853000  0.83080000  0.69018000  1.0
  H  H31  1  0.96854000  0.66919000  0.80982000  1.0
  H  H32  1  0.16557000  0.44790000  0.32545000  1.0
  H  H33  1  0.16557000  0.05210000  0.17455000  1.0
  H  H34  1  0.83443000  0.55210000  0.67455000  1.0
  H  H35  1  0.83443000  0.94790000  0.82545000  1.0
  H  H36  1  0.18177000  0.31789000  0.58212000  1.0
  H  H37  1  0.18177000  0.18211000  0.91788000  1.0
  H  H38  1  0.81823000  0.68210000  0.41788000  1.0
  H  H39  1  0.81823000  0.81789000  0.08212000  1.0
  H  H40  1  0.25584000  0.57221000  0.57931000  1.0
  H  H41  1  0.25585000  0.92779000  0.92069000  1.0
  H  H42  1  0.74415000  0.42779000  0.42069000  1.0
  H  H43  1  0.74415000  0.07222000  0.07930000  1.0
  H  H44  1  0.21260000  0.64672000  0.47997000  1.0
  H  H45  1  0.21260000  0.85328000  0.02003000  1.0
  H  H46  1  0.78740000  0.35328000  0.52003000  1.0
  H  H47  1  0.78740000  0.14672000  0.97997000  1.0
  H  H48  1  0.46505000  0.54100000  0.40658000  1.0
  H  H49  1  0.46505000  0.95900000  0.09342000  1.0
  H  H50  1  0.53495000  0.45900000  0.59342000  1.0
  H  H51  1  0.53495000  0.04100000  0.90658000  1.0
  H  H52  1  0.49752000  0.66727000  0.50861000  1.0
  H  H53  1  0.49752000  0.83273000  0.99139000  1.0
  H  H54  1  0.50248000  0.33273000  0.49139000  1.0
  H  H55  1  0.50248000  0.16727000  0.00861000  1.0
  C  C56  1  0.77966000  0.98314000  0.30561000  1.0
  C  C57  1  0.77967000  0.51686000  0.19439000  1.0
  C  C58  1  0.22034000  0.01686000  0.69439000  1.0
  C  C59  1  0.22034000  0.48314000  0.80561000  1.0
  C  C60  1  0.66899000  0.11090000  0.33848000  1.0
  C  C61  1  0.66899000  0.38910000  0.16152000  1.0
  C  C62  1  0.33101000  0.88910000  0.66152000  1.0
  C  C63  1  0.33101000  0.61090000  0.83848000  1.0
  C  C64  1  0.49400000  0.06942000  0.31439000  1.0
  C  C65  1  0.49400000  0.43058000  0.18561000  1.0
  C  C66  1  0.50599000  0.93058000  0.68561000  1.0
  C  C67  1  0.50600000  0.56942000  0.81439000  1.0
  C  C68  1  0.42947000  0.96238000  0.37102000  1.0
  C  C69  1  0.42947000  0.53762000  0.12898000  1.0
  C  C70  1  0.57054000  0.03762000  0.62898000  1.0
  C  C71  1  0.57053000  0.46238000  0.87102000  1.0
  C  C72  1  0.26295000  0.90384000  0.34605000  1.0
  C  C73  1  0.26295000  0.59616000  0.15395000  1.0
  C  C74  1  0.73705000  0.09616000  0.65395000  1.0
  C  C75  1  0.73705000  0.40384000  0.84605000  1.0
  C  C76  1  0.08105000  0.24137000  0.36872000  1.0
  C  C77  1  0.08105000  0.25864000  0.13128000  1.0
  C  C78  1  0.91895000  0.75864000  0.63128000  1.0
  C  C79  1  0.91895000  0.74136000  0.86872000  1.0
  C  C80  1  0.14663000  0.37814000  0.37513000  1.0
  C  C81  1  0.14663000  0.12187000  0.12487000  1.0
  C  C82  1  0.85337000  0.62187000  0.62487000  1.0
  C  C83  1  0.85337000  0.87813000  0.87513000  1.0
  C  C84  1  0.15762000  0.31172000  0.51007000  1.0
  C  C85  1  0.15762000  0.18829000  0.98993000  1.0
  C  C86  1  0.84238000  0.68828000  0.48992000  1.0
  C  C87  1  0.84238000  0.81171000  0.01008000  1.0
  C  C88  1  0.27320000  0.55773000  0.50510000  1.0
  C  C89  1  0.27320000  0.94227000  0.99490000  1.0
  C  C90  1  0.72680000  0.44227000  0.49490000  1.0
  C  C91  1  0.72680000  0.05773000  0.00510000  1.0
  C  C92  1  0.45132000  0.55708000  0.48130000  1.0
  C  C93  1  0.45132000  0.94292000  0.01870000  1.0
  C  C94  1  0.54868000  0.44292000  0.51870000  1.0
  C  C95  1  0.54868000  0.05708000  0.98130000  1.0
  N  N96  1  0.08875000  0.20108000  0.45320000  1.0
  N  N97  1  0.08876000  0.29893000  0.04680000  1.0
  N  N98  1  0.91125000  0.79893000  0.54680000  1.0
  N  N99  1  0.91125000  0.70107000  0.95320000  1.0
  N  N100  1  0.19351000  0.42073000  0.46514000  1.0
  N  N101  1  0.19351000  0.07927000  0.03486000  1.0
  N  N102  1  0.80649000  0.57927000  0.53486000  1.0
  N  N103  1  0.80649000  0.92073000  0.96514000  1.0
  O  O104  1  0.84355000  0.91617000  0.36471000  1.0
  O  O105  1  0.84356000  0.58383000  0.13529000  1.0
  O  O106  1  0.15645000  0.08383000  0.63529000  1.0
  O  O107  1  0.15644000  0.41618000  0.86471000  1.0
  O  O108  1  0.80490000  0.94212000  0.22084000  1.0
  O  O109  1  0.80490000  0.55788000  0.27916000  1.0
  O  O110  1  0.19510000  0.05788000  0.77916000  1.0
  O  O111  1  0.19511000  0.44212000  0.72084000  1.0
  O  O112  1  0.18723000  0.84505000  0.40432000  1.0
  O  O113  1  0.18722000  0.65495000  0.09568000  1.0
  O  O114  1  0.81277000  0.15495000  0.59568000  1.0
  O  O115  1  0.81277000  0.34505000  0.90433000  1.0
  O  O116  1  0.20725000  0.91143000  0.26755000  1.0
  O  O117  1  0.20725000  0.58857000  0.23245000  1.0
  O  O118  1  0.79276000  0.08857000  0.73245000  1.0
  O  O119  1  0.79275000  0.41143000  0.76755000  1.0
