# generated using pymatgen
data_TbH11(C8O5)2
_symmetry_space_group_name_H-M   'P 1'
_cell_length_a   8.66161000
_cell_length_b   9.61827000
_cell_length_c   10.22380000
_cell_angle_alpha   69.34820000
_cell_angle_beta   78.37180000
_cell_angle_gamma   77.43730000
_symmetry_Int_Tables_number   1
_chemical_formula_structural   TbH11(C8O5)2
_chemical_formula_sum   'Tb2 H22 C32 O20'
_cell_volume   770.62602980
_cell_formula_units_Z   2
loop_
 _symmetry_equiv_pos_site_id
 _symmetry_equiv_pos_as_xyz
  1  'x, y, z'
loop_
 _atom_site_type_symbol
 _atom_site_label
 _atom_site_symmetry_multiplicity
 _atom_site_fract_x
 _atom_site_fract_y
 _atom_site_fract_z
 _atom_site_occupancy
  Tb  Tb0  1  0.17191000  0.05169000  0.08552000  1.0
  Tb  Tb1  1  0.82809000  0.94831000  0.91448000  1.0
  H  H2  1  0.47302000  0.35864000  0.86105000  1.0
  H  H3  1  0.52697000  0.64138000  0.13895000  1.0
  H  H4  1  0.45482000  0.14629000  0.88108000  1.0
  H  H5  1  0.54518000  0.85372000  0.11892000  1.0
  H  H6  1  0.49679000  0.14174000  0.02396000  1.0
  H  H7  1  0.50320000  0.85827000  0.97603000  1.0
  H  H8  1  0.08927000  0.29255000  0.22277000  1.0
  H  H9  1  0.91073000  0.70745000  0.77723000  1.0
  H  H10  1  0.17459000  0.38124000  0.07491000  1.0
  H  H11  1  0.82541000  0.61876000  0.92508000  1.0
  H  H12  1  0.15153000  0.94139000  0.59430000  1.0
  H  H13  1  0.84846000  0.05859000  0.40570000  1.0
  H  H14  1  0.55063000  0.73513000  0.82620000  1.0
  H  H15  1  0.44936000  0.26486000  0.17380000  1.0
  H  H16  1  0.60215000  0.78175000  0.38518000  1.0
  H  H17  1  0.39788000  0.21828000  0.61481000  1.0
  H  H18  1  0.19759000  0.45170000  0.65575000  1.0
  H  H19  1  0.80242000  0.54829000  0.34425000  1.0
  H  H20  1  0.14340000  0.70703000  0.47702000  1.0
  H  H21  1  0.85661000  0.29296000  0.52298000  1.0
  H  H22  1  0.86676000  0.83373000  0.45074000  1.0
  H  H23  1  0.13325000  0.16627000  0.54926000  1.0
  C  C24  1  0.30310000  0.93419000  0.33984000  1.0
  C  C25  1  0.69691000  0.06581000  0.66016000  1.0
  C  C26  1  0.37126000  0.86991000  0.47568000  1.0
  C  C27  1  0.62875000  0.13009000  0.52432000  1.0
  C  C28  1  0.27618000  0.88914000  0.59821000  1.0
  C  C29  1  0.72382000  0.11086000  0.40179000  1.0
  C  C30  1  0.34296000  0.84660000  0.72283000  1.0
  C  C31  1  0.65704000  0.15340000  0.27717000  1.0
  C  C32  1  0.24863000  0.89362000  0.84414000  1.0
  C  C33  1  0.75136000  0.10637000  0.15587000  1.0
  C  C34  1  0.50056000  0.77181000  0.72778000  1.0
  C  C35  1  0.49944000  0.22818000  0.27222000  1.0
  C  C36  1  0.59363000  0.74220000  0.60863000  1.0
  C  C37  1  0.40637000  0.25781000  0.39137000  1.0
  C  C38  1  0.52961000  0.79702000  0.48099000  1.0
  C  C39  1  0.47040000  0.20299000  0.51901000  1.0
  C  C40  1  0.75886000  0.65773000  0.61726000  1.0
  C  C41  1  0.24115000  0.34227000  0.38275000  1.0
  C  C42  1  0.79043000  0.51385000  0.71708000  1.0
  C  C43  1  0.20958000  0.48615000  0.28293000  1.0
  C  C44  1  0.66179000  0.44665000  0.82869000  1.0
  C  C45  1  0.33822000  0.55334000  0.17132000  1.0
  C  C46  1  0.94854000  0.43794000  0.72702000  1.0
  C  C47  1  0.05146000  0.56205000  0.27298000  1.0
  C  C48  1  0.98067000  0.27554000  0.81614000  1.0
  C  C49  1  0.01933000  0.72446000  0.18386000  1.0
  C  C50  1  0.07578000  0.50994000  0.64443000  1.0
  C  C51  1  0.92422000  0.49005000  0.35558000  1.0
  C  C52  1  0.04548000  0.65216000  0.54508000  1.0
  C  C53  1  0.95452000  0.34783000  0.45492000  1.0
  C  C54  1  0.88873000  0.72336000  0.52945000  1.0
  C  C55  1  0.11128000  0.27664000  0.47055000  1.0
  O  O56  1  0.39067000  0.92717000  0.22395000  1.0
  O  O57  1  0.60934000  0.07284000  0.77605000  1.0
  O  O58  1  0.15834000  0.99956000  0.33789000  1.0
  O  O59  1  0.84166000  0.00043000  0.66211000  1.0
  O  O60  1  0.09757000  0.91341000  0.85767000  1.0
  O  O61  1  0.90243000  0.08658000  0.14233000  1.0
  O  O62  1  0.32306000  0.92240000  0.92547000  1.0
  O  O63  1  0.67694000  0.07759000  0.07452000  1.0
  O  O64  1  0.54515000  0.41647000  0.78032000  1.0
  O  O65  1  0.45484000  0.58355000  0.21967000  1.0
  O  O66  1  0.66726000  0.42737000  0.95339000  1.0
  O  O67  1  0.33275000  0.57263000  0.04660000  1.0
  O  O68  1  0.87856000  0.19468000  0.82485000  1.0
  O  O69  1  0.12143000  0.80532000  0.17515000  1.0
  O  O70  1  0.10901000  0.22872000  0.87168000  1.0
  O  O71  1  0.89099000  0.77127000  0.12833000  1.0
  O  O72  1  0.40706000  0.17870000  0.96502000  1.0
  O  O73  1  0.59294000  0.82130000  0.03498000  1.0
  O  O74  1  0.12754000  0.29020000  0.12691000  1.0
  O  O75  1  0.87246000  0.70980000  0.87309000  1.0
