# generated using pymatgen
data_CuH17C22I(NO)4
_symmetry_space_group_name_H-M   'P 1'
_cell_length_a   9.37360000
_cell_length_b   9.81689000
_cell_length_c   13.26990000
_cell_angle_alpha   79.32690000
_cell_angle_beta   78.90170000
_cell_angle_gamma   64.28630000
_symmetry_Int_Tables_number   1
_chemical_formula_structural   CuH17C22I(NO)4
_chemical_formula_sum   'Cu2 H34 C44 I2 N8 O8'
_cell_volume   1072.43085808
_cell_formula_units_Z   2
loop_
 _symmetry_equiv_pos_site_id
 _symmetry_equiv_pos_as_xyz
  1  'x, y, z'
loop_
 _atom_site_type_symbol
 _atom_site_label
 _atom_site_symmetry_multiplicity
 _atom_site_fract_x
 _atom_site_fract_y
 _atom_site_fract_z
 _atom_site_occupancy
  Cu  Cu0  1  0.17992000  0.34320000  0.60758000  1.0
  Cu  Cu1  1  0.82007000  0.65680000  0.39242000  1.0
  H  H2  1  0.95978000  0.65033000  0.80890000  1.0
  H  H3  1  0.04022000  0.34967000  0.19109000  1.0
  H  H4  1  0.54147000  0.05828000  0.88481000  1.0
  H  H5  1  0.45853000  0.94172000  0.11519000  1.0
  H  H6  1  0.66303000  0.93118000  0.57555000  1.0
  H  H7  1  0.33697000  0.06883000  0.42444000  1.0
  H  H8  1  0.17788000  0.64437000  0.46052000  1.0
  H  H9  1  0.82212000  0.35564000  0.53948000  1.0
  H  H10  1  0.45283000  0.62635000  0.32283000  1.0
  H  H11  1  0.54717000  0.37365000  0.67717000  1.0
  H  H12  1  0.52170000  0.18902000  0.47703000  1.0
  H  H13  1  0.47830000  0.81099000  0.52297000  1.0
  H  H14  1  0.75274000  0.21267000  0.35980000  1.0
  H  H15  1  0.24725000  0.78733000  0.64020000  1.0
  H  H16  1  0.75213000  0.39681000  0.33286000  1.0
  H  H17  1  0.24787000  0.60319000  0.66715000  1.0
  H  H18  1  0.56812000  0.17563000  0.23736000  1.0
  H  H19  1  0.43188000  0.82437000  0.76264000  1.0
  H  H20  1  0.56366000  0.17519000  0.05157000  1.0
  H  H21  1  0.43634000  0.82481000  0.94843000  1.0
  H  H22  1  0.78413000  0.49176000  0.97360000  1.0
  H  H23  1  0.21588000  0.50824000  0.02641000  1.0
  H  H24  1  0.78451000  0.49519000  0.15965000  1.0
  H  H25  1  0.21549000  0.50481000  0.84035000  1.0
  H  H26  1  0.60811000  0.26687000  0.87516000  1.0
  H  H27  1  0.39189000  0.73313000  0.12485000  1.0
  H  H28  1  0.60687000  0.45022000  0.85153000  1.0
  H  H29  1  0.39313000  0.54978000  0.14847000  1.0
  H  H30  1  0.83913000  0.48457000  0.74880000  1.0
  H  H31  1  0.16087000  0.51543000  0.25120000  1.0
  H  H32  1  0.17756000  0.03159000  0.73208000  1.0
  H  H33  1  0.82244000  0.96840000  0.26792000  1.0
  H  H34  1  0.91270000  0.03243000  0.87103000  1.0
  H  H35  1  0.08731000  0.96757000  0.12897000  1.0
  C  C36  1  0.85571000  0.75144000  0.78719000  1.0
  C  C37  1  0.14429000  0.24857000  0.21280000  1.0
  C  C38  1  0.75416000  0.84994000  0.85899000  1.0
  C  C39  1  0.24584000  0.15006000  0.14100000  1.0
  C  C40  1  0.62169000  0.97964000  0.82985000  1.0
  C  C41  1  0.37831000  0.02036000  0.17014000  1.0
  C  C42  1  0.58662000  0.00836000  0.72794000  1.0
  C  C43  1  0.41338000  0.99164000  0.27206000  1.0
  C  C44  1  0.68796000  0.91052000  0.65519000  1.0
  C  C45  1  0.31204000  0.08949000  0.34480000  1.0
  C  C46  1  0.82403000  0.78378000  0.68426000  1.0
  C  C47  1  0.17596000  0.21623000  0.31573000  1.0
  C  C48  1  0.93632000  0.68038000  0.60510000  1.0
  C  C49  1  0.06368000  0.31963000  0.39489000  1.0
  C  C50  1  0.43868000  0.14634000  0.70099000  1.0
  C  C51  1  0.56132000  0.85367000  0.29901000  1.0
  C  C52  1  0.29090000  0.54844000  0.44445000  1.0
  C  C53  1  0.70910000  0.45157000  0.55555000  1.0
  C  C54  1  0.42234000  0.54096000  0.37484000  1.0
  C  C55  1  0.57767000  0.45904000  0.62516000  1.0
  C  C56  1  0.46355000  0.31046000  0.45495000  1.0
  C  C57  1  0.53645000  0.68955000  0.54505000  1.0
  C  C58  1  0.68889000  0.32925000  0.32385000  1.0
  C  C59  1  0.31111000  0.67075000  0.67616000  1.0
  C  C60  1  0.68273000  0.33088000  0.21078000  1.0
  C  C61  1  0.31727000  0.66912000  0.78923000  1.0
  C  C62  1  0.61762000  0.24364000  0.17953000  1.0
  C  C63  1  0.38238000  0.75636000  0.82047000  1.0
  C  C64  1  0.61454000  0.24380000  0.07484000  1.0
  C  C65  1  0.38547000  0.75619000  0.92517000  1.0
  C  C66  1  0.67635000  0.33106000  0.99962000  1.0
  C  C67  1  0.32366000  0.66894000  0.00039000  1.0
  C  C68  1  0.73848000  0.42046000  0.03111000  1.0
  C  C69  1  0.26152000  0.57954000  0.96889000  1.0
  C  C70  1  0.74110000  0.42105000  0.13565000  1.0
  C  C71  1  0.25890000  0.57895000  0.86435000  1.0
  C  C72  1  0.67155000  0.33319000  0.88630000  1.0
  C  C73  1  0.32846000  0.66681000  0.11371000  1.0
  C  C74  1  0.89740000  0.36182000  0.76219000  1.0
  C  C75  1  0.10260000  0.63817000  0.23781000  1.0
  C  C76  1  0.06774000  0.12534000  0.75615000  1.0
  C  C77  1  0.93226000  0.87466000  0.24384000  1.0
  C  C78  1  0.93744000  0.12433000  0.82408000  1.0
  C  C79  1  0.06256000  0.87567000  0.17592000  1.0
  I  I80  1  0.79775000  0.80259000  0.01475000  1.0
  I  I81  1  0.20225000  0.19740000  0.98524000  1.0
  N  N82  1  0.31847000  0.40390000  0.49431000  1.0
  N  N83  1  0.68153000  0.59610000  0.50569000  1.0
  N  N84  1  0.52996000  0.39007000  0.38284000  1.0
  N  N85  1  0.47004000  0.60994000  0.61716000  1.0
  N  N86  1  0.04143000  0.27412000  0.71839000  1.0
  N  N87  1  0.95856000  0.72588000  0.28161000  1.0
  N  N88  1  0.83034000  0.27496000  0.82638000  1.0
  N  N89  1  0.16966000  0.72503000  0.17362000  1.0
  O  O90  1  0.04053000  0.55476000  0.64437000  1.0
  O  O91  1  0.95946000  0.44524000  0.35562000  1.0
  O  O92  1  0.92188000  0.72389000  0.51116000  1.0
  O  O93  1  0.07812000  0.27613000  0.48883000  1.0
  O  O94  1  0.39325000  0.26124000  0.74750000  1.0
  O  O95  1  0.60675000  0.73876000  0.25249000  1.0
  O  O96  1  0.36755000  0.13497000  0.63054000  1.0
  O  O97  1  0.63245000  0.86503000  0.36945000  1.0
