# generated using pymatgen
data_Zn4H48C60O13
_symmetry_space_group_name_H-M   'P 1'
_cell_length_a   28.15124900
_cell_length_b   28.15300000
_cell_length_c   28.15046030
_cell_angle_alpha   90.00237717
_cell_angle_beta   60.00316182
_cell_angle_gamma   59.99782727
_symmetry_Int_Tables_number   1
_chemical_formula_structural   Zn4H48C60O13
_chemical_formula_sum   'Zn8 H96 C120 O26'
_cell_volume   15775.76154567
_cell_formula_units_Z   2
loop_
 _symmetry_equiv_pos_site_id
 _symmetry_equiv_pos_as_xyz
  1  'x, y, z'
loop_
 _atom_site_type_symbol
 _atom_site_label
 _atom_site_symmetry_multiplicity
 _atom_site_fract_x
 _atom_site_fract_y
 _atom_site_fract_z
 _atom_site_occupancy
  Zn  Zn0  1  0.55694000  0.02848000  0.47156000  1.0
  Zn  Zn1  1  0.44305000  0.02852000  0.47149000  1.0
  Zn  Zn2  1  0.44300000  0.02850000  0.58543000  1.0
  Zn  Zn3  1  0.55691000  0.91461000  0.47155000  1.0
  Zn  Zn4  1  0.44304000  0.47152000  0.02854000  1.0
  Zn  Zn5  1  0.55689000  0.47154000  0.91459000  1.0
  Zn  Zn6  1  0.55690000  0.47155000  0.02851000  1.0
  Zn  Zn7  1  0.44299000  0.58545000  0.02852000  1.0
  H  H8  1  0.23589000  0.70807000  0.13215000  1.0
  H  H9  1  0.23589000  0.55588000  0.13209000  1.0
  H  H10  1  0.76408000  0.94403000  0.36794000  1.0
  H  H11  1  0.76405000  0.79185000  0.36801000  1.0
  H  H12  1  0.76403000  0.36791000  0.79191000  1.0
  H  H13  1  0.76405000  0.36799000  0.94411000  1.0
  H  H14  1  0.23584000  0.13216000  0.55591000  1.0
  H  H15  1  0.23592000  0.13208000  0.70809000  1.0
  H  H16  1  0.57605000  0.36786000  0.79199000  1.0
  H  H17  1  0.42390000  0.36782000  0.94422000  1.0
  H  H18  1  0.57613000  0.13197000  0.55603000  1.0
  H  H19  1  0.42386000  0.13200000  0.70820000  1.0
  H  H20  1  0.42391000  0.70814000  0.13205000  1.0
  H  H21  1  0.57607000  0.55592000  0.13210000  1.0
  H  H22  1  0.42383000  0.94407000  0.36799000  1.0
  H  H23  1  0.57611000  0.79189000  0.36796000  1.0
  H  H24  1  0.57624000  0.36792000  0.13200000  1.0
  H  H25  1  0.42398000  0.36795000  0.13208000  1.0
  H  H26  1  0.57620000  0.13207000  0.36800000  1.0
  H  H27  1  0.42404000  0.13205000  0.36790000  1.0
  H  H28  1  0.57617000  0.55600000  0.79188000  1.0
  H  H29  1  0.42390000  0.70819000  0.94411000  1.0
  H  H30  1  0.57602000  0.79190000  0.55599000  1.0
  H  H31  1  0.42386000  0.94412000  0.70820000  1.0
  H  H32  1  0.11625000  0.57982000  0.22337000  1.0
  H  H33  1  0.04767000  0.63915000  0.22599000  1.0
  H  H34  1  0.11660000  0.57957000  0.16032000  1.0
  H  H35  1  0.11628000  0.80374000  0.16041000  1.0
  H  H36  1  0.04768000  0.81302000  0.22637000  1.0
  H  H37  1  0.11659000  0.80370000  0.22313000  1.0
  H  H38  1  0.88366000  0.69616000  0.27672000  1.0
  H  H39  1  0.95225000  0.68688000  0.27409000  1.0
  H  H40  1  0.88331000  0.69624000  0.33977000  1.0
  H  H41  1  0.88371000  0.92006000  0.33965000  1.0
  H  H42  1  0.95229000  0.86073000  0.27370000  1.0
  H  H43  1  0.88338000  0.92033000  0.27694000  1.0
  H  H44  1  0.88370000  0.27672000  0.92016000  1.0
  H  H45  1  0.95227000  0.27410000  0.86083000  1.0
  H  H46  1  0.88333000  0.33977000  0.92042000  1.0
  H  H47  1  0.88361000  0.33966000  0.69625000  1.0
  H  H48  1  0.95223000  0.27371000  0.68695000  1.0
  H  H49  1  0.88330000  0.27695000  0.69630000  1.0
  H  H50  1  0.11630000  0.22339000  0.80379000  1.0
  H  H51  1  0.04771000  0.22601000  0.81308000  1.0
  H  H52  1  0.11667000  0.16034000  0.80371000  1.0
  H  H53  1  0.11622000  0.16044000  0.57990000  1.0
  H  H54  1  0.04763000  0.22639000  0.63923000  1.0
  H  H55  1  0.11653000  0.22315000  0.57963000  1.0
  H  H56  1  0.35653000  0.33952000  0.92027000  1.0
  H  H57  1  0.41321000  0.27356000  0.86095000  1.0
  H  H58  1  0.41929000  0.27681000  0.92054000  1.0
  H  H59  1  0.64342000  0.27654000  0.69631000  1.0
  H  H60  1  0.58672000  0.27392000  0.68706000  1.0
  H  H61  1  0.58064000  0.33959000  0.69640000  1.0
  H  H62  1  0.41952000  0.16025000  0.80389000  1.0
  H  H63  1  0.41287000  0.22620000  0.81319000  1.0
  H  H64  1  0.35655000  0.22295000  0.80383000  1.0
  H  H65  1  0.58051000  0.22325000  0.58001000  1.0
  H  H66  1  0.58712000  0.22586000  0.63935000  1.0
  H  H67  1  0.64347000  0.16020000  0.57975000  1.0
  H  H68  1  0.64349000  0.57988000  0.16035000  1.0
  H  H69  1  0.58681000  0.63919000  0.22631000  1.0
  H  H70  1  0.58075000  0.57959000  0.22305000  1.0
  H  H71  1  0.35659000  0.80382000  0.22330000  1.0
  H  H72  1  0.41328000  0.81308000  0.22594000  1.0
  H  H73  1  0.41939000  0.80372000  0.16025000  1.0
  H  H74  1  0.58047000  0.69620000  0.33967000  1.0
  H  H75  1  0.58712000  0.68692000  0.27371000  1.0
  H  H76  1  0.64345000  0.69626000  0.27697000  1.0
  H  H77  1  0.41947000  0.92010000  0.27669000  1.0
  H  H78  1  0.41285000  0.86077000  0.27406000  1.0
  H  H79  1  0.35650000  0.92036000  0.33974000  1.0
  H  H80  1  0.41965000  0.27662000  0.16039000  1.0
  H  H81  1  0.41302000  0.27401000  0.22634000  1.0
  H  H82  1  0.35667000  0.33967000  0.22309000  1.0
  H  H83  1  0.58063000  0.33962000  0.22330000  1.0
  H  H84  1  0.58729000  0.27366000  0.22594000  1.0
  H  H85  1  0.64360000  0.27692000  0.16026000  1.0
  H  H86  1  0.35670000  0.22337000  0.33957000  1.0
  H  H87  1  0.41342000  0.22598000  0.27363000  1.0
  H  H88  1  0.41948000  0.16033000  0.27686000  1.0
  H  H89  1  0.64358000  0.16038000  0.27668000  1.0
  H  H90  1  0.58689000  0.22633000  0.27405000  1.0
  H  H91  1  0.58081000  0.22308000  0.33972000  1.0
  H  H92  1  0.41956000  0.80387000  0.92017000  1.0
  H  H93  1  0.41290000  0.81314000  0.86087000  1.0
  H  H94  1  0.35658000  0.80380000  0.92046000  1.0
  H  H95  1  0.58056000  0.57994000  0.69621000  1.0
  H  H96  1  0.58717000  0.63927000  0.68696000  1.0
  H  H97  1  0.64353000  0.57969000  0.69628000  1.0
  H  H98  1  0.35652000  0.92019000  0.80387000  1.0
  H  H99  1  0.41321000  0.86089000  0.81316000  1.0
  H  H100  1  0.41928000  0.92048000  0.80380000  1.0
  H  H101  1  0.64342000  0.69625000  0.57992000  1.0
  H  H102  1  0.58676000  0.68696000  0.63924000  1.0
  H  H103  1  0.58065000  0.69631000  0.57966000  1.0
  C  C104  1  0.50008000  0.09102000  0.40899000  1.0
  C  C105  1  0.31796000  0.09108000  0.59096000  1.0
  C  C106  1  0.49999000  0.09097000  0.59105000  1.0
  C  C107  1  0.49992000  0.90905000  0.59105000  1.0
  C  C108  1  0.68198000  0.90899000  0.40902000  1.0
  C  C109  1  0.49999000  0.90903000  0.40899000  1.0
  C  C110  1  0.49995000  0.40894000  0.90911000  1.0
  C  C111  1  0.68195000  0.40900000  0.90905000  1.0
  C  C112  1  0.50007000  0.40898000  0.09102000  1.0
  C  C113  1  0.49996000  0.59101000  0.09105000  1.0
  C  C114  1  0.31796000  0.59096000  0.09109000  1.0
  C  C115  1  0.49998000  0.59104000  0.90904000  1.0
  C  C116  1  0.24307000  0.62838000  0.12854000  1.0
  C  C117  1  0.20767000  0.68900000  0.14624000  1.0
  C  C118  1  0.13775000  0.72490000  0.18118000  1.0
  C  C119  1  0.10200000  0.69892000  0.19903000  1.0
  C  C120  1  0.13774000  0.63720000  0.18115000  1.0
  C  C121  1  0.20767000  0.60317000  0.14621000  1.0
  C  C122  1  0.03074000  0.73455000  0.23465000  1.0
  C  C123  1  0.96921000  0.76533000  0.26541000  1.0
  C  C124  1  0.89795000  0.80098000  0.30104000  1.0
  C  C125  1  0.86221000  0.86270000  0.31889000  1.0
  C  C126  1  0.79229000  0.89674000  0.35385000  1.0
  C  C127  1  0.75688000  0.87153000  0.37157000  1.0
  C  C128  1  0.79227000  0.81092000  0.35389000  1.0
  C  C129  1  0.86220000  0.77501000  0.31893000  1.0
  C  C130  1  0.75686000  0.37154000  0.87160000  1.0
  C  C131  1  0.79226000  0.35382000  0.81098000  1.0
  C  C132  1  0.86218000  0.31888000  0.77509000  1.0
  C  C133  1  0.89793000  0.30104000  0.80106000  1.0
  C  C134  1  0.86219000  0.31893000  0.86278000  1.0
  C  C135  1  0.79226000  0.35387000  0.89682000  1.0
  C  C136  1  0.96919000  0.26544000  0.76542000  1.0
  C  C137  1  0.03073000  0.23468000  0.73463000  1.0
  C  C138  1  0.10199000  0.19906000  0.69898000  1.0
  C  C139  1  0.13771000  0.18121000  0.63726000  1.0
  C  C140  1  0.20763000  0.14626000  0.60321000  1.0
  C  C141  1  0.24307000  0.12854000  0.62840000  1.0
  C  C142  1  0.20768000  0.14621000  0.68903000  1.0
  C  C143  1  0.13776000  0.18116000  0.72494000  1.0
  C  C144  1  0.49998000  0.37143000  0.87169000  1.0
  C  C145  1  0.54288000  0.35374000  0.81107000  1.0
  C  C146  1  0.54383000  0.31876000  0.77518000  1.0
  C  C147  1  0.50000000  0.30087000  0.80117000  1.0
  C  C148  1  0.45617000  0.31873000  0.86289000  1.0
  C  C149  1  0.45708000  0.35372000  0.89692000  1.0
  C  C150  1  0.50001000  0.26524000  0.76553000  1.0
  C  C151  1  0.50003000  0.23447000  0.73474000  1.0
  C  C152  1  0.50002000  0.19886000  0.69909000  1.0
  C  C153  1  0.54389000  0.18099000  0.63736000  1.0
  C  C154  1  0.54294000  0.14607000  0.60332000  1.0
  C  C155  1  0.50001000  0.12838000  0.62852000  1.0
  C  C156  1  0.45707000  0.14609000  0.68914000  1.0
  C  C157  1  0.45614000  0.18103000  0.72505000  1.0
  C  C158  1  0.49999000  0.62844000  0.12848000  1.0
  C  C159  1  0.45709000  0.68907000  0.14616000  1.0
  C  C160  1  0.45619000  0.72496000  0.18109000  1.0
  C  C161  1  0.50003000  0.69898000  0.19898000  1.0
  C  C162  1  0.54386000  0.63725000  0.18113000  1.0
  C  C163  1  0.54290000  0.60322000  0.14619000  1.0
  C  C164  1  0.50003000  0.73461000  0.23461000  1.0
  C  C165  1  0.50001000  0.76538000  0.26539000  1.0
  C  C166  1  0.49998000  0.80102000  0.30104000  1.0
  C  C167  1  0.45611000  0.86274000  0.31892000  1.0
  C  C168  1  0.45703000  0.89678000  0.35388000  1.0
  C  C169  1  0.49998000  0.87158000  0.37156000  1.0
  C  C170  1  0.54291000  0.81095000  0.35386000  1.0
  C  C171  1  0.54385000  0.77505000  0.31890000  1.0
  C  C172  1  0.50011000  0.37152000  0.12845000  1.0
  C  C173  1  0.54306000  0.35382000  0.14612000  1.0
  C  C174  1  0.54400000  0.31885000  0.18108000  1.0
  C  C175  1  0.50014000  0.30099000  0.19897000  1.0
  C  C176  1  0.45626000  0.31887000  0.18113000  1.0
  C  C177  1  0.45718000  0.35383000  0.14617000  1.0
  C  C178  1  0.50017000  0.26537000  0.23460000  1.0
  C  C179  1  0.50017000  0.23461000  0.26537000  1.0
  C  C180  1  0.50014000  0.19899000  0.30101000  1.0
  C  C181  1  0.54397000  0.18113000  0.31891000  1.0
  C  C182  1  0.54303000  0.14618000  0.35387000  1.0
  C  C183  1  0.50012000  0.12847000  0.37154000  1.0
  C  C184  1  0.45722000  0.14616000  0.35381000  1.0
  C  C185  1  0.45630000  0.18111000  0.31885000  1.0
  C  C186  1  0.50003000  0.62850000  0.87160000  1.0
  C  C187  1  0.54298000  0.60328000  0.81097000  1.0
  C  C188  1  0.54393000  0.63731000  0.77508000  1.0
  C  C189  1  0.50006000  0.69904000  0.80106000  1.0
  C  C190  1  0.45618000  0.72502000  0.86279000  1.0
  C  C191  1  0.45710000  0.68912000  0.89682000  1.0
  C  C192  1  0.50004000  0.73469000  0.76544000  1.0
  C  C193  1  0.50001000  0.76545000  0.73468000  1.0
  C  C194  1  0.49998000  0.80108000  0.69904000  1.0
  C  C195  1  0.54381000  0.77509000  0.63731000  1.0
  C  C196  1  0.54285000  0.81099000  0.60328000  1.0
  C  C197  1  0.49994000  0.87161000  0.62850000  1.0
  C  C198  1  0.45705000  0.89682000  0.68912000  1.0
  C  C199  1  0.45613000  0.86280000  0.72502000  1.0
  C  C200  1  0.10231000  0.60771000  0.19883000  1.0
  C  C201  1  0.10232000  0.78982000  0.19890000  1.0
  C  C202  1  0.89761000  0.71009000  0.30125000  1.0
  C  C203  1  0.89765000  0.89218000  0.30117000  1.0
  C  C204  1  0.89762000  0.30126000  0.89228000  1.0
  C  C205  1  0.89758000  0.30117000  0.71017000  1.0
  C  C206  1  0.10236000  0.19885000  0.78986000  1.0
  C  C207  1  0.10227000  0.19892000  0.60778000  1.0
  C  C208  1  0.40895000  0.30103000  0.89239000  1.0
  C  C209  1  0.59100000  0.30108000  0.71026000  1.0
  C  C210  1  0.40891000  0.19874000  0.78997000  1.0
  C  C211  1  0.59110000  0.19870000  0.60789000  1.0
  C  C212  1  0.59108000  0.60774000  0.19884000  1.0
  C  C213  1  0.40901000  0.78988000  0.19877000  1.0
  C  C214  1  0.59107000  0.71013000  0.30119000  1.0
  C  C215  1  0.40887000  0.89222000  0.30123000  1.0
  C  C216  1  0.40905000  0.30117000  0.19886000  1.0
  C  C217  1  0.59123000  0.30114000  0.19877000  1.0
  C  C218  1  0.40912000  0.19882000  0.30110000  1.0
  C  C219  1  0.59116000  0.19885000  0.30122000  1.0
  C  C220  1  0.40895000  0.78994000  0.89230000  1.0
  C  C221  1  0.59115000  0.60783000  0.71015000  1.0
  C  C222  1  0.40894000  0.89231000  0.78994000  1.0
  C  C223  1  0.59101000  0.71017000  0.60781000  1.0
  O  O224  1  0.49996000  0.00004000  0.50001000  1.0
  O  O225  1  0.54053000  0.07647000  0.42357000  1.0
  O  O226  1  0.34706000  0.07654000  0.53592000  1.0
  O  O227  1  0.45947000  0.07646000  0.61697000  1.0
  O  O228  1  0.45959000  0.07649000  0.42351000  1.0
  O  O229  1  0.54048000  0.07644000  0.53602000  1.0
  O  O230  1  0.34706000  0.07649000  0.61689000  1.0
  O  O231  1  0.45944000  0.96407000  0.61697000  1.0
  O  O232  1  0.65288000  0.88307000  0.42358000  1.0
  O  O233  1  0.54042000  0.88310000  0.53602000  1.0
  O  O234  1  0.65289000  0.96403000  0.42356000  1.0
  O  O235  1  0.45955000  0.96406000  0.42349000  1.0
  O  O236  1  0.54044000  0.88310000  0.42357000  1.0
  O  O237  1  0.49995000  0.50003000  0.00003000  1.0
  O  O238  1  0.45949000  0.42349000  0.96414000  1.0
  O  O239  1  0.65286000  0.42353000  0.88311000  1.0
  O  O240  1  0.54053000  0.42355000  0.07647000  1.0
  O  O241  1  0.54038000  0.42354000  0.88315000  1.0
  O  O242  1  0.45956000  0.42353000  0.07650000  1.0
  O  O243  1  0.65287000  0.42356000  0.96407000  1.0
  O  O244  1  0.54043000  0.53598000  0.07651000  1.0
  O  O245  1  0.34704000  0.61691000  0.07650000  1.0
  O  O246  1  0.45947000  0.61695000  0.07651000  1.0
  O  O247  1  0.34707000  0.53593000  0.07657000  1.0
  O  O248  1  0.54044000  0.53600000  0.88309000  1.0
  O  O249  1  0.45948000  0.61696000  0.96407000  1.0
