# generated using pymatgen
data_Cu2Mo4H18C24N6O13
_symmetry_space_group_name_H-M   'P 1'
_cell_length_a   8.28984000
_cell_length_b   13.45870000
_cell_length_c   15.02710000
_cell_angle_alpha   70.95480000
_cell_angle_beta   84.09970000
_cell_angle_gamma   73.91160000
_symmetry_Int_Tables_number   1
_chemical_formula_structural   Cu2Mo4H18C24N6O13
_chemical_formula_sum   'Cu4 Mo8 H36 C48 N12 O26'
_cell_volume   1522.59725030
_cell_formula_units_Z   2
loop_
 _symmetry_equiv_pos_site_id
 _symmetry_equiv_pos_as_xyz
  1  'x, y, z'
loop_
 _atom_site_type_symbol
 _atom_site_label
 _atom_site_symmetry_multiplicity
 _atom_site_fract_x
 _atom_site_fract_y
 _atom_site_fract_z
 _atom_site_occupancy
  Cu  Cu0  1  0.05486000  0.75280000  0.15012000  1.0
  Cu  Cu1  1  0.94514000  0.24720000  0.84988000  1.0
  Cu  Cu2  1  0.77828000  0.30495000  0.45953000  1.0
  Cu  Cu3  1  0.22172000  0.69505000  0.54047000  1.0
  Mo  Mo4  1  0.02375000  0.04639000  0.59079000  1.0
  Mo  Mo5  1  0.97625000  0.95361000  0.40921000  1.0
  Mo  Mo6  1  0.41263000  0.06279000  0.58571000  1.0
  Mo  Mo7  1  0.58737000  0.93721000  0.41429000  1.0
  Mo  Mo8  1  0.44284000  0.80596000  0.64241000  1.0
  Mo  Mo9  1  0.55715000  0.19404000  0.35759000  1.0
  Mo  Mo10  1  0.16618000  0.18665000  0.37198000  1.0
  Mo  Mo11  1  0.83382000  0.81334000  0.62802000  1.0
  H  H12  1  0.55836000  0.53504000  0.77392000  1.0
  H  H13  1  0.44165000  0.46496000  0.22608000  1.0
  H  H14  1  0.47868000  0.36702000  0.87443000  1.0
  H  H15  1  0.52133000  0.63298000  0.12557000  1.0
  H  H16  1  0.50972000  0.21071000  0.81570000  1.0
  H  H17  1  0.49028000  0.78930000  0.18430000  1.0
  H  H18  1  0.60688000  0.21965000  0.65122000  1.0
  H  H19  1  0.39312000  0.78035000  0.34877000  1.0
  H  H20  1  0.74961000  0.47797000  0.33555000  1.0
  H  H21  1  0.25039000  0.52203000  0.66445000  1.0
  H  H22  1  0.88299000  0.57739000  0.19260000  1.0
  H  H23  1  0.11700000  0.42261000  0.80740000  1.0
  H  H24  1  0.00652000  0.76592000  0.33382000  1.0
  H  H25  1  0.99349000  0.23408000  0.66618000  1.0
  H  H26  1  0.88419000  0.67195000  0.48228000  1.0
  H  H27  1  0.11581000  0.32805000  0.51772000  1.0
  H  H28  1  0.13289000  0.96075000  0.16945000  1.0
  H  H29  1  0.86711000  0.03925000  0.83055000  1.0
  H  H30  1  0.22362000  0.13217000  0.11419000  1.0
  H  H31  1  0.77639000  0.86784000  0.88581000  1.0
  H  H32  1  0.33162000  0.19830000  0.95148000  1.0
  H  H33  1  0.66838000  0.80170000  0.04851000  1.0
  H  H34  1  0.36130000  0.09023000  0.83919000  1.0
  H  H35  1  0.63870000  0.90977000  0.16081000  1.0
  H  H36  1  0.12026000  0.79249000  0.80065000  1.0
  H  H37  1  0.87973000  0.20751000  0.19935000  1.0
  H  H38  1  0.10942000  0.62370000  0.77200000  1.0
  H  H39  1  0.89058000  0.37630000  0.22800000  1.0
  H  H40  1  0.23108000  0.43852000  0.04864000  1.0
  H  H41  1  0.76892000  0.56148000  0.95137000  1.0
  H  H42  1  0.25318000  0.60010000  0.08826000  1.0
  H  H43  1  0.74682000  0.39991000  0.91174000  1.0
  H  H44  1  0.69431000  0.61974000  0.59039000  1.0
  H  H45  1  0.30569000  0.38026000  0.40961000  1.0
  H  H46  1  0.32056000  0.88070000  0.83888000  1.0
  H  H47  1  0.67944000  0.11930000  0.16112000  1.0
  C  C48  1  0.63187000  0.46864000  0.65721000  1.0
  C  C49  1  0.36814000  0.53136000  0.34279000  1.0
  C  C50  1  0.57182000  0.46625000  0.74820000  1.0
  C  C51  1  0.42818000  0.53374000  0.25180000  1.0
  C  C52  1  0.52817000  0.37188000  0.80349000  1.0
  C  C53  1  0.47184000  0.62812000  0.19651000  1.0
  C  C54  1  0.54292000  0.28348000  0.76941000  1.0
  C  C55  1  0.45708000  0.71652000  0.23059000  1.0
  C  C56  1  0.59798000  0.28689000  0.67818000  1.0
  C  C57  1  0.40201000  0.71311000  0.32182000  1.0
  C  C58  1  0.64241000  0.38143000  0.62159000  1.0
  C  C59  1  0.35759000  0.61857000  0.37841000  1.0
  C  C60  1  0.73269000  0.50689000  0.51032000  1.0
  C  C61  1  0.26731000  0.49311000  0.48968000  1.0
  C  C62  1  0.80607000  0.56446000  0.42323000  1.0
  C  C63  1  0.19393000  0.43554000  0.57677000  1.0
  C  C64  1  0.80837000  0.53943000  0.33932000  1.0
  C  C65  1  0.19163000  0.46057000  0.66068000  1.0
  C  C66  1  0.88208000  0.59548000  0.25850000  1.0
  C  C67  1  0.11792000  0.40452000  0.74150000  1.0
  C  C68  1  0.94955000  0.70105000  0.33729000  1.0
  C  C69  1  0.05045000  0.29895000  0.66271000  1.0
  C  C70  1  0.87933000  0.64772000  0.42053000  1.0
  C  C71  1  0.12067000  0.35228000  0.57947000  1.0
  C  C72  1  0.20018000  0.92841000  0.03574000  1.0
  C  C73  1  0.79982000  0.07160000  0.96426000  1.0
  C  C74  1  0.18369000  0.98804000  0.09847000  1.0
  C  C75  1  0.81631000  0.01196000  0.90153000  1.0
  C  C76  1  0.23342000  0.08456000  0.06649000  1.0
  C  C77  1  0.76658000  0.91544000  0.93351000  1.0
  C  C78  1  0.29556000  0.12165000  0.97388000  1.0
  C  C79  1  0.70444000  0.87835000  0.02612000  1.0
  C  C80  1  0.31284000  0.06306000  0.91062000  1.0
  C  C81  1  0.68715000  0.93694000  0.08938000  1.0
  C  C82  1  0.26500000  0.96536000  0.94342000  1.0
  C  C83  1  0.73499000  0.03464000  0.05658000  1.0
  C  C84  1  0.20560000  0.80721000  0.96577000  1.0
  C  C85  1  0.79440000  0.19279000  0.03423000  1.0
  C  C86  1  0.19129000  0.71021000  0.94673000  1.0
  C  C87  1  0.80871000  0.28980000  0.05327000  1.0
  C  C88  1  0.15009000  0.71540000  0.85703000  1.0
  C  C89  1  0.84991000  0.28460000  0.14297000  1.0
  C  C90  1  0.14199000  0.62016000  0.84172000  1.0
  C  C91  1  0.85801000  0.37984000  0.15829000  1.0
  C  C92  1  0.20857000  0.51828000  0.99478000  1.0
  C  C93  1  0.79143000  0.48173000  0.00522000  1.0
  C  C94  1  0.21956000  0.60871000  0.01735000  1.0
  C  C95  1  0.78044000  0.39129000  0.98265000  1.0
  N  N96  1  0.69055000  0.54512000  0.58575000  1.0
  N  N97  1  0.30946000  0.45488000  0.41425000  1.0
  N  N98  1  0.70456000  0.40811000  0.52971000  1.0
  N  N99  1  0.29544000  0.59189000  0.47029000  1.0
  N  N100  1  0.95276000  0.67585000  0.25674000  1.0
  N  N101  1  0.04724000  0.32415000  0.74326000  1.0
  N  N102  1  0.16313000  0.82997000  0.04721000  1.0
  N  N103  1  0.83687000  0.17002000  0.95279000  1.0
  N  N104  1  0.26613000  0.88709000  0.90211000  1.0
  N  N105  1  0.73387000  0.11291000  0.09789000  1.0
  N  N106  1  0.17157000  0.52235000  0.90835000  1.0
  N  N107  1  0.82843000  0.47765000  0.09165000  1.0
  O  O108  1  0.51047000  0.16513000  0.52206000  1.0
  O  O109  1  0.48952000  0.83487000  0.47794000  1.0
  O  O110  1  0.28043000  0.94113000  0.59511000  1.0
  O  O111  1  0.71957000  0.05887000  0.40489000  1.0
  O  O112  1  0.98959000  0.28984000  0.38212000  1.0
  O  O113  1  0.01041000  0.71016000  0.61788000  1.0
  O  O114  1  0.02543000  0.01599000  0.71036000  1.0
  O  O115  1  0.97456000  0.98401000  0.28964000  1.0
  O  O116  1  0.34130000  0.70923000  0.63930000  1.0
  O  O117  1  0.65870000  0.29077000  0.36070000  1.0
  O  O118  1  0.43991000  0.79875000  0.75903000  1.0
  O  O119  1  0.56009000  0.20125000  0.24097000  1.0
  O  O120  1  0.40071000  0.06385000  0.69929000  1.0
  O  O121  1  0.59929000  0.93615000  0.30071000  1.0
  O  O122  1  0.85270000  0.15980000  0.55736000  1.0
  O  O123  1  0.14730000  0.84020000  0.44264000  1.0
  O  O124  1  0.18478000  0.13958000  0.54020000  1.0
  O  O125  1  0.81522000  0.86042000  0.45980000  1.0
  O  O126  1  0.93665000  0.93700000  0.57126000  1.0
  O  O127  1  0.06335000  0.06299000  0.42874000  1.0
  O  O128  1  0.17265000  0.18795000  0.25814000  1.0
  O  O129  1  0.82735000  0.81205000  0.74186000  1.0
  O  O130  1  0.58798000  0.93405000  0.58665000  1.0
  O  O131  1  0.41202000  0.06595000  0.41335000  1.0
  O  O132  1  0.67651000  0.72875000  0.63191000  1.0
  O  O133  1  0.32349000  0.27125000  0.36809000  1.0
