# generated using pymatgen
data_ZnH12C22(NO2)2
_symmetry_space_group_name_H-M   'P 1'
_cell_length_a   9.13419000
_cell_length_b   10.22620000
_cell_length_c   13.21900000
_cell_angle_alpha   90.15340000
_cell_angle_beta   93.11700000
_cell_angle_gamma   103.34500000
_symmetry_Int_Tables_number   1
_chemical_formula_structural   ZnH12C22(NO2)2
_chemical_formula_sum   'Zn2 H24 C44 N4 O8'
_cell_volume   1199.49514468
_cell_formula_units_Z   2
loop_
 _symmetry_equiv_pos_site_id
 _symmetry_equiv_pos_as_xyz
  1  'x, y, z'
loop_
 _atom_site_type_symbol
 _atom_site_label
 _atom_site_symmetry_multiplicity
 _atom_site_fract_x
 _atom_site_fract_y
 _atom_site_fract_z
 _atom_site_occupancy
  Zn  Zn0  1  0.85055000  0.12109000  0.96646000  1.0
  Zn  Zn1  1  0.14945000  0.87892000  0.03353000  1.0
  H  H2  1  0.11018000  0.41035000  0.05107000  1.0
  H  H3  1  0.88981000  0.58965000  0.94893000  1.0
  H  H4  1  0.90150000  0.28535000  0.16170000  1.0
  H  H5  1  0.09849000  0.71466000  0.83829000  1.0
  H  H6  1  0.58577000  0.94017000  0.07013000  1.0
  H  H7  1  0.41423000  0.05984000  0.92987000  1.0
  H  H8  1  0.53900000  0.66898000  0.13874000  1.0
  H  H9  1  0.46099000  0.33102000  0.86126000  1.0
  H  H10  1  0.65357000  0.46772000  0.15641000  1.0
  H  H11  1  0.34642000  0.53229000  0.84359000  1.0
  H  H12  1  0.11313000  0.31233000  0.87734000  1.0
  H  H13  1  0.88686000  0.68768000  0.12265000  1.0
  H  H14  1  0.77298000  0.30161000  0.32337000  1.0
  H  H15  1  0.22702000  0.69839000  0.67663000  1.0
  H  H16  1  0.44609000  0.93796000  0.22462000  1.0
  H  H17  1  0.55391000  0.06204000  0.77538000  1.0
  H  H18  1  0.49188000  0.23891000  0.11861000  1.0
  H  H19  1  0.50811000  0.76109000  0.88139000  1.0
  H  H20  1  0.83535000  0.95665000  0.76763000  1.0
  H  H21  1  0.16465000  0.04335000  0.23235000  1.0
  H  H22  1  0.28376000  0.32271000  0.73305000  1.0
  H  H23  1  0.71626000  0.67728000  0.26696000  1.0
  H  H24  1  0.99185000  0.95004000  0.61934000  1.0
  H  H25  1  0.00818000  0.04996000  0.38066000  1.0
  C  C26  1  0.19550000  0.17091000  0.06473000  1.0
  C  C27  1  0.80449000  0.82910000  0.93527000  1.0
  C  C28  1  0.22843000  0.42211000  0.07592000  1.0
  C  C29  1  0.77156000  0.57789000  0.92408000  1.0
  C  C30  1  0.29123000  0.30970000  0.08571000  1.0
  C  C31  1  0.70876000  0.69030000  0.91428000  1.0
  C  C32  1  0.31873000  0.55101000  0.09510000  1.0
  C  C33  1  0.68126000  0.44899000  0.90490000  1.0
  C  C34  1  0.25558000  0.67230000  0.07792000  1.0
  C  C35  1  0.74440000  0.32770000  0.92208000  1.0
  C  C36  1  0.80053000  0.21119000  0.18023000  1.0
  C  C37  1  0.19947000  0.78882000  0.81977000  1.0
  C  C38  1  0.62483000  0.01766000  0.12843000  1.0
  C  C39  1  0.37517000  0.98234000  0.87157000  1.0
  C  C40  1  0.47130000  0.56710000  0.12581000  1.0
  C  C41  1  0.52868000  0.43290000  0.87420000  1.0
  C  C42  1  0.53398000  0.45548000  0.13539000  1.0
  C  C43  1  0.46601000  0.54453000  0.86461000  1.0
  C  C44  1  0.09193000  0.23424000  0.81847000  1.0
  C  C45  1  0.90807000  0.76577000  0.18152000  1.0
  C  C46  1  0.72947000  0.21927000  0.26950000  1.0
  C  C47  1  0.27053000  0.78073000  0.73049000  1.0
  C  C48  1  0.54685000  0.01699000  0.21580000  1.0
  C  C49  1  0.45316000  0.98301000  0.78421000  1.0
  C  C50  1  0.59752000  0.12125000  0.28800000  1.0
  C  C51  1  0.40249000  0.87875000  0.71201000  1.0
  C  C52  1  0.44458000  0.32719000  0.11441000  1.0
  C  C53  1  0.55542000  0.67282000  0.88559000  1.0
  C  C54  1  0.93624000  0.03528000  0.75723000  1.0
  C  C55  1  0.06377000  0.96472000  0.24277000  1.0
  C  C56  1  0.15344000  0.13556000  0.66486000  1.0
  C  C57  1  0.84659000  0.86443000  0.33516000  1.0
  C  C58  1  0.51244000  0.12835000  0.37287000  1.0
  C  C59  1  0.48758000  0.87164000  0.62714000  1.0
  C  C60  1  0.18558000  0.23984000  0.73857000  1.0
  C  C61  1  0.81445000  0.76015000  0.26145000  1.0
  C  C62  1  0.02332000  0.03202000  0.67479000  1.0
  C  C63  1  0.97671000  0.96797000  0.32521000  1.0
  C  C64  1  0.42884000  0.13133000  0.44197000  1.0
  C  C65  1  0.57119000  0.86865000  0.55805000  1.0
  C  C66  1  0.33560000  0.13379000  0.51704000  1.0
  C  C67  1  0.66445000  0.86619000  0.48298000  1.0
  C  C68  1  0.24936000  0.13477000  0.58492000  1.0
  C  C69  1  0.75069000  0.86521000  0.41510000  1.0
  N  N70  1  0.74852000  0.11312000  0.11017000  1.0
  N  N71  1  0.25147000  0.88688000  0.88983000  1.0
  N  N72  1  0.97026000  0.13289000  0.82880000  1.0
  N  N73  1  0.02973000  0.86711000  0.17119000  1.0
  O  O74  1  0.26377000  0.07465000  0.06271000  1.0
  O  O75  1  0.73623000  0.92535000  0.93728000  1.0
  O  O76  1  0.05419000  0.15579000  0.05367000  1.0
  O  O77  1  0.94580000  0.84421000  0.94632000  1.0
  O  O78  1  0.12321000  0.65750000  0.03631000  1.0
  O  O79  1  0.87678000  0.34250000  0.96368000  1.0
  O  O80  1  0.33662000  0.78840000  0.10263000  1.0
  O  O81  1  0.66337000  0.21160000  0.89736000  1.0
