# generated using pymatgen
data_NiH16(C12N5)2
_symmetry_space_group_name_H-M   'P 1'
_cell_length_a   9.06347000
_cell_length_b   15.88220000
_cell_length_c   15.93100000
_cell_angle_alpha   73.21020000
_cell_angle_beta   73.81680000
_cell_angle_gamma   76.03710000
_symmetry_Int_Tables_number   1
_chemical_formula_structural   NiH16(C12N5)2
_chemical_formula_sum   'Ni3 H48 C72 N30'
_cell_volume   2075.99015632
_cell_formula_units_Z   3
loop_
 _symmetry_equiv_pos_site_id
 _symmetry_equiv_pos_as_xyz
  1  'x, y, z'
loop_
 _atom_site_type_symbol
 _atom_site_label
 _atom_site_symmetry_multiplicity
 _atom_site_fract_x
 _atom_site_fract_y
 _atom_site_fract_z
 _atom_site_occupancy
  Ni  Ni0  1  0.50000000  0.00000000  0.50000000  1.0
  Ni  Ni1  1  0.50000000  0.50000000  0.50000000  1.0
  Ni  Ni2  1  0.00000000  0.00000000  0.00000000  1.0
  H  H3  1  0.47488000  0.20937000  0.44217000  1.0
  H  H4  1  0.66494000  0.31525000  0.36263000  1.0
  H  H5  1  0.94765000  0.25191000  0.31322000  1.0
  H  H6  1  0.02889000  0.08332000  0.34548000  1.0
  H  H7  1  0.14711000  0.52656000  0.53693000  1.0
  H  H8  1  0.92038000  0.64962000  0.52008000  1.0
  H  H9  1  0.24623000  0.83164000  0.39313000  1.0
  H  H10  1  0.46096000  0.70072000  0.41285000  1.0
  H  H11  1  0.08668000  0.90582000  0.83646000  1.0
  H  H12  1  0.31996000  0.80224000  0.77103000  1.0
  H  H13  1  0.55302000  0.75623000  0.84073000  1.0
  H  H14  1  0.54384000  0.81620000  0.97312000  1.0
  H  H15  1  0.60947000  0.87646000  0.37163000  1.0
  H  H16  1  0.53898000  0.86070000  0.23630000  1.0
  H  H17  1  0.22880000  0.11320000  0.23364000  1.0
  H  H18  1  0.31356000  0.12023000  0.36797000  1.0
  H  H19  1  0.31168000  0.35907000  0.48892000  1.0
  H  H20  1  0.26096000  0.31218000  0.36348000  1.0
  H  H21  1  0.38185000  0.38409000  0.20294000  1.0
  H  H22  1  0.55343000  0.49709000  0.17651000  1.0
  H  H23  1  0.97738000  0.90591000  0.20408000  1.0
  H  H24  1  0.87909000  0.77192000  0.31245000  1.0
  H  H25  1  0.76229000  0.71472000  0.09248000  1.0
  H  H26  1  0.86671000  0.85087000  0.99234000  1.0
  H  H27  1  0.52512000  0.79063000  0.55783000  1.0
  H  H28  1  0.33507000  0.68475000  0.63737000  1.0
  H  H29  1  0.05236000  0.74808000  0.68678000  1.0
  H  H30  1  0.97112000  0.91667000  0.65452000  1.0
  H  H31  1  0.85290000  0.47344000  0.46307000  1.0
  H  H32  1  0.07962000  0.35038000  0.47992000  1.0
  H  H33  1  0.75377000  0.16836000  0.60688000  1.0
  H  H34  1  0.53904000  0.29928000  0.58715000  1.0
  H  H35  1  0.91332000  0.09418000  0.16354000  1.0
  H  H36  1  0.68004000  0.19776000  0.22897000  1.0
  H  H37  1  0.44698000  0.24377000  0.15927000  1.0
  H  H38  1  0.45617000  0.18379000  0.02688000  1.0
  H  H39  1  0.39054000  0.12355000  0.62837000  1.0
  H  H40  1  0.46102000  0.13930000  0.76370000  1.0
  H  H41  1  0.77120000  0.88680000  0.76637000  1.0
  H  H42  1  0.68644000  0.87977000  0.63203000  1.0
  H  H43  1  0.68832000  0.64093000  0.51109000  1.0
  H  H44  1  0.73904000  0.68782000  0.63652000  1.0
  H  H45  1  0.61814000  0.61591000  0.79706000  1.0
  H  H46  1  0.44656000  0.50292000  0.82349000  1.0
  H  H47  1  0.02262000  0.09409000  0.79592000  1.0
  H  H48  1  0.12091000  0.22808000  0.68755000  1.0
  H  H49  1  0.23771000  0.28528000  0.90752000  1.0
  H  H50  1  0.13329000  0.14913000  0.00766000  1.0
  C  C51  1  0.59879000  0.18534000  0.41841000  1.0
  C  C52  1  0.70481000  0.24348000  0.37429000  1.0
  C  C53  1  0.86224000  0.20785000  0.34699000  1.0
  C  C54  1  0.90837000  0.11569000  0.36416000  1.0
  C  C55  1  0.79511000  0.06173000  0.40796000  1.0
  C  C56  1  0.83216000  0.96516000  0.42982000  1.0
  C  C57  1  0.94034000  0.83077000  0.45239000  1.0
  C  C58  1  0.16420000  0.59524000  0.50484000  1.0
  C  C59  1  0.03794000  0.66442000  0.49597000  1.0
  C  C60  1  0.06396000  0.75249000  0.45704000  1.0
  C  C61  1  0.22005000  0.76475000  0.42462000  1.0
  C  C62  1  0.33927000  0.69209000  0.43583000  1.0
  C  C63  1  0.19124000  0.88380000  0.86397000  1.0
  C  C64  1  0.32064000  0.82610000  0.82846000  1.0
  C  C65  1  0.44960000  0.80049000  0.86768000  1.0
  C  C66  1  0.44611000  0.83294000  0.94057000  1.0
  C  C67  1  0.31235000  0.89073000  0.97232000  1.0
  C  C68  1  0.29606000  0.93029000  0.04643000  1.0
  C  C69  1  0.31871000  0.97463000  0.15286000  1.0
  C  C70  1  0.52562000  0.92766000  0.33900000  1.0
  C  C71  1  0.48621000  0.91884000  0.26422000  1.0
  C  C72  1  0.37353000  0.98459000  0.22608000  1.0
  C  C73  1  0.31260000  0.05925000  0.26325000  1.0
  C  C74  1  0.35977000  0.06347000  0.33719000  1.0
  C  C75  1  0.36095000  0.38820000  0.41831000  1.0
  C  C76  1  0.33275000  0.36312000  0.34790000  1.0
  C  C77  1  0.40144000  0.40230000  0.25945000  1.0
  C  C78  1  0.49652000  0.46458000  0.24394000  1.0
  C  C79  1  0.51990000  0.48626000  0.31796000  1.0
  C  C80  1  0.61482000  0.55080000  0.30989000  1.0
  C  C81  1  0.74117000  0.65576000  0.26847000  1.0
  C  C82  1  0.92932000  0.86159000  0.18172000  1.0
  C  C83  1  0.87500000  0.78667000  0.24187000  1.0
  C  C84  1  0.81225000  0.73184000  0.21069000  1.0
  C  C85  1  0.81141000  0.75521000  0.11877000  1.0
  C  C86  1  0.86848000  0.83060000  0.06353000  1.0
  C  C87  1  0.40121000  0.81466000  0.58159000  1.0
  C  C88  1  0.29519000  0.75652000  0.62571000  1.0
  C  C89  1  0.13777000  0.79215000  0.65301000  1.0
  C  C90  1  0.09163000  0.88431000  0.63584000  1.0
  C  C91  1  0.20489000  0.93827000  0.59204000  1.0
  C  C92  1  0.16784000  0.03484000  0.57018000  1.0
  C  C93  1  0.05966000  0.16923000  0.54761000  1.0
  C  C94  1  0.83580000  0.40476000  0.49516000  1.0
  C  C95  1  0.96206000  0.33558000  0.50403000  1.0
  C  C96  1  0.93605000  0.24751000  0.54296000  1.0
  C  C97  1  0.77995000  0.23526000  0.57538000  1.0
  C  C98  1  0.66073000  0.30791000  0.56417000  1.0
  C  C99  1  0.80876000  0.11620000  0.13603000  1.0
  C  C100  1  0.67936000  0.17390000  0.17154000  1.0
  C  C101  1  0.55040000  0.19951000  0.13232000  1.0
  C  C102  1  0.55389000  0.16706000  0.05943000  1.0
  C  C103  1  0.68765000  0.10927000  0.02768000  1.0
  C  C104  1  0.70394000  0.06971000  0.95357000  1.0
  C  C105  1  0.68129000  0.02537000  0.84714000  1.0
  C  C106  1  0.47438000  0.07235000  0.66100000  1.0
  C  C107  1  0.51379000  0.08116000  0.73578000  1.0
  C  C108  1  0.62647000  0.01541000  0.77392000  1.0
  C  C109  1  0.68740000  0.94075000  0.73675000  1.0
  C  C110  1  0.64022000  0.93653000  0.66281000  1.0
  C  C111  1  0.63905000  0.61180000  0.58170000  1.0
  C  C112  1  0.66725000  0.63688000  0.65211000  1.0
  C  C113  1  0.59856000  0.59770000  0.74055000  1.0
  C  C114  1  0.50347000  0.53542000  0.75606000  1.0
  C  C115  1  0.48010000  0.51374000  0.68205000  1.0
  C  C116  1  0.38518000  0.44920000  0.69011000  1.0
  C  C117  1  0.25883000  0.34424000  0.73153000  1.0
  C  C118  1  0.07068000  0.13841000  0.81828000  1.0
  C  C119  1  0.12500000  0.21333000  0.75813000  1.0
  C  C120  1  0.18775000  0.26816000  0.78931000  1.0
  C  C121  1  0.18859000  0.24479000  0.88123000  1.0
  C  C122  1  0.13152000  0.16940000  0.93647000  1.0
  N  N123  1  0.78526000  0.82954000  0.48846000  1.0
  N  N124  1  0.71689000  0.91671000  0.47332000  1.0
  N  N125  1  0.97381000  0.91433000  0.41500000  1.0
  N  N126  1  0.64254000  0.09632000  0.43474000  1.0
  N  N127  1  0.31351000  0.60813000  0.47669000  1.0
  N  N128  1  0.17813000  0.01960000  0.13531000  1.0
  N  N129  1  0.16466000  0.98987000  0.06744000  1.0
  N  N130  1  0.39591000  0.91788000  0.09911000  1.0
  N  N131  1  0.18678000  0.91540000  0.93436000  1.0
  N  N132  1  0.46226000  0.99804000  0.37646000  1.0
  N  N133  1  0.71913000  0.63135000  0.35979000  1.0
  N  N134  1  0.63773000  0.56378000  0.38557000  1.0
  N  N135  1  0.67856000  0.60647000  0.23481000  1.0
  N  N136  1  0.45203000  0.44853000  0.40393000  1.0
  N  N137  1  0.92565000  0.88415000  0.09390000  1.0
  N  N138  1  0.21474000  0.17046000  0.51154000  1.0
  N  N139  1  0.28312000  0.08329000  0.52668000  1.0
  N  N140  1  0.02620000  0.08567000  0.58500000  1.0
  N  N141  1  0.35746000  0.90368000  0.56526000  1.0
  N  N142  1  0.68649000  0.39186000  0.52331000  1.0
  N  N143  1  0.82187000  0.98040000  0.86469000  1.0
  N  N144  1  0.83534000  0.01013000  0.93256000  1.0
  N  N145  1  0.60409000  0.08212000  0.90089000  1.0
  N  N146  1  0.81322000  0.08460000  0.06564000  1.0
  N  N147  1  0.53774000  0.00196000  0.62354000  1.0
  N  N148  1  0.28087000  0.36865000  0.64021000  1.0
  N  N149  1  0.36227000  0.43622000  0.61443000  1.0
  N  N150  1  0.32144000  0.39352000  0.76519000  1.0
  N  N151  1  0.54797000  0.55147000  0.59607000  1.0
  N  N152  1  0.07435000  0.11585000  0.90610000  1.0
