# generated using pymatgen
data_ZnH11C12N2(ClO2)2
_symmetry_space_group_name_H-M   'P 1'
_cell_length_a   9.55530000
_cell_length_b   10.94440000
_cell_length_c   11.01850000
_cell_angle_alpha   89.20630000
_cell_angle_beta   89.98510000
_cell_angle_gamma   89.66010000
_symmetry_Int_Tables_number   1
_chemical_formula_structural   ZnH11C12N2(ClO2)2
_chemical_formula_sum   'Zn2 H22 C24 N4 Cl4 O8'
_cell_volume   1152.15110331
_cell_formula_units_Z   2
loop_
 _symmetry_equiv_pos_site_id
 _symmetry_equiv_pos_as_xyz
  1  'x, y, z'
loop_
 _atom_site_type_symbol
 _atom_site_label
 _atom_site_symmetry_multiplicity
 _atom_site_fract_x
 _atom_site_fract_y
 _atom_site_fract_z
 _atom_site_occupancy
  Zn  Zn0  1  0.35878000  0.50209000  0.49983000  1.0
  Zn  Zn1  1  0.64312000  0.49742000  0.49977000  1.0
  H  H2  1  0.27784000  0.89030000  0.47248000  1.0
  H  H3  1  0.28448000  0.55229000  0.11263000  1.0
  H  H4  1  0.71914000  0.44870000  0.88702000  1.0
  H  H5  1  0.28490000  0.55111000  0.88447000  1.0
  H  H6  1  0.86756000  0.35015000  0.61335000  1.0
  H  H7  1  0.13693000  0.35135000  0.61422000  1.0
  H  H8  1  0.36964000  0.21321000  0.30482000  1.0
  H  H9  1  0.15361000  0.19240000  0.20728000  1.0
  H  H10  1  0.11785000  0.19324000  0.36692000  1.0
  H  H11  1  0.12374000  0.05272000  0.28590000  1.0
  H  H12  1  0.55479000  0.08036000  0.23115000  1.0
  H  H13  1  0.72257000  0.91081000  0.48877000  1.0
  H  H14  1  0.73586000  0.19286000  0.13886000  1.0
  H  H15  1  0.82727000  0.07629000  0.22213000  1.0
  H  H16  1  0.80688000  0.22615000  0.28329000  1.0
  H  H17  1  0.13427000  0.65359000  0.38267000  1.0
  H  H18  1  0.86428000  0.65307000  0.38260000  1.0
  H  H19  1  0.27668000  0.09386000  0.49696000  1.0
  H  H20  1  0.71861000  0.11465000  0.45089000  1.0
  H  H21  1  0.43225000  0.11061000  0.67184000  1.0
  H  H22  1  0.61486000  0.09681000  0.64884000  1.0
  H  H23  1  0.71870000  0.45019000  0.11529000  1.0
  C  C24  1  0.50099000  0.50006000  0.26232000  1.0
  C  C25  1  0.07445000  0.41784000  0.56306000  1.0
  C  C26  1  0.07284000  0.58653000  0.43356000  1.0
  C  C27  1  0.92697000  0.58604000  0.43325000  1.0
  C  C28  1  0.50062000  0.73846000  0.49067000  1.0
  C  C29  1  0.50215000  0.49809000  0.73712000  1.0
  C  C30  1  0.50120000  0.25943000  0.49379000  1.0
  C  C31  1  0.36617000  0.92984000  0.42328000  1.0
  C  C32  1  0.63690000  0.93255000  0.42607000  1.0
  C  C33  1  0.35860000  0.07350000  0.42856000  1.0
  C  C34  1  0.62562000  0.07572000  0.40785000  1.0
  C  C35  1  0.51242000  0.07026000  0.61320000  1.0
  C  C36  1  0.50003000  0.92985000  0.61786000  1.0
  C  C37  1  0.50132000  0.87941000  0.48406000  1.0
  C  C38  1  0.49812000  0.11972000  0.48203000  1.0
  C  C39  1  0.17227000  0.14319000  0.29326000  1.0
  C  C40  1  0.75476000  0.15498000  0.23027000  1.0
  C  C41  1  0.62447000  0.47218000  0.06360000  1.0
  C  C42  1  0.37887000  0.52929000  0.06219000  1.0
  C  C43  1  0.62461000  0.47128000  0.93745000  1.0
  C  C44  1  0.37908000  0.52858000  0.93599000  1.0
  C  C45  1  0.50191000  0.49924000  0.87283000  1.0
  C  C46  1  0.50147000  0.50086000  0.12671000  1.0
  C  C47  1  0.92896000  0.41717000  0.56260000  1.0
  N  N48  1  0.14431000  0.50253000  0.49857000  1.0
  N  N49  1  0.85735000  0.50116000  0.49786000  1.0
  N  N50  1  0.32204000  0.13064000  0.31303000  1.0
  N  N51  1  0.62067000  0.12697000  0.28629000  1.0
  Cl  Cl52  1  0.34611000  0.87186000  0.27256000  1.0
  Cl  Cl53  1  0.68978000  0.85849000  0.28878000  1.0
  Cl  Cl54  1  0.34124000  0.88736000  0.69629000  1.0
  Cl  Cl55  1  0.64174000  0.86696000  0.70747000  1.0
  O  O56  1  0.38206000  0.50078000  0.31495000  1.0
  O  O57  1  0.61933000  0.49777000  0.31567000  1.0
  O  O58  1  0.38151000  0.68839000  0.49356000  1.0
  O  O59  1  0.61822000  0.68494000  0.49657000  1.0
  O  O60  1  0.38364000  0.50298000  0.68395000  1.0
  O  O61  1  0.62074000  0.49214000  0.68426000  1.0
  O  O62  1  0.38366000  0.31408000  0.50090000  1.0
  O  O63  1  0.62053000  0.30897000  0.50156000  1.0
