# generated using pymatgen
data_CdH20C30N2(O2F3)2
_symmetry_space_group_name_H-M   'P 1'
_cell_length_a   8.16651000
_cell_length_b   8.16650000
_cell_length_c   22.71235141
_cell_angle_alpha   99.99363556
_cell_angle_beta   99.99366204
_cell_angle_gamma   91.94780000
_symmetry_Int_Tables_number   1
_chemical_formula_structural   CdH20C30N2(O2F3)2
_chemical_formula_sum   'Cd2 H40 C60 N4 O8 F12'
_cell_volume   1465.89798873
_cell_formula_units_Z   2
loop_
 _symmetry_equiv_pos_site_id
 _symmetry_equiv_pos_as_xyz
  1  'x, y, z'
loop_
 _atom_site_type_symbol
 _atom_site_label
 _atom_site_symmetry_multiplicity
 _atom_site_fract_x
 _atom_site_fract_y
 _atom_site_fract_z
 _atom_site_occupancy
  Cd  Cd0  1  0.62432000  0.37568000  0.50000000  1.0
  Cd  Cd1  1  0.37453000  0.62547000  0.00000000  1.0
  H  H2  1  0.91309000  0.37554000  0.69025000  1.0
  H  H3  1  0.62446000  0.08692000  0.30975000  1.0
  H  H4  1  0.56448000  0.52693000  0.19041000  1.0
  H  H5  1  0.47308000  0.43552000  0.80959000  1.0
  H  H6  1  0.18200000  0.40755000  0.67349000  1.0
  H  H7  1  0.59245000  0.81801000  0.32651000  1.0
  H  H8  1  0.51578000  0.24112000  0.17379000  1.0
  H  H9  1  0.75888000  0.48422000  0.82621000  1.0
  H  H10  1  0.44449000  0.58045000  0.71900000  1.0
  H  H11  1  0.41955000  0.55551000  0.28100000  1.0
  H  H12  1  0.38794000  0.02433000  0.21927000  1.0
  H  H13  1  0.97568000  0.61206000  0.78073000  1.0
  H  H14  1  0.45706000  0.88506000  0.72089000  1.0
  H  H15  1  0.11494000  0.54293000  0.27911000  1.0
  H  H16  1  0.08517000  0.01373000  0.22099000  1.0
  H  H17  1  0.98627000  0.91483000  0.77901000  1.0
  H  H18  1  0.20892000  0.01726000  0.67367000  1.0
  H  H19  1  0.98275000  0.79108000  0.32633000  1.0
  H  H20  1  0.90601000  0.21462000  0.17357000  1.0
  H  H21  1  0.78538000  0.09399000  0.82643000  1.0
  H  H22  1  0.94783000  0.84282000  0.62561000  1.0
  H  H23  1  0.15718000  0.05217000  0.37439000  1.0
  H  H24  1  0.03286000  0.42722000  0.12543000  1.0
  H  H25  1  0.57279000  0.96714000  0.87457000  1.0
  H  H26  1  0.64857000  0.97762000  0.48833000  1.0
  H  H27  1  0.02238000  0.35143000  0.51167000  1.0
  H  H28  1  0.76077000  0.58976000  0.98836000  1.0
  H  H29  1  0.41024000  0.23922000  0.01164000  1.0
  H  H30  1  0.85285000  0.75685000  0.48868000  1.0
  H  H31  1  0.24314000  0.14714000  0.51132000  1.0
  H  H32  1  0.98191000  0.38588000  0.98878000  1.0
  H  H33  1  0.61412000  0.01808000  0.01122000  1.0
  H  H34  1  0.58702000  0.74412000  0.56398000  1.0
  H  H35  1  0.25588000  0.41298000  0.43602000  1.0
  H  H36  1  0.07012000  0.72673000  0.06402000  1.0
  H  H37  1  0.27327000  0.92988000  0.93598000  1.0
  H  H38  1  0.38462000  0.96679000  0.56513000  1.0
  H  H39  1  0.03321000  0.61537000  0.43487000  1.0
  H  H40  1  0.84866000  0.93026000  0.06515000  1.0
  H  H41  1  0.06974000  0.15134000  0.93485000  1.0
  C  C42  1  0.64728000  0.17728000  0.67524000  1.0
  C  C43  1  0.82272000  0.35272000  0.32476000  1.0
  C  C44  1  0.74763000  0.77780000  0.17530000  1.0
  C  C45  1  0.22220000  0.25238000  0.82470000  1.0
  C  C46  1  0.68420000  0.29231000  0.63127000  1.0
  C  C47  1  0.70769000  0.31580000  0.36873000  1.0
  C  C48  1  0.58861000  0.69680000  0.13139000  1.0
  C  C49  1  0.30321000  0.41139000  0.86861000  1.0
  C  C50  1  0.83438000  0.38985000  0.64794000  1.0
  C  C51  1  0.61015000  0.16562000  0.35206000  1.0
  C  C52  1  0.50788000  0.56329000  0.14809000  1.0
  C  C53  1  0.43671000  0.49212000  0.85191000  1.0
  C  C54  1  0.88793000  0.51690000  0.61857000  1.0
  C  C55  1  0.48310000  0.11207000  0.38143000  1.0
  C  C56  1  0.35172000  0.48015000  0.11864000  1.0
  C  C57  1  0.51985000  0.64828000  0.88136000  1.0
  C  C58  1  0.04720000  0.61532000  0.64735000  1.0
  C  C59  1  0.38468000  0.95281000  0.35265000  1.0
  C  C60  1  0.28199000  0.34973000  0.14741000  1.0
  C  C61  1  0.65027000  0.71801000  0.85259000  1.0
  C  C62  1  0.18723000  0.54144000  0.67395000  1.0
  C  C63  1  0.45856000  0.81277000  0.32605000  1.0
  C  C64  1  0.38229000  0.23641000  0.17414000  1.0
  C  C65  1  0.76359000  0.61771000  0.82586000  1.0
  C  C66  1  0.33479000  0.63832000  0.69940000  1.0
  C  C67  1  0.36168000  0.66520000  0.30060000  1.0
  C  C68  1  0.31060000  0.11441000  0.19959000  1.0
  C  C69  1  0.88559000  0.68940000  0.80041000  1.0
  C  C70  1  0.34246000  0.80971000  0.69990000  1.0
  C  C71  1  0.19029000  0.65754000  0.30010000  1.0
  C  C72  1  0.13967000  0.10726000  0.19999000  1.0
  C  C73  1  0.89274000  0.86033000  0.80001000  1.0
  C  C74  1  0.20320000  0.88369000  0.67337000  1.0
  C  C75  1  0.11631000  0.79680000  0.32663000  1.0
  C  C76  1  0.03930000  0.21990000  0.17334000  1.0
  C  C77  1  0.78010000  0.96070000  0.82666000  1.0
  C  C78  1  0.05710000  0.78687000  0.64658000  1.0
  C  C79  1  0.21313000  0.94290000  0.35342000  1.0
  C  C80  1  0.10960000  0.33897000  0.14651000  1.0
  C  C81  1  0.66103000  0.89040000  0.85349000  1.0
  C  C82  1  0.78172000  0.00957000  0.49332000  1.0
  C  C83  1  0.99043000  0.21828000  0.50668000  1.0
  C  C84  1  0.73382000  0.46161000  0.99336000  1.0
  C  C85  1  0.53839000  0.26618000  0.00664000  1.0
  C  C86  1  0.89555000  0.88696000  0.49293000  1.0
  C  C87  1  0.11304000  0.10445000  0.50707000  1.0
  C  C88  1  0.85603000  0.34738000  0.99300000  1.0
  C  C89  1  0.65262000  0.14396000  0.00700000  1.0
  C  C90  1  0.06558000  0.93441000  0.50000000  1.0
  C  C91  1  0.81568000  0.18432000  0.00000000  1.0
  C  C92  1  0.46359000  0.72313000  0.53540000  1.0
  C  C93  1  0.27687000  0.53641000  0.46460000  1.0
  C  C94  1  0.06256000  0.82153000  0.03540000  1.0
  C  C95  1  0.17847000  0.93744000  0.96460000  1.0
  C  C96  1  0.34992000  0.84570000  0.53596000  1.0
  C  C97  1  0.15430000  0.65008000  0.46404000  1.0
  C  C98  1  0.94057000  0.93584000  0.03597000  1.0
  C  C99  1  0.06416000  0.05943000  0.96403000  1.0
  C  C100  1  0.19085000  0.80915000  0.50000000  1.0
  C  C101  1  0.94102000  0.05898000  0.00000000  1.0
  N  N102  1  0.82767000  0.17233000  0.50000000  1.0
  N  N103  1  0.57771000  0.42229000  0.00000000  1.0
  N  N104  1  0.42832000  0.57169000  0.50000000  1.0
  N  N105  1  0.17862000  0.82138000  1.00000000  1.0
  O  O106  1  0.56868000  0.27921000  0.58497000  1.0
  O  O107  1  0.72079000  0.43132000  0.41503000  1.0
  O  O108  1  0.55539000  0.76593000  0.08506000  1.0
  O  O109  1  0.23407000  0.44462000  0.91494000  1.0
  O  O110  1  0.80840000  0.55906000  0.57055000  1.0
  O  O111  1  0.44095000  0.19161000  0.42945000  1.0
  O  O112  1  0.26176000  0.51159000  0.07056000  1.0
  O  O113  1  0.48841000  0.73824000  0.92944000  1.0
  F  F114  1  0.48849000  0.19095000  0.68589000  1.0
  F  F115  1  0.80906000  0.51151000  0.31411000  1.0
  F  F116  1  0.74457000  0.94724000  0.18586000  1.0
  F  F117  1  0.05276000  0.25543000  0.81414000  1.0
  F  F118  1  0.66016000  0.01341000  0.65042000  1.0
  F  F119  1  0.98659000  0.33984000  0.34958000  1.0
  F  F120  1  0.88662000  0.74000000  0.15044000  1.0
  F  F121  1  0.26000000  0.11338000  0.84956000  1.0
  F  F122  1  0.75033000  0.20781000  0.73048000  1.0
  F  F123  1  0.79219000  0.24967000  0.26952000  1.0
  F  F124  1  0.77243000  0.73019000  0.23058000  1.0
  F  F125  1  0.26981000  0.22757000  0.76942000  1.0
