# generated using pymatgen
data_LiH6C6NO4
_symmetry_space_group_name_H-M   'P 1'
_cell_length_a   8.11125000
_cell_length_b   8.43953000
_cell_length_c   9.99020000
_cell_angle_alpha   90.00040000
_cell_angle_beta   90.00030000
_cell_angle_gamma   90.55860000
_symmetry_Int_Tables_number   1
_chemical_formula_structural   LiH6C6NO4
_chemical_formula_sum   'Li4 H24 C24 N4 O16'
_cell_volume   683.84801525
_cell_formula_units_Z   4
loop_
 _symmetry_equiv_pos_site_id
 _symmetry_equiv_pos_as_xyz
  1  'x, y, z'
loop_
 _atom_site_type_symbol
 _atom_site_label
 _atom_site_symmetry_multiplicity
 _atom_site_fract_x
 _atom_site_fract_y
 _atom_site_fract_z
 _atom_site_occupancy
  Li  Li0  1  0.93839000  0.40955000  0.39916000  1.0
  Li  Li1  1  0.56162000  0.59044000  0.89916000  1.0
  Li  Li2  1  0.06162000  0.59045000  0.60084000  1.0
  Li  Li3  1  0.43838000  0.40956000  0.10084000  1.0
  H  H4  1  0.87693000  0.10808000  0.42498000  1.0
  H  H5  1  0.62307000  0.89192000  0.92498000  1.0
  H  H6  1  0.12307000  0.89192000  0.57502000  1.0
  H  H7  1  0.37693000  0.10808000  0.07502000  1.0
  H  H8  1  0.06764000  0.13397000  0.41521000  1.0
  H  H9  1  0.43236000  0.86602000  0.91522000  1.0
  H  H10  1  0.93236000  0.86603000  0.58479000  1.0
  H  H11  1  0.56764000  0.13397000  0.08478000  1.0
  H  H12  1  0.31826000  0.05959000  0.72540000  1.0
  H  H13  1  0.18175000  0.94040000  0.22540000  1.0
  H  H14  1  0.68175000  0.94041000  0.27460000  1.0
  H  H15  1  0.81825000  0.05960000  0.77460000  1.0
  H  H16  1  0.40213000  0.19278000  0.32997000  1.0
  H  H17  1  0.09786000  0.80721000  0.82997000  1.0
  H  H18  1  0.59787000  0.80722000  0.67003000  1.0
  H  H19  1  0.90213000  0.19279000  0.17003000  1.0
  H  H20  1  0.62797000  0.37980000  0.39614000  1.0
  H  H21  1  0.87202000  0.62020000  0.89614000  1.0
  H  H22  1  0.37203000  0.62020000  0.60386000  1.0
  H  H23  1  0.12798000  0.37980000  0.10386000  1.0
  H  H24  1  0.53733000  0.24786000  0.80834000  1.0
  H  H25  1  0.96268000  0.75214000  0.30834000  1.0
  H  H26  1  0.46267000  0.75215000  0.19166000  1.0
  H  H27  1  0.03732000  0.24786000  0.69166000  1.0
  C  C28  1  0.39073000  0.13467000  0.65876000  1.0
  C  C29  1  0.10928000  0.86532000  0.15876000  1.0
  C  C30  1  0.60928000  0.86533000  0.34124000  1.0
  C  C31  1  0.89072000  0.13468000  0.84124000  1.0
  C  C32  1  0.60171000  0.33009000  0.60900000  1.0
  C  C33  1  0.89829000  0.66990000  0.10901000  1.0
  C  C34  1  0.39829000  0.66991000  0.39100000  1.0
  C  C35  1  0.10171000  0.33009000  0.89099000  1.0
  C  C36  1  0.43764000  0.21083000  0.43403000  1.0
  C  C37  1  0.06236000  0.78916000  0.93403000  1.0
  C  C38  1  0.56236000  0.78917000  0.56597000  1.0
  C  C39  1  0.93764000  0.21083000  0.06597000  1.0
  C  C40  1  0.56301000  0.31219000  0.47342000  1.0
  C  C41  1  0.93699000  0.68780000  0.97342000  1.0
  C  C42  1  0.43700000  0.68781000  0.52658000  1.0
  C  C43  1  0.06301000  0.31219000  0.02658000  1.0
  C  C44  1  0.73039000  0.44888000  0.65339000  1.0
  C  C45  1  0.76960000  0.55111000  0.15338000  1.0
  C  C46  1  0.26961000  0.55112000  0.34661000  1.0
  C  C47  1  0.23040000  0.44888000  0.84662000  1.0
  C  C48  1  0.51319000  0.23814000  0.70145000  1.0
  C  C49  1  0.98681000  0.76186000  0.20145000  1.0
  C  C50  1  0.48682000  0.76187000  0.29854000  1.0
  C  C51  1  0.01319000  0.23814000  0.79855000  1.0
  N  N52  1  0.35180000  0.12457000  0.52609000  1.0
  N  N53  1  0.14820000  0.87542000  0.02609000  1.0
  N  N54  1  0.64821000  0.87543000  0.47391000  1.0
  N  N55  1  0.85179000  0.12458000  0.97391000  1.0
  O  O56  1  0.85064000  0.47687000  0.57427000  1.0
  O  O57  1  0.64937000  0.52312000  0.07427000  1.0
  O  O58  1  0.14936000  0.52314000  0.42573000  1.0
  O  O59  1  0.35063000  0.47688000  0.92573000  1.0
  O  O60  1  0.96145000  0.18153000  0.38694000  1.0
  O  O61  1  0.53856000  0.81846000  0.88694000  1.0
  O  O62  1  0.03856000  0.81847000  0.61306000  1.0
  O  O63  1  0.46144000  0.18154000  0.11306000  1.0
  O  O64  1  0.70950000  0.51380000  0.76578000  1.0
  O  O65  1  0.79050000  0.48620000  0.26580000  1.0
  O  O66  1  0.29050000  0.48621000  0.23422000  1.0
  O  O67  1  0.20950000  0.51380000  0.73420000  1.0
  O  O68  1  0.23112000  0.03051000  0.48414000  1.0
  O  O69  1  0.26888000  0.96948000  0.98414000  1.0
  O  O70  1  0.76888000  0.96949000  0.51586000  1.0
  O  O71  1  0.73112000  0.03052000  0.01586000  1.0
