# generated using pymatgen
data_CuH50C44S2(N2O)4
_symmetry_space_group_name_H-M   'P 1'
_cell_length_a   7.34997000
_cell_length_b   10.54580000
_cell_length_c   14.27540000
_cell_angle_alpha   106.79200000
_cell_angle_beta   99.70690000
_cell_angle_gamma   90.36820000
_symmetry_Int_Tables_number   1
_chemical_formula_structural   CuH50C44S2(N2O)4
_chemical_formula_sum   'Cu1 H50 C44 S2 N8 O4'
_cell_volume   1042.37342955
_cell_formula_units_Z   1
loop_
 _symmetry_equiv_pos_site_id
 _symmetry_equiv_pos_as_xyz
  1  'x, y, z'
loop_
 _atom_site_type_symbol
 _atom_site_label
 _atom_site_symmetry_multiplicity
 _atom_site_fract_x
 _atom_site_fract_y
 _atom_site_fract_z
 _atom_site_occupancy
  Cu  Cu0  1  0.50000000  0.50000000  0.00000000  1.0
  H  H1  1  0.92497000  0.42244000  0.56478000  1.0
  H  H2  1  0.07503000  0.57757000  0.43522000  1.0
  H  H3  1  0.01029000  0.29237000  0.61327000  1.0
  H  H4  1  0.98971000  0.70763000  0.38672000  1.0
  H  H5  1  0.15583000  0.37289000  0.55700000  1.0
  H  H6  1  0.84417000  0.62713000  0.44299000  1.0
  H  H7  1  0.04324000  0.64787000  0.65145000  1.0
  H  H8  1  0.95674000  0.35214000  0.34856000  1.0
  H  H9  1  0.28625000  0.62891000  0.67836000  1.0
  H  H10  1  0.71374000  0.37111000  0.32164000  1.0
  H  H11  1  0.15984000  0.68414000  0.77783000  1.0
  H  H12  1  0.84015000  0.31585000  0.22217000  1.0
  H  H13  1  0.10088000  0.33970000  0.77054000  1.0
  H  H14  1  0.89915000  0.66029000  0.22945000  1.0
  H  H15  1  0.60811000  0.27186000  0.06892000  1.0
  H  H16  1  0.39189000  0.72814000  0.93108000  1.0
  H  H17  1  0.10792000  0.42805000  0.99438000  1.0
  H  H18  1  0.89210000  0.57196000  0.00563000  1.0
  H  H19  1  0.93084000  0.25005000  0.03491000  1.0
  H  H20  1  0.06917000  0.74995000  0.96509000  1.0
  H  H21  1  0.10370000  0.07639000  0.09145000  1.0
  H  H22  1  0.89631000  0.92361000  0.90854000  1.0
  H  H23  1  0.39160000  0.00047000  0.14267000  1.0
  H  H24  1  0.60839000  0.99952000  0.85732000  1.0
  H  H25  1  0.83537000  0.89739000  0.15333000  1.0
  H  H26  1  0.16463000  0.10260000  0.84667000  1.0
  H  H27  1  0.61365000  0.87996000  0.18527000  1.0
  H  H28  1  0.38633000  0.12003000  0.81473000  1.0
  H  H29  1  0.90973000  0.10513000  0.29300000  1.0
  H  H30  1  0.09025000  0.89487000  0.70701000  1.0
  H  H31  1  0.68877000  0.09558000  0.32463000  1.0
  H  H32  1  0.31121000  0.90440000  0.67537000  1.0
  H  H33  1  0.98310000  0.89231000  0.33052000  1.0
  H  H34  1  0.01690000  0.10768000  0.66948000  1.0
  H  H35  1  0.76334000  0.88144000  0.36315000  1.0
  H  H36  1  0.23666000  0.11854000  0.63685000  1.0
  H  H37  1  0.83637000  0.09023000  0.50085000  1.0
  H  H38  1  0.16362000  0.90976000  0.49915000  1.0
  H  H39  1  0.04584000  0.11708000  0.46297000  1.0
  H  H40  1  0.95416000  0.88291000  0.53703000  1.0
  H  H41  1  0.34480000  0.60401000  0.28035000  1.0
  H  H42  1  0.65520000  0.39600000  0.71966000  1.0
  H  H43  1  0.27277000  0.36424000  0.24351000  1.0
  H  H44  1  0.72722000  0.63577000  0.75650000  1.0
  H  H45  1  0.46748000  0.81949000  0.40056000  1.0
  H  H46  1  0.53252000  0.18051000  0.59944000  1.0
  H  H47  1  0.62507000  0.95073000  0.57110000  1.0
  H  H48  1  0.37493000  0.04928000  0.42890000  1.0
  H  H49  1  0.28240000  0.15994000  0.29869000  1.0
  H  H50  1  0.71759000  0.84006000  0.70131000  1.0
  C  C51  1  0.67517000  0.27335000  0.85724000  1.0
  C  C52  1  0.32482000  0.72667000  0.14276000  1.0
  C  C53  1  0.04792000  0.38762000  0.60337000  1.0
  C  C54  1  0.95208000  0.61239000  0.39662000  1.0
  C  C55  1  0.15341000  0.61874000  0.70215000  1.0
  C  C56  1  0.84658000  0.38127000  0.29785000  1.0
  C  C57  1  0.14138000  0.44581000  0.78378000  1.0
  C  C58  1  0.85863000  0.55418000  0.21621000  1.0
  C  C59  1  0.37163000  0.15938000  0.08510000  1.0
  C  C60  1  0.62838000  0.84062000  0.91490000  1.0
  C  C61  1  0.45917000  0.26224000  0.06178000  1.0
  C  C62  1  0.54084000  0.73777000  0.93822000  1.0
  C  C63  1  0.17630000  0.35060000  0.02091000  1.0
  C  C64  1  0.82371000  0.64941000  0.97910000  1.0
  C  C65  1  0.08039000  0.25127000  0.04251000  1.0
  C  C66  1  0.91963000  0.74873000  0.95749000  1.0
  C  C67  1  0.17798000  0.15469000  0.07463000  1.0
  C  C68  1  0.82203000  0.84531000  0.92536000  1.0
  C  C69  1  0.65519000  0.04594000  0.12853000  1.0
  C  C70  1  0.34481000  0.95406000  0.87148000  1.0
  C  C71  1  0.72368000  0.95168000  0.18655000  1.0
  C  C72  1  0.27631000  0.04831000  0.81345000  1.0
  C  C73  1  0.79863000  0.03509000  0.29396000  1.0
  C  C74  1  0.20135000  0.96490000  0.70604000  1.0
  C  C75  1  0.87312000  0.95224000  0.36167000  1.0
  C  C76  1  0.12687000  0.04775000  0.63834000  1.0
  C  C77  1  0.94998000  0.03866000  0.46687000  1.0
  C  C78  1  0.05001000  0.96132000  0.53313000  1.0
  C  C79  1  0.38125000  0.55504000  0.33801000  1.0
  C  C80  1  0.61875000  0.44496000  0.66199000  1.0
  C  C81  1  0.34182000  0.42196000  0.31754000  1.0
  C  C82  1  0.65817000  0.57804000  0.68246000  1.0
  C  C83  1  0.38911000  0.35511000  0.39200000  1.0
  C  C84  1  0.61089000  0.64490000  0.60800000  1.0
  C  C85  1  0.47998000  0.43055000  0.48927000  1.0
  C  C86  1  0.52002000  0.56945000  0.51074000  1.0
  C  C87  1  0.46956000  0.63354000  0.43513000  1.0
  C  C88  1  0.53044000  0.36647000  0.56487000  1.0
  C  C89  1  0.50795000  0.77121000  0.45849000  1.0
  C  C90  1  0.49205000  0.22880000  0.54151000  1.0
  C  C91  1  0.59612000  0.84405000  0.55359000  1.0
  C  C92  1  0.40387000  0.15596000  0.44641000  1.0
  C  C93  1  0.35169000  0.21800000  0.37266000  1.0
  C  C94  1  0.64831000  0.78200000  0.62734000  1.0
  S  S95  1  0.76418000  0.14572000  0.79009000  1.0
  S  S96  1  0.23582000  0.85428000  0.20990000  1.0
  N  N97  1  0.60913000  0.36713000  0.90455000  1.0
  N  N98  1  0.39088000  0.63286000  0.09543000  1.0
  N  N99  1  0.11310000  0.48275000  0.69975000  1.0
  N  N100  1  0.88690000  0.51725000  0.30025000  1.0
  N  N101  1  0.36124000  0.35405000  0.03081000  1.0
  N  N102  1  0.63878000  0.64595000  0.96920000  1.0
  N  N103  1  0.46886000  0.06426000  0.12021000  1.0
  N  N104  1  0.53114000  0.93573000  0.87978000  1.0
  O  O105  1  0.20350000  0.52041000  0.86844000  1.0
  O  O106  1  0.79651000  0.47959000  0.13155000  1.0
  O  O107  1  0.76260000  0.10855000  0.09747000  1.0
  O  O108  1  0.23742000  0.89145000  0.90254000  1.0
