# generated using pymatgen
data_Zn4H33C45N3O13
_symmetry_space_group_name_H-M   'P 1'
_cell_length_a   18.97330000
_cell_length_b   18.97320000
_cell_length_c   25.29620000
_cell_angle_alpha   67.97830000
_cell_angle_beta   67.97820000
_cell_angle_gamma   60.00590000
_symmetry_Int_Tables_number   1
_chemical_formula_structural   Zn4H33C45N3O13
_chemical_formula_sum   'Zn16 H132 C180 N12 O52'
_cell_volume   7109.10584836
_cell_formula_units_Z   4
loop_
 _symmetry_equiv_pos_site_id
 _symmetry_equiv_pos_as_xyz
  1  'x, y, z'
loop_
 _atom_site_type_symbol
 _atom_site_label
 _atom_site_symmetry_multiplicity
 _atom_site_fract_x
 _atom_site_fract_y
 _atom_site_fract_z
 _atom_site_occupancy
  Zn  Zn0  1  0.63039000  0.63022000  0.10897000  1.0
  Zn  Zn1  1  0.36978000  0.36961000  0.89103000  1.0
  Zn  Zn2  1  0.75105000  0.56046000  0.99505000  1.0
  Zn  Zn3  1  0.56049000  0.69351000  0.99495000  1.0
  Zn  Zn4  1  0.69338000  0.75108000  0.99501000  1.0
  Zn  Zn5  1  0.30649000  0.43951000  0.00505000  1.0
  Zn  Zn6  1  0.43954000  0.24895000  0.00495000  1.0
  Zn  Zn7  1  0.24892000  0.30662000  0.00499000  1.0
  Zn  Zn8  1  0.19155000  0.19164000  0.42513000  1.0
  Zn  Zn9  1  0.80836000  0.80844000  0.57487000  1.0
  Zn  Zn10  1  0.06813000  0.13365000  0.53835000  1.0
  Zn  Zn11  1  0.13358000  0.26002000  0.53833000  1.0
  Zn  Zn12  1  0.25994000  0.06814000  0.53834000  1.0
  Zn  Zn13  1  0.73998000  0.86642000  0.46167000  1.0
  Zn  Zn14  1  0.86635000  0.93187000  0.46165000  1.0
  Zn  Zn15  1  0.93186000  0.74006000  0.46166000  1.0
  H  H16  1  0.83751000  0.30667000  0.09058000  1.0
  H  H17  1  0.30697000  0.76512000  0.09053000  1.0
  H  H18  1  0.76519000  0.83717000  0.09071000  1.0
  H  H19  1  0.23488000  0.69303000  0.90947000  1.0
  H  H20  1  0.69333000  0.16249000  0.90943000  1.0
  H  H21  1  0.16283000  0.23481000  0.90929000  1.0
  H  H22  1  0.90102000  0.16777000  0.15532000  1.0
  H  H23  1  0.16801000  0.77586000  0.15518000  1.0
  H  H24  1  0.77587000  0.90061000  0.15549000  1.0
  H  H25  1  0.22414000  0.83199000  0.84482000  1.0
  H  H26  1  0.83223000  0.09898000  0.84468000  1.0
  H  H27  1  0.09939000  0.22413000  0.84451000  1.0
  H  H28  1  0.84409000  0.28979000  0.28949000  1.0
  H  H29  1  0.28978000  0.57654000  0.28942000  1.0
  H  H30  1  0.57637000  0.84400000  0.28953000  1.0
  H  H31  1  0.42346000  0.71022000  0.71058000  1.0
  H  H32  1  0.71022000  0.15590000  0.71051000  1.0
  H  H33  1  0.15600000  0.42363000  0.71047000  1.0
  H  H34  1  0.77207000  0.42669000  0.22656000  1.0
  H  H35  1  0.42676000  0.57449000  0.22658000  1.0
  H  H36  1  0.57447000  0.77192000  0.22660000  1.0
  H  H37  1  0.42551000  0.57324000  0.77341000  1.0
  H  H38  1  0.57331000  0.22793000  0.77344000  1.0
  H  H39  1  0.22808000  0.42553000  0.77341000  1.0
  H  H40  1  0.98137000  0.04202000  0.22178000  1.0
  H  H41  1  0.04196000  0.75498000  0.22174000  1.0
  H  H42  1  0.75461000  0.98136000  0.22176000  1.0
  H  H43  1  0.24502000  0.95804000  0.77826000  1.0
  H  H44  1  0.95798000  0.01862000  0.77822000  1.0
  H  H45  1  0.01864000  0.24539000  0.77824000  1.0
  H  H46  1  0.87042000  0.07299000  0.24805000  1.0
  H  H47  1  0.07315000  0.80849000  0.24802000  1.0
  H  H48  1  0.80837000  0.87043000  0.24804000  1.0
  H  H49  1  0.19151000  0.92685000  0.75198000  1.0
  H  H50  1  0.92701000  0.12958000  0.75195000  1.0
  H  H51  1  0.12957000  0.19163000  0.75196000  1.0
  H  H52  1  0.93690000  0.01682000  0.29838000  1.0
  H  H53  1  0.01695000  0.74788000  0.29834000  1.0
  H  H54  1  0.74771000  0.93691000  0.29836000  1.0
  H  H55  1  0.25212000  0.98305000  0.70166000  1.0
  H  H56  1  0.98318000  0.06310000  0.70161000  1.0
  H  H57  1  0.06309000  0.25228000  0.70165000  1.0
  H  H58  1  0.95226000  0.08204000  0.44897000  1.0
  H  H59  1  0.08224000  0.51667000  0.44883000  1.0
  H  H60  1  0.51646000  0.95217000  0.44892000  1.0
  H  H61  1  0.48334000  0.91776000  0.55117000  1.0
  H  H62  1  0.91796000  0.04774000  0.55103000  1.0
  H  H63  1  0.04784000  0.48354000  0.55108000  1.0
  H  H64  1  0.88547000  0.08098000  0.38127000  1.0
  H  H65  1  0.08109000  0.65221000  0.38112000  1.0
  H  H66  1  0.65204000  0.88542000  0.38123000  1.0
  H  H67  1  0.34779000  0.91891000  0.61888000  1.0
  H  H68  1  0.91902000  0.11452000  0.61874000  1.0
  H  H69  1  0.11458000  0.34796000  0.61877000  1.0
  H  H70  1  0.02994000  0.19878000  0.23464000  1.0
  H  H71  1  0.19888000  0.53654000  0.23450000  1.0
  H  H72  1  0.53660000  0.03019000  0.23452000  1.0
  H  H73  1  0.46346000  0.80112000  0.76550000  1.0
  H  H74  1  0.80122000  0.97005000  0.76536000  1.0
  H  H75  1  0.96981000  0.46340000  0.76547000  1.0
  H  H76  1  0.09652000  0.19982000  0.30263000  1.0
  H  H77  1  0.19981000  0.40100000  0.30247000  1.0
  H  H78  1  0.40097000  0.09673000  0.30250000  1.0
  H  H79  1  0.59900000  0.80019000  0.69753000  1.0
  H  H80  1  0.80018000  0.90347000  0.69737000  1.0
  H  H81  1  0.90327000  0.59903000  0.69750000  1.0
  H  H82  1  0.29743000  0.81922000  0.63355000  1.0
  H  H83  1  0.81934000  0.24974000  0.63351000  1.0
  H  H84  1  0.24965000  0.29742000  0.63366000  1.0
  H  H85  1  0.75026000  0.18066000  0.36649000  1.0
  H  H86  1  0.18078000  0.70258000  0.36645000  1.0
  H  H87  1  0.70259000  0.75035000  0.36633000  1.0
  H  H88  1  0.29347000  0.68747000  0.69963000  1.0
  H  H89  1  0.68747000  0.31931000  0.69956000  1.0
  H  H90  1  0.31930000  0.29359000  0.69969000  1.0
  H  H91  1  0.68068000  0.31253000  0.30044000  1.0
  H  H92  1  0.31253000  0.70653000  0.30037000  1.0
  H  H93  1  0.70641000  0.68070000  0.30031000  1.0
  H  H94  1  0.02646000  0.79444000  0.71644000  1.0
  H  H95  1  0.79422000  0.46269000  0.71648000  1.0
  H  H96  1  0.46274000  0.02659000  0.71648000  1.0
  H  H97  1  0.53731000  0.20578000  0.28351000  1.0
  H  H98  1  0.20556000  0.97354000  0.28356000  1.0
  H  H99  1  0.97341000  0.53726000  0.28352000  1.0
  H  H100  1  0.03210000  0.92619000  0.65016000  1.0
  H  H101  1  0.92608000  0.39161000  0.65027000  1.0
  H  H102  1  0.39163000  0.03211000  0.65025000  1.0
  H  H103  1  0.60839000  0.07392000  0.34973000  1.0
  H  H104  1  0.07381000  0.96790000  0.34984000  1.0
  H  H105  1  0.96789000  0.60837000  0.34975000  1.0
  H  H106  1  0.26221000  0.56203000  0.71837000  1.0
  H  H107  1  0.56206000  0.45709000  0.71844000  1.0
  H  H108  1  0.45711000  0.26257000  0.71850000  1.0
  H  H109  1  0.54291000  0.43794000  0.28156000  1.0
  H  H110  1  0.43797000  0.73778000  0.28163000  1.0
  H  H111  1  0.73743000  0.54289000  0.28150000  1.0
  H  H112  1  0.21841000  0.53288000  0.79513000  1.0
  H  H113  1  0.53285000  0.45331000  0.79519000  1.0
  H  H114  1  0.45337000  0.21868000  0.79524000  1.0
  H  H115  1  0.54669000  0.46715000  0.20481000  1.0
  H  H116  1  0.46712000  0.78159000  0.20487000  1.0
  H  H117  1  0.78133000  0.54663000  0.20476000  1.0
  H  H118  1  0.27722000  0.59198000  0.77115000  1.0
  H  H119  1  0.59202000  0.35939000  0.77121000  1.0
  H  H120  1  0.35942000  0.27739000  0.77127000  1.0
  H  H121  1  0.64060000  0.40798000  0.22879000  1.0
  H  H122  1  0.40802000  0.72278000  0.22885000  1.0
  H  H123  1  0.72262000  0.64058000  0.22873000  1.0
  H  H124  1  0.97487000  0.53371000  0.86614000  1.0
  H  H125  1  0.53386000  0.62513000  0.86613000  1.0
  H  H126  1  0.62523000  0.97502000  0.86615000  1.0
  H  H127  1  0.37487000  0.46614000  0.13387000  1.0
  H  H128  1  0.46629000  0.02513000  0.13386000  1.0
  H  H129  1  0.02498000  0.37477000  0.13385000  1.0
  H  H130  1  0.10096000  0.53896000  0.78940000  1.0
  H  H131  1  0.53912000  0.57048000  0.78937000  1.0
  H  H132  1  0.57065000  0.10115000  0.78938000  1.0
  H  H133  1  0.42951000  0.46088000  0.21063000  1.0
  H  H134  1  0.46104000  0.89903000  0.21061000  1.0
  H  H135  1  0.89885000  0.42935000  0.21062000  1.0
  H  H136  1  0.04190000  0.77674000  0.81508000  1.0
  H  H137  1  0.77686000  0.36610000  0.81507000  1.0
  H  H138  1  0.36628000  0.04209000  0.81500000  1.0
  H  H139  1  0.63389000  0.22314000  0.18494000  1.0
  H  H140  1  0.22326000  0.95809000  0.18492000  1.0
  H  H141  1  0.95791000  0.63372000  0.18500000  1.0
  H  H142  1  0.91253000  0.77268000  0.88956000  1.0
  H  H143  1  0.77292000  0.42515000  0.88945000  1.0
  H  H144  1  0.42517000  0.91273000  0.88946000  1.0
  H  H145  1  0.57485000  0.22709000  0.11055000  1.0
  H  H146  1  0.22733000  0.08747000  0.11044000  1.0
  H  H147  1  0.08728000  0.57483000  0.11054000  1.0
  C  C148  1  0.76260000  0.45892000  0.11544000  1.0
  C  C149  1  0.45909000  0.66294000  0.11545000  1.0
  C  C150  1  0.66290000  0.76246000  0.11547000  1.0
  C  C151  1  0.33707000  0.54091000  0.88455000  1.0
  C  C152  1  0.54109000  0.23740000  0.88456000  1.0
  C  C153  1  0.23753000  0.33710000  0.88453000  1.0
  C  C154  1  0.80182000  0.37611000  0.15373000  1.0
  C  C155  1  0.37628000  0.66819000  0.15373000  1.0
  C  C156  1  0.66818000  0.80165000  0.15379000  1.0
  C  C157  1  0.33181000  0.62372000  0.84627000  1.0
  C  C158  1  0.62390000  0.19818000  0.84628000  1.0
  C  C159  1  0.19835000  0.33183000  0.84621000  1.0
  C  C160  1  0.83803000  0.30213000  0.13467000  1.0
  C  C161  1  0.30237000  0.72502000  0.13461000  1.0
  C  C162  1  0.72503000  0.83778000  0.13477000  1.0
  C  C163  1  0.27498000  0.69763000  0.86538000  1.0
  C  C164  1  0.69787000  0.16196000  0.86533000  1.0
  C  C165  1  0.16222000  0.27497000  0.86523000  1.0
  C  C166  1  0.87410000  0.22431000  0.17098000  1.0
  C  C167  1  0.22450000  0.73050000  0.17086000  1.0
  C  C168  1  0.73051000  0.87382000  0.17108000  1.0
  C  C169  1  0.26950000  0.77549000  0.82914000  1.0
  C  C170  1  0.77569000  0.12590000  0.82902000  1.0
  C  C171  1  0.12618000  0.26949000  0.82892000  1.0
  C  C172  1  0.87873000  0.21866000  0.22694000  1.0
  C  C173  1  0.21874000  0.67557000  0.22682000  1.0
  C  C174  1  0.67549000  0.87858000  0.22700000  1.0
  C  C175  1  0.32443000  0.78126000  0.77318000  1.0
  C  C176  1  0.78134000  0.12127000  0.77306000  1.0
  C  C177  1  0.12142000  0.32451000  0.77300000  1.0
  C  C178  1  0.84273000  0.29350000  0.24583000  1.0
  C  C179  1  0.29355000  0.61782000  0.24575000  1.0
  C  C180  1  0.61772000  0.84260000  0.24588000  1.0
  C  C181  1  0.38218000  0.70645000  0.75425000  1.0
  C  C182  1  0.70650000  0.15726000  0.75418000  1.0
  C  C183  1  0.15740000  0.38228000  0.75412000  1.0
  C  C184  1  0.80332000  0.36993000  0.21050000  1.0
  C  C185  1  0.37003000  0.61609000  0.21048000  1.0
  C  C186  1  0.61605000  0.80317000  0.21055000  1.0
  C  C187  1  0.38392000  0.62997000  0.78952000  1.0
  C  C188  1  0.63007000  0.19668000  0.78950000  1.0
  C  C189  1  0.19683000  0.38395000  0.78945000  1.0
  C  C190  1  0.92649000  0.06469000  0.25749000  1.0
  C  C191  1  0.06477000  0.75134000  0.25742000  1.0
  C  C192  1  0.75114000  0.92649000  0.25747000  1.0
  C  C193  1  0.24866000  0.93523000  0.74258000  1.0
  C  C194  1  0.93531000  0.07350000  0.74251000  1.0
  C  C195  1  0.07351000  0.24886000  0.74253000  1.0
  C  C196  1  0.06539000  0.14735000  0.41969000  1.0
  C  C197  1  0.14729000  0.36757000  0.41962000  1.0
  C  C198  1  0.36745000  0.06541000  0.41965000  1.0
  C  C199  1  0.63243000  0.85271000  0.58038000  1.0
  C  C200  1  0.85265000  0.93461000  0.58031000  1.0
  C  C201  1  0.93460000  0.63255000  0.58035000  1.0
  C  C202  1  0.02778000  0.14199000  0.38001000  1.0
  C  C203  1  0.14200000  0.45019000  0.37988000  1.0
  C  C204  1  0.45006000  0.02780000  0.37993000  1.0
  C  C205  1  0.54981000  0.85800000  0.62012000  1.0
  C  C206  1  0.85801000  0.97222000  0.61999000  1.0
  C  C207  1  0.97220000  0.54994000  0.62007000  1.0
  C  C208  1  0.96935000  0.10725000  0.40200000  1.0
  C  C209  1  0.10736000  0.52135000  0.40186000  1.0
  C  C210  1  0.52118000  0.96932000  0.40194000  1.0
  C  C211  1  0.47865000  0.89264000  0.59814000  1.0
  C  C212  1  0.89274000  0.03065000  0.59800000  1.0
  C  C213  1  0.03069000  0.47881000  0.59806000  1.0
  C  C214  1  0.93238000  0.10607000  0.36425000  1.0
  C  C215  1  0.10615000  0.59726000  0.36408000  1.0
  C  C216  1  0.59709000  0.93237000  0.36420000  1.0
  C  C217  1  0.40275000  0.89385000  0.63592000  1.0
  C  C218  1  0.89393000  0.06762000  0.63575000  1.0
  C  C219  1  0.06764000  0.40291000  0.63580000  1.0
  C  C220  1  0.95347000  0.14003000  0.30397000  1.0
  C  C221  1  0.14005000  0.60250000  0.30381000  1.0
  C  C222  1  0.60237000  0.95348000  0.30392000  1.0
  C  C223  1  0.39750000  0.85995000  0.69620000  1.0
  C  C224  1  0.85997000  0.04653000  0.69603000  1.0
  C  C225  1  0.04652000  0.39762000  0.69608000  1.0
  C  C226  1  0.01332000  0.17326000  0.28168000  1.0
  C  C227  1  0.17327000  0.53169000  0.28153000  1.0
  C  C228  1  0.53166000  0.01349000  0.28158000  1.0
  C  C229  1  0.46831000  0.82673000  0.71847000  1.0
  C  C230  1  0.82675000  0.98667000  0.71832000  1.0
  C  C231  1  0.98652000  0.46833000  0.71842000  1.0
  C  C232  1  0.05014000  0.17416000  0.31937000  1.0
  C  C233  1  0.17412000  0.45629000  0.31923000  1.0
  C  C234  1  0.45624000  0.05029000  0.31927000  1.0
  C  C235  1  0.54371000  0.82588000  0.68077000  1.0
  C  C236  1  0.82584000  0.94986000  0.68063000  1.0
  C  C237  1  0.94971000  0.54376000  0.68073000  1.0
  C  C238  1  0.16592000  0.96407000  0.60192000  1.0
  C  C239  1  0.96407000  0.26813000  0.60198000  1.0
  C  C240  1  0.26812000  0.16589000  0.60198000  1.0
  C  C241  1  0.73187000  0.03593000  0.39802000  1.0
  C  C242  1  0.03593000  0.83408000  0.39808000  1.0
  C  C243  1  0.83411000  0.73189000  0.39802000  1.0
  C  C244  1  0.16461000  0.88326000  0.63911000  1.0
  C  C245  1  0.88326000  0.31299000  0.63919000  1.0
  C  C246  1  0.31303000  0.16462000  0.63918000  1.0
  C  C247  1  0.68700000  0.11674000  0.36081000  1.0
  C  C248  1  0.11674000  0.83539000  0.36089000  1.0
  C  C249  1  0.83539000  0.68697000  0.36082000  1.0
  C  C250  1  0.23795000  0.81386000  0.65232000  1.0
  C  C251  1  0.81391000  0.29580000  0.65233000  1.0
  C  C252  1  0.29578000  0.23797000  0.65240000  1.0
  C  C253  1  0.70420000  0.18610000  0.34767000  1.0
  C  C254  1  0.18614000  0.76206000  0.34768000  1.0
  C  C255  1  0.76203000  0.70422000  0.34760000  1.0
  C  C256  1  0.23556000  0.73927000  0.68959000  1.0
  C  C257  1  0.73926000  0.33546000  0.68959000  1.0
  C  C258  1  0.33549000  0.23567000  0.68964000  1.0
  C  C259  1  0.66454000  0.26075000  0.31042000  1.0
  C  C260  1  0.26073000  0.76444000  0.31041000  1.0
  C  C261  1  0.76433000  0.66451000  0.31036000  1.0
  C  C262  1  0.15870000  0.73187000  0.71611000  1.0
  C  C263  1  0.73180000  0.39320000  0.71613000  1.0
  C  C264  1  0.39332000  0.15887000  0.71611000  1.0
  C  C265  1  0.60679000  0.26820000  0.28387000  1.0
  C  C266  1  0.26813000  0.84130000  0.28389000  1.0
  C  C267  1  0.84113000  0.60668000  0.28389000  1.0
  C  C268  1  0.08562000  0.80027000  0.69974000  1.0
  C  C269  1  0.80011000  0.41439000  0.69975000  1.0
  C  C270  1  0.41446000  0.08575000  0.69975000  1.0
  C  C271  1  0.58561000  0.19989000  0.30025000  1.0
  C  C272  1  0.19973000  0.91438000  0.30026000  1.0
  C  C273  1  0.91425000  0.58554000  0.30025000  1.0
  C  C274  1  0.08875000  0.87419000  0.66244000  1.0
  C  C275  1  0.87410000  0.37467000  0.66250000  1.0
  C  C276  1  0.37472000  0.08880000  0.66248000  1.0
  C  C277  1  0.62533000  0.12590000  0.33750000  1.0
  C  C278  1  0.12580000  0.91126000  0.33756000  1.0
  C  C279  1  0.91121000  0.62528000  0.33753000  1.0
  C  C280  1  0.23240000  0.58251000  0.75987000  1.0
  C  C281  1  0.58251000  0.42496000  0.75995000  1.0
  C  C282  1  0.42500000  0.23267000  0.75998000  1.0
  C  C283  1  0.57503000  0.41750000  0.24005000  1.0
  C  C284  1  0.41749000  0.76760000  0.24013000  1.0
  C  C285  1  0.76733000  0.57500000  0.24002000  1.0
  C  C286  1  0.85827000  0.65140000  0.92754000  1.0
  C  C287  1  0.65150000  0.56264000  0.92756000  1.0
  C  C288  1  0.56266000  0.85848000  0.92758000  1.0
  C  C289  1  0.43736000  0.34851000  0.07244000  1.0
  C  C290  1  0.34860000  0.14173000  0.07246000  1.0
  C  C291  1  0.14152000  0.43734000  0.07242000  1.0
  C  C292  1  0.93549000  0.65297000  0.88269000  1.0
  C  C293  1  0.65311000  0.52870000  0.88268000  1.0
  C  C294  1  0.52876000  0.93571000  0.88270000  1.0
  C  C295  1  0.47130000  0.34690000  0.11732000  1.0
  C  C296  1  0.34703000  0.06451000  0.11731000  1.0
  C  C297  1  0.06429000  0.47124000  0.11730000  1.0
  C  C298  1  0.98977000  0.58693000  0.85459000  1.0
  C  C299  1  0.58708000  0.56859000  0.85457000  1.0
  C  C300  1  0.56867000  0.98995000  0.85458000  1.0
  C  C301  1  0.43141000  0.41292000  0.14543000  1.0
  C  C302  1  0.41308000  0.01023000  0.14541000  1.0
  C  C303  1  0.01005000  0.43133000  0.14541000  1.0
  C  C304  1  0.06095000  0.58980000  0.81185000  1.0
  C  C305  1  0.58994000  0.53724000  0.81185000  1.0
  C  C306  1  0.53737000  0.06114000  0.81184000  1.0
  C  C307  1  0.46276000  0.41007000  0.18815000  1.0
  C  C308  1  0.41020000  0.93905000  0.18815000  1.0
  C  C309  1  0.93887000  0.46263000  0.18816000  1.0
  C  C310  1  0.08074000  0.65811000  0.79702000  1.0
  C  C311  1  0.65817000  0.46394000  0.79705000  1.0
  C  C312  1  0.46413000  0.08095000  0.79699000  1.0
  C  C313  1  0.53606000  0.34183000  0.20295000  1.0
  C  C314  1  0.34190000  0.91926000  0.20298000  1.0
  C  C315  1  0.91905000  0.53587000  0.20301000  1.0
  C  C316  1  0.02649000  0.72413000  0.82563000  1.0
  C  C317  1  0.72425000  0.42359000  0.82561000  1.0
  C  C318  1  0.42377000  0.02669000  0.82554000  1.0
  C  C319  1  0.57641000  0.27575000  0.17439000  1.0
  C  C320  1  0.27587000  0.97351000  0.17437000  1.0
  C  C321  1  0.97332000  0.57623000  0.17446000  1.0
  C  C322  1  0.95458000  0.72177000  0.86732000  1.0
  C  C323  1  0.72195000  0.45620000  0.86726000  1.0
  C  C324  1  0.45627000  0.95479000  0.86726000  1.0
  C  C325  1  0.54380000  0.27805000  0.13274000  1.0
  C  C326  1  0.27823000  0.04541000  0.13268000  1.0
  C  C327  1  0.04522000  0.54373000  0.13274000  1.0
  N  N328  1  0.91417000  0.14290000  0.26478000  1.0
  N  N329  1  0.14295000  0.67810000  0.26462000  1.0
  N  N330  1  0.67800000  0.91409000  0.26478000  1.0
  N  N331  1  0.32190000  0.85705000  0.73539000  1.0
  N  N332  1  0.85710000  0.08583000  0.73522000  1.0
  N  N333  1  0.08592000  0.32200000  0.73522000  1.0
  N  N334  1  0.15518000  0.65880000  0.75568000  1.0
  N  N335  1  0.65878000  0.43011000  0.75576000  1.0
  N  N336  1  0.43028000  0.15542000  0.75570000  1.0
  N  N337  1  0.56989000  0.34122000  0.24424000  1.0
  N  N338  1  0.34120000  0.84482000  0.24432000  1.0
  N  N339  1  0.84458000  0.56972000  0.24430000  1.0
  O  O340  1  0.65892000  0.65893000  0.02318000  1.0
  O  O341  1  0.34107000  0.34107000  0.97682000  1.0
  O  O342  1  0.16313000  0.16317000  0.51063000  1.0
  O  O343  1  0.83682000  0.83687000  0.48937000  1.0
  O  O344  1  0.71604000  0.52135000  0.13984000  1.0
  O  O345  1  0.52149000  0.62266000  0.13988000  1.0
  O  O346  1  0.62266000  0.71588000  0.13984000  1.0
  O  O347  1  0.37734000  0.47850000  0.86012000  1.0
  O  O348  1  0.47866000  0.28396000  0.86016000  1.0
  O  O349  1  0.28412000  0.37733000  0.86016000  1.0
  O  O350  1  0.77786000  0.46246000  0.06105000  1.0
  O  O351  1  0.46261000  0.69860000  0.06106000  1.0
  O  O352  1  0.69852000  0.77777000  0.06109000  1.0
  O  O353  1  0.30140000  0.53739000  0.93894000  1.0
  O  O354  1  0.53755000  0.22214000  0.93895000  1.0
  O  O355  1  0.22223000  0.30147000  0.93891000  1.0
  O  O356  1  0.12065000  0.17671000  0.39470000  1.0
  O  O357  1  0.17674000  0.30786000  0.39469000  1.0
  O  O358  1  0.30779000  0.12072000  0.39471000  1.0
  O  O359  1  0.69214000  0.82326000  0.60531000  1.0
  O  O360  1  0.82329000  0.87934000  0.60530000  1.0
  O  O361  1  0.87929000  0.69220000  0.60529000  1.0
  O  O362  1  0.03942000  0.12351000  0.47505000  1.0
  O  O363  1  0.12328000  0.36215000  0.47498000  1.0
  O  O364  1  0.36201000  0.03939000  0.47500000  1.0
  O  O365  1  0.63785000  0.87672000  0.52502000  1.0
  O  O366  1  0.87648000  0.96059000  0.52494000  1.0
  O  O367  1  0.96062000  0.63799000  0.52499000  1.0
  O  O368  1  0.09500000  0.02589000  0.59624000  1.0
  O  O369  1  0.02585000  0.28301000  0.59625000  1.0
  O  O370  1  0.28300000  0.09496000  0.59624000  1.0
  O  O371  1  0.71699000  0.97415000  0.40375000  1.0
  O  O372  1  0.97411000  0.90500000  0.40376000  1.0
  O  O373  1  0.90504000  0.71700000  0.40376000  1.0
  O  O374  1  0.23731000  0.96780000  0.57840000  1.0
  O  O375  1  0.96784000  0.21651000  0.57845000  1.0
  O  O376  1  0.21646000  0.23726000  0.57849000  1.0
  O  O377  1  0.78348000  0.03216000  0.42155000  1.0
  O  O378  1  0.03220000  0.76269000  0.42161000  1.0
  O  O379  1  0.76274000  0.78354000  0.42150000  1.0
  O  O380  1  0.80775000  0.71827000  0.94579000  1.0
  O  O381  1  0.71835000  0.52803000  0.94581000  1.0
  O  O382  1  0.52815000  0.80790000  0.94571000  1.0
  O  O383  1  0.47197000  0.28166000  0.05419000  1.0
  O  O384  1  0.28173000  0.19225000  0.05422000  1.0
  O  O385  1  0.19210000  0.47185000  0.05429000  1.0
  O  O386  1  0.84828000  0.58369000  0.94424000  1.0
  O  O387  1  0.58377000  0.62362000  0.94427000  1.0
  O  O388  1  0.62352000  0.84856000  0.94441000  1.0
  O  O389  1  0.37638000  0.41624000  0.05572000  1.0
  O  O390  1  0.41631000  0.15172000  0.05577000  1.0
  O  O391  1  0.15144000  0.37648000  0.05559000  1.0
