# generated using pymatgen
data_Zn3H15C31N5O18
_symmetry_space_group_name_H-M   'P 1'
_cell_length_a   21.80970000
_cell_length_b   21.82460000
_cell_length_c   21.87145285
_cell_angle_alpha   92.59059718
_cell_angle_beta   118.87808227
_cell_angle_gamma   117.93500000
_symmetry_Int_Tables_number   1
_chemical_formula_structural   Zn3H15C31N5O18
_chemical_formula_sum   'Zn6 H30 C62 N10 O36'
_cell_volume   7541.74249512
_cell_formula_units_Z   2
loop_
 _symmetry_equiv_pos_site_id
 _symmetry_equiv_pos_as_xyz
  1  'x, y, z'
loop_
 _atom_site_type_symbol
 _atom_site_label
 _atom_site_symmetry_multiplicity
 _atom_site_fract_x
 _atom_site_fract_y
 _atom_site_fract_z
 _atom_site_occupancy
  Zn  Zn0  1  0.07301000  0.06436000  0.56954000  1.0
  Zn  Zn1  1  0.94285000  0.94383000  0.43938000  1.0
  Zn  Zn2  1  0.93448000  0.50139000  0.99489000  1.0
  Zn  Zn3  1  0.06368000  0.49856000  0.00207000  1.0
  Zn  Zn4  1  0.50160000  0.04278000  0.46170000  1.0
  Zn  Zn5  1  0.51344000  0.96184000  0.55170000  1.0
  H  H6  1  0.02806000  0.37040000  0.29849000  1.0
  H  H7  1  0.86526000  0.60555000  0.69249000  1.0
  H  H8  1  0.06236000  0.28006000  0.18489000  1.0
  H  H9  1  0.96514000  0.77492000  0.83718000  1.0
  H  H10  1  0.73533000  0.98456000  0.57131000  1.0
  H  H11  1  0.30961000  0.01354000  0.50033000  1.0
  H  H12  1  0.77689000  0.98658000  0.43142000  1.0
  H  H13  1  0.28860000  0.04896000  0.64665000  1.0
  H  H14  1  0.38145000  0.77403000  0.35643000  1.0
  H  H15  1  0.66452000  0.27453000  0.63726000  1.0
  H  H16  1  0.28556000  0.83834000  0.26004000  1.0
  H  H17  1  0.75399000  0.19480000  0.70075000  1.0
  H  H18  1  0.94639000  0.24794000  0.33519000  1.0
  H  H19  1  0.92645000  0.66969000  0.60763000  1.0
  H  H20  1  0.91450000  0.18087000  0.11819000  1.0
  H  H21  1  0.09803000  0.81288000  0.85082000  1.0
  H  H22  1  0.10812000  0.34437000  0.27147000  1.0
  H  H23  1  0.87059000  0.70068000  0.75467000  1.0
  H  H24  1  0.11537000  0.31139000  0.38939000  1.0
  H  H25  1  0.81723000  0.69263000  0.62217000  1.0
  H  H26  1  0.69072000  0.02884000  0.38302000  1.0
  H  H27  1  0.36347000  0.99432000  0.69884000  1.0
  H  H28  1  0.10042000  0.68483000  0.14913000  1.0
  H  H29  1  0.94645000  0.33028000  0.81969000  1.0
  H  H30  1  0.78310000  0.13165000  0.17626000  1.0
  H  H31  1  0.12318000  0.74820000  0.72372000  1.0
  H  H32  1  0.17759000  0.27879000  0.32975000  1.0
  H  H33  1  0.87666000  0.81909000  0.66179000  1.0
  H  H34  1  0.03305000  0.13247000  0.23478000  1.0
  H  H35  1  0.00110000  0.88569000  0.81221000  1.0
  C  C36  1  0.92984000  0.04225000  0.53838000  1.0
  C  C37  1  0.13695000  0.00650000  0.53127000  1.0
  C  C38  1  0.05476000  0.28893000  0.22990000  1.0
  C  C39  1  0.93791000  0.74252000  0.78052000  1.0
  C  C40  1  0.05444000  0.22990000  0.26611000  1.0
  C  C41  1  0.94867000  0.79414000  0.73559000  1.0
  C  C42  1  0.96507000  0.33013000  0.15261000  1.0
  C  C43  1  0.98655000  0.66573000  0.83729000  1.0
  C  C44  1  0.99066000  0.15445000  0.32670000  1.0
  C  C45  1  0.96691000  0.80915000  0.63323000  1.0
  C  C46  1  0.99280000  0.11357000  0.36232000  1.0
  C  C47  1  0.96154000  0.84385000  0.59128000  1.0
  C  C48  1  0.71477000  0.00899000  0.47389000  1.0
  C  C49  1  0.33513000  0.00209000  0.60265000  1.0
  C  C50  1  0.69502000  0.99343000  0.52391000  1.0
  C  C51  1  0.34716000  0.00231000  0.54720000  1.0
  C  C52  1  0.78703000  0.01320000  0.48211000  1.0
  C  C53  1  0.27289000  0.01528000  0.59621000  1.0
  C  C54  1  0.86695000  0.04792000  0.54459000  1.0
  C  C55  1  0.19560000  0.98826000  0.53275000  1.0
  C  C56  1  0.13346000  0.61110000  0.11930000  1.0
  C  C57  1  0.92017000  0.39913000  0.87457000  1.0
  C  C58  1  0.99371000  0.06669000  0.40668000  1.0
  C  C59  1  0.96611000  0.89293000  0.54926000  1.0
  C  C60  1  0.96454000  0.41492000  0.06956000  1.0
  C  C61  1  0.98617000  0.58733000  0.92622000  1.0
  C  C62  1  0.39056000  0.89935000  0.37772000  1.0
  C  C63  1  0.63082000  0.13808000  0.59558000  1.0
  C  C64  1  0.62169000  0.98554000  0.51839000  1.0
  C  C65  1  0.40905000  0.99619000  0.54241000  1.0
  C  C66  1  0.33221000  0.77299000  0.30623000  1.0
  C  C67  1  0.71488000  0.26881000  0.67701000  1.0
  C  C68  1  0.32906000  0.83330000  0.30889000  1.0
  C  C69  1  0.70787000  0.20455000  0.66099000  1.0
  C  C70  1  0.27690000  0.70612000  0.24067000  1.0
  C  C71  1  0.78061000  0.32914000  0.74897000  1.0
  C  C72  1  0.19525000  0.68138000  0.18512000  1.0
  C  C73  1  0.85955000  0.34334000  0.79793000  1.0
  C  C74  1  0.99387000  0.26938000  0.32265000  1.0
  C  C75  1  0.91134000  0.68457000  0.64448000  1.0
  C  C76  1  0.89481000  0.15622000  0.20534000  1.0
  C  C77  1  0.06502000  0.78906000  0.73721000  1.0
  C  C78  1  0.89831000  0.20124000  0.15130000  1.0
  C  C79  1  0.07271000  0.76463000  0.80608000  1.0
  C  C80  1  0.96111000  0.36830000  0.11409000  1.0
  C  C81  1  0.98674000  0.63184000  0.87971000  1.0
  C  C82  1  0.98462000  0.20117000  0.28218000  1.0
  C  C83  1  0.97294000  0.77069000  0.68584000  1.0
  C  C84  1  0.97401000  0.31211000  0.26751000  1.0
  C  C85  1  0.92761000  0.64566000  0.70401000  1.0
  C  C86  1  0.97166000  0.28473000  0.19868000  1.0
  C  C87  1  0.98239000  0.70330000  0.78405000  1.0
  C  C88  1  0.89868000  0.30994000  0.24729000  1.0
  C  C89  1  0.96132000  0.60376000  0.69722000  1.0
  C  C90  1  0.89474000  0.08999000  0.61486000  1.0
  C  C91  1  0.16221000  0.93852000  0.46380000  1.0
  C  C92  1  0.30958000  0.66299000  0.24007000  1.0
  C  C93  1  0.75711000  0.37474000  0.76653000  1.0
  C  C94  1  0.87058000  0.08199000  0.17049000  1.0
  C  C95  1  0.13185000  0.86829000  0.76386000  1.0
  C  C96  1  0.81489000  0.18616000  0.09959000  1.0
  C  C97  1  0.13361000  0.74455000  0.83372000  1.0
  N  N98  1  0.83924000  0.30889000  0.23292000  1.0
  N  N99  1  0.98597000  0.56853000  0.69031000  1.0
  N  N100  1  0.91834000  0.12414000  0.67313000  1.0
  N  N101  1  0.13291000  0.89792000  0.40636000  1.0
  N  N102  1  0.34161000  0.63108000  0.24584000  1.0
  N  N103  1  0.73094000  0.40891000  0.77296000  1.0
  N  N104  1  0.84738000  0.02224000  0.14131000  1.0
  N  N105  1  0.18918000  0.92854000  0.78439000  1.0
  N  N106  1  0.74547000  0.16879000  0.05877000  1.0
  N  N107  1  0.18543000  0.73220000  0.85404000  1.0
  O  O108  1  0.00850000  0.08767000  0.59161000  1.0
  O  O109  1  0.06088000  0.96629000  0.47497000  1.0
  O  O110  1  0.42044000  0.89095000  0.44050000  1.0
  O  O111  1  0.59241000  0.14385000  0.53140000  1.0
  O  O112  1  0.58527000  0.01285000  0.47667000  1.0
  O  O113  1  0.44103000  0.96244000  0.57898000  1.0
  O  O114  1  0.60046000  0.95179000  0.55897000  1.0
  O  O115  1  0.42536000  0.02509000  0.49840000  1.0
  O  O116  1  0.90053000  0.99302000  0.48086000  1.0
  O  O117  1  0.16704000  0.06075000  0.58623000  1.0
  O  O118  1  0.04803000  0.09805000  0.47672000  1.0
  O  O119  1  0.91456000  0.86378000  0.47762000  1.0
  O  O120  1  0.93774000  0.99667000  0.37051000  1.0
  O  O121  1  0.02140000  0.96132000  0.58703000  1.0
  O  O122  1  0.05646000  0.58881000  0.08970000  1.0
  O  O123  1  0.99763000  0.41835000  0.90759000  1.0
  O  O124  1  0.15943000  0.58040000  0.09592000  1.0
  O  O125  1  0.89303000  0.42207000  0.90296000  1.0
  O  O126  1  0.91469000  0.43699000  0.05038000  1.0
  O  O127  1  0.03793000  0.56849000  0.94628000  1.0
  O  O128  1  0.01757000  0.43061000  0.05349000  1.0
  O  O129  1  0.93200000  0.56988000  0.94243000  1.0
  O  O130  1  0.40961000  0.96183000  0.36733000  1.0
  O  O131  1  0.60739000  0.07821000  0.60913000  1.0
  O  O132  1  0.07361000  0.31672000  0.39059000  1.0
  O  O133  1  0.82580000  0.66036000  0.59922000  1.0
  O  O134  1  0.66419000  0.01499000  0.40984000  1.0
  O  O135  1  0.38349000  0.99558000  0.66724000  1.0
  O  O136  1  0.16162000  0.71880000  0.18851000  1.0
  O  O137  1  0.88648000  0.30630000  0.77909000  1.0
  O  O138  1  0.83738000  0.14865000  0.22250000  1.0
  O  O139  1  0.07231000  0.74787000  0.69215000  1.0
  O  O140  1  0.13220000  0.25939000  0.33715000  1.0
  O  O141  1  0.86978000  0.78614000  0.69045000  1.0
  O  O142  1  0.03950000  0.17347000  0.21605000  1.0
  O  O143  1  0.01446000  0.86889000  0.78104000  1.0
