# generated using pymatgen
data_CuH6C14N2(ClO4)2
_symmetry_space_group_name_H-M   'P 1'
_cell_length_a   5.06342000
_cell_length_b   11.81950000
_cell_length_c   13.89420000
_cell_angle_alpha   84.46250000
_cell_angle_beta   85.44620000
_cell_angle_gamma   85.54060000
_symmetry_Int_Tables_number   1
_chemical_formula_structural   CuH6C14N2(ClO4)2
_chemical_formula_sum   'Cu2 H12 C28 N4 Cl4 O16'
_cell_volume   822.97304332
_cell_formula_units_Z   2
loop_
 _symmetry_equiv_pos_site_id
 _symmetry_equiv_pos_as_xyz
  1  'x, y, z'
loop_
 _atom_site_type_symbol
 _atom_site_label
 _atom_site_symmetry_multiplicity
 _atom_site_fract_x
 _atom_site_fract_y
 _atom_site_fract_z
 _atom_site_occupancy
  Cu  Cu0  1  0.20837000  0.05005000  0.47240000  1.0
  Cu  Cu1  1  0.79165000  0.94995000  0.52760000  1.0
  H  H2  1  0.13784000  0.49547000  0.41346000  1.0
  H  H3  1  0.86215000  0.50454000  0.58654000  1.0
  H  H4  1  0.11207000  0.49986000  0.23453000  1.0
  H  H5  1  0.88792000  0.50014000  0.76548000  1.0
  H  H6  1  0.69439000  0.21304000  0.22665000  1.0
  H  H7  1  0.30561000  0.78696000  0.77335000  1.0
  H  H8  1  0.27181000  0.91111000  0.00624000  1.0
  H  H9  1  0.72819000  0.08889000  0.99375000  1.0
  H  H10  1  0.02260000  0.74034000  0.99326000  1.0
  H  H11  1  0.97741000  0.25967000  0.00674000  1.0
  H  H12  1  0.77994000  0.73114000  0.29878000  1.0
  H  H13  1  0.22009000  0.26886000  0.70122000  1.0
  C  C14  1  0.43153000  0.35343000  0.41853000  1.0
  C  C15  1  0.56845000  0.64656000  0.58148000  1.0
  C  C16  1  0.25892000  0.43463000  0.37184000  1.0
  C  C17  1  0.74106000  0.56537000  0.62816000  1.0
  C  C18  1  0.24521000  0.43714000  0.27237000  1.0
  C  C19  1  0.75479000  0.56286000  0.72763000  1.0
  C  C20  1  0.40627000  0.35851000  0.22097000  1.0
  C  C21  1  0.59370000  0.64149000  0.77903000  1.0
  C  C22  1  0.57633000  0.27567000  0.26758000  1.0
  C  C23  1  0.42367000  0.72433000  0.73242000  1.0
  C  C24  1  0.58867000  0.27267000  0.36767000  1.0
  C  C25  1  0.41133000  0.72734000  0.63234000  1.0
  C  C26  1  0.75455000  0.17677000  0.41680000  1.0
  C  C27  1  0.24543000  0.82323000  0.58320000  1.0
  C  C28  1  0.02672000  0.91121000  0.34034000  1.0
  C  C29  1  0.97327000  0.08879000  0.65966000  1.0
  C  C30  1  0.02418000  0.86727000  0.24285000  1.0
  C  C31  1  0.97586000  0.13272000  0.75714000  1.0
  C  C32  1  0.15866000  0.91666000  0.15900000  1.0
  C  C33  1  0.84135000  0.08334000  0.84099000  1.0
  C  C34  1  0.16399000  0.87113000  0.07004000  1.0
  C  C35  1  0.83601000  0.12887000  0.92996000  1.0
  C  C36  1  0.02411000  0.77578000  0.06264000  1.0
  C  C37  1  0.97590000  0.22422000  0.93736000  1.0
  C  C38  1  0.88388000  0.72760000  0.14517000  1.0
  C  C39  1  0.11612000  0.27240000  0.85482000  1.0
  C  C40  1  0.88563000  0.77123000  0.23475000  1.0
  C  C41  1  0.11439000  0.22877000  0.76525000  1.0
  N  N42  1  0.44920000  0.35404000  0.52244000  1.0
  N  N43  1  0.55079000  0.64595000  0.47756000  1.0
  N  N44  1  0.28495000  0.02498000  0.15853000  1.0
  N  N45  1  0.71505000  0.97502000  0.84146000  1.0
  Cl  Cl46  1  0.39715000  0.36526000  0.09693000  1.0
  Cl  Cl47  1  0.60286000  0.63475000  0.90308000  1.0
  Cl  Cl48  1  0.70441000  0.61057000  0.13711000  1.0
  Cl  Cl49  1  0.29561000  0.38943000  0.86288000  1.0
  O  O50  1  0.37167000  0.90758000  0.54376000  1.0
  O  O51  1  0.62833000  0.09242000  0.45624000  1.0
  O  O52  1  0.00331000  0.18191000  0.40935000  1.0
  O  O53  1  0.99667000  0.81809000  0.59064000  1.0
  O  O54  1  0.63411000  0.29519000  0.56055000  1.0
  O  O55  1  0.36589000  0.70481000  0.43945000  1.0
  O  O56  1  0.28072000  0.41444000  0.56841000  1.0
  O  O57  1  0.71928000  0.58556000  0.43159000  1.0
  O  O58  1  0.21377000  0.97345000  0.35236000  1.0
  O  O59  1  0.78622000  0.02655000  0.64763000  1.0
  O  O60  1  0.15975000  0.11785000  0.59748000  1.0
  O  O61  1  0.84024000  0.88216000  0.40253000  1.0
  O  O62  1  0.13927000  0.11072000  0.17542000  1.0
  O  O63  1  0.86073000  0.88928000  0.82458000  1.0
  O  O64  1  0.52728000  0.02395000  0.13634000  1.0
  O  O65  1  0.47272000  0.97605000  0.86365000  1.0
