# generated using pymatgen
data_CdH10C14N2O5
_symmetry_space_group_name_H-M   'P 1'
_cell_length_a   6.26973000
_cell_length_b   7.16361000
_cell_length_c   14.94630000
_cell_angle_alpha   92.52950000
_cell_angle_beta   91.55570000
_cell_angle_gamma   94.23430000
_symmetry_Int_Tables_number   1
_chemical_formula_structural   CdH10C14N2O5
_chemical_formula_sum   'Cd2 H20 C28 N4 O10'
_cell_volume   668.50042256
_cell_formula_units_Z   2
loop_
 _symmetry_equiv_pos_site_id
 _symmetry_equiv_pos_as_xyz
  1  'x, y, z'
loop_
 _atom_site_type_symbol
 _atom_site_label
 _atom_site_symmetry_multiplicity
 _atom_site_fract_x
 _atom_site_fract_y
 _atom_site_fract_z
 _atom_site_occupancy
  Cd  Cd0  1  0.67704000  0.75057000  0.50347000  1.0
  Cd  Cd1  1  0.32256000  0.24944000  0.49644000  1.0
  H  H2  1  0.01031000  0.45640000  0.68637000  1.0
  H  H3  1  0.04310000  0.03332000  0.31454000  1.0
  H  H4  1  0.98914000  0.54342000  0.31395000  1.0
  H  H5  1  0.95728000  0.96663000  0.68538000  1.0
  H  H6  1  0.86730000  0.42256000  0.83976000  1.0
  H  H7  1  0.89394000  0.07615000  0.16012000  1.0
  H  H8  1  0.13284000  0.57755000  0.16069000  1.0
  H  H9  1  0.10631000  0.92394000  0.83990000  1.0
  H  H10  1  0.48281000  0.62566000  0.95502000  1.0
  H  H11  1  0.46731000  0.88133000  0.04774000  1.0
  H  H12  1  0.51780000  0.37463000  0.04506000  1.0
  H  H13  1  0.53272000  0.11899000  0.95218000  1.0
  H  H14  1  0.62284000  0.66678000  0.80162000  1.0
  H  H15  1  0.61165000  0.83083000  0.20144000  1.0
  H  H16  1  0.37709000  0.33322000  0.19829000  1.0
  H  H17  1  0.38852000  0.16931000  0.79838000  1.0
  H  H18  1  0.12133000  0.84666000  0.48300000  1.0
  H  H19  1  0.10944000  0.68507000  0.55063000  1.0
  H  H20  1  0.87838000  0.15283000  0.51662000  1.0
  H  H21  1  0.89020000  0.31449000  0.44911000  1.0
  C  C22  1  0.41402000  0.58525000  0.64420000  1.0
  C  C23  1  0.42524000  0.89834000  0.35804000  1.0
  C  C24  1  0.58535000  0.41439000  0.35586000  1.0
  C  C25  1  0.57506000  0.10154000  0.64182000  1.0
  C  C26  1  0.32524000  0.56530000  0.73493000  1.0
  C  C27  1  0.33532000  0.92708000  0.26691000  1.0
  C  C28  1  0.67454000  0.43463000  0.26523000  1.0
  C  C29  1  0.66491000  0.07294000  0.73300000  1.0
  C  C30  1  0.11172000  0.49635000  0.74550000  1.0
  C  C31  1  0.13285000  0.99716000  0.25561000  1.0
  C  C32  1  0.88799000  0.50371000  0.25478000  1.0
  C  C33  1  0.86747000  0.00286000  0.74433000  1.0
  C  C34  1  0.03141000  0.47734000  0.83045000  1.0
  C  C35  1  0.04970000  0.02114000  0.17022000  1.0
  C  C36  1  0.96859000  0.52280000  0.16990000  1.0
  C  C37  1  0.95056000  0.97897000  0.82974000  1.0
  C  C38  1  0.16537000  0.52615000  0.90639000  1.0
  C  C39  1  0.16962000  0.97610000  0.09489000  1.0
  C  C40  1  0.83483000  0.47420000  0.09385000  1.0
  C  C41  1  0.83047000  0.02405000  0.90504000  1.0
  C  C42  1  0.37967000  0.59170000  0.89589000  1.0
  C  C43  1  0.37427000  0.91149000  0.10632000  1.0
  C  C44  1  0.62058000  0.40855000  0.10423000  1.0
  C  C45  1  0.62582000  0.08874000  0.89359000  1.0
  C  C46  1  0.45797000  0.61385000  0.81072000  1.0
  C  C47  1  0.45494000  0.88414000  0.19174000  1.0
  C  C48  1  0.54197000  0.38639000  0.18934000  1.0
  C  C49  1  0.54525000  0.11603000  0.80812000  1.0
  N  N50  1  0.10062000  0.50855000  0.99563000  1.0
  N  N51  1  0.10018000  0.99600000  0.00537000  1.0
  N  N52  1  0.89971000  0.49187000  0.00466000  1.0
  N  N53  1  0.89992000  0.00423000  0.99457000  1.0
  O  O54  1  0.60926000  0.64567000  0.63890000  1.0
  O  O55  1  0.60563000  0.82747000  0.36394000  1.0
  O  O56  1  0.38991000  0.35442000  0.36105000  1.0
  O  O57  1  0.39466000  0.17235000  0.63580000  1.0
  O  O58  1  0.29250000  0.54483000  0.57399000  1.0
  O  O59  1  0.32068000  0.94201000  0.42752000  1.0
  O  O60  1  0.70672000  0.45437000  0.42614000  1.0
  O  O61  1  0.67981000  0.05772000  0.57243000  1.0
  O  O62  1  0.02943000  0.79140000  0.52973000  1.0
  O  O63  1  0.97032000  0.20812000  0.46990000  1.0
