# generated using pymatgen
data_Cu2P2H26C29I2N
_symmetry_space_group_name_H-M   'P 1'
_cell_length_a   10.15100000
_cell_length_b   12.16690000
_cell_length_c   13.16440000
_cell_angle_alpha   108.47700000
_cell_angle_beta   105.45100000
_cell_angle_gamma   91.43860000
_symmetry_Int_Tables_number   1
_chemical_formula_structural   Cu2P2H26C29I2N
_chemical_formula_sum   'Cu4 P4 H52 C58 I4 N2'
_cell_volume   1475.63100772
_cell_formula_units_Z   2
loop_
 _symmetry_equiv_pos_site_id
 _symmetry_equiv_pos_as_xyz
  1  'x, y, z'
loop_
 _atom_site_type_symbol
 _atom_site_label
 _atom_site_symmetry_multiplicity
 _atom_site_fract_x
 _atom_site_fract_y
 _atom_site_fract_z
 _atom_site_occupancy
  Cu  Cu0  1  0.93562000  0.51377000  0.60578000  1.0
  Cu  Cu1  1  0.06438000  0.48623000  0.39422000  1.0
  Cu  Cu2  1  0.70773000  0.30286000  0.43010000  1.0
  Cu  Cu3  1  0.29226000  0.69714000  0.56990000  1.0
  P  P4  1  0.45214000  0.84277000  0.67815000  1.0
  P  P5  1  0.54786000  0.15723000  0.32184000  1.0
  P  P6  1  0.92268000  0.66722000  0.74561000  1.0
  P  P7  1  0.07732000  0.33278000  0.25439000  1.0
  H  H8  1  0.65757000  0.48206000  0.67251000  1.0
  H  H9  1  0.34243000  0.51794000  0.32749000  1.0
  H  H10  1  0.48286000  0.68844000  0.46693000  1.0
  H  H11  1  0.51714000  0.31156000  0.53307000  1.0
  H  H12  1  0.62582000  0.03486000  0.87646000  1.0
  H  H13  1  0.37418000  0.96513000  0.12354000  1.0
  H  H14  1  0.94783000  0.74220000  0.56234000  1.0
  H  H15  1  0.05218000  0.25780000  0.43767000  1.0
  H  H16  1  0.70802000  0.63039000  0.79355000  1.0
  H  H17  1  0.29198000  0.36962000  0.20645000  1.0
  H  H18  1  0.76273000  0.78065000  0.83442000  1.0
  H  H19  1  0.23727000  0.21935000  0.16558000  1.0
  H  H20  1  0.21835000  0.96972000  0.66373000  1.0
  H  H21  1  0.78165000  0.03029000  0.33626000  1.0
  H  H22  1  0.21221000  0.74756000  0.87143000  1.0
  H  H23  1  0.78778000  0.25244000  0.12857000  1.0
  H  H24  1  0.41420000  0.69449000  0.80318000  1.0
  H  H25  1  0.58580000  0.30551000  0.19681000  1.0
  H  H26  1  0.98741000  0.10087000  0.88992000  1.0
  H  H27  1  0.01258000  0.89914000  0.11008000  1.0
  H  H28  1  0.36871000  0.29440000  0.64409000  1.0
  H  H29  1  0.63129000  0.70561000  0.35592000  1.0
  H  H30  1  0.74587000  0.03832000  0.06808000  1.0
  H  H31  1  0.25412000  0.96167000  0.93192000  1.0
  H  H32  1  0.53754000  0.69728000  0.99541000  1.0
  H  H33  1  0.46245000  0.30271000  0.00457000  1.0
  H  H34  1  0.98472000  0.90541000  0.91291000  1.0
  H  H35  1  0.01528000  0.09460000  0.08709000  1.0
  H  H36  1  0.63896000  0.02965000  0.66082000  1.0
  H  H37  1  0.36104000  0.97035000  0.33918000  1.0
  H  H38  1  0.94908000  0.93749000  0.53949000  1.0
  H  H39  1  0.05093000  0.06250000  0.46051000  1.0
  H  H40  1  0.23870000  0.70046000  0.18724000  1.0
  H  H41  1  0.76131000  0.29953000  0.81276000  1.0
  H  H42  1  0.17988000  0.16779000  0.65345000  1.0
  H  H43  1  0.82012000  0.83222000  0.34655000  1.0
  H  H44  1  0.70534000  0.86844000  0.12694000  1.0
  H  H45  1  0.29465000  0.13155000  0.87305000  1.0
  H  H46  1  0.59851000  0.22141000  0.64483000  1.0
  H  H47  1  0.40150000  0.77859000  0.35517000  1.0
  H  H48  1  0.34970000  0.76194000  0.06251000  1.0
  H  H49  1  0.65029000  0.23805000  0.93749000  1.0
  H  H50  1  0.85396000  0.60585000  0.92819000  1.0
  H  H51  1  0.14604000  0.39415000  0.07182000  1.0
  H  H52  1  0.99194000  0.62194000  0.11848000  1.0
  H  H53  1  0.00806000  0.37806000  0.88152000  1.0
  H  H54  1  0.96361000  0.11622000  0.70202000  1.0
  H  H55  1  0.03639000  0.88378000  0.29798000  1.0
  H  H56  1  0.62555000  0.81810000  0.57208000  1.0
  H  H57  1  0.37445000  0.18190000  0.42792000  1.0
  H  H58  1  0.70371000  0.88270000  0.71795000  1.0
  H  H59  1  0.29629000  0.11730000  0.28204000  1.0
  C  C60  1  0.57988000  0.60216000  0.58434000  1.0
  C  C61  1  0.42012000  0.39783000  0.41566000  1.0
  C  C62  1  0.58861000  0.49278000  0.59840000  1.0
  C  C63  1  0.41139000  0.50721000  0.40159000  1.0
  C  C64  1  0.48856000  0.60700000  0.48433000  1.0
  C  C65  1  0.51144000  0.39300000  0.51567000  1.0
  C  C66  1  0.51181000  0.86439000  0.82774000  1.0
  C  C67  1  0.48819000  0.13561000  0.17226000  1.0
  C  C68  1  0.02267000  0.67755000  0.88640000  1.0
  C  C69  1  0.97733000  0.32246000  0.11361000  1.0
  C  C70  1  0.43169000  0.98670000  0.66620000  1.0
  C  C71  1  0.56831000  0.01330000  0.33380000  1.0
  C  C72  1  0.60492000  0.96145000  0.90285000  1.0
  C  C73  1  0.39508000  0.03855000  0.09715000  1.0
  C  C74  1  0.96518000  0.81120000  0.73872000  1.0
  C  C75  1  0.03482000  0.18880000  0.26129000  1.0
  C  C76  1  0.95717000  0.82089000  0.63409000  1.0
  C  C77  1  0.04283000  0.17911000  0.36591000  1.0
  C  C78  1  0.74919000  0.69710000  0.76658000  1.0
  C  C79  1  0.25081000  0.30290000  0.23342000  1.0
  C  C80  1  0.30213000  0.02633000  0.66185000  1.0
  C  C81  1  0.69787000  0.97367000  0.33814000  1.0
  C  C82  1  0.16348000  0.72017000  0.92547000  1.0
  C  C83  1  0.83651000  0.27983000  0.07454000  1.0
  C  C84  1  0.48577000  0.77036000  0.86224000  1.0
  C  C85  1  0.51423000  0.22964000  0.13776000  1.0
  C  C86  1  0.97895000  0.02215000  0.81848000  1.0
  C  C87  1  0.02105000  0.97785000  0.18152000  1.0
  C  C88  1  0.38672000  0.20825000  0.64997000  1.0
  C  C89  1  0.61328000  0.79175000  0.35004000  1.0
  C  C90  1  0.67328000  0.96303000  0.01022000  1.0
  C  C91  1  0.32671000  0.03696000  0.98978000  1.0
  C  C92  1  0.55579000  0.77185000  0.96977000  1.0
  C  C93  1  0.44421000  0.22815000  0.03022000  1.0
  C  C94  1  0.97815000  0.91275000  0.83121000  1.0
  C  C95  1  0.02185000  0.08726000  0.16879000  1.0
  C  C96  1  0.53776000  0.05817000  0.65955000  1.0
  C  C97  1  0.46224000  0.94183000  0.34045000  1.0
  C  C98  1  0.95737000  0.93073000  0.62149000  1.0
  C  C99  1  0.04263000  0.06927000  0.37850000  1.0
  C  C100  1  0.17920000  0.69325000  0.10274000  1.0
  C  C101  1  0.82080000  0.30674000  0.89726000  1.0
  C  C102  1  0.28027000  0.13687000  0.65518000  1.0
  C  C103  1  0.71974000  0.86314000  0.34482000  1.0
  C  C104  1  0.65031000  0.86749000  0.04336000  1.0
  C  C105  1  0.34969000  0.13251000  0.95663000  1.0
  C  C106  1  0.51465000  0.16796000  0.65084000  1.0
  C  C107  1  0.48536000  0.83205000  0.34917000  1.0
  C  C108  1  0.24083000  0.72804000  0.03296000  1.0
  C  C109  1  0.75917000  0.27195000  0.96704000  1.0
  C  C110  1  0.96219000  0.64134000  0.95670000  1.0
  C  C111  1  0.03781000  0.35866000  0.04330000  1.0
  C  C112  1  0.03996000  0.64967000  0.06429000  1.0
  C  C113  1  0.96004000  0.35033000  0.93571000  1.0
  C  C114  1  0.96656000  0.03098000  0.71294000  1.0
  C  C115  1  0.03344000  0.96902000  0.28706000  1.0
  C  C116  1  0.62524000  0.81421000  0.65431000  1.0
  C  C117  1  0.37476000  0.18579000  0.34570000  1.0
  I  I118  1  0.79591000  0.48356000  0.39056000  1.0
  I  I119  1  0.20409000  0.51645000  0.60944000  1.0
  I  I120  1  0.88411000  0.30092000  0.61284000  1.0
  I  I121  1  0.11588000  0.69908000  0.38716000  1.0
  N  N122  1  0.65618000  0.70295000  0.66513000  1.0
  N  N123  1  0.34382000  0.29705000  0.33487000  1.0
