# generated using pymatgen
data_ZnH12C7S(NO4)2
_symmetry_space_group_name_H-M   'P 1'
_cell_length_a   5.64668000
_cell_length_b   13.19160000
_cell_length_c   15.54200000
_cell_angle_alpha   101.73700000
_cell_angle_beta   89.99950000
_cell_angle_gamma   89.99960000
_symmetry_Int_Tables_number   1
_chemical_formula_structural   ZnH12C7S(NO4)2
_chemical_formula_sum   'Zn4 H48 C28 S4 N8 O32'
_cell_volume   1133.49837826
_cell_formula_units_Z   4
loop_
 _symmetry_equiv_pos_site_id
 _symmetry_equiv_pos_as_xyz
  1  'x, y, z'
loop_
 _atom_site_type_symbol
 _atom_site_label
 _atom_site_symmetry_multiplicity
 _atom_site_fract_x
 _atom_site_fract_y
 _atom_site_fract_z
 _atom_site_occupancy
  Zn  Zn0  1  0.50782000  0.11690000  0.15221000  1.0
  Zn  Zn1  1  0.00785000  0.88310000  0.34779000  1.0
  Zn  Zn2  1  0.49217000  0.88310000  0.84779000  1.0
  Zn  Zn3  1  0.99216000  0.11690000  0.65221000  1.0
  H  H4  1  0.38901000  0.72530000  0.52573000  1.0
  H  H5  1  0.88898000  0.27469000  0.97427000  1.0
  H  H6  1  0.61098000  0.27469000  0.47427000  1.0
  H  H7  1  0.11101000  0.72531000  0.02573000  1.0
  H  H8  1  0.05223000  0.14282000  0.19289000  1.0
  H  H9  1  0.55224000  0.85719000  0.30712000  1.0
  H  H10  1  0.94778000  0.85718000  0.80712000  1.0
  H  H11  1  0.44777000  0.14282000  0.69288000  1.0
  H  H12  1  0.18594000  0.08851000  0.26796000  1.0
  H  H13  1  0.68595000  0.91149000  0.23205000  1.0
  H  H14  1  0.81407000  0.91149000  0.73205000  1.0
  H  H15  1  0.31406000  0.08851000  0.76795000  1.0
  H  H16  1  0.09737000  0.26099000  0.33458000  1.0
  H  H17  1  0.59735000  0.73901000  0.16543000  1.0
  H  H18  1  0.90264000  0.73901000  0.66543000  1.0
  H  H19  1  0.40265000  0.26099000  0.83457000  1.0
  H  H20  1  0.81749000  0.60971000  0.36610000  1.0
  H  H21  1  0.31744000  0.39026000  0.13389000  1.0
  H  H22  1  0.18251000  0.39028000  0.63390000  1.0
  H  H23  1  0.68255000  0.60974000  0.86610000  1.0
  H  H24  1  0.13400000  0.58676000  0.48372000  1.0
  H  H25  1  0.63395000  0.41324000  0.01629000  1.0
  H  H26  1  0.86601000  0.41323000  0.51628000  1.0
  H  H27  1  0.36604000  0.58676000  0.98371000  1.0
  H  H28  1  0.76466000  0.43216000  0.27461000  1.0
  H  H29  1  0.26462000  0.56782000  0.22539000  1.0
  H  H30  1  0.23536000  0.56784000  0.72539000  1.0
  H  H31  1  0.73538000  0.43218000  0.77461000  1.0
  H  H32  1  0.08335000  0.41086000  0.39521000  1.0
  H  H33  1  0.58334000  0.58914000  0.10480000  1.0
  H  H34  1  0.91665000  0.58913000  0.60479000  1.0
  H  H35  1  0.41667000  0.41086000  0.89520000  1.0
  H  H36  1  0.23944000  0.20183000  0.03417000  1.0
  H  H37  1  0.73949000  0.79815000  0.46583000  1.0
  H  H38  1  0.76055000  0.79817000  0.96583000  1.0
  H  H39  1  0.26051000  0.20184000  0.53417000  1.0
  H  H40  1  0.40996000  0.11375000  0.98024000  1.0
  H  H41  1  0.90999000  0.88623000  0.51976000  1.0
  H  H42  1  0.59004000  0.88624000  0.01977000  1.0
  H  H43  1  0.09002000  0.11377000  0.48024000  1.0
  H  H44  1  0.86607000  0.10384000  0.03748000  1.0
  H  H45  1  0.36609000  0.89616000  0.46253000  1.0
  H  H46  1  0.13393000  0.89616000  0.96253000  1.0
  H  H47  1  0.63392000  0.10385000  0.53748000  1.0
  H  H48  1  0.90592000  0.01968000  0.09416000  1.0
  H  H49  1  0.40593000  0.98032000  0.40584000  1.0
  H  H50  1  0.09407000  0.98032000  0.90584000  1.0
  H  H51  1  0.59407000  0.01968000  0.59416000  1.0
  C  C52  1  0.42491000  0.40805000  0.32977000  1.0
  C  C53  1  0.92489000  0.59195000  0.17023000  1.0
  C  C54  1  0.57510000  0.59195000  0.67023000  1.0
  C  C55  1  0.07511000  0.40805000  0.82978000  1.0
  C  C56  1  0.40723000  0.30398000  0.27377000  1.0
  C  C57  1  0.90723000  0.69602000  0.22622000  1.0
  C  C58  1  0.59277000  0.69603000  0.72622000  1.0
  C  C59  1  0.09277000  0.30398000  0.77378000  1.0
  C  C60  1  0.65724000  0.56535000  0.37148000  1.0
  C  C61  1  0.15721000  0.43465000  0.12851000  1.0
  C  C62  1  0.34276000  0.43465000  0.62852000  1.0
  C  C63  1  0.84279000  0.56535000  0.87149000  1.0
  C  C64  1  0.27283000  0.55180000  0.43865000  1.0
  C  C65  1  0.77280000  0.44820000  0.06134000  1.0
  C  C66  1  0.72717000  0.44820000  0.56134000  1.0
  C  C67  1  0.22720000  0.55180000  0.93866000  1.0
  C  C68  1  0.47995000  0.60818000  0.43114000  1.0
  C  C69  1  0.97993000  0.39181000  0.06885000  1.0
  C  C70  1  0.52005000  0.39182000  0.56886000  1.0
  C  C71  1  0.02006000  0.60818000  0.93115000  1.0
  C  C72  1  0.62897000  0.46631000  0.32147000  1.0
  C  C73  1  0.12894000  0.53368000  0.17852000  1.0
  C  C74  1  0.37104000  0.53369000  0.67852000  1.0
  C  C75  1  0.87106000  0.46631000  0.82148000  1.0
  C  C76  1  0.24684000  0.45255000  0.38860000  1.0
  C  C77  1  0.74682000  0.54745000  0.11139000  1.0
  C  C78  1  0.75316000  0.54744000  0.61141000  1.0
  C  C79  1  0.25318000  0.45255000  0.88861000  1.0
  S  S80  1  0.25006000  0.88876000  0.13240000  1.0
  S  S81  1  0.75005000  0.11124000  0.36761000  1.0
  S  S82  1  0.74994000  0.11124000  0.86760000  1.0
  S  S83  1  0.24995000  0.88876000  0.63239000  1.0
  N  N84  1  0.20251000  0.14476000  0.23121000  1.0
  N  N85  1  0.70253000  0.85525000  0.26880000  1.0
  N  N86  1  0.79749000  0.85524000  0.76880000  1.0
  N  N87  1  0.29749000  0.14475000  0.73120000  1.0
  N  N88  1  0.22509000  0.24247000  0.28704000  1.0
  N  N89  1  0.72509000  0.75753000  0.21297000  1.0
  N  N90  1  0.77492000  0.75753000  0.71297000  1.0
  N  N91  1  0.27492000  0.24247000  0.78703000  1.0
  O  O92  1  0.51625000  0.70425000  0.48039000  1.0
  O  O93  1  0.01624000  0.29575000  0.01960000  1.0
  O  O94  1  0.48374000  0.29576000  0.51961000  1.0
  O  O95  1  0.98376000  0.70425000  0.98040000  1.0
  O  O96  1  0.55708000  0.27348000  0.21362000  1.0
  O  O97  1  0.05708000  0.72651000  0.28638000  1.0
  O  O98  1  0.44293000  0.72652000  0.78639000  1.0
  O  O99  1  0.94292000  0.27349000  0.71362000  1.0
  O  O100  1  0.18455000  0.92337000  0.22547000  1.0
  O  O101  1  0.68453000  0.07664000  0.27454000  1.0
  O  O102  1  0.81546000  0.07664000  0.77454000  1.0
  O  O103  1  0.31546000  0.92335000  0.72546000  1.0
  O  O104  1  0.36375000  0.15127000  0.04008000  1.0
  O  O105  1  0.86378000  0.84872000  0.45991000  1.0
  O  O106  1  0.63625000  0.84873000  0.95992000  1.0
  O  O107  1  0.13622000  0.15128000  0.54009000  1.0
  O  O108  1  0.83881000  0.09113000  0.09775000  1.0
  O  O109  1  0.33883000  0.90887000  0.40225000  1.0
  O  O110  1  0.16119000  0.90887000  0.90225000  1.0
  O  O111  1  0.66117000  0.09114000  0.59776000  1.0
  O  O112  1  0.46981000  0.94792000  0.11539000  1.0
  O  O113  1  0.96979000  0.05208000  0.38461000  1.0
  O  O114  1  0.53020000  0.05208000  0.88461000  1.0
  O  O115  1  0.03020000  0.94792000  0.61538000  1.0
  O  O116  1  0.30404000  0.77599000  0.10864000  1.0
  O  O117  1  0.80401000  0.22402000  0.39137000  1.0
  O  O118  1  0.69595000  0.22402000  0.89136000  1.0
  O  O119  1  0.19598000  0.77598000  0.60863000  1.0
  O  O120  1  0.05495000  0.91121000  0.07396000  1.0
  O  O121  1  0.55494000  0.08879000  0.42604000  1.0
  O  O122  1  0.94503000  0.08879000  0.92604000  1.0
  O  O123  1  0.44506000  0.91121000  0.57396000  1.0
