# generated using pymatgen
data_CdH18C26(N3O4)2
_symmetry_space_group_name_H-M   'P 1'
_cell_length_a   8.51741000
_cell_length_b   11.65050000
_cell_length_c   14.91600000
_cell_angle_alpha   98.79880000
_cell_angle_beta   100.27300000
_cell_angle_gamma   104.67900000
_symmetry_Int_Tables_number   1
_chemical_formula_structural   CdH18C26(N3O4)2
_chemical_formula_sum   'Cd2 H36 C52 N12 O16'
_cell_volume   1378.01354928
_cell_formula_units_Z   2
loop_
 _symmetry_equiv_pos_site_id
 _symmetry_equiv_pos_as_xyz
  1  'x, y, z'
loop_
 _atom_site_type_symbol
 _atom_site_label
 _atom_site_symmetry_multiplicity
 _atom_site_fract_x
 _atom_site_fract_y
 _atom_site_fract_z
 _atom_site_occupancy
  Cd  Cd0  1  0.11872000  0.41835000  0.41833000  1.0
  Cd  Cd1  1  0.88128000  0.58165000  0.58167000  1.0
  H  H2  1  0.75906000  0.31832000  0.28169000  1.0
  H  H3  1  0.24093000  0.68168000  0.71830000  1.0
  H  H4  1  0.61611000  0.32800000  0.12077000  1.0
  H  H5  1  0.38389000  0.67200000  0.87922000  1.0
  H  H6  1  0.04860000  0.61966000  0.12338000  1.0
  H  H7  1  0.95140000  0.38034000  0.87662000  1.0
  H  H8  1  0.17497000  0.59467000  0.28116000  1.0
  H  H9  1  0.82503000  0.40533000  0.71884000  1.0
  H  H10  1  0.81419000  0.55569000  0.98531000  1.0
  H  H11  1  0.18582000  0.44431000  0.01469000  1.0
  H  H12  1  0.37607000  0.26280000  0.85474000  1.0
  H  H13  1  0.62393000  0.73721000  0.14526000  1.0
  H  H14  1  0.44593000  0.52864000  0.57596000  1.0
  H  H15  1  0.55407000  0.47136000  0.42404000  1.0
  H  H16  1  0.57358000  0.51081000  0.73378000  1.0
  H  H17  1  0.42642000  0.48919000  0.26622000  1.0
  H  H18  1  0.14991000  0.19938000  0.70811000  1.0
  H  H19  1  0.85009000  0.80062000  0.29189000  1.0
  H  H20  1  0.03729000  0.23198000  0.55060000  1.0
  H  H21  1  0.96271000  0.76802000  0.44940000  1.0
  H  H22  1  0.39607000  0.23942000  0.19873000  1.0
  H  H23  1  0.60393000  0.76058000  0.80127000  1.0
  H  H24  1  0.41039000  0.07971000  0.06725000  1.0
  H  H25  1  0.58962000  0.92029000  0.93275000  1.0
  H  H26  1  0.94975000  0.84534000  0.09514000  1.0
  H  H27  1  0.05025000  0.15466000  0.90486000  1.0
  H  H28  1  0.93788000  0.00636000  0.22667000  1.0
  H  H29  1  0.06213000  0.99364000  0.77333000  1.0
  H  H30  1  0.57598000  0.77220000  0.48466000  1.0
  H  H31  1  0.42402000  0.22780000  0.51534000  1.0
  H  H32  1  0.77210000  0.97688000  0.56702000  1.0
  H  H33  1  0.22790000  0.02311000  0.43298000  1.0
  H  H34  1  0.39726000  0.04821000  0.70807000  1.0
  H  H35  1  0.60274000  0.95179000  0.29193000  1.0
  H  H36  1  0.20148000  0.84416000  0.62606000  1.0
  H  H37  1  0.79852000  0.15584000  0.37394000  1.0
  C  C38  1  0.81745000  0.38316000  0.24334000  1.0
  C  C39  1  0.18255000  0.61684000  0.75666000  1.0
  C  C40  1  0.73886000  0.38897000  0.15531000  1.0
  C  C41  1  0.26114000  0.61103000  0.84468000  1.0
  C  C42  1  0.82175000  0.47421000  0.10955000  1.0
  C  C43  1  0.17826000  0.52579000  0.89045000  1.0
  C  C44  1  0.98006000  0.55130000  0.15568000  1.0
  C  C45  1  0.01994000  0.44870000  0.84432000  1.0
  C  C46  1  0.05111000  0.53819000  0.24353000  1.0
  C  C47  1  0.94890000  0.46181000  0.75647000  1.0
  C  C48  1  0.74957000  0.48206000  0.01559000  1.0
  C  C49  1  0.25044000  0.51795000  0.98441000  1.0
  C  C50  1  0.43786000  0.34143000  0.82829000  1.0
  C  C51  1  0.56214000  0.65857000  0.17171000  1.0
  C  C52  1  0.38390000  0.45704000  0.60764000  1.0
  C  C53  1  0.61610000  0.54296000  0.39236000  1.0
  C  C54  1  0.45518000  0.44657000  0.69577000  1.0
  C  C55  1  0.54482000  0.55343000  0.30423000  1.0
  C  C56  1  0.37190000  0.35300000  0.73427000  1.0
  C  C57  1  0.62810000  0.64700000  0.26573000  1.0
  C  C58  1  0.22053000  0.27249000  0.68079000  1.0
  C  C59  1  0.77947000  0.72751000  0.31921000  1.0
  C  C60  1  0.15669000  0.29018000  0.59323000  1.0
  C  C61  1  0.84331000  0.70982000  0.40677000  1.0
  C  C62  1  0.15788000  0.22657000  0.29727000  1.0
  C  C63  1  0.84212000  0.77343000  0.70273000  1.0
  C  C64  1  0.16689000  0.13081000  0.21981000  1.0
  C  C65  1  0.83311000  0.86919000  0.78018000  1.0
  C  C66  1  0.29996000  0.15250000  0.17523000  1.0
  C  C67  1  0.70004000  0.84750000  0.82477000  1.0
  C  C68  1  0.30790000  0.06513000  0.10262000  1.0
  C  C69  1  0.69210000  0.93487000  0.89738000  1.0
  C  C70  1  0.18015000  0.95583000  0.07571000  1.0
  C  C71  1  0.81985000  0.04417000  0.92429000  1.0
  C  C72  1  0.04629000  0.93179000  0.11902000  1.0
  C  C73  1  0.95371000  0.06821000  0.88098000  1.0
  C  C74  1  0.04039000  0.02030000  0.19122000  1.0
  C  C75  1  0.95961000  0.97970000  0.80878000  1.0
  C  C76  1  0.26820000  0.67125000  0.50397000  1.0
  C  C77  1  0.73179000  0.32875000  0.49603000  1.0
  C  C78  1  0.37861000  0.79670000  0.55033000  1.0
  C  C79  1  0.62139000  0.20330000  0.44967000  1.0
  C  C80  1  0.53828000  0.83407000  0.53301000  1.0
  C  C81  1  0.46172000  0.16592000  0.46698000  1.0
  C  C82  1  0.64684000  0.94683000  0.57828000  1.0
  C  C83  1  0.35316000  0.05317000  0.42172000  1.0
  C  C84  1  0.59245000  0.02129000  0.64090000  1.0
  C  C85  1  0.40755000  0.97871000  0.35910000  1.0
  C  C86  1  0.43358000  0.98670000  0.65872000  1.0
  C  C87  1  0.56642000  0.01330000  0.34128000  1.0
  C  C88  1  0.32594000  0.87352000  0.61287000  1.0
  C  C89  1  0.67406000  0.12648000  0.38713000  1.0
  N  N90  1  0.97139000  0.45585000  0.28651000  1.0
  N  N91  1  0.02860000  0.54415000  0.71348000  1.0
  N  N92  1  0.61346000  0.40210000  0.96761000  1.0
  N  N93  1  0.38654000  0.59791000  0.03239000  1.0
  N  N94  1  0.56685000  0.42444000  0.88005000  1.0
  N  N95  1  0.43315000  0.57556000  0.11995000  1.0
  N  N96  1  0.23670000  0.38117000  0.55738000  1.0
  N  N97  1  0.76330000  0.61883000  0.44262000  1.0
  N  N98  1  0.18498000  0.86286000  0.99845000  1.0
  N  N99  1  0.81502000  0.13714000  0.00155000  1.0
  N  N100  1  0.70731000  0.13908000  0.69056000  1.0
  N  N101  1  0.29269000  0.86092000  0.30944000  1.0
  O  O102  1  0.03665000  0.20227000  0.33719000  1.0
  O  O103  1  0.96335000  0.79773000  0.66281000  1.0
  O  O104  1  0.27056000  0.32800000  0.31803000  1.0
  O  O105  1  0.72944000  0.67200000  0.68197000  1.0
  O  O106  1  0.29395000  0.89003000  0.95372000  1.0
  O  O107  1  0.70605000  0.10996000  0.04628000  1.0
  O  O108  1  0.07881000  0.76230000  0.98157000  1.0
  O  O109  1  0.92119000  0.23770000  0.01843000  1.0
  O  O110  1  0.31767000  0.61010000  0.44228000  1.0
  O  O111  1  0.68233000  0.38990000  0.55772000  1.0
  O  O112  1  0.13493000  0.62974000  0.53012000  1.0
  O  O113  1  0.86507000  0.37027000  0.46988000  1.0
  O  O114  1  0.84282000  0.17275000  0.66809000  1.0
  O  O115  1  0.15718000  0.82725000  0.33191000  1.0
  O  O116  1  0.66481000  0.19957000  0.75309000  1.0
  O  O117  1  0.33519000  0.80042000  0.24691000  1.0
