# generated using pymatgen
data_DyH16C18N3O8
_symmetry_space_group_name_H-M   'P 1'
_cell_length_a   9.45277000
_cell_length_b   10.44450000
_cell_length_c   10.44450000
_cell_angle_alpha   83.26540000
_cell_angle_beta   84.57790000
_cell_angle_gamma   84.57780000
_symmetry_Int_Tables_number   1
_chemical_formula_structural   DyH16C18N3O8
_chemical_formula_sum   'Dy2 H32 C36 N6 O16'
_cell_volume   1015.84762937
_cell_formula_units_Z   2
loop_
 _symmetry_equiv_pos_site_id
 _symmetry_equiv_pos_as_xyz
  1  'x, y, z'
loop_
 _atom_site_type_symbol
 _atom_site_label
 _atom_site_symmetry_multiplicity
 _atom_site_fract_x
 _atom_site_fract_y
 _atom_site_fract_z
 _atom_site_occupancy
  Dy  Dy0  1  0.25000000  0.97431000  0.02569000  1.0
  Dy  Dy1  1  0.75000000  0.02569000  0.97431000  1.0
  H  H2  1  0.02607000  0.79559000  0.11041000  1.0
  H  H3  1  0.47394000  0.88959000  0.20440000  1.0
  H  H4  1  0.97393000  0.20441000  0.88959000  1.0
  H  H5  1  0.52606000  0.11041000  0.79559000  1.0
  H  H6  1  0.17689000  0.71641000  0.15203000  1.0
  H  H7  1  0.32312000  0.84796000  0.28359000  1.0
  H  H8  1  0.82311000  0.28359000  0.84796000  1.0
  H  H9  1  0.67688000  0.15203000  0.71640000  1.0
  H  H10  1  0.92107000  0.50437000  0.86394000  1.0
  H  H11  1  0.57891000  0.13607000  0.49562000  1.0
  H  H12  1  0.07893000  0.49563000  0.13607000  1.0
  H  H13  1  0.42108000  0.86394000  0.50438000  1.0
  H  H14  1  0.80343000  0.72381000  0.90138000  1.0
  H  H15  1  0.69655000  0.09863000  0.27617000  1.0
  H  H16  1  0.19657000  0.27618000  0.09863000  1.0
  H  H17  1  0.30343000  0.90138000  0.72382000  1.0
  H  H18  1  0.40330000  0.58318000  0.84274000  1.0
  H  H19  1  0.09668000  0.15726000  0.41681000  1.0
  H  H20  1  0.59670000  0.41682000  0.15726000  1.0
  H  H21  1  0.90331000  0.84274000  0.58317000  1.0
  H  H22  1  0.53958000  0.36904000  0.80249000  1.0
  H  H23  1  0.96040000  0.19750000  0.63095000  1.0
  H  H24  1  0.46042000  0.63095000  0.19750000  1.0
  H  H25  1  0.03959000  0.80250000  0.36904000  1.0
  H  H26  1  0.14218000  0.60705000  0.64041000  1.0
  H  H27  1  0.35782000  0.35961000  0.39297000  1.0
  H  H28  1  0.85783000  0.39295000  0.35960000  1.0
  H  H29  1  0.64219000  0.64040000  0.60704000  1.0
  H  H30  1  0.13935000  0.43098000  0.82711000  1.0
  H  H31  1  0.36066000  0.17291000  0.56903000  1.0
  H  H32  1  0.86067000  0.56902000  0.17290000  1.0
  H  H33  1  0.63935000  0.82710000  0.43097000  1.0
  C  C34  1  0.80637000  0.52604000  0.85859000  1.0
  C  C35  1  0.69362000  0.14141000  0.47395000  1.0
  C  C36  1  0.19363000  0.47395000  0.14141000  1.0
  C  C37  1  0.30637000  0.85860000  0.52605000  1.0
  C  C38  1  0.74152000  0.64771000  0.87977000  1.0
  C  C39  1  0.75846000  0.12022000  0.35229000  1.0
  C  C40  1  0.25848000  0.35229000  0.12023000  1.0
  C  C41  1  0.24152000  0.87978000  0.64771000  1.0
  C  C42  1  0.59353000  0.66932000  0.87672000  1.0
  C  C43  1  0.90645000  0.12328000  0.33068000  1.0
  C  C44  1  0.40647000  0.33068000  0.12329000  1.0
  C  C45  1  0.09353000  0.87672000  0.66933000  1.0
  C  C46  1  0.51759000  0.79517000  0.91314000  1.0
  C  C47  1  0.98240000  0.08686000  0.20483000  1.0
  C  C48  1  0.48241000  0.20482000  0.08686000  1.0
  C  C49  1  0.01759000  0.91315000  0.79517000  1.0
  C  C50  1  0.51861000  0.56913000  0.84618000  1.0
  C  C51  1  0.98138000  0.15381000  0.43087000  1.0
  C  C52  1  0.48139000  0.43087000  0.15382000  1.0
  C  C53  1  0.01861000  0.84619000  0.56913000  1.0
  C  C54  1  0.59327000  0.45081000  0.82449000  1.0
  C  C55  1  0.90671000  0.17551000  0.54918000  1.0
  C  C56  1  0.40673000  0.54918000  0.17551000  1.0
  C  C57  1  0.09328000  0.82449000  0.45082000  1.0
  C  C58  1  0.19045000  0.50966000  0.62768000  1.0
  C  C59  1  0.30956000  0.37234000  0.49036000  1.0
  C  C60  1  0.80957000  0.49035000  0.37233000  1.0
  C  C61  1  0.69045000  0.62767000  0.50965000  1.0
  C  C62  1  0.18749000  0.41242000  0.73133000  1.0
  C  C63  1  0.31252000  0.26869000  0.58760000  1.0
  C  C64  1  0.81252000  0.58759000  0.26869000  1.0
  C  C65  1  0.68749000  0.73131000  0.41241000  1.0
  C  C66  1  0.25000000  0.28895000  0.71106000  1.0
  C  C67  1  0.75000000  0.71105000  0.28895000  1.0
  C  C68  1  0.25000000  0.18132000  0.81869000  1.0
  C  C69  1  0.75001000  0.81868000  0.18131000  1.0
  N  N70  1  0.73450000  0.42850000  0.83309000  1.0
  N  N71  1  0.76548000  0.16690000  0.57149000  1.0
  N  N72  1  0.26550000  0.57149000  0.16691000  1.0
  N  N73  1  0.23451000  0.83310000  0.42850000  1.0
  N  N74  1  0.25000000  0.49133000  0.50869000  1.0
  N  N75  1  0.75001000  0.50868000  0.49132000  1.0
  O  O76  1  0.38217000  0.80398000  0.92466000  1.0
  O  O77  1  0.11782000  0.07533000  0.19602000  1.0
  O  O78  1  0.61783000  0.19602000  0.07533000  1.0
  O  O79  1  0.88217000  0.92466000  0.80398000  1.0
  O  O80  1  0.59241000  0.88396000  0.93379000  1.0
  O  O81  1  0.90758000  0.06621000  0.11603000  1.0
  O  O82  1  0.40758000  0.11603000  0.06622000  1.0
  O  O83  1  0.09242000  0.93380000  0.88396000  1.0
  O  O84  1  0.15642000  0.18708000  0.91471000  1.0
  O  O85  1  0.34358000  0.08529000  0.81292000  1.0
  O  O86  1  0.84358000  0.81292000  0.08529000  1.0
  O  O87  1  0.65643000  0.91470000  0.18707000  1.0
  O  O88  1  0.12276000  0.80533000  0.13478000  1.0
  O  O89  1  0.37724000  0.86521000  0.19467000  1.0
  O  O90  1  0.87724000  0.19467000  0.86521000  1.0
  O  O91  1  0.62275000  0.13478000  0.80533000  1.0
