# generated using pymatgen
data_CoH9C13(NO2)2
_symmetry_space_group_name_H-M   'P 1'
_cell_length_a   11.67380000
_cell_length_b   14.79130000
_cell_length_c   16.29180000
_cell_angle_alpha   89.99890000
_cell_angle_beta   97.25410000
_cell_angle_gamma   89.99950000
_symmetry_Int_Tables_number   1
_chemical_formula_structural   CoH9C13(NO2)2
_chemical_formula_sum   'Co8 H72 C104 N16 O32'
_cell_volume   2790.59973369
_cell_formula_units_Z   8
loop_
 _symmetry_equiv_pos_site_id
 _symmetry_equiv_pos_as_xyz
  1  'x, y, z'
loop_
 _atom_site_type_symbol
 _atom_site_label
 _atom_site_symmetry_multiplicity
 _atom_site_fract_x
 _atom_site_fract_y
 _atom_site_fract_z
 _atom_site_occupancy
  Co  Co0  1  0.20742000  0.85780000  0.88846000  1.0
  Co  Co1  1  0.79257000  0.35780000  0.61154000  1.0
  Co  Co2  1  0.79258000  0.14219000  0.11155000  1.0
  Co  Co3  1  0.20743000  0.64219000  0.38845000  1.0
  Co  Co4  1  0.25823000  0.99559000  0.72764000  1.0
  Co  Co5  1  0.74177000  0.49555000  0.77233000  1.0
  Co  Co6  1  0.74176000  0.00442000  0.27235000  1.0
  Co  Co7  1  0.25824000  0.50446000  0.22766000  1.0
  H  H8  1  0.70685000  0.79172000  0.11237000  1.0
  H  H9  1  0.29311000  0.29173000  0.38762000  1.0
  H  H10  1  0.29314000  0.20829000  0.88763000  1.0
  H  H11  1  0.70687000  0.70827000  0.61238000  1.0
  H  H12  1  0.62275000  0.88571000  0.10450000  1.0
  H  H13  1  0.37720000  0.38571000  0.39547000  1.0
  H  H14  1  0.37725000  0.11431000  0.89548000  1.0
  H  H15  1  0.62279000  0.61430000  0.60453000  1.0
  H  H16  1  0.98492000  0.83248000  0.88197000  1.0
  H  H17  1  0.01509000  0.33247000  0.61801000  1.0
  H  H18  1  0.01509000  0.16753000  0.11803000  1.0
  H  H19  1  0.98493000  0.66752000  0.38198000  1.0
  H  H20  1  0.04318000  0.73004000  0.89674000  1.0
  H  H21  1  0.95683000  0.23003000  0.60325000  1.0
  H  H22  1  0.95683000  0.26997000  0.10326000  1.0
  H  H23  1  0.04318000  0.76996000  0.39675000  1.0
  H  H24  1  0.72393000  0.69051000  0.99355000  1.0
  H  H25  1  0.27604000  0.19053000  0.50646000  1.0
  H  H26  1  0.27606000  0.30948000  0.00645000  1.0
  H  H27  1  0.72394000  0.80949000  0.49354000  1.0
  H  H28  1  0.54003000  0.76575000  0.75852000  1.0
  H  H29  1  0.45997000  0.26578000  0.74147000  1.0
  H  H30  1  0.45997000  0.23423000  0.24147000  1.0
  H  H31  1  0.54003000  0.73422000  0.25853000  1.0
  H  H32  1  0.50317000  0.92673000  0.97385000  1.0
  H  H33  1  0.49681000  0.42674000  0.52612000  1.0
  H  H34  1  0.49683000  0.07327000  0.02614000  1.0
  H  H35  1  0.50319000  0.57327000  0.47387000  1.0
  H  H36  1  0.93895000  0.92764000  0.99376000  1.0
  H  H37  1  0.06104000  0.42764000  0.50623000  1.0
  H  H38  1  0.06108000  0.07237000  0.00626000  1.0
  H  H39  1  0.93896000  0.57235000  0.49377000  1.0
  H  H40  1  0.00913000  0.81991000  0.23987000  1.0
  H  H41  1  0.99086000  0.31991000  0.26011000  1.0
  H  H42  1  0.99087000  0.18008000  0.76013000  1.0
  H  H43  1  0.00913000  0.68008000  0.73988000  1.0
  H  H44  1  0.11547000  0.67186000  0.03523000  1.0
  H  H45  1  0.88453000  0.17185000  0.46476000  1.0
  H  H46  1  0.88453000  0.32814000  0.96477000  1.0
  H  H47  1  0.11548000  0.82814000  0.53523000  1.0
  H  H48  1  0.24944000  0.67598000  0.79589000  1.0
  H  H49  1  0.75057000  0.17600000  0.70411000  1.0
  H  H50  1  0.75057000  0.32404000  0.20410000  1.0
  H  H51  1  0.24942000  0.82402000  0.29589000  1.0
  H  H52  1  0.31248000  0.51932000  0.83952000  1.0
  H  H53  1  0.68751000  0.01934000  0.66050000  1.0
  H  H54  1  0.68751000  0.48069000  0.16047000  1.0
  H  H55  1  0.31248000  0.98068000  0.33951000  1.0
  H  H56  1  0.38266000  0.49110000  0.99070000  1.0
  H  H57  1  0.61735000  0.99111000  0.50933000  1.0
  H  H58  1  0.61732000  0.50890000  0.00930000  1.0
  H  H59  1  0.38268000  0.00888000  0.49068000  1.0
  H  H60  1  0.39685000  0.62058000  0.08798000  1.0
  H  H61  1  0.60317000  0.12058000  0.41203000  1.0
  H  H62  1  0.60315000  0.37942000  0.91201000  1.0
  H  H63  1  0.39686000  0.87941000  0.58797000  1.0
  H  H64  1  0.43532000  0.74115000  0.15337000  1.0
  H  H65  1  0.56467000  0.24116000  0.34664000  1.0
  H  H66  1  0.56468000  0.25886000  0.84663000  1.0
  H  H67  1  0.43533000  0.75884000  0.65336000  1.0
  H  H68  1  0.43385000  0.88437000  0.23453000  1.0
  H  H69  1  0.56614000  0.38438000  0.26546000  1.0
  H  H70  1  0.56615000  0.11564000  0.76547000  1.0
  H  H71  1  0.43386000  0.61562000  0.73454000  1.0
  H  H72  1  0.32543000  0.01865000  0.16831000  1.0
  H  H73  1  0.67458000  0.51864000  0.33168000  1.0
  H  H74  1  0.67457000  0.98135000  0.83168000  1.0
  H  H75  1  0.32543000  0.48135000  0.66833000  1.0
  H  H76  1  0.23200000  0.00444000  0.02135000  1.0
  H  H77  1  0.76802000  0.50443000  0.47864000  1.0
  H  H78  1  0.76801000  0.99557000  0.97864000  1.0
  H  H79  1  0.23200000  0.49555000  0.52137000  1.0
  C  C80  1  0.62330000  0.81453000  0.99414000  1.0
  C  C81  1  0.37667000  0.31455000  0.50586000  1.0
  C  C82  1  0.37669000  0.18546000  0.00585000  1.0
  C  C83  1  0.62333000  0.68545000  0.49414000  1.0
  C  C84  1  0.66544000  0.73696000  0.95690000  1.0
  C  C85  1  0.33453000  0.23698000  0.54311000  1.0
  C  C86  1  0.33457000  0.26304000  0.04309000  1.0
  C  C87  1  0.66546000  0.76302000  0.45690000  1.0
  C  C88  1  0.63353000  0.71936000  0.87288000  1.0
  C  C89  1  0.36645000  0.21939000  0.62713000  1.0
  C  C90  1  0.36645000  0.28063000  0.12713000  1.0
  C  C91  1  0.63354000  0.78061000  0.37287000  1.0
  C  C92  1  0.56081000  0.77883000  0.82420000  1.0
  C  C93  1  0.43920000  0.27886000  0.67580000  1.0
  C  C94  1  0.43920000  0.22116000  0.17579000  1.0
  C  C95  1  0.56081000  0.72114000  0.32420000  1.0
  C  C96  1  0.51210000  0.85192000  0.86129000  1.0
  C  C97  1  0.48788000  0.35195000  0.63869000  1.0
  C  C98  1  0.48789000  0.14808000  0.13869000  1.0
  C  C99  1  0.51212000  0.64805000  0.36131000  1.0
  C  C100  1  0.54176000  0.86930000  0.94567000  1.0
  C  C101  1  0.45825000  0.36931000  0.55431000  1.0
  C  C102  1  0.45825000  0.13070000  0.05431000  1.0
  C  C103  1  0.54176000  0.63069000  0.44569000  1.0
  C  C104  1  0.42658000  0.90805000  0.80859000  1.0
  C  C105  1  0.57344000  0.40806000  0.69138000  1.0
  C  C106  1  0.57341000  0.09194000  0.19139000  1.0
  C  C107  1  0.42658000  0.59194000  0.30863000  1.0
  C  C108  1  0.67208000  0.63654000  0.83208000  1.0
  C  C109  1  0.32791000  0.13657000  0.66794000  1.0
  C  C110  1  0.32791000  0.36346000  0.16792000  1.0
  C  C111  1  0.67208000  0.86344000  0.33207000  1.0
  C  C112  1  0.02592000  0.79826000  0.00392000  1.0
  C  C113  1  0.97408000  0.29825000  0.49607000  1.0
  C  C114  1  0.97409000  0.20175000  0.99608000  1.0
  C  C115  1  0.02593000  0.70174000  0.50392000  1.0
  C  C116  1  0.97311000  0.87354000  0.03510000  1.0
  C  C117  1  0.02688000  0.37354000  0.46488000  1.0
  C  C118  1  0.02689000  0.12646000  0.96490000  1.0
  C  C119  1  0.97313000  0.62646000  0.53511000  1.0
  C  C120  1  0.96498000  0.88008000  0.11979000  1.0
  C  C121  1  0.03502000  0.38008000  0.38020000  1.0
  C  C122  1  0.03502000  0.11991000  0.88021000  1.0
  C  C123  1  0.96499000  0.61991000  0.61979000  1.0
  C  C124  1  0.01415000  0.81355000  0.17397000  1.0
  C  C125  1  0.98582000  0.31356000  0.32602000  1.0
  C  C126  1  0.98584000  0.18644000  0.82603000  1.0
  C  C127  1  0.01415000  0.68644000  0.67397000  1.0
  C  C128  1  0.06996000  0.73985000  0.14300000  1.0
  C  C129  1  0.93007000  0.23984000  0.35700000  1.0
  C  C130  1  0.93004000  0.26014000  0.85700000  1.0
  C  C131  1  0.06995000  0.76014000  0.64300000  1.0
  C  C132  1  0.07291000  0.73072000  0.05793000  1.0
  C  C133  1  0.92707000  0.23072000  0.44207000  1.0
  C  C134  1  0.92708000  0.26928000  0.94207000  1.0
  C  C135  1  0.07291000  0.76928000  0.55793000  1.0
  C  C136  1  0.90191000  0.95735000  0.15273000  1.0
  C  C137  1  0.09806000  0.45736000  0.34727000  1.0
  C  C138  1  0.09809000  0.04265000  0.84728000  1.0
  C  C139  1  0.90193000  0.54265000  0.65274000  1.0
  C  C140  1  0.13137000  0.67248000  0.20063000  1.0
  C  C141  1  0.86864000  0.17248000  0.29936000  1.0
  C  C142  1  0.86864000  0.32752000  0.79937000  1.0
  C  C143  1  0.13135000  0.82752000  0.70063000  1.0
  C  C144  1  0.28462000  0.66113000  0.85963000  1.0
  C  C145  1  0.71536000  0.16116000  0.64039000  1.0
  C  C146  1  0.71538000  0.33887000  0.14037000  1.0
  C  C147  1  0.28463000  0.83885000  0.35962000  1.0
  C  C148  1  0.31880000  0.57412000  0.88460000  1.0
  C  C149  1  0.68119000  0.07414000  0.61543000  1.0
  C  C150  1  0.68119000  0.42588000  0.11540000  1.0
  C  C151  1  0.31880000  0.92587000  0.38459000  1.0
  C  C152  1  0.35970000  0.55877000  0.96776000  1.0
  C  C153  1  0.64029000  0.05879000  0.53226000  1.0
  C  C154  1  0.64030000  0.44123000  0.03224000  1.0
  C  C155  1  0.35971000  0.94122000  0.46775000  1.0
  C  C156  1  0.36781000  0.63147000  0.02248000  1.0
  C  C157  1  0.63217000  0.13148000  0.47753000  1.0
  C  C158  1  0.63218000  0.36854000  0.97751000  1.0
  C  C159  1  0.36783000  0.86851000  0.52247000  1.0
  C  C160  1  0.33346000  0.71736000  0.99266000  1.0
  C  C161  1  0.66654000  0.21738000  0.50735000  1.0
  C  C162  1  0.66656000  0.28265000  0.00734000  1.0
  C  C163  1  0.33346000  0.78262000  0.49265000  1.0
  C  C164  1  0.33554000  0.79804000  0.04553000  1.0
  C  C165  1  0.66446000  0.29805000  0.45448000  1.0
  C  C166  1  0.66447000  0.20197000  0.95447000  1.0
  C  C167  1  0.33554000  0.70195000  0.54552000  1.0
  C  C168  1  0.39059000  0.80081000  0.12671000  1.0
  C  C169  1  0.60941000  0.30082000  0.37330000  1.0
  C  C170  1  0.60942000  0.19919000  0.87329000  1.0
  C  C171  1  0.39059000  0.69917000  0.62670000  1.0
  C  C172  1  0.38799000  0.88028000  0.17220000  1.0
  C  C173  1  0.61201000  0.38028000  0.32780000  1.0
  C  C174  1  0.61201000  0.11972000  0.82780000  1.0
  C  C175  1  0.38799000  0.61971000  0.67221000  1.0
  C  C176  1  0.32896000  0.95487000  0.13537000  1.0
  C  C177  1  0.67105000  0.45487000  0.36463000  1.0
  C  C178  1  0.67105000  0.04513000  0.86463000  1.0
  C  C179  1  0.32897000  0.54512000  0.63537000  1.0
  C  C180  1  0.27677000  0.94781000  0.05396000  1.0
  C  C181  1  0.72323000  0.44781000  0.44605000  1.0
  C  C182  1  0.72323000  0.05219000  0.94604000  1.0
  C  C183  1  0.27678000  0.55218000  0.55396000  1.0
  N  N184  1  0.66175000  0.83684000  0.07445000  1.0
  N  N185  1  0.33823000  0.33684000  0.42554000  1.0
  N  N186  1  0.33825000  0.16317000  0.92553000  1.0
  N  N187  1  0.66176000  0.66317000  0.57446000  1.0
  N  N188  1  0.04167000  0.79406000  0.91965000  1.0
  N  N189  1  0.95832000  0.29406000  0.58035000  1.0
  N  N190  1  0.95833000  0.20594000  0.08036000  1.0
  N  N191  1  0.04169000  0.70594000  0.41965000  1.0
  N  N192  1  0.27988000  0.87138000  0.00974000  1.0
  N  N193  1  0.72014000  0.37138000  0.49028000  1.0
  N  N194  1  0.72013000  0.12863000  0.99026000  1.0
  N  N195  1  0.27988000  0.62862000  0.50973000  1.0
  N  N196  1  0.29070000  0.73163000  0.91219000  1.0
  N  N197  1  0.70930000  0.23166000  0.58783000  1.0
  N  N198  1  0.70931000  0.26837000  0.08781000  1.0
  N  N199  1  0.29069000  0.76835000  0.41218000  1.0
  O  O200  1  0.33937000  0.94228000  0.84077000  1.0
  O  O201  1  0.66065000  0.44230000  0.65921000  1.0
  O  O202  1  0.66062000  0.05770000  0.15921000  1.0
  O  O203  1  0.33936000  0.55771000  0.34079000  1.0
  O  O204  1  0.43471000  0.92188000  0.73307000  1.0
  O  O205  1  0.56527000  0.42188000  0.76689000  1.0
  O  O206  1  0.56526000  0.07811000  0.26691000  1.0
  O  O207  1  0.43473000  0.57811000  0.23311000  1.0
  O  O208  1  0.65308000  0.62866000  0.75360000  1.0
  O  O209  1  0.34694000  0.12870000  0.74642000  1.0
  O  O210  1  0.34690000  0.37132000  0.24640000  1.0
  O  O211  1  0.65308000  0.87131000  0.25359000  1.0
  O  O212  1  0.72190000  0.57171000  0.87547000  1.0
  O  O213  1  0.27806000  0.07173000  0.62457000  1.0
  O  O214  1  0.27806000  0.42828000  0.12453000  1.0
  O  O215  1  0.72192000  0.92827000  0.37545000  1.0
  O  O216  1  0.88308000  0.02656000  0.10608000  1.0
  O  O217  1  0.11690000  0.52656000  0.39392000  1.0
  O  O218  1  0.11691000  0.97345000  0.89395000  1.0
  O  O219  1  0.88310000  0.47344000  0.60609000  1.0
  O  O220  1  0.87192000  0.94763000  0.22465000  1.0
  O  O221  1  0.12808000  0.44765000  0.27536000  1.0
  O  O222  1  0.12808000  0.05235000  0.77536000  1.0
  O  O223  1  0.87194000  0.55237000  0.72466000  1.0
  O  O224  1  0.13390000  0.68719000  0.27798000  1.0
  O  O225  1  0.86610000  0.18721000  0.22201000  1.0
  O  O226  1  0.86611000  0.31281000  0.72201000  1.0
  O  O227  1  0.13388000  0.81280000  0.77798000  1.0
  O  O228  1  0.17876000  0.60588000  0.16862000  1.0
  O  O229  1  0.82125000  0.10588000  0.33136000  1.0
  O  O230  1  0.82127000  0.39412000  0.83138000  1.0
  O  O231  1  0.17875000  0.89412000  0.66863000  1.0
