# generated using pymatgen
data_NiH9C4NO6
_symmetry_space_group_name_H-M   'P 1'
_cell_length_a   7.69071000
_cell_length_b   9.12444000
_cell_length_c   10.88980000
_cell_angle_alpha   89.99980000
_cell_angle_beta   90.00020000
_cell_angle_gamma   89.99980000
_symmetry_Int_Tables_number   1
_chemical_formula_structural   NiH9C4NO6
_chemical_formula_sum   'Ni4 H36 C16 N4 O24'
_cell_volume   764.17453036
_cell_formula_units_Z   4
loop_
 _symmetry_equiv_pos_site_id
 _symmetry_equiv_pos_as_xyz
  1  'x, y, z'
loop_
 _atom_site_type_symbol
 _atom_site_label
 _atom_site_symmetry_multiplicity
 _atom_site_fract_x
 _atom_site_fract_y
 _atom_site_fract_z
 _atom_site_occupancy
  Ni  Ni0  1  0.85633000  0.94958000  0.90037000  1.0
  Ni  Ni1  1  0.14367000  0.55042000  0.40036000  1.0
  Ni  Ni2  1  0.64368000  0.44958000  0.09964000  1.0
  Ni  Ni3  1  0.35632000  0.05042000  0.59964000  1.0
  H  H4  1  0.13891000  0.93576000  0.77283000  1.0
  H  H5  1  0.86111000  0.56425000  0.27282000  1.0
  H  H6  1  0.36110000  0.43577000  0.22718000  1.0
  H  H7  1  0.63891000  0.06424000  0.72716000  1.0
  H  H8  1  0.17003000  0.84404000  0.90049000  1.0
  H  H9  1  0.82998000  0.65596000  0.40047000  1.0
  H  H10  1  0.32998000  0.34405000  0.09951000  1.0
  H  H11  1  0.67001000  0.15596000  0.59950000  1.0
  H  H12  1  0.12334000  0.69789000  0.70072000  1.0
  H  H13  1  0.87668000  0.80211000  0.20070000  1.0
  H  H14  1  0.37665000  0.19790000  0.29929000  1.0
  H  H15  1  0.62333000  0.30210000  0.79928000  1.0
  H  H16  1  0.98067000  0.50281000  0.81908000  1.0
  H  H17  1  0.01934000  0.99719000  0.31907000  1.0
  H  H18  1  0.51933000  0.00281000  0.18094000  1.0
  H  H19  1  0.48063000  0.49718000  0.68093000  1.0
  H  H20  1  0.14773000  0.58386000  0.90246000  1.0
  H  H21  1  0.85227000  0.91615000  0.40245000  1.0
  H  H22  1  0.35227000  0.08387000  0.09754000  1.0
  H  H23  1  0.64771000  0.41616000  0.59754000  1.0
  H  H24  1  0.03510000  0.17254000  0.81348000  1.0
  H  H25  1  0.96489000  0.32747000  0.31348000  1.0
  H  H26  1  0.46490000  0.67253000  0.18652000  1.0
  H  H27  1  0.53510000  0.82747000  0.68652000  1.0
  H  H28  1  0.86276000  0.22242000  0.89142000  1.0
  H  H29  1  0.13724000  0.27758000  0.39142000  1.0
  H  H30  1  0.63724000  0.72242000  0.10858000  1.0
  H  H31  1  0.36276000  0.77757000  0.60858000  1.0
  H  H32  1  0.05773000  0.95738000  0.09196000  1.0
  H  H33  1  0.94229000  0.54262000  0.59196000  1.0
  H  H34  1  0.44230000  0.45737000  0.90804000  1.0
  H  H35  1  0.55769000  0.04263000  0.40804000  1.0
  H  H36  1  0.99561000  0.12677000  0.07222000  1.0
  H  H37  1  0.00439000  0.37322000  0.57222000  1.0
  H  H38  1  0.50440000  0.62678000  0.92777000  1.0
  H  H39  1  0.49558000  0.87322000  0.42777000  1.0
  C  C40  1  0.85302000  0.75148000  0.70489000  1.0
  C  C41  1  0.14699000  0.74851000  0.20489000  1.0
  C  C42  1  0.64697000  0.25148000  0.29513000  1.0
  C  C43  1  0.35303000  0.24850000  0.79510000  1.0
  C  C44  1  0.02822000  0.72950000  0.77101000  1.0
  C  C45  1  0.97179000  0.77049000  0.27101000  1.0
  C  C46  1  0.47178000  0.22951000  0.22899000  1.0
  C  C47  1  0.52822000  0.27049000  0.72898000  1.0
  C  C48  1  0.01758000  0.60546000  0.86466000  1.0
  C  C49  1  0.98242000  0.89454000  0.36464000  1.0
  C  C50  1  0.48243000  0.10546000  0.13536000  1.0
  C  C51  1  0.51756000  0.39454000  0.63535000  1.0
  C  C52  1  0.89426000  0.62664000  0.97210000  1.0
  C  C53  1  0.10575000  0.87336000  0.47209000  1.0
  C  C54  1  0.60576000  0.12661000  0.02791000  1.0
  C  C55  1  0.39424000  0.37338000  0.52790000  1.0
  N  N56  1  0.08036000  0.86564000  0.83334000  1.0
  N  N57  1  0.91965000  0.63436000  0.33333333  1.0
  N  N58  1  0.41965000  0.36565000  0.16666000  1.0
  N  N59  1  0.58035000  0.13436000  0.66666667  1.0
  O  O60  1  0.75498000  0.85637000  0.74163000  1.0
  O  O61  1  0.24502000  0.64362000  0.24163000  1.0
  O  O62  1  0.74500000  0.35637000  0.25839000  1.0
  O  O63  1  0.25498000  0.14363000  0.75838000  1.0
  O  O64  1  0.80959000  0.66510000  0.61956000  1.0
  O  O65  1  0.19044000  0.83490000  0.11957000  1.0
  O  O66  1  0.69041000  0.16510000  0.38045000  1.0
  O  O67  1  0.30959000  0.33489000  0.88044000  1.0
  O  O68  1  0.80893000  0.74601000  0.98722000  1.0
  O  O69  1  0.19107000  0.75400000  0.48722000  1.0
  O  O70  1  0.69109000  0.24601000  0.01279000  1.0
  O  O71  1  0.30891000  0.25399000  0.51278000  1.0
  O  O72  1  0.88160000  0.51659000  0.04323000  1.0
  O  O73  1  0.11841000  0.98341000  0.54322000  1.0
  O  O74  1  0.61842000  0.01659000  0.95680000  1.0
  O  O75  1  0.38159000  0.48340000  0.45678000  1.0
  O  O76  1  0.90755000  0.15961000  0.82434000  1.0
  O  O77  1  0.09245000  0.34039000  0.32434000  1.0
  O  O78  1  0.59245000  0.65961000  0.17566000  1.0
  O  O79  1  0.40755000  0.84039000  0.67566000  1.0
  O  O80  1  0.95680000  0.02537000  0.06922000  1.0
  O  O81  1  0.04322000  0.47462000  0.56922000  1.0
  O  O82  1  0.54322000  0.52537000  0.93078000  1.0
  O  O83  1  0.45677000  0.97463000  0.43078000  1.0
