# generated using pymatgen
data_CuSiH32C40(N4F3)2
_symmetry_space_group_name_H-M   'P 1'
_cell_length_a   14.46260000
_cell_length_b   16.14160000
_cell_length_c   16.88010000
_cell_angle_alpha   89.99960000
_cell_angle_beta   89.99980000
_cell_angle_gamma   88.41220000
_symmetry_Int_Tables_number   1
_chemical_formula_structural   CuSiH32C40(N4F3)2
_chemical_formula_sum   'Cu4 Si4 H128 C160 N32 F24'
_cell_volume   3939.13791379
_cell_formula_units_Z   4
loop_
 _symmetry_equiv_pos_site_id
 _symmetry_equiv_pos_as_xyz
  1  'x, y, z'
loop_
 _atom_site_type_symbol
 _atom_site_label
 _atom_site_symmetry_multiplicity
 _atom_site_fract_x
 _atom_site_fract_y
 _atom_site_fract_z
 _atom_site_occupancy
  Cu  Cu0  1  0.50000000  0.00000000  0.50000000  1.0
  Cu  Cu1  1  0.00000000  0.00000000  0.00000000  1.0
  Cu  Cu2  1  0.50000000  0.50000000  0.50000000  1.0
  Cu  Cu3  1  0.00000000  0.50000000  0.00000000  1.0
  Si  Si4  1  0.50077000  0.24957000  0.49593000  1.0
  Si  Si5  1  0.99922000  0.75043000  0.99593000  1.0
  Si  Si6  1  0.49923000  0.75043000  0.50407000  1.0
  Si  Si7  1  0.00077000  0.24957000  0.00407000  1.0
  H  H8  1  0.74500000  0.61746000  0.67886000  1.0
  H  H9  1  0.75500000  0.38254000  0.17886000  1.0
  H  H10  1  0.25500000  0.38254000  0.32114000  1.0
  H  H11  1  0.24501000  0.61745000  0.82115000  1.0
  H  H12  1  0.89275000  0.37005000  0.91703000  1.0
  H  H13  1  0.60725000  0.62994000  0.41702000  1.0
  H  H14  1  0.10725000  0.62995000  0.08298000  1.0
  H  H15  1  0.39275000  0.37005000  0.58298000  1.0
  H  H16  1  0.65117000  0.37375000  0.74488000  1.0
  H  H17  1  0.84883000  0.62625000  0.24487000  1.0
  H  H18  1  0.34883000  0.62624000  0.25512000  1.0
  H  H19  1  0.15117000  0.37375000  0.75513000  1.0
  H  H20  1  0.63581000  0.61327000  0.56551000  1.0
  H  H21  1  0.86418000  0.38673000  0.06550000  1.0
  H  H22  1  0.36419000  0.38673000  0.43449000  1.0
  H  H23  1  0.13582000  0.61327000  0.93450000  1.0
  H  H24  1  0.20680000  0.13725000  0.79718000  1.0
  H  H25  1  0.29320000  0.86275000  0.29718000  1.0
  H  H26  1  0.79320000  0.86275000  0.20282000  1.0
  H  H27  1  0.70680000  0.13725000  0.70281000  1.0
  H  H28  1  0.24027000  0.88265000  0.66487000  1.0
  H  H29  1  0.25973000  0.11734000  0.16488000  1.0
  H  H30  1  0.75974000  0.11735000  0.33513000  1.0
  H  H31  1  0.74027000  0.88265000  0.83512000  1.0
  H  H32  1  0.78441000  0.36305000  0.80447000  1.0
  H  H33  1  0.71560000  0.63694000  0.30446000  1.0
  H  H34  1  0.21560000  0.63694000  0.19554000  1.0
  H  H35  1  0.28441000  0.36305000  0.69554000  1.0
  H  H36  1  0.55261000  0.37667000  0.62513000  1.0
  H  H37  1  0.94739000  0.62333000  0.12513000  1.0
  H  H38  1  0.44740000  0.62333000  0.37487000  1.0
  H  H39  1  0.05260000  0.37667000  0.87487000  1.0
  H  H40  1  0.10450000  0.13011000  0.91344000  1.0
  H  H41  1  0.39551000  0.86989000  0.41344000  1.0
  H  H42  1  0.89550000  0.86989000  0.08656000  1.0
  H  H43  1  0.60450000  0.13011000  0.58656000  1.0
  H  H44  1  0.33341000  0.12477000  0.73587000  1.0
  H  H45  1  0.16659000  0.87522000  0.23587000  1.0
  H  H46  1  0.66659000  0.87523000  0.26413000  1.0
  H  H47  1  0.83341000  0.12478000  0.76413000  1.0
  H  H48  1  0.87990000  0.62759000  0.91768000  1.0
  H  H49  1  0.62009000  0.37241000  0.41767000  1.0
  H  H50  1  0.12009000  0.37242000  0.08232000  1.0
  H  H51  1  0.37991000  0.62758000  0.58233000  1.0
  H  H52  1  0.76944000  0.63131000  0.80454000  1.0
  H  H53  1  0.73055000  0.36868000  0.30453000  1.0
  H  H54  1  0.23055000  0.36868000  0.19546000  1.0
  H  H55  1  0.26945000  0.63131000  0.69547000  1.0
  H  H56  1  0.19607000  0.86990000  0.77981000  1.0
  H  H57  1  0.30393000  0.13011000  0.27981000  1.0
  H  H58  1  0.80394000  0.13011000  0.22019000  1.0
  H  H59  1  0.69607000  0.86989000  0.72019000  1.0
  H  H60  1  0.09113000  0.87378000  0.89662000  1.0
  H  H61  1  0.40887000  0.12622000  0.39662000  1.0
  H  H62  1  0.90888000  0.12622000  0.10338000  1.0
  H  H63  1  0.59113000  0.87378000  0.60338000  1.0
  H  H64  1  0.35504000  0.88610000  0.55544000  1.0
  H  H65  1  0.14496000  0.11390000  0.05544000  1.0
  H  H66  1  0.64496000  0.11391000  0.44456000  1.0
  H  H67  1  0.85504000  0.88610000  0.94456000  1.0
  H  H68  1  0.43780000  0.12179000  0.61987000  1.0
  H  H69  1  0.06219000  0.87820000  0.11988000  1.0
  H  H70  1  0.56219000  0.87821000  0.38012000  1.0
  H  H71  1  0.93781000  0.12179000  0.88012000  1.0
  H  H72  1  0.57801000  0.36452000  0.99869000  1.0
  H  H73  1  0.92199000  0.63548000  0.49868000  1.0
  H  H74  1  0.42199000  0.63548000  0.00130000  1.0
  H  H75  1  0.07800000  0.36451000  0.50131000  1.0
  H  H76  1  0.67777000  0.48115000  0.95976000  1.0
  H  H77  1  0.82223000  0.51886000  0.45975000  1.0
  H  H78  1  0.32223000  0.51886000  0.04023000  1.0
  H  H79  1  0.17778000  0.48114000  0.54024000  1.0
  H  H80  1  0.50176000  0.50574000  0.20731000  1.0
  H  H81  1  0.99824000  0.49426000  0.70731000  1.0
  H  H82  1  0.49825000  0.49425000  0.79268000  1.0
  H  H83  1  0.00176000  0.50574000  0.29269000  1.0
  H  H84  1  0.38674000  0.26302000  0.29599000  1.0
  H  H85  1  0.11326000  0.73697000  0.79599000  1.0
  H  H86  1  0.61326000  0.73698000  0.70400000  1.0
  H  H87  1  0.88674000  0.26303000  0.20401000  1.0
  H  H88  1  0.48963000  0.37524000  0.25833000  1.0
  H  H89  1  0.01037000  0.62475000  0.75832000  1.0
  H  H90  1  0.51038000  0.62476000  0.74167000  1.0
  H  H91  1  0.98963000  0.37525000  0.24168000  1.0
  H  H92  1  0.60513000  0.61561000  0.15976000  1.0
  H  H93  1  0.89486000  0.38439000  0.65976000  1.0
  H  H94  1  0.39487000  0.38439000  0.84024000  1.0
  H  H95  1  0.10514000  0.61561000  0.34024000  1.0
  H  H96  1  0.42606000  0.32313000  0.01323000  1.0
  H  H97  1  0.07395000  0.67688000  0.51322000  1.0
  H  H98  1  0.57395000  0.67688000  0.98677000  1.0
  H  H99  1  0.92605000  0.32312000  0.48677000  1.0
  H  H100  1  0.31980000  0.21629000  0.06170000  1.0
  H  H101  1  0.18021000  0.78372000  0.56170000  1.0
  H  H102  1  0.68021000  0.78372000  0.93829000  1.0
  H  H103  1  0.81979000  0.21628000  0.43830000  1.0
  H  H104  1  0.61724000  0.25214000  0.28378000  1.0
  H  H105  1  0.88277000  0.74786000  0.78378000  1.0
  H  H106  1  0.38276000  0.74787000  0.71622000  1.0
  H  H107  1  0.11724000  0.25214000  0.21622000  1.0
  H  H108  1  0.54018000  0.12263000  0.24913000  1.0
  H  H109  1  0.95983000  0.87737000  0.74913000  1.0
  H  H110  1  0.45981000  0.87738000  0.75088000  1.0
  H  H111  1  0.04017000  0.12264000  0.25087000  1.0
  H  H112  1  0.66867000  0.13533000  0.01824000  1.0
  H  H113  1  0.83133000  0.86468000  0.51825000  1.0
  H  H114  1  0.33132000  0.86467000  0.98176000  1.0
  H  H115  1  0.16867000  0.13532000  0.48176000  1.0
  H  H116  1  0.42768000  0.05650000  0.16576000  1.0
  H  H117  1  0.07232000  0.94351000  0.66577000  1.0
  H  H118  1  0.57232000  0.94350000  0.83425000  1.0
  H  H119  1  0.92768000  0.05649000  0.33424000  1.0
  H  H120  1  0.74043000  0.26560000  0.06183000  1.0
  H  H121  1  0.75957000  0.73441000  0.56183000  1.0
  H  H122  1  0.25956000  0.73439000  0.93817000  1.0
  H  H123  1  0.24043000  0.26559000  0.43817000  1.0
  H  H124  1  0.37714000  0.91216000  0.14068000  1.0
  H  H125  1  0.12286000  0.08785000  0.64068000  1.0
  H  H126  1  0.62285000  0.08784000  0.85933000  1.0
  H  H127  1  0.87715000  0.91215000  0.35932000  1.0
  H  H128  1  0.68687000  0.98807000  0.05375000  1.0
  H  H129  1  0.81313000  0.01193000  0.55375000  1.0
  H  H130  1  0.31312000  0.01193000  0.94625000  1.0
  H  H131  1  0.18687000  0.98807000  0.44625000  1.0
  H  H132  1  0.62761000  0.84603000  0.03761000  1.0
  H  H133  1  0.87238000  0.15398000  0.53761000  1.0
  H  H134  1  0.37237000  0.15398000  0.96239000  1.0
  H  H135  1  0.12762000  0.84602000  0.46238000  1.0
  C  C136  1  0.70649000  0.49603000  0.72333000  1.0
  C  C137  1  0.79351000  0.50397000  0.22332000  1.0
  C  C138  1  0.29351000  0.50397000  0.27667000  1.0
  C  C139  1  0.20650000  0.49603000  0.77668000  1.0
  C  C140  1  0.70219000  0.56321000  0.67071000  1.0
  C  C141  1  0.79780000  0.43679000  0.17071000  1.0
  C  C142  1  0.29781000  0.43678000  0.32929000  1.0
  C  C143  1  0.20220000  0.56321000  0.82930000  1.0
  C  C144  1  0.76787000  0.49709000  0.79306000  1.0
  C  C145  1  0.73213000  0.50290000  0.29306000  1.0
  C  C146  1  0.23213000  0.50291000  0.20694000  1.0
  C  C147  1  0.26787000  0.49709000  0.70694000  1.0
  C  C148  1  0.27575000  0.00437000  0.70997000  1.0
  C  C149  1  0.22425000  0.99563000  0.20997000  1.0
  C  C150  1  0.72426000  0.99563000  0.29003000  1.0
  C  C151  1  0.77575000  0.00437000  0.79003000  1.0
  C  C152  1  0.86429000  0.42663000  0.89030000  1.0
  C  C153  1  0.63570000  0.57337000  0.39030000  1.0
  C  C154  1  0.13570000  0.57338000  0.10970000  1.0
  C  C155  1  0.36429000  0.42662000  0.60970000  1.0
  C  C156  1  0.21235000  0.00357000  0.77831000  1.0
  C  C157  1  0.28765000  0.99643000  0.27831000  1.0
  C  C158  1  0.78766000  0.99643000  0.22169000  1.0
  C  C159  1  0.71235000  0.00357000  0.72168000  1.0
  C  C160  1  0.65148000  0.42802000  0.70651000  1.0
  C  C161  1  0.84851000  0.57198000  0.20651000  1.0
  C  C162  1  0.34852000  0.57198000  0.29349000  1.0
  C  C163  1  0.15148000  0.42801000  0.79350000  1.0
  C  C164  1  0.64277000  0.56099000  0.60617000  1.0
  C  C165  1  0.85723000  0.43902000  0.10616000  1.0
  C  C166  1  0.35723000  0.43901000  0.39383000  1.0
  C  C167  1  0.14277000  0.56098000  0.89384000  1.0
  C  C168  1  0.18461000  0.07687000  0.81722000  1.0
  C  C169  1  0.31539000  0.92313000  0.31722000  1.0
  C  C170  1  0.81538000  0.92313000  0.18278000  1.0
  C  C171  1  0.68462000  0.07687000  0.68278000  1.0
  C  C172  1  0.28235000  0.93727000  0.65714000  1.0
  C  C173  1  0.21765000  0.06272000  0.15715000  1.0
  C  C174  1  0.71766000  0.06273000  0.34286000  1.0
  C  C175  1  0.78235000  0.93728000  0.84286000  1.0
  C  C176  1  0.80256000  0.42349000  0.82746000  1.0
  C  C177  1  0.69743000  0.57651000  0.32746000  1.0
  C  C178  1  0.19744000  0.57651000  0.17254000  1.0
  C  C179  1  0.30257000  0.42348000  0.67254000  1.0
  C  C180  1  0.59457000  0.42949000  0.64024000  1.0
  C  C181  1  0.90543000  0.57051000  0.14024000  1.0
  C  C182  1  0.40544000  0.57051000  0.35976000  1.0
  C  C183  1  0.09456000  0.42949000  0.85977000  1.0
  C  C184  1  0.12663000  0.07375000  0.88255000  1.0
  C  C185  1  0.37338000  0.92625000  0.38255000  1.0
  C  C186  1  0.87337000  0.92625000  0.11745000  1.0
  C  C187  1  0.62663000  0.07375000  0.61745000  1.0
  C  C188  1  0.33312000  0.07152000  0.69629000  1.0
  C  C189  1  0.16688000  0.92847000  0.19629000  1.0
  C  C190  1  0.66688000  0.92848000  0.30371000  1.0
  C  C191  1  0.83312000  0.07153000  0.80371000  1.0
  C  C192  1  0.85695000  0.57062000  0.89027000  1.0
  C  C193  1  0.64305000  0.42937000  0.39027000  1.0
  C  C194  1  0.14305000  0.42938000  0.10973000  1.0
  C  C195  1  0.35695000  0.57062000  0.60973000  1.0
  C  C196  1  0.79530000  0.57185000  0.82707000  1.0
  C  C197  1  0.70469000  0.42815000  0.32706000  1.0
  C  C198  1  0.20469000  0.42815000  0.17293000  1.0
  C  C199  1  0.29531000  0.57185000  0.67294000  1.0
  C  C200  1  0.17789000  0.92915000  0.80745000  1.0
  C  C201  1  0.32211000  0.07085000  0.30745000  1.0
  C  C202  1  0.82212000  0.07085000  0.19255000  1.0
  C  C203  1  0.67789000  0.92915000  0.69255000  1.0
  C  C204  1  0.11941000  0.93041000  0.87273000  1.0
  C  C205  1  0.38059000  0.06959000  0.37273000  1.0
  C  C206  1  0.88059000  0.06960000  0.12727000  1.0
  C  C207  1  0.61942000  0.93040000  0.62727000  1.0
  C  C208  1  0.34549000  0.93900000  0.59519000  1.0
  C  C209  1  0.15451000  0.06099000  0.09519000  1.0
  C  C210  1  0.65452000  0.06100000  0.40481000  1.0
  C  C211  1  0.84549000  0.93901000  0.90481000  1.0
  C  C212  1  0.39351000  0.06983000  0.63241000  1.0
  C  C213  1  0.10649000  0.93016000  0.13242000  1.0
  C  C214  1  0.60649000  0.93017000  0.36758000  1.0
  C  C215  1  0.89351000  0.06983000  0.86758000  1.0
  C  C216  1  0.58145000  0.41939000  0.03610000  1.0
  C  C217  1  0.91855000  0.58061000  0.53609000  1.0
  C  C218  1  0.41855000  0.58061000  0.96389000  1.0
  C  C219  1  0.08145000  0.41939000  0.46390000  1.0
  C  C220  1  0.53042000  0.42502000  0.10669000  1.0
  C  C221  1  0.96958000  0.57498000  0.60669000  1.0
  C  C222  1  0.46959000  0.57498000  0.89330000  1.0
  C  C223  1  0.03042000  0.42502000  0.39331000  1.0
  C  C224  1  0.63768000  0.48447000  0.01464000  1.0
  C  C225  1  0.86232000  0.51553000  0.51463000  1.0
  C  C226  1  0.36233000  0.51553000  0.98536000  1.0
  C  C227  1  0.13768000  0.48447000  0.48537000  1.0
  C  C228  1  0.54019000  0.49699000  0.15225000  1.0
  C  C229  1  0.95981000  0.50302000  0.65224000  1.0
  C  C230  1  0.45982000  0.50302000  0.84775000  1.0
  C  C231  1  0.04018000  0.49698000  0.34775000  1.0
  C  C232  1  0.39506000  0.27842000  0.23353000  1.0
  C  C233  1  0.10494000  0.72158000  0.73352000  1.0
  C  C234  1  0.60494000  0.72158000  0.76647000  1.0
  C  C235  1  0.89506000  0.27842000  0.26647000  1.0
  C  C236  1  0.45349000  0.34184000  0.21216000  1.0
  C  C237  1  0.04651000  0.65815000  0.71215000  1.0
  C  C238  1  0.54651000  0.65816000  0.78784000  1.0
  C  C239  1  0.95349000  0.34185000  0.28785000  1.0
  C  C240  1  0.46808000  0.35907000  0.13182000  1.0
  C  C241  1  0.03193000  0.64093000  0.63181000  1.0
  C  C242  1  0.53193000  0.64093000  0.86818000  1.0
  C  C243  1  0.96807000  0.35907000  0.36819000  1.0
  C  C244  1  0.59782000  0.55875000  0.12531000  1.0
  C  C245  1  0.90218000  0.44125000  0.62530000  1.0
  C  C246  1  0.40219000  0.44125000  0.87469000  1.0
  C  C247  1  0.09782000  0.55875000  0.37469000  1.0
  C  C248  1  0.42040000  0.31136000  0.07648000  1.0
  C  C249  1  0.07961000  0.68864000  0.57648000  1.0
  C  C250  1  0.57961000  0.68864000  0.92351000  1.0
  C  C251  1  0.92039000  0.31136000  0.42352000  1.0
  C  C252  1  0.36107000  0.25119000  0.10368000  1.0
  C  C253  1  0.13894000  0.74882000  0.60368000  1.0
  C  C254  1  0.63894000  0.74882000  0.89631000  1.0
  C  C255  1  0.86106000  0.25118000  0.39632000  1.0
  C  C256  1  0.62703000  0.22563000  0.22471000  1.0
  C  C257  1  0.87297000  0.77437000  0.72471000  1.0
  C  C258  1  0.37296000  0.77438000  0.77529000  1.0
  C  C259  1  0.12703000  0.22563000  0.27529000  1.0
  C  C260  1  0.59882000  0.11683000  0.13062000  1.0
  C  C261  1  0.90118000  0.88318000  0.63062000  1.0
  C  C262  1  0.40117000  0.88318000  0.86939000  1.0
  C  C263  1  0.09882000  0.11683000  0.36939000  1.0
  C  C264  1  0.58338000  0.15247000  0.20528000  1.0
  C  C265  1  0.91662000  0.84753000  0.70528000  1.0
  C  C266  1  0.41661000  0.84753000  0.79473000  1.0
  C  C267  1  0.08338000  0.15248000  0.29473000  1.0
  C  C268  1  0.65535000  0.15922000  0.07764000  1.0
  C  C269  1  0.84465000  0.84078000  0.57764000  1.0
  C  C270  1  0.34464000  0.84078000  0.92237000  1.0
  C  C271  1  0.15535000  0.15922000  0.42237000  1.0
  C  C272  1  0.56228000  0.03458000  0.11220000  1.0
  C  C273  1  0.93772000  0.96543000  0.61220000  1.0
  C  C274  1  0.43771000  0.96542000  0.88781000  1.0
  C  C275  1  0.06228000  0.03458000  0.38781000  1.0
  C  C276  1  0.47399000  0.01154000  0.13676000  1.0
  C  C277  1  0.02602000  0.98846000  0.63677000  1.0
  C  C278  1  0.52601000  0.98846000  0.86325000  1.0
  C  C279  1  0.97399000  0.01154000  0.36324000  1.0
  C  C280  1  0.69457000  0.23289000  0.10181000  1.0
  C  C281  1  0.80544000  0.76712000  0.60181000  1.0
  C  C282  1  0.30542000  0.76711000  0.89819000  1.0
  C  C283  1  0.19457000  0.23288000  0.39819000  1.0
  C  C284  1  0.44620000  0.93083000  0.12296000  1.0
  C  C285  1  0.05380000  0.06917000  0.62297000  1.0
  C  C286  1  0.55379000  0.06917000  0.87704000  1.0
  C  C287  1  0.94620000  0.93082000  0.37704000  1.0
  C  C288  1  0.61739000  0.97411000  0.07376000  1.0
  C  C289  1  0.88261000  0.02589000  0.57376000  1.0
  C  C290  1  0.38260000  0.02589000  0.92624000  1.0
  C  C291  1  0.11739000  0.97411000  0.42624000  1.0
  C  C292  1  0.58401000  0.89449000  0.06473000  1.0
  C  C293  1  0.91599000  0.10552000  0.56473000  1.0
  C  C294  1  0.41598000  0.10552000  0.93527000  1.0
  C  C295  1  0.08401000  0.89448000  0.43527000  1.0
  N  N296  1  0.40008000  0.00419000  0.58323000  1.0
  N  N297  1  0.09992000  0.99581000  0.08324000  1.0
  N  N298  1  0.59992000  0.99581000  0.41676000  1.0
  N  N299  1  0.90008000  0.00419000  0.91676000  1.0
  N  N300  1  0.09462000  0.00152000  0.90996000  1.0
  N  N301  1  0.40538000  0.99848000  0.40996000  1.0
  N  N302  1  0.90538000  0.99848000  0.09004000  1.0
  N  N303  1  0.59462000  0.00152000  0.59004000  1.0
  N  N304  1  0.89242000  0.49910000  0.92035000  1.0
  N  N305  1  0.60758000  0.50089000  0.42035000  1.0
  N  N306  1  0.10758000  0.50090000  0.07965000  1.0
  N  N307  1  0.39242000  0.49910000  0.57965000  1.0
  N  N308  1  0.58945000  0.49562000  0.59155000  1.0
  N  N309  1  0.91054000  0.50438000  0.09155000  1.0
  N  N310  1  0.41055000  0.50438000  0.40845000  1.0
  N  N311  1  0.08945000  0.49562000  0.90846000  1.0
  N  N312  1  0.64639000  0.55376000  0.05769000  1.0
  N  N313  1  0.85361000  0.44625000  0.55768000  1.0
  N  N314  1  0.35362000  0.44624000  0.94231000  1.0
  N  N315  1  0.14639000  0.55376000  0.44232000  1.0
  N  N316  1  0.34862000  0.23331000  0.18064000  1.0
  N  N317  1  0.15139000  0.76668000  0.68064000  1.0
  N  N318  1  0.65138000  0.76669000  0.81935000  1.0
  N  N319  1  0.84862000  0.23332000  0.31936000  1.0
  N  N320  1  0.68210000  0.26571000  0.17447000  1.0
  N  N321  1  0.81790000  0.73429000  0.67447000  1.0
  N  N322  1  0.31789000  0.73429000  0.82554000  1.0
  N  N323  1  0.18210000  0.26571000  0.32554000  1.0
  N  N324  1  0.49985000  0.87180000  0.08857000  1.0
  N  N325  1  0.00015000  0.12820000  0.58857000  1.0
  N  N326  1  0.50014000  0.12820000  0.91144000  1.0
  N  N327  1  0.99985000  0.87180000  0.41143000  1.0
  F  F328  1  0.49258000  0.14273000  0.49675000  1.0
  F  F329  1  0.00742000  0.85727000  0.99675000  1.0
  F  F330  1  0.50743000  0.85727000  0.50325000  1.0
  F  F331  1  0.99257000  0.14273000  0.00325000  1.0
  F  F332  1  0.50839000  0.35615000  0.49634000  1.0
  F  F333  1  0.99160000  0.64385000  0.99634000  1.0
  F  F334  1  0.49161000  0.64385000  0.50366000  1.0
  F  F335  1  0.00840000  0.35615000  0.00366000  1.0
  F  F336  1  0.38238000  0.26006000  0.49863000  1.0
  F  F337  1  0.11761000  0.73994000  0.99863000  1.0
  F  F338  1  0.61762000  0.73994000  0.50137000  1.0
  F  F339  1  0.88238000  0.26006000  0.00137000  1.0
  F  F340  1  0.49810000  0.24912000  0.39472000  1.0
  F  F341  1  0.00190000  0.75088000  0.89472000  1.0
  F  F342  1  0.50191000  0.75088000  0.60528000  1.0
  F  F343  1  0.99810000  0.24912000  0.10528000  1.0
  F  F344  1  0.61894000  0.23879000  0.49410000  1.0
  F  F345  1  0.88105000  0.76122000  0.99410000  1.0
  F  F346  1  0.38106000  0.76122000  0.50590000  1.0
  F  F347  1  0.11894000  0.23878000  0.00590000  1.0
  F  F348  1  0.50291000  0.24922000  0.59806000  1.0
  F  F349  1  0.99708000  0.75079000  0.09805000  1.0
  F  F350  1  0.49709000  0.75078000  0.40194000  1.0
  F  F351  1  0.00291000  0.24922000  0.90195000  1.0
