# generated using pymatgen
data_Zn6H36C70N5Cl5O24
_symmetry_space_group_name_H-M   'P 1'
_cell_length_a   18.49590000
_cell_length_b   18.61240000
_cell_length_c   18.70245488
_cell_angle_alpha   110.00987728
_cell_angle_beta   109.19345152
_cell_angle_gamma   108.86000000
_symmetry_Int_Tables_number   1
_chemical_formula_structural   Zn6H36C70N5Cl5O24
_chemical_formula_sum   'Zn6 H36 C70 N5 Cl5 O24'
_cell_volume   4977.17975989
_cell_formula_units_Z   1
loop_
 _symmetry_equiv_pos_site_id
 _symmetry_equiv_pos_as_xyz
  1  'x, y, z'
loop_
 _atom_site_type_symbol
 _atom_site_label
 _atom_site_symmetry_multiplicity
 _atom_site_fract_x
 _atom_site_fract_y
 _atom_site_fract_z
 _atom_site_occupancy
  Zn  Zn0  1  0.92900000  0.00293000  0.43124000  1.0
  Zn  Zn1  1  0.05199000  0.99779000  0.55485000  1.0
  Zn  Zn2  1  0.06830000  0.56887000  0.00788000  1.0
  Zn  Zn3  1  0.93933000  0.44909000  0.00932000  1.0
  Zn  Zn4  1  0.51301000  0.43263000  0.44707000  1.0
  Zn  Zn5  1  0.48587000  0.54623000  0.55495000  1.0
  H  H6  1  0.07446000  0.71771000  0.30991000  1.0
  H  H7  1  0.55305000  0.69542000  0.49151000  1.0
  H  H8  1  0.75893000  0.59616000  0.46899000  1.0
  H  H9  1  0.09715000  0.23932000  0.60724000  1.0
  H  H10  1  0.24053000  0.37486000  0.68822000  1.0
  H  H11  1  0.89162000  0.25516000  0.78859000  1.0
  H  H12  1  0.29934000  0.23095000  0.63463000  1.0
  H  H13  1  0.90619000  0.70168000  0.27523000  1.0
  H  H14  1  0.05070000  0.03535000  0.34137000  1.0
  H  H15  1  0.02439000  0.01300000  0.19660000  1.0
  H  H16  1  0.13944000  0.11076000  0.18008000  1.0
  H  H17  1  0.28150000  0.23017000  0.31052000  1.0
  H  H18  1  0.40760000  0.33776000  0.61921000  1.0
  H  H19  1  0.14217000  0.54423000  0.28642000  1.0
  H  H20  1  0.24203000  0.33764000  0.98989000  1.0
  H  H21  1  0.86581000  0.65861000  0.09984000  1.0
  H  H22  1  0.26879000  0.55876000  0.40586000  1.0
  H  H23  1  0.70085000  0.37952000  0.78066000  1.0
  H  H24  1  0.94295000  0.67010000  0.98637000  1.0
  H  H25  1  0.98281000  0.81571000  0.00147000  1.0
  H  H26  1  0.88791000  0.83304000  0.88639000  1.0
  H  H27  1  0.60090000  0.39436000  0.66586000  1.0
  H  H28  1  0.93113000  0.83870000  0.15144000  1.0
  H  H29  1  0.14082000  0.89960000  0.36431000  1.0
  H  H30  1  0.78376000  0.93334000  0.50115000  1.0
  H  H31  1  0.65894000  0.94698000  0.50831000  1.0
  H  H32  1  0.47318000  0.77411000  0.48600000  1.0
  H  H33  1  0.51277000  0.87172000  0.48872000  1.0
  H  H34  1  0.83841000  0.05295000  0.60989000  1.0
  H  H35  1  0.81721000  0.09945000  0.68979000  1.0
  H  H36  1  0.05849000  0.33967000  0.02234000  1.0
  H  H37  1  0.09424000  0.32400000  0.94806000  1.0
  H  H38  1  0.49715000  0.49826000  0.25070000  1.0
  H  H39  1  0.47024000  0.49881000  0.32813000  1.0
  H  H40  1  0.67721000  0.67708000  0.71094000  1.0
  H  H41  1  0.76905000  0.77414000  0.75730000  1.0
  C  C42  1  0.89157000  0.87504000  0.50294000  1.0
  C  C43  1  0.05666000  0.82305000  0.20927000  1.0
  C  C44  1  0.07982000  0.84518000  0.30526000  1.0
  C  C45  1  0.98656000  0.83553000  0.28384000  1.0
  C  C46  1  0.73572000  0.88272000  0.50309000  1.0
  C  C47  1  0.66454000  0.88941000  0.50517000  1.0
  C  C48  1  0.59711000  0.82129000  0.50116000  1.0
  C  C49  1  0.60489000  0.74796000  0.49538000  1.0
  C  C50  1  0.67776000  0.73971000  0.49409000  1.0
  C  C51  1  0.74579000  0.80865000  0.49768000  1.0
  C  C52  1  0.81985000  0.80122000  0.49565000  1.0
  C  C53  1  0.97383000  0.89448000  0.34899000  1.0
  C  C54  1  0.82300000  0.72476000  0.48494000  1.0
  C  C55  1  0.75537000  0.65566000  0.47814000  1.0
  C  C56  1  0.68555000  0.66310000  0.48486000  1.0
  C  C57  1  0.11779000  0.29064000  0.67178000  1.0
  C  C58  1  0.19774000  0.36545000  0.71651000  1.0
  C  C59  1  0.22759000  0.42930000  0.80253000  1.0
  C  C60  1  0.17441000  0.42055000  0.84079000  1.0
  C  C61  1  0.08532000  0.34984000  0.79041000  1.0
  C  C62  1  0.06101000  0.27958000  0.70779000  1.0
  C  C63  1  0.98167000  0.19832000  0.66281000  1.0
  C  C64  1  0.13605000  0.10696000  0.51419000  1.0
  C  C65  1  0.92191000  0.18650000  0.69335000  1.0
  C  C66  1  0.94074000  0.25998000  0.76774000  1.0
  C  C67  1  0.01844000  0.33921000  0.81555000  1.0
  C  C68  1  0.10227000  0.07758000  0.33575000  1.0
  C  C69  1  0.08710000  0.06574000  0.25427000  1.0
  C  C70  1  0.15198000  0.12097000  0.24491000  1.0
  C  C71  1  0.23122000  0.18776000  0.31765000  1.0
  C  C72  1  0.24928000  0.20160000  0.40269000  1.0
  C  C73  1  0.18337000  0.14507000  0.41245000  1.0
  C  C74  1  0.20342000  0.15842000  0.49843000  1.0
  C  C75  1  0.97073000  0.12124000  0.58980000  1.0
  C  C76  1  0.28501000  0.22344000  0.57031000  1.0
  C  C77  1  0.34651000  0.28245000  0.56137000  1.0
  C  C78  1  0.32912000  0.27246000  0.47962000  1.0
  C  C79  1  0.09444000  0.47535000  0.11814000  1.0
  C  C80  1  0.03175000  0.65420000  0.12378000  1.0
  C  C81  1  0.86030000  0.49930000  0.90978000  1.0
  C  C82  1  0.01896000  0.41043000  0.88502000  1.0
  C  C83  1  0.61422000  0.52766000  0.65189000  1.0
  C  C84  1  0.62028000  0.59009000  0.48399000  1.0
  C  C85  1  0.38235000  0.50980000  0.39707000  1.0
  C  C86  1  0.94936000  0.73482000  0.25518000  1.0
  C  C87  1  0.39287000  0.34368000  0.47671000  1.0
  C  C88  1  0.19313000  0.38429000  0.07543000  1.0
  C  C89  1  0.25808000  0.37692000  0.05704000  1.0
  C  C90  1  0.34466000  0.42022000  0.12454000  1.0
  C  C91  1  0.37042000  0.46452000  0.21372000  1.0
  C  C92  1  0.30344000  0.46863000  0.23471000  1.0
  C  C93  1  0.21858000  0.44007000  0.16468000  1.0
  C  C94  1  0.16430000  0.47295000  0.18567000  1.0
  C  C95  1  0.18390000  0.51854000  0.27172000  1.0
  C  C96  1  0.25726000  0.53064000  0.33902000  1.0
  C  C97  1  0.04250000  0.74577000  0.27640000  1.0
  C  C98  1  0.31651000  0.50653000  0.32274000  1.0
  C  C99  1  0.89880000  0.67711000  0.93769000  1.0
  C  C100  1  0.92171000  0.75862000  0.94519000  1.0
  C  C101  1  0.86800000  0.76838000  0.88059000  1.0
  C  C102  1  0.78922000  0.69729000  0.80764000  1.0
  C  C103  1  0.76110000  0.61133000  0.79951000  1.0
  C  C104  1  0.81973000  0.60202000  0.86504000  1.0
  C  C105  1  0.79628000  0.51613000  0.85470000  1.0
  C  C106  1  0.71704000  0.44368000  0.78635000  1.0
  C  C107  1  0.66102000  0.45227000  0.72230000  1.0
  C  C108  1  0.02007000  0.72299000  0.17968000  1.0
  C  C109  1  0.68199000  0.53349000  0.72784000  1.0
  C  C110  1  0.92642000  0.71286000  0.15942000  1.0
  C  C111  1  0.96285000  0.81233000  0.18757000  1.0
  N  N112  1  0.52693000  0.82975000  0.50570000  1.0
  N  N113  1  0.84452000  0.10881000  0.65259000  1.0
  N  N114  1  0.10685000  0.33708000  0.00942000  1.0
  N  N115  1  0.45891000  0.50958000  0.27679000  1.0
  N  N116  1  0.74392000  0.71059000  0.74256000  1.0
  Cl  Cl117  1  0.33352000  0.51552000  0.86011000  1.0
  Cl  Cl118  1  0.22362000  0.48883000  0.95187000  1.0
  Cl  Cl119  1  0.42348000  0.41550000  0.09483000  1.0
  Cl  Cl120  1  0.12686000  0.88216000  0.18202000  1.0
  Cl  Cl121  1  0.90701000  0.70835000  0.47485000  1.0
  O  O122  1  0.86837000  0.90365000  0.45164000  1.0
  O  O123  1  0.01312000  0.42782000  0.09367000  1.0
  O  O124  1  0.08598000  0.67568000  0.09599000  1.0
  O  O125  1  0.98495000  0.57694000  0.10657000  1.0
  O  O126  1  0.93972000  0.53959000  0.92890000  1.0
  O  O127  1  0.83227000  0.44221000  0.93257000  1.0
  O  O128  1  0.06440000  0.49021000  0.90556000  1.0
  O  O129  1  0.97093000  0.38672000  0.91728000  1.0
  O  O130  1  0.59615000  0.47411000  0.57661000  1.0
  O  O131  1  0.57449667  0.57248667  0.66666667  1.0
  O  O132  1  0.60060000  0.51051000  0.43365000  1.0
  O  O133  1  0.97093000  0.90534000  0.56099000  1.0
  O  O134  1  0.58700000  0.60875000  0.53239000  1.0
  O  O135  1  0.41184000  0.45610000  0.38153000  1.0
  O  O136  1  0.40435000  0.56418000  0.47622000  1.0
  O  O137  1  0.42761000  0.32437000  0.42861000  1.0
  O  O138  1  0.40871000  0.42052000  0.52450000  1.0
  O  O139  1  0.92139000  0.92386000  0.32470000  1.0
  O  O140  1  0.01752000  0.91222000  0.42706000  1.0
  O  O141  1  0.05841000  0.09379000  0.47447000  1.0
  O  O142  1  0.15996000  0.08008000  0.56838000  1.0
  O  O143  1  0.91553000  0.09284000  0.50998000  1.0
  O  O144  1  0.01781000  0.08842000  0.61373000  1.0
  O  O145  1  0.12247000  0.52813000  0.09296000  1.0
