# generated using pymatgen
data_Zn2H10C37S6(O13F3)2
_symmetry_space_group_name_H-M   'P 1'
_cell_length_a   16.26830000
_cell_length_b   16.41660000
_cell_length_c   28.76040000
_cell_angle_alpha   90.41930000
_cell_angle_beta   89.81660000
_cell_angle_gamma   89.82750000
_symmetry_Int_Tables_number   1
_chemical_formula_structural   Zn2H10C37S6(O13F3)2
_chemical_formula_sum   'Zn4 H20 C74 S12 O52 F12'
_cell_volume   7680.76464034
_cell_formula_units_Z   2
loop_
 _symmetry_equiv_pos_site_id
 _symmetry_equiv_pos_as_xyz
  1  'x, y, z'
loop_
 _atom_site_type_symbol
 _atom_site_label
 _atom_site_symmetry_multiplicity
 _atom_site_fract_x
 _atom_site_fract_y
 _atom_site_fract_z
 _atom_site_occupancy
  Zn  Zn0  1  0.50369000  0.08472000  0.50182000  1.0
  Zn  Zn1  1  0.50009000  0.91755000  0.49920000  1.0
  Zn  Zn2  1  0.08730000  0.50587000  0.99990000  1.0
  Zn  Zn3  1  0.91856000  0.50553000  0.00027000  1.0
  H  H4  1  0.05335000  0.39139000  0.13642000  1.0
  H  H5  1  0.87270000  0.73057000  0.92597000  1.0
  H  H6  1  0.26260000  0.87541000  0.42892000  1.0
  H  H7  1  0.59875000  0.01936000  0.64719000  1.0
  H  H8  1  0.71885000  0.14861000  0.42011000  1.0
  H  H9  1  0.26666000  0.92948000  0.55840000  1.0
  H  H10  1  0.26915000  0.08494000  0.30520000  1.0
  H  H11  1  0.88463000  0.92844000  0.61328000  1.0
  H  H12  1  0.39435000  0.18023000  0.30111000  1.0
  H  H13  1  0.91762000  0.87621000  0.53774000  1.0
  H  H14  1  0.08612000  0.41062000  0.23422000  1.0
  H  H15  1  0.73974000  0.82288000  0.89150000  1.0
  H  H16  1  0.78950000  0.78530000  0.19388000  1.0
  H  H17  1  0.21801000  0.15459000  0.94228000  1.0
  H  H18  1  0.75601000  0.17057000  0.09132000  1.0
  H  H19  1  0.20140000  0.65391000  0.81521000  1.0
  H  H20  1  0.79243000  0.28090000  0.37743000  1.0
  H  H21  1  0.17946000  0.79362000  0.56890000  1.0
  H  H22  1  0.84699000  0.10963000  0.04031000  1.0
  H  H23  1  0.10934000  0.58700000  0.77546000  1.0
  C  C24  1  0.61174000  0.96380000  0.56057000  1.0
  C  C25  1  0.39313000  0.97183000  0.43769000  1.0
  C  C26  1  0.97392000  0.67203000  0.13661000  1.0
  C  C27  1  0.09774000  0.26706000  0.90386000  1.0
  C  C28  1  0.07504000  0.80628000  0.13217000  1.0
  C  C29  1  0.96245000  0.24879000  0.84776000  1.0
  C  C30  1  0.08328000  0.74385000  0.09946000  1.0
  C  C31  1  0.96695000  0.31470000  0.87831000  1.0
  C  C32  1  0.92108000  0.19556000  0.12590000  1.0
  C  C33  1  0.04065000  0.73086000  0.82921000  1.0
  C  C34  1  0.92123000  0.25256000  0.08959000  1.0
  C  C35  1  0.02949000  0.66199000  0.85719000  1.0
  C  C36  1  0.19938000  0.92998000  0.37145000  1.0
  C  C37  1  0.72096000  0.00316000  0.67312000  1.0
  C  C38  1  0.26415000  0.92207000  0.40224000  1.0
  C  C39  1  0.66040000  0.99676000  0.63962000  1.0
  C  C40  1  0.79069000  0.09372000  0.36507000  1.0
  C  C41  1  0.19279000  0.96348000  0.61769000  1.0
  C  C42  1  0.72699000  0.09631000  0.39715000  1.0
  C  C43  1  0.25891000  0.97112000  0.58761000  1.0
  C  C44  1  0.00169000  0.00810000  0.24942000  1.0
  C  C45  1  0.99769000  0.00175000  0.75250000  1.0
  C  C46  1  0.60842000  0.03292000  0.43864000  1.0
  C  C47  1  0.38924000  0.03366000  0.56098000  1.0
  C  C48  1  0.19867000  0.98979000  0.33677000  1.0
  C  C49  1  0.80247000  0.97880000  0.66454000  1.0
  C  C50  1  0.33070000  0.97545000  0.39970000  1.0
  C  C51  1  0.67944000  0.96340000  0.59597000  1.0
  C  C52  1  0.80248000  0.02475000  0.33577000  1.0
  C  C53  1  0.18385000  0.01596000  0.65686000  1.0
  C  C54  1  0.67252000  0.03075000  0.40173000  1.0
  C  C55  1  0.31780000  0.03253000  0.59382000  1.0
  C  C56  1  0.97644000  0.20410000  0.16389000  1.0
  C  C57  1  0.98711000  0.79921000  0.83418000  1.0
  C  C58  1  0.96717000  0.32479000  0.09457000  1.0
  C  C59  1  0.97224000  0.66480000  0.89417000  1.0
  C  C60  1  0.01569000  0.80323000  0.16780000  1.0
  C  C61  1  0.02497000  0.18976000  0.84494000  1.0
  C  C62  1  0.03146000  0.67609000  0.10028000  1.0
  C  C63  1  0.03540000  0.32587000  0.90740000  1.0
  C  C64  1  0.07426000  0.00625000  0.27988000  1.0
  C  C65  1  0.92228000  0.99897000  0.72428000  1.0
  C  C66  1  0.99848000  0.08152000  0.22030000  1.0
  C  C67  1  0.99922000  0.92832000  0.78161000  1.0
  C  C68  1  0.26767000  0.04092000  0.33323000  1.0
  C  C69  1  0.82106000  0.94542000  0.62052000  1.0
  C  C70  1  0.92721000  0.00920000  0.27860000  1.0
  C  C71  1  0.06780000  0.00376000  0.71987000  1.0
  C  C72  1  0.00503000  0.93496000  0.21942000  1.0
  C  C73  1  0.00213000  0.07291000  0.78386000  1.0
  C  C74  1  0.13167000  0.99799000  0.30617000  1.0
  C  C75  1  0.86512000  0.98957000  0.69789000  1.0
  C  C76  1  0.00857000  0.87205000  0.19721000  1.0
  C  C77  1  0.01501000  0.12552000  0.81264000  1.0
  C  C78  1  0.98691000  0.14024000  0.19587000  1.0
  C  C79  1  0.99505000  0.86859000  0.80598000  1.0
  C  C80  1  0.86852000  0.01729000  0.30422000  1.0
  C  C81  1  0.12062000  0.00861000  0.69022000  1.0
  C  C82  1  0.03272000  0.61328000  0.06231000  1.0
  C  C83  1  0.03823000  0.39469000  0.94135000  1.0
  C  C84  1  0.96770000  0.39433000  0.06047000  1.0
  C  C85  1  0.97224000  0.60563000  0.93392000  1.0
  C  C86  1  0.33264000  0.03438000  0.36419000  1.0
  C  C87  1  0.76038000  0.93734000  0.58679000  1.0
  C  C88  1  0.74613000  0.96087000  0.33983000  1.0
  C  C89  1  0.24271000  0.07774000  0.66224000  1.0
  C  C90  1  0.68228000  0.96307000  0.37229000  1.0
  C  C91  1  0.30817000  0.08666000  0.63108000  1.0
  C  C92  1  0.02362000  0.27595000  0.16703000  1.0
  C  C93  1  0.92360000  0.79556000  0.86775000  1.0
  C  C94  1  0.01725000  0.33590000  0.13355000  1.0
  C  C95  1  0.91836000  0.73076000  0.89826000  1.0
  C  C96  1  0.96587000  0.73253000  0.17072000  1.0
  C  C97  1  0.09409000  0.19951000  0.87431000  1.0
  S  S98  1  0.42051000  0.09867000  0.35640000  1.0
  S  S99  1  0.78718000  0.89580000  0.53111000  1.0
  S  S100  1  0.09523000  0.28590000  0.21415000  1.0
  S  S101  1  0.85214000  0.87878000  0.87141000  1.0
  S  S102  1  0.89367000  0.71825000  0.21718000  1.0
  S  S103  1  0.17909000  0.12973000  0.87294000  1.0
  S  S104  1  0.85057000  0.11072000  0.13432000  1.0
  S  S105  1  0.12271000  0.75106000  0.78735000  1.0
  S  S106  1  0.86221000  0.17531000  0.35954000  1.0
  S  S107  1  0.11859000  0.88478000  0.60942000  1.0
  S  S108  1  0.87383000  0.23517000  0.03322000  1.0
  S  S109  1  0.07813000  0.56437000  0.84583000  1.0
  O  O110  1  0.58460000  0.03358000  0.55016000  1.0
  O  O111  1  0.41428000  0.90104000  0.45248000  1.0
  O  O112  1  0.57878000  0.96564000  0.45147000  1.0
  O  O113  1  0.41874000  0.10277000  0.54886000  1.0
  O  O114  1  0.58848000  0.10322000  0.45570000  1.0
  O  O115  1  0.41382000  0.96424000  0.54709000  1.0
  O  O116  1  0.58460000  0.89530000  0.54540000  1.0
  O  O117  1  0.41716000  0.03960000  0.45369000  1.0
  O  O118  1  0.10316000  0.58624000  0.04899000  1.0
  O  O119  1  0.97006000  0.42331000  0.95487000  1.0
  O  O120  1  0.89799000  0.42386000  0.04808000  1.0
  O  O121  1  0.04188000  0.58970000  0.95115000  1.0
  O  O122  1  0.03774000  0.42097000  0.04928000  1.0
  O  O123  1  0.90206000  0.58252000  0.94941000  1.0
  O  O124  1  0.96358000  0.59272000  0.04618000  1.0
  O  O125  1  0.10900000  0.42010000  0.95511000  1.0
  O  O126  1  0.41249000  0.17312000  0.38280000  1.0
  O  O127  1  0.49236000  0.04804000  0.35864000  1.0
  O  O128  1  0.41060000  0.12276000  0.30204000  1.0
  O  O129  1  0.78149000  0.80842000  0.53266000  1.0
  O  O130  1  0.74570000  0.94264000  0.49637000  1.0
  O  O131  1  0.88258000  0.92049000  0.52644000  1.0
  O  O132  1  0.05349000  0.27365000  0.25758000  1.0
  O  O133  1  0.16788000  0.24155000  0.20129000  1.0
  O  O134  1  0.11894000  0.38130000  0.21080000  1.0
  O  O135  1  0.89229000  0.94599000  0.89353000  1.0
  O  O136  1  0.81045000  0.88569000  0.82761000  1.0
  O  O137  1  0.78670000  0.84431000  0.90894000  1.0
  O  O138  1  0.89799000  0.63485000  0.23087000  1.0
  O  O139  1  0.90110000  0.78410000  0.24992000  1.0
  O  O140  1  0.80718000  0.72843000  0.19025000  1.0
  O  O141  1  0.15391000  0.05505000  0.85170000  1.0
  O  O142  1  0.24976000  0.17426000  0.85735000  1.0
  O  O143  1  0.18995000  0.10868000  0.92720000  1.0
  O  O144  1  0.89072000  0.03465000  0.12489000  1.0
  O  O145  1  0.80865000  0.12818000  0.17713000  1.0
  O  O146  1  0.78411000  0.11716000  0.09260000  1.0
  O  O147  1  0.08804000  0.75644000  0.74194000  1.0
  O  O148  1  0.17142000  0.81380000  0.80833000  1.0
  O  O149  1  0.17846000  0.66926000  0.78451000  1.0
  O  O150  1  0.93921000  0.15006000  0.37872000  1.0
  O  O151  1  0.85600000  0.20843000  0.31345000  1.0
  O  O152  1  0.82466000  0.24204000  0.39559000  1.0
  O  O153  1  0.12767000  0.82537000  0.64549000  1.0
  O  O154  1  0.04030000  0.92100000  0.59904000  1.0
  O  O155  1  0.14954000  0.84349000  0.56100000  1.0
  O  O156  1  0.78680000  0.25137000  0.03778000  1.0
  O  O157  1  0.92339000  0.27528000  0.99933000  1.0
  O  O158  1  0.88961000  0.14104000  0.02348000  1.0
  O  O159  1  0.16449000  0.57070000  0.85734000  1.0
  O  O160  1  0.02757000  0.50247000  0.86551000  1.0
  O  O161  1  0.06691000  0.55336000  0.79129000  1.0
  F  F162  1  0.75389000  0.89485000  0.31206000  1.0
  F  F163  1  0.23708000  0.12946000  0.69856000  1.0
  F  F164  1  0.12425000  0.87168000  0.12868000  1.0
  F  F165  1  0.89598000  0.24195000  0.82029000  1.0
  F  F166  1  0.13484000  0.87879000  0.37500000  1.0
  F  F167  1  0.70173000  0.03579000  0.71507000  1.0
  F  F168  1  0.63178000  0.89873000  0.37320000  1.0
  F  F169  1  0.36266000  0.14632000  0.63946000  1.0
  F  F170  1  0.92494000  0.60612000  0.13835000  1.0
  F  F171  1  0.16448000  0.27445000  0.93177000  1.0
  F  F172  1  0.13966000  0.75214000  0.06561000  1.0
  F  F173  1  0.90396000  0.36726000  0.87816000  1.0
