# generated using pymatgen
data_NiH26C20(NO3)2
_symmetry_space_group_name_H-M   'P 1'
_cell_length_a   8.47345000
_cell_length_b   8.56218000
_cell_length_c   14.73780000
_cell_angle_alpha   90.00000000
_cell_angle_beta   90.00000000
_cell_angle_gamma   110.75700000
_symmetry_Int_Tables_number   1
_chemical_formula_structural   NiH26C20(NO3)2
_chemical_formula_sum   'Ni2 H52 C40 N4 O12'
_cell_volume   999.84248501
_cell_formula_units_Z   2
loop_
 _symmetry_equiv_pos_site_id
 _symmetry_equiv_pos_as_xyz
  1  'x, y, z'
loop_
 _atom_site_type_symbol
 _atom_site_label
 _atom_site_symmetry_multiplicity
 _atom_site_fract_x
 _atom_site_fract_y
 _atom_site_fract_z
 _atom_site_occupancy
  Ni  Ni0  1  0.00000000  0.00000000  0.00000000  1.0
  Ni  Ni1  1  0.50000000  0.50000000  0.50000000  1.0
  H  H2  1  0.19218000  0.93399000  0.89463000  1.0
  H  H3  1  0.30782000  0.56600000  0.39463000  1.0
  H  H4  1  0.80782000  0.06600000  0.10537000  1.0
  H  H5  1  0.69218000  0.43400000  0.60537000  1.0
  H  H6  1  0.79920000  0.89874000  0.72738000  1.0
  H  H7  1  0.70080000  0.60126000  0.22739000  1.0
  H  H8  1  0.20080000  0.10126000  0.27261000  1.0
  H  H9  1  0.29920000  0.39874000  0.77261000  1.0
  H  H10  1  0.75645000  0.84260000  0.84355000  1.0
  H  H11  1  0.74355000  0.65740000  0.34356000  1.0
  H  H12  1  0.24355000  0.15740000  0.15645000  1.0
  H  H13  1  0.25645000  0.34260000  0.65644000  1.0
  H  H14  1  0.03842000  0.56873000  0.88227000  1.0
  H  H15  1  0.46157000  0.93127000  0.38228000  1.0
  H  H16  1  0.96158000  0.43127000  0.11773000  1.0
  H  H17  1  0.53842000  0.06873000  0.61772000  1.0
  H  H18  1  0.83810000  0.17255000  0.68677000  1.0
  H  H19  1  0.66190000  0.32745000  0.18678000  1.0
  H  H20  1  0.16190000  0.82745000  0.31323000  1.0
  H  H21  1  0.33810000  0.67255000  0.81322000  1.0
  H  H22  1  0.04803000  0.34937000  0.99350000  1.0
  H  H23  1  0.45197000  0.15063000  0.49350000  1.0
  H  H24  1  0.95197000  0.65063000  0.00650000  1.0
  H  H25  1  0.54803000  0.84937000  0.50650000  1.0
  H  H26  1  0.97335000  0.74453000  0.76933000  1.0
  H  H27  1  0.52666000  0.75547000  0.26933000  1.0
  H  H28  1  0.02665000  0.25547000  0.23067000  1.0
  H  H29  1  0.47335000  0.24453000  0.73067000  1.0
  H  H30  1  0.11016000  0.95608000  0.76002000  1.0
  H  H31  1  0.38984000  0.54392000  0.26002000  1.0
  H  H32  1  0.88983000  0.04392000  0.23998000  1.0
  H  H33  1  0.61016000  0.45608000  0.73998000  1.0
  H  H34  1  0.93204000  0.47527000  0.72319000  1.0
  H  H35  1  0.56795000  0.02472000  0.22319000  1.0
  H  H36  1  0.06796000  0.52473000  0.27681000  1.0
  H  H37  1  0.43205000  0.97527000  0.77681000  1.0
  H  H38  1  0.45217000  0.40846000  0.09089000  1.0
  H  H39  1  0.04784000  0.09153000  0.59089000  1.0
  H  H40  1  0.54783000  0.59153000  0.90911000  1.0
  H  H41  1  0.95217000  0.90847000  0.40911000  1.0
  H  H42  1  0.66034000  0.52349000  0.05460000  1.0
  H  H43  1  0.83966000  0.97650000  0.55460000  1.0
  H  H44  1  0.33966000  0.47651000  0.94540000  1.0
  H  H45  1  0.16034000  0.02350000  0.44540000  1.0
  H  H46  1  0.61556000  0.32389000  0.91977000  1.0
  H  H47  1  0.88445000  0.17612000  0.41977000  1.0
  H  H48  1  0.38444000  0.67611000  0.08023000  1.0
  H  H49  1  0.11556000  0.82389000  0.58023000  1.0
  H  H50  1  0.60796000  0.22738000  0.02558000  1.0
  H  H51  1  0.89204000  0.27262000  0.52558000  1.0
  H  H52  1  0.39204000  0.77262000  0.97442000  1.0
  H  H53  1  0.10796000  0.72738000  0.47442000  1.0
  C  C54  1  0.85157000  0.92158000  0.79628000  1.0
  C  C55  1  0.64843000  0.57842000  0.29628000  1.0
  C  C56  1  0.14843000  0.07841000  0.20372000  1.0
  C  C57  1  0.35157000  0.42159000  0.70372000  1.0
  C  C58  1  0.99542000  0.43741000  0.86271000  1.0
  C  C59  1  0.50457000  0.06258000  0.36271000  1.0
  C  C60  1  0.00457000  0.56259000  0.13729000  1.0
  C  C61  1  0.49543000  0.93742000  0.63729000  1.0
  C  C62  1  0.89417000  0.10214000  0.81964000  1.0
  C  C63  1  0.60583000  0.39786000  0.31964000  1.0
  C  C64  1  0.10583000  0.89786000  0.18036000  1.0
  C  C65  1  0.39418000  0.60214000  0.68036000  1.0
  C  C66  1  0.88396000  0.21708000  0.75445000  1.0
  C  C67  1  0.61603000  0.28292000  0.25445000  1.0
  C  C68  1  0.11603000  0.78292000  0.24555000  1.0
  C  C69  1  0.38396000  0.71708000  0.74555000  1.0
  C  C70  1  0.00105000  0.31718000  0.92471000  1.0
  C  C71  1  0.49896000  0.18282000  0.42472000  1.0
  C  C72  1  0.99895000  0.68283000  0.07529000  1.0
  C  C73  1  0.50104000  0.81718000  0.57528000  1.0
  C  C74  1  0.00611000  0.86913000  0.80022000  1.0
  C  C75  1  0.49389000  0.63087000  0.30022000  1.0
  C  C76  1  0.99389000  0.13087000  0.19978000  1.0
  C  C77  1  0.50611000  0.36913000  0.69978000  1.0
  C  C78  1  0.93566000  0.38625000  0.77539000  1.0
  C  C79  1  0.56433000  0.11375000  0.27539000  1.0
  C  C80  1  0.06433000  0.61375000  0.22461000  1.0
  C  C81  1  0.43567000  0.88624000  0.72461000  1.0
  C  C82  1  0.37192000  0.15981000  0.96177000  1.0
  C  C83  1  0.12808000  0.34019000  0.46177000  1.0
  C  C84  1  0.62808000  0.84019000  0.03823000  1.0
  C  C85  1  0.87192000  0.65981000  0.53823000  1.0
  C  C86  1  0.53365000  0.44681000  0.03059000  1.0
  C  C87  1  0.96635000  0.05319000  0.53059000  1.0
  C  C88  1  0.46635000  0.55319000  0.96941000  1.0
  C  C89  1  0.03365000  0.94681000  0.46941000  1.0
  C  C90  1  0.54258000  0.29171000  0.98319000  1.0
  C  C91  1  0.95742000  0.20829000  0.48319000  1.0
  C  C92  1  0.45742000  0.70829000  0.01681000  1.0
  C  C93  1  0.04258000  0.79171000  0.51681000  1.0
  N  N94  1  0.95214000  0.15340000  0.90427000  1.0
  N  N95  1  0.54786000  0.34660000  0.40427000  1.0
  N  N96  1  0.04786000  0.84660000  0.09573000  1.0
  N  N97  1  0.45214000  0.65340000  0.59573000  1.0
  O  O98  1  0.24472000  0.16656000  0.00541000  1.0
  O  O99  1  0.25529000  0.33344000  0.50541000  1.0
  O  O100  1  0.75528000  0.83344000  0.99459000  1.0
  O  O101  1  0.74471000  0.66656000  0.49459000  1.0
  O  O102  1  0.06243000  0.86313000  0.89156000  1.0
  O  O103  1  0.43757000  0.63687000  0.39156000  1.0
  O  O104  1  0.93757000  0.13687000  0.10844000  1.0
  O  O105  1  0.56243000  0.36313000  0.60844000  1.0
  O  O106  1  0.36660000  0.04818000  0.90317000  1.0
  O  O107  1  0.13340000  0.45182000  0.40317000  1.0
  O  O108  1  0.63340000  0.95182000  0.09683000  1.0
  O  O109  1  0.86660000  0.54818000  0.59683000  1.0
