# generated using pymatgen
data_AlH12C27(ClO2)3
_symmetry_space_group_name_H-M   'P 1'
_cell_length_a   3.99348000
_cell_length_b   15.99900000
_cell_length_c   16.07350000
_cell_angle_alpha   60.22700000
_cell_angle_beta   88.20460000
_cell_angle_gamma   87.94780000
_symmetry_Int_Tables_number   1
_chemical_formula_structural   AlH12C27(ClO2)3
_chemical_formula_sum   'Al1 H12 C27 Cl3 O6'
_cell_volume   890.72304501
_cell_formula_units_Z   1
loop_
 _symmetry_equiv_pos_site_id
 _symmetry_equiv_pos_as_xyz
  1  'x, y, z'
loop_
 _atom_site_type_symbol
 _atom_site_label
 _atom_site_symmetry_multiplicity
 _atom_site_fract_x
 _atom_site_fract_y
 _atom_site_fract_z
 _atom_site_occupancy
  Al  Al0  1  0.00678000  0.50139000  0.49831000  1.0
  H  H1  1  0.49293000  0.92527000  0.92056000  1.0
  H  H2  1  0.52948000  0.65505000  0.92355000  1.0
  H  H3  1  0.46963000  0.92071000  0.65584000  1.0
  H  H4  1  0.25821000  0.24061000  0.74458000  1.0
  H  H5  1  0.23638000  0.06296000  0.83660000  1.0
  H  H6  1  0.75745000  0.04944000  0.60379000  1.0
  H  H7  1  0.74165000  0.84500000  0.05273000  1.0
  H  H8  1  0.26859000  0.51824000  0.23484000  1.0
  H  H9  1  0.25486000  0.60545000  0.05790000  1.0
  H  H10  1  0.23527000  0.60553000  0.84579000  1.0
  H  H11  1  0.75257000  0.73701000  0.52260000  1.0
  H  H12  1  0.76019000  0.83271000  0.60528000  1.0
  C  C13  1  0.51178000  0.57800000  0.35107000  1.0
  C  C14  1  0.49074000  0.56906000  0.57815000  1.0
  C  C15  1  0.51758000  0.35320000  0.56803000  1.0
  C  C16  1  0.50033000  0.78395000  0.93480000  1.0
  C  C17  1  0.49476000  0.88495000  0.88233000  1.0
  C  C18  1  0.49333000  0.93540000  0.78186000  1.0
  C  C19  1  0.48912000  0.88255000  0.73366000  1.0
  C  C20  1  0.49695000  0.78161000  0.78378000  1.0
  C  C21  1  0.50689000  0.73344000  0.88418000  1.0
  C  C22  1  0.36896000  0.19781000  0.71460000  1.0
  C  C23  1  0.35951000  0.09776000  0.76634000  1.0
  C  C24  1  0.49643000  0.04194000  0.72773000  1.0
  C  C25  1  0.64037000  0.08989000  0.63540000  1.0
  C  C26  1  0.64409000  0.19008000  0.58317000  1.0
  C  C27  1  0.51156000  0.24533000  0.62240000  1.0
  C  C28  1  0.63063000  0.77419000  0.09092000  1.0
  C  C29  1  0.62787000  0.72565000  0.19071000  1.0
  C  C30  1  0.50615000  0.63219000  0.24364000  1.0
  C  C31  1  0.37468000  0.58972000  0.19413000  1.0
  C  C32  1  0.37017000  0.63882000  0.09444000  1.0
  C  C33  1  0.50182000  0.73163000  0.04092000  1.0
  C  C34  1  0.35148000  0.63576000  0.77488000  1.0
  C  C35  1  0.34632000  0.58249000  0.72779000  1.0
  C  C36  1  0.48759000  0.61924000  0.63512000  1.0
  C  C37  1  0.63583000  0.71004000  0.59323000  1.0
  C  C38  1  0.63694000  0.76356000  0.63957000  1.0
  C  C39  1  0.49443000  0.72696000  0.73194000  1.0
  Cl  Cl40  1  0.81710000  0.24597000  0.46869000  1.0
  Cl  Cl41  1  0.78050000  0.78233000  0.24900000  1.0
  Cl  Cl42  1  0.17427000  0.46957000  0.79052000  1.0
  O  O43  1  0.75048000  0.39247000  0.58776000  1.0
  O  O44  1  0.75505000  0.51874000  0.39018000  1.0
  O  O45  1  0.72692000  0.59006000  0.51579000  1.0
  O  O46  1  0.28715000  0.39739000  0.50784000  1.0
  O  O47  1  0.25877000  0.51062000  0.59240000  1.0
  O  O48  1  0.27106000  0.59423000  0.39502000  1.0
