# generated using pymatgen
data_CuH10C10(NCl)2
_symmetry_space_group_name_H-M   'P 1'
_cell_length_a   3.77995000
_cell_length_b   8.43872000
_cell_length_c   16.90650000
_cell_angle_alpha   89.99810000
_cell_angle_beta   93.75980000
_cell_angle_gamma   89.99840000
_symmetry_Int_Tables_number   1
_chemical_formula_structural   CuH10C10(NCl)2
_chemical_formula_sum   'Cu2 H20 C20 N4 Cl4'
_cell_volume   538.12183046
_cell_formula_units_Z   2
loop_
 _symmetry_equiv_pos_site_id
 _symmetry_equiv_pos_as_xyz
  1  'x, y, z'
loop_
 _atom_site_type_symbol
 _atom_site_label
 _atom_site_symmetry_multiplicity
 _atom_site_fract_x
 _atom_site_fract_y
 _atom_site_fract_z
 _atom_site_occupancy
  Cu  Cu0  1  0.00000000  0.00000000  0.00000000  1.0
  Cu  Cu1  1  0.50000000  0.50000000  0.50000000  1.0
  H  H2  1  0.84365000  0.02104000  0.16584000  1.0
  H  H3  1  0.65629000  0.52109000  0.33416000  1.0
  H  H4  1  0.15634000  0.97896000  0.83416000  1.0
  H  H5  1  0.34370000  0.47892000  0.66583000  1.0
  H  H6  1  0.07976000  0.50022000  0.24192000  1.0
  H  H7  1  0.42015000  0.00029000  0.25809000  1.0
  H  H8  1  0.92024000  0.49977000  0.75808000  1.0
  H  H9  1  0.57985000  0.99972000  0.74191000  1.0
  H  H10  1  0.86781000  0.22901000  0.27402000  1.0
  H  H11  1  0.63210000  0.72907000  0.22598000  1.0
  H  H12  1  0.13219000  0.77099000  0.72597000  1.0
  H  H13  1  0.36791000  0.27094000  0.77402000  1.0
  H  H14  1  0.24606000  0.55837000  0.10325000  1.0
  H  H15  1  0.25388000  0.05841000  0.39677000  1.0
  H  H16  1  0.75394000  0.44162000  0.89675000  1.0
  H  H17  1  0.74612000  0.94159000  0.60324000  1.0
  H  H18  1  0.20714000  0.33628000  0.00330000  1.0
  H  H19  1  0.29283000  0.83631000  0.49671000  1.0
  H  H20  1  0.79286000  0.66372000  0.99670000  1.0
  H  H21  1  0.70717000  0.16369000  0.50329000  1.0
  C  C22  1  0.15604000  0.44077000  0.11977000  1.0
  C  C23  1  0.34391000  0.94081000  0.38024000  1.0
  C  C24  1  0.84396000  0.55923000  0.88023000  1.0
  C  C25  1  0.65609000  0.05919000  0.61976000  1.0
  C  C26  1  0.13297000  0.31950000  0.06385000  1.0
  C  C27  1  0.36700000  0.81954000  0.43616000  1.0
  C  C28  1  0.86704000  0.68049000  0.93615000  1.0
  C  C29  1  0.63301000  0.18046000  0.56384000  1.0
  C  C30  1  0.93038000  0.14188000  0.15566000  1.0
  C  C31  1  0.56958000  0.64194000  0.34435000  1.0
  C  C32  1  0.06962000  0.85811000  0.84434000  1.0
  C  C33  1  0.43042000  0.35807000  0.65565000  1.0
  C  C34  1  0.94363000  0.25725000  0.21453000  1.0
  C  C35  1  0.55632000  0.75730000  0.28548000  1.0
  C  C36  1  0.05638000  0.74275000  0.78547000  1.0
  C  C37  1  0.44369000  0.24271000  0.71452000  1.0
  C  C38  1  0.06051000  0.40876000  0.19638000  1.0
  C  C39  1  0.43942000  0.90882000  0.30363000  1.0
  C  C40  1  0.93950000  0.59123000  0.80362000  1.0
  C  C41  1  0.56058000  0.09119000  0.69637000  1.0
  N  N42  1  0.02358000  0.17280000  0.08172000  1.0
  N  N43  1  0.47640000  0.67283000  0.41829000  1.0
  N  N44  1  0.97642000  0.82720000  0.91828000  1.0
  N  N45  1  0.52360000  0.32717000  0.58171000  1.0
  Cl  Cl46  1  0.61306000  0.15069000  0.91966000  1.0
  Cl  Cl47  1  0.88693000  0.65065000  0.58035000  1.0
  Cl  Cl48  1  0.38693000  0.84930000  0.08034000  1.0
  Cl  Cl49  1  0.11307000  0.34935000  0.41965000  1.0
