# generated using pymatgen
data_ZnP2H12C9O4
_symmetry_space_group_name_H-M   'P 1'
_cell_length_a   5.37696000
_cell_length_b   8.57387000
_cell_length_c   13.12003577
_cell_angle_alpha   89.84165603
_cell_angle_beta   101.78130825
_cell_angle_gamma   89.69050000
_symmetry_Int_Tables_number   1
_chemical_formula_structural   ZnP2H12C9O4
_chemical_formula_sum   'Zn2 P4 H24 C18 O8'
_cell_volume   592.09641284
_cell_formula_units_Z   2
loop_
 _symmetry_equiv_pos_site_id
 _symmetry_equiv_pos_as_xyz
  1  'x, y, z'
loop_
 _atom_site_type_symbol
 _atom_site_label
 _atom_site_symmetry_multiplicity
 _atom_site_fract_x
 _atom_site_fract_y
 _atom_site_fract_z
 _atom_site_occupancy
  Zn  Zn0  1  0.27604000  0.63859000  0.03385000  1.0
  Zn  Zn1  1  0.73982000  0.14138000  0.96864000  1.0
  P  P2  1  0.79228000  0.46706000  0.06386000  1.0
  P  P3  1  0.22330000  0.96860000  0.93781000  1.0
  P  P4  1  0.06249000  0.69012000  0.23461000  1.0
  P  P5  1  0.93707000  0.18972000  0.76547000  1.0
  H  H6  1  0.69453000  0.53156000  0.23186000  1.0
  H  H7  1  0.98159000  0.41884000  0.24440000  1.0
  H  H8  1  0.31820000  0.04396000  0.77040000  1.0
  H  H9  1  0.04458000  0.92117000  0.75490000  1.0
  H  H10  1  0.81104000  0.85117000  0.10856000  1.0
  H  H11  1  0.69623000  0.85313000  0.22441000  1.0
  H  H12  1  0.17853000  0.35168000  0.89028000  1.0
  H  H13  1  0.29003000  0.36188000  0.77226000  1.0
  H  H14  1  0.90292000  0.11267000  0.19197000  1.0
  H  H15  1  0.19342000  0.01536000  0.19396000  1.0
  H  H16  1  0.06685000  0.02524000  0.30980000  1.0
  H  H17  1  0.05415000  0.61350000  0.81324000  1.0
  H  H18  1  0.77803000  0.50238000  0.80697000  1.0
  H  H19  1  0.90557000  0.52852000  0.69266000  1.0
  H  H20  1  0.48701000  0.54848000  0.37396000  1.0
  H  H21  1  0.61701000  0.53549000  0.56569000  1.0
  H  H22  1  0.36373000  0.67487000  0.67747000  1.0
  H  H23  1  0.97063000  0.82101000  0.59392000  1.0
  H  H24  1  0.83590000  0.82996000  0.40312000  1.0
  H  H25  1  0.15757000  0.33289000  0.59720000  1.0
  H  H26  1  0.01858000  0.33183000  0.40670000  1.0
  H  H27  1  0.62623000  0.18893000  0.32260000  1.0
  H  H28  1  0.37902000  0.04374000  0.43357000  1.0
  H  H29  1  0.51346000  0.04845000  0.62548000  1.0
  C  C30  1  0.87159000  0.51669000  0.20308000  1.0
  C  C31  1  0.14125000  0.02099000  0.79762000  1.0
  C  C32  1  0.87188000  0.86094000  0.19380000  1.0
  C  C33  1  0.11743000  0.36327000  0.80516000  1.0
  C  C34  1  0.01881000  0.01176000  0.22489000  1.0
  C  C35  1  0.95420000  0.51006000  0.77721000  1.0
  C  C36  1  0.15358000  0.69029000  0.37527000  1.0
  C  C37  1  0.84368000  0.19144000  0.62475000  1.0
  C  C38  1  0.37320000  0.60749000  0.42231000  1.0
  C  C39  1  0.98571000  0.27005000  0.56220000  1.0
  C  C40  1  0.44712000  0.60115000  0.53047000  1.0
  C  C41  1  0.90692000  0.26918000  0.45403000  1.0
  C  C42  1  0.30438000  0.67880000  0.59281000  1.0
  C  C43  1  0.68779000  0.18888000  0.40720000  1.0
  C  C44  1  0.08477000  0.76080000  0.54627000  1.0
  C  C45  1  0.54861000  0.10797000  0.46920000  1.0
  C  C46  1  0.00839000  0.76613000  0.43801000  1.0
  C  C47  1  0.62502000  0.10977000  0.57740000  1.0
  O  O48  1  0.04164000  0.46410000  0.02474000  1.0
  O  O49  1  0.10052000  0.09139000  0.99688000  1.0
  O  O50  1  0.11470000  0.80455000  0.94364000  1.0
  O  O51  1  0.67059000  0.30507000  0.06015000  1.0
  O  O52  1  0.60984000  0.59441000  0.01020000  1.0
  O  O53  1  0.51342000  0.96862000  0.97051000  1.0
  O  O54  1  0.30422000  0.68482000  0.18987000  1.0
  O  O55  1  0.69596000  0.18173000  0.81052000  1.0
