# generated using pymatgen
data_MnH20C26S2N8(OF)6
_symmetry_space_group_name_H-M   'P 1'
_cell_length_a   9.48394000
_cell_length_b   9.86867000
_cell_length_c   12.20170000
_cell_angle_alpha   104.69100000
_cell_angle_beta   109.88500000
_cell_angle_gamma   91.79980000
_symmetry_Int_Tables_number   1
_chemical_formula_structural   MnH20C26S2N8(OF)6
_chemical_formula_sum   'Mn1 H20 C26 S2 N8 O6 F6'
_cell_volume   1030.07812976
_cell_formula_units_Z   1
loop_
 _symmetry_equiv_pos_site_id
 _symmetry_equiv_pos_as_xyz
  1  'x, y, z'
loop_
 _atom_site_type_symbol
 _atom_site_label
 _atom_site_symmetry_multiplicity
 _atom_site_fract_x
 _atom_site_fract_y
 _atom_site_fract_z
 _atom_site_occupancy
  Mn  Mn0  1  0.50001000  0.00000000  0.50000000  1.0
  H  H1  1  0.64358000  0.27559000  0.45417000  1.0
  H  H2  1  0.35642000  0.72439000  0.54582000  1.0
  H  H3  1  0.85603000  0.96631000  0.61160000  1.0
  H  H4  1  0.14398000  0.03369000  0.38841000  1.0
  H  H5  1  0.07699000  0.16450000  0.62013000  1.0
  H  H6  1  0.92301000  0.83550000  0.37986000  1.0
  H  H7  1  0.79627000  0.51328000  0.58638000  1.0
  H  H8  1  0.20371000  0.48671000  0.41360000  1.0
  H  H9  1  0.10195000  0.27298000  0.44849000  1.0
  H  H10  1  0.89803000  0.72701000  0.55149000  1.0
  H  H11  1  0.50895000  0.14272000  0.77696000  1.0
  H  H12  1  0.49110000  0.85730000  0.22306000  1.0
  H  H13  1  0.40721000  0.30488000  0.47345000  1.0
  H  H14  1  0.59279000  0.69511000  0.52655000  1.0
  H  H15  1  0.41550000  0.51883000  0.67260000  1.0
  H  H16  1  0.58450000  0.48117000  0.32740000  1.0
  H  H17  1  0.54227000  0.63040000  0.86191000  1.0
  H  H18  1  0.45773000  0.36961000  0.13810000  1.0
  H  H19  1  0.42742000  0.23918000  0.92954000  1.0
  H  H20  1  0.57257000  0.76083000  0.07047000  1.0
  C  C21  1  0.72830000  0.21823000  0.50082000  1.0
  C  C22  1  0.27169000  0.78176000  0.49917000  1.0
  C  C23  1  0.84436000  0.05899000  0.57887000  1.0
  C  C24  1  0.15565000  0.94101000  0.42113000  1.0
  C  C25  1  0.95479000  0.15645000  0.58444000  1.0
  C  C26  1  0.04521000  0.84355000  0.41556000  1.0
  C  C27  1  0.94275000  0.38019000  0.51901000  1.0
  C  C28  1  0.05723000  0.61980000  0.48097000  1.0
  C  C29  1  0.88405000  0.50743000  0.54700000  1.0
  C  C30  1  0.11594000  0.49256000  0.45298000  1.0
  C  C31  1  0.05877000  0.37279000  0.47225000  1.0
  C  C32  1  0.94122000  0.62720000  0.52773000  1.0
  C  C33  1  0.48011000  0.21302000  0.71951000  1.0
  C  C34  1  0.51992000  0.78699000  0.28050000  1.0
  C  C35  1  0.42923000  0.30226000  0.56589000  1.0
  C  C36  1  0.57078000  0.69774000  0.43411000  1.0
  C  C37  1  0.43228000  0.40932000  0.66354000  1.0
  C  C38  1  0.56773000  0.59068000  0.33646000  1.0
  C  C39  1  0.48213000  0.42640000  0.88153000  1.0
  C  C40  1  0.51789000  0.57361000  0.11848000  1.0
  C  C41  1  0.52216000  0.57313000  0.92177000  1.0
  C  C42  1  0.47785000  0.42687000  0.07824000  1.0
  C  C43  1  0.46010000  0.35320000  0.95997000  1.0
  C  C44  1  0.53991000  0.64681000  0.04005000  1.0
  C  C45  1  0.81134000  0.87744000  0.84120000  1.0
  C  C46  1  0.18865000  0.12257000  0.15881000  1.0
  S  S47  1  0.60657000  0.87607000  0.75474000  1.0
  S  S48  1  0.39341000  0.12394000  0.24526000  1.0
  N  N49  1  0.70308000  0.09786000  0.52585000  1.0
  N  N50  1  0.29692000  0.90214000  0.47415000  1.0
  N  N51  1  0.87983000  0.25745000  0.53493000  1.0
  N  N52  1  0.12017000  0.74254000  0.46506000  1.0
  N  N53  1  0.45980000  0.17988000  0.60155000  1.0
  N  N54  1  0.54022000  0.82013000  0.39846000  1.0
  N  N55  1  0.46448000  0.35231000  0.76059000  1.0
  N  N56  1  0.53555000  0.64770000  0.23942000  1.0
  O  O57  1  0.61545000  0.93878000  0.65864000  1.0
  O  O58  1  0.38455000  0.06121000  0.34135000  1.0
  O  O59  1  0.54921000  0.96181000  0.84137000  1.0
  O  O60  1  0.45076000  0.03819000  0.15861000  1.0
  O  O61  1  0.54915000  0.72580000  0.70900000  1.0
  O  O62  1  0.45084000  0.27419000  0.29099000  1.0
  F  F63  1  0.88614000  0.00964000  0.88213000  1.0
  F  F64  1  0.11384000  0.99037000  0.11788000  1.0
  F  F65  1  0.87651000  0.79456000  0.76910000  1.0
  F  F66  1  0.12349000  0.20546000  0.23091000  1.0
  F  F67  1  0.82732000  0.82565000  0.93681000  1.0
  F  F68  1  0.17266000  0.17436000  0.06319000  1.0
