# generated using pymatgen
data_Zn2H13C17(NO3)3
_symmetry_space_group_name_H-M   'P 1'
_cell_length_a   12.17520000
_cell_length_b   14.03240000
_cell_length_c   14.67010000
_cell_angle_alpha   74.15300000
_cell_angle_beta   89.99980000
_cell_angle_gamma   89.99980000
_symmetry_Int_Tables_number   1
_chemical_formula_structural   Zn2H13C17(NO3)3
_chemical_formula_sum   'Zn8 H52 C68 N12 O36'
_cell_volume   2411.09121522
_cell_formula_units_Z   4
loop_
 _symmetry_equiv_pos_site_id
 _symmetry_equiv_pos_as_xyz
  1  'x, y, z'
loop_
 _atom_site_type_symbol
 _atom_site_label
 _atom_site_symmetry_multiplicity
 _atom_site_fract_x
 _atom_site_fract_y
 _atom_site_fract_z
 _atom_site_occupancy
  Zn  Zn0  1  0.24000000  0.80378000  0.07178000  1.0
  Zn  Zn1  1  0.02062000  0.64767000  0.15834000  1.0
  Zn  Zn2  1  0.74001000  0.69622000  0.42822000  1.0
  Zn  Zn3  1  0.52062000  0.85233000  0.34166000  1.0
  Zn  Zn4  1  0.75999000  0.19622000  0.92822000  1.0
  Zn  Zn5  1  0.97938000  0.35233000  0.84166000  1.0
  Zn  Zn6  1  0.25999000  0.30378000  0.57178000  1.0
  Zn  Zn7  1  0.47938000  0.14767000  0.65834000  1.0
  H  H8  1  0.01222000  0.52443000  0.93391000  1.0
  H  H9  1  0.33769000  0.63622000  0.85411000  1.0
  H  H10  1  0.34359000  0.52446000  0.74439000  1.0
  H  H11  1  0.17612000  0.47629000  0.40204000  1.0
  H  H12  1  0.46584000  0.60803000  0.25080000  1.0
  H  H13  1  0.57872000  0.48763000  0.37608000  1.0
  H  H14  1  0.47210000  0.74709000  0.13710000  1.0
  H  H15  1  0.62424000  0.84809000  0.89175000  1.0
  H  H16  1  0.69115000  0.92354000  0.95468000  1.0
  H  H17  1  0.54781000  0.94129000  0.92658000  1.0
  H  H18  1  0.64399000  0.71748000  0.16195000  1.0
  H  H19  1  0.74437000  0.80245000  0.09707000  1.0
  H  H20  1  0.70316000  0.70185000  0.05465000  1.0
  H  H21  1  0.51222000  0.97557000  0.56609000  1.0
  H  H22  1  0.83769000  0.86378000  0.64588000  1.0
  H  H23  1  0.84359000  0.97554000  0.75561000  1.0
  H  H24  1  0.67612000  0.02371000  0.09795000  1.0
  H  H25  1  0.96584000  0.89197000  0.24920000  1.0
  H  H26  1  0.07872000  0.01237000  0.12392000  1.0
  H  H27  1  0.97210000  0.75291000  0.36290000  1.0
  H  H28  1  0.12425000  0.65191000  0.60825000  1.0
  H  H29  1  0.19116000  0.57646000  0.54532000  1.0
  H  H30  1  0.04781000  0.55871000  0.57342000  1.0
  H  H31  1  0.14399000  0.78252000  0.33805000  1.0
  H  H32  1  0.24437000  0.69755000  0.40293000  1.0
  H  H33  1  0.20316000  0.79815000  0.44534000  1.0
  H  H34  1  0.98778000  0.47556000  0.06609000  1.0
  H  H35  1  0.66231000  0.36378000  0.14589000  1.0
  H  H36  1  0.65641000  0.47554000  0.25561000  1.0
  H  H37  1  0.82388000  0.52371000  0.59795000  1.0
  H  H38  1  0.53416000  0.39197000  0.74920000  1.0
  H  H39  1  0.42128000  0.51237000  0.62392000  1.0
  H  H40  1  0.52790000  0.25291000  0.86290000  1.0
  H  H41  1  0.37575000  0.15191000  0.10825000  1.0
  H  H42  1  0.30885000  0.07646000  0.04532000  1.0
  H  H43  1  0.45219000  0.05871000  0.07342000  1.0
  H  H44  1  0.35601000  0.28252000  0.83805000  1.0
  H  H45  1  0.25563000  0.19755000  0.90293000  1.0
  H  H46  1  0.29684000  0.29815000  0.94535000  1.0
  H  H47  1  0.48779000  0.02443000  0.43391000  1.0
  H  H48  1  0.16232000  0.13622000  0.35412000  1.0
  H  H49  1  0.15641000  0.02446000  0.24439000  1.0
  H  H50  1  0.32388000  0.97629000  0.90205000  1.0
  H  H51  1  0.03416000  0.10803000  0.75080000  1.0
  H  H52  1  0.92128000  0.98763000  0.87608000  1.0
  H  H53  1  0.02790000  0.24709000  0.63710000  1.0
  H  H54  1  0.87575000  0.34809000  0.39175000  1.0
  H  H55  1  0.80885000  0.42354000  0.45468000  1.0
  H  H56  1  0.95219000  0.44129000  0.42658000  1.0
  H  H57  1  0.85601000  0.21748000  0.66195000  1.0
  H  H58  1  0.75563000  0.30245000  0.59707000  1.0
  H  H59  1  0.79683000  0.20185000  0.55465000  1.0
  C  C60  1  0.08859000  0.52567000  0.89553000  1.0
  C  C61  1  0.17614000  0.58657000  0.90529000  1.0
  C  C62  1  0.26915000  0.58777000  0.84918000  1.0
  C  C63  1  0.27268000  0.52598000  0.78897000  1.0
  C  C64  1  0.18423000  0.46314000  0.78773000  1.0
  C  C65  1  0.16803000  0.64323000  0.97920000  1.0
  C  C66  1  0.18099000  0.38777000  0.73076000  1.0
  C  C67  1  0.26485000  0.48105000  0.39306000  1.0
  C  C68  1  0.31247000  0.54889000  0.31509000  1.0
  C  C69  1  0.42703000  0.55297000  0.30874000  1.0
  C  C70  1  0.48929000  0.48665000  0.37704000  1.0
  C  C71  1  0.43518000  0.41882000  0.45056000  1.0
  C  C72  1  0.24025000  0.61484000  0.24123000  1.0
  C  C73  1  0.49759000  0.33919000  0.52180000  1.0
  C  C74  1  0.48257000  0.80194000  0.06812000  1.0
  C  C75  1  0.61365000  0.88653000  0.94735000  1.0
  C  C76  1  0.67393000  0.75601000  0.09105000  1.0
  C  C77  1  0.58859000  0.97433000  0.60447000  1.0
  C  C78  1  0.67613000  0.91343000  0.59471000  1.0
  C  C79  1  0.76915000  0.91222000  0.65082000  1.0
  C  C80  1  0.77268000  0.97402000  0.71103000  1.0
  C  C81  1  0.68423000  0.03686000  0.71227000  1.0
  C  C82  1  0.66803000  0.85677000  0.52080000  1.0
  C  C83  1  0.68099000  0.11223000  0.76923000  1.0
  C  C84  1  0.76485000  0.01895000  0.10694000  1.0
  C  C85  1  0.81247000  0.95110000  0.18491000  1.0
  C  C86  1  0.92703000  0.94703000  0.19126000  1.0
  C  C87  1  0.98929000  0.01335000  0.12296000  1.0
  C  C88  1  0.93518000  0.08118000  0.04944000  1.0
  C  C89  1  0.74025000  0.88516000  0.25877000  1.0
  C  C90  1  0.99760000  0.16081000  0.97820000  1.0
  C  C91  1  0.98257000  0.69806000  0.43188000  1.0
  C  C92  1  0.11365000  0.61347000  0.55265000  1.0
  C  C93  1  0.17393000  0.74399000  0.40895000  1.0
  C  C94  1  0.91141000  0.47433000  0.10448000  1.0
  C  C95  1  0.82387000  0.41343000  0.09471000  1.0
  C  C96  1  0.73085000  0.41222000  0.15083000  1.0
  C  C97  1  0.72732000  0.47402000  0.21103000  1.0
  C  C98  1  0.81577000  0.53686000  0.21227000  1.0
  C  C99  1  0.83197000  0.35678000  0.02080000  1.0
  C  C100  1  0.81901000  0.61223000  0.26924000  1.0
  C  C101  1  0.73515000  0.51895000  0.60694000  1.0
  C  C102  1  0.68753000  0.45111000  0.68491000  1.0
  C  C103  1  0.57297000  0.44703000  0.69127000  1.0
  C  C104  1  0.51071000  0.51335000  0.62296000  1.0
  C  C105  1  0.56482000  0.58118000  0.54944000  1.0
  C  C106  1  0.75975000  0.38516000  0.75877000  1.0
  C  C107  1  0.50240000  0.66081000  0.47820000  1.0
  C  C108  1  0.51743000  0.19806000  0.93188000  1.0
  C  C109  1  0.38635000  0.11347000  0.05265000  1.0
  C  C110  1  0.32607000  0.24399000  0.90895000  1.0
  C  C111  1  0.41141000  0.02567000  0.39552000  1.0
  C  C112  1  0.32387000  0.08657000  0.40530000  1.0
  C  C113  1  0.23086000  0.08778000  0.34917000  1.0
  C  C114  1  0.22733000  0.02598000  0.28898000  1.0
  C  C115  1  0.31577000  0.96314000  0.28773000  1.0
  C  C116  1  0.33197000  0.14323000  0.47920000  1.0
  C  C117  1  0.31901000  0.88777000  0.23077000  1.0
  C  C118  1  0.23515000  0.98106000  0.89306000  1.0
  C  C119  1  0.18753000  0.04890000  0.81509000  1.0
  C  C120  1  0.07297000  0.05297000  0.80874000  1.0
  C  C121  1  0.01071000  0.98665000  0.87704000  1.0
  C  C122  1  0.06482000  0.91882000  0.95056000  1.0
  C  C123  1  0.25975000  0.11484000  0.74123000  1.0
  C  C124  1  0.00241000  0.83919000  0.02180000  1.0
  C  C125  1  0.01743000  0.30194000  0.56812000  1.0
  C  C126  1  0.88635000  0.38653000  0.44735000  1.0
  C  C127  1  0.82607000  0.25601000  0.59105000  1.0
  N  N128  1  0.09360000  0.46425000  0.84024000  1.0
  N  N129  1  0.32507000  0.41843000  0.45936000  1.0
  N  N130  1  0.58594000  0.81632000  0.03750000  1.0
  N  N131  1  0.59360000  0.03575000  0.65976000  1.0
  N  N132  1  0.82507000  0.08157000  0.04064000  1.0
  N  N133  1  0.08594000  0.68368000  0.46249000  1.0
  N  N134  1  0.90640000  0.53575000  0.15976000  1.0
  N  N135  1  0.67493000  0.58157000  0.54064000  1.0
  N  N136  1  0.41406000  0.18368000  0.96250000  1.0
  N  N137  1  0.40641000  0.96425000  0.34024000  1.0
  N  N138  1  0.17493000  0.91843000  0.95936000  1.0
  N  N139  1  0.91406000  0.31632000  0.53750000  1.0
  O  O140  1  0.23290000  0.71511000  0.97190000  1.0
  O  O141  1  0.09574000  0.60986000  0.04278000  1.0
  O  O142  1  0.25821000  0.39070000  0.67189000  1.0
  O  O143  1  0.10094000  0.32764000  0.74752000  1.0
  O  O144  1  0.28712000  0.67490000  0.17226000  1.0
  O  O145  1  0.13687000  0.60300000  0.25574000  1.0
  O  O146  1  0.59550000  0.32408000  0.50770000  1.0
  O  O147  1  0.43869000  0.28929000  0.59354000  1.0
  O  O148  1  0.40101000  0.84720000  0.02396000  1.0
  O  O149  1  0.73290000  0.78489000  0.52810000  1.0
  O  O150  1  0.59574000  0.89014000  0.45721000  1.0
  O  O151  1  0.75821000  0.10930000  0.82811000  1.0
  O  O152  1  0.60095000  0.17237000  0.75248000  1.0
  O  O153  1  0.78711000  0.82510000  0.32774000  1.0
  O  O154  1  0.63687000  0.89699000  0.24426000  1.0
  O  O155  1  0.09550000  0.17592000  0.99230000  1.0
  O  O156  1  0.93869000  0.21071000  0.90646000  1.0
  O  O157  1  0.90101000  0.65279000  0.47604000  1.0
  O  O158  1  0.76709000  0.28489000  0.02810000  1.0
  O  O159  1  0.90426000  0.39014000  0.95722000  1.0
  O  O160  1  0.74179000  0.60930000  0.32811000  1.0
  O  O161  1  0.89905000  0.67236000  0.25248000  1.0
  O  O162  1  0.71288000  0.32510000  0.82774000  1.0
  O  O163  1  0.86312000  0.39700000  0.74426000  1.0
  O  O164  1  0.40450000  0.67592000  0.49229000  1.0
  O  O165  1  0.56131000  0.71071000  0.40646000  1.0
  O  O166  1  0.59899000  0.15279000  0.97604000  1.0
  O  O167  1  0.26710000  0.21511000  0.47190000  1.0
  O  O168  1  0.40426000  0.10986000  0.54279000  1.0
  O  O169  1  0.24179000  0.89070000  0.17189000  1.0
  O  O170  1  0.39905000  0.82763000  0.24752000  1.0
  O  O171  1  0.21288000  0.17490000  0.67226000  1.0
  O  O172  1  0.36312000  0.10301000  0.75574000  1.0
  O  O173  1  0.90449000  0.82408000  0.00770000  1.0
  O  O174  1  0.06130000  0.78929000  0.09354000  1.0
  O  O175  1  0.09899000  0.34720000  0.52396000  1.0
