# generated using pymatgen
data_TbH10C16NO8
_symmetry_space_group_name_H-M   'P 1'
_cell_length_a   14.55060000
_cell_length_b   23.38120000
_cell_length_c   26.19384391
_cell_angle_alpha   85.03789376
_cell_angle_beta   73.86411065
_cell_angle_gamma   71.86540000
_symmetry_Int_Tables_number   1
_chemical_formula_structural   TbH10C16NO8
_chemical_formula_sum   'Tb8 H80 C128 N8 O64'
_cell_volume   8135.14680603
_cell_formula_units_Z   8
loop_
 _symmetry_equiv_pos_site_id
 _symmetry_equiv_pos_as_xyz
  1  'x, y, z'
loop_
 _atom_site_type_symbol
 _atom_site_label
 _atom_site_symmetry_multiplicity
 _atom_site_fract_x
 _atom_site_fract_y
 _atom_site_fract_z
 _atom_site_occupancy
  Tb  Tb0  1  0.08068000  0.74998000  0.83869000  1.0
  Tb  Tb1  1  0.66949000  0.74996000  0.66129000  1.0
  Tb  Tb2  1  0.91932000  0.25002000  0.16131000  1.0
  Tb  Tb3  1  0.33052000  0.25003000  0.33871000  1.0
  Tb  Tb4  1  0.41909000  0.66195000  0.75001000  1.0
  Tb  Tb5  1  0.83103000  0.83808000  0.74997000  1.0
  Tb  Tb6  1  0.58092000  0.33805000  0.24999000  1.0
  Tb  Tb7  1  0.16898000  0.16192000  0.25003000  1.0
  H  H8  1  0.45937000  0.78194000  0.77416000  1.0
  H  H9  1  0.76641000  0.71815000  0.77415000  1.0
  H  H10  1  0.25892000  0.78182000  0.72573000  1.0
  H  H11  1  0.01553000  0.71815000  0.72574000  1.0
  H  H12  1  0.54063000  0.21806000  0.22584000  1.0
  H  H13  1  0.23358000  0.28185000  0.22586000  1.0
  H  H14  1  0.74108000  0.21818000  0.27427000  1.0
  H  H15  1  0.98447000  0.28185000  0.27426000  1.0
  H  H16  1  0.51255000  0.90774000  0.86477000  1.0
  H  H17  1  0.62278000  0.59224000  0.86470000  1.0
  H  H18  1  0.07983000  0.90782000  0.63529000  1.0
  H  H19  1  0.28513000  0.59222000  0.63519000  1.0
  H  H20  1  0.48746000  0.09226000  0.13523000  1.0
  H  H21  1  0.37722000  0.40776000  0.13530000  1.0
  H  H22  1  0.92017000  0.09218000  0.36471000  1.0
  H  H23  1  0.71487000  0.40778000  0.36481000  1.0
  H  H24  1  0.22783000  0.86954000  0.90924000  1.0
  H  H25  1  0.86291000  0.63055000  0.90919000  1.0
  H  H26  1  0.40279000  0.86956000  0.59074000  1.0
  H  H27  1  0.00667000  0.63050000  0.59073000  1.0
  H  H28  1  0.77218000  0.13046000  0.09076000  1.0
  H  H29  1  0.13709000  0.36945000  0.09081000  1.0
  H  H30  1  0.59720000  0.13044000  0.40926000  1.0
  H  H31  1  0.99334000  0.36950000  0.40927000  1.0
  H  H32  1  0.42950000  0.99225000  0.03630000  1.0
  H  H33  1  0.53422000  0.50775000  0.03629000  1.0
  H  H34  1  0.07822000  0.99228000  0.46366000  1.0
  H  H35  1  0.45826000  0.50759000  0.46363000  1.0
  H  H36  1  0.57050000  0.00775000  0.96370000  1.0
  H  H37  1  0.46578000  0.49225000  0.96371000  1.0
  H  H38  1  0.92179000  0.00772000  0.53634000  1.0
  H  H39  1  0.54174000  0.49241000  0.53637000  1.0
  H  H40  1  0.32749000  0.05905000  0.11342000  1.0
  H  H41  1  0.55895000  0.44094000  0.11340000  1.0
  H  H42  1  0.11346000  0.05906000  0.38654000  1.0
  H  H43  1  0.50007000  0.44087000  0.38648000  1.0
  H  H44  1  0.67251000  0.94095000  0.88658000  1.0
  H  H45  1  0.44105000  0.55906000  0.88660000  1.0
  H  H46  1  0.88654000  0.94094000  0.61346000  1.0
  H  H47  1  0.49993000  0.55913000  0.61352000  1.0
  H  H48  1  0.07017000  0.10137000  0.05104000  1.0
  H  H49  1  0.87870000  0.39860000  0.05112000  1.0
  H  H50  1  0.32839000  0.10139000  0.44895000  1.0
  H  H51  1  0.22253000  0.39870000  0.44886000  1.0
  H  H52  1  0.92983000  0.89863000  0.94896000  1.0
  H  H53  1  0.12130000  0.60140000  0.94888000  1.0
  H  H54  1  0.67160000  0.89861000  0.55105000  1.0
  H  H55  1  0.77746000  0.60130000  0.55114000  1.0
  H  H56  1  0.17019000  0.03262000  0.97448000  1.0
  H  H57  1  0.85541000  0.46739000  0.97458000  1.0
  H  H58  1  0.29711000  0.03266000  0.52550000  1.0
  H  H59  1  0.17731000  0.46740000  0.52543000  1.0
  H  H60  1  0.82982000  0.96738000  0.02551000  1.0
  H  H61  1  0.14459000  0.53261000  0.02542000  1.0
  H  H62  1  0.70289000  0.96734000  0.47450000  1.0
  H  H63  1  0.82269000  0.53260000  0.47457000  1.0
  H  H64  1  0.25342000  0.93881000  0.95464000  1.0
  H  H65  1  0.79206000  0.56122000  0.95458000  1.0
  H  H66  1  0.30778000  0.93887000  0.54534000  1.0
  H  H67  1  0.14692000  0.56114000  0.54536000  1.0
  H  H68  1  0.74658000  0.06119000  0.04536000  1.0
  H  H69  1  0.20794000  0.43878000  0.04542000  1.0
  H  H70  1  0.69222000  0.06113000  0.45466000  1.0
  H  H71  1  0.85307000  0.43886000  0.45465000  1.0
  H  H72  1  0.06767000  0.72098000  0.95884000  1.0
  H  H73  1  0.97365000  0.77916000  0.95885000  1.0
  H  H74  1  0.71121000  0.72105000  0.54112000  1.0
  H  H75  1  0.74698000  0.77923000  0.54115000  1.0
  H  H76  1  0.93233000  0.27902000  0.04116000  1.0
  H  H77  1  0.02634000  0.22084000  0.04115000  1.0
  H  H78  1  0.28877000  0.27896000  0.45887000  1.0
  H  H79  1  0.25298000  0.22078000  0.45885000  1.0
  H  H80  1  0.52332000  0.52793000  0.72092000  1.0
  H  H81  1  0.75559000  0.97210000  0.72088000  1.0
  H  H82  1  0.44847000  0.52791000  0.77906000  1.0
  H  H83  1  0.77226000  0.97207000  0.77903000  1.0
  H  H84  1  0.47667000  0.47207000  0.27908000  1.0
  H  H85  1  0.24441000  0.02790000  0.27912000  1.0
  H  H86  1  0.55153000  0.47209000  0.22094000  1.0
  H  H87  1  0.22773000  0.02793000  0.22097000  1.0
  C  C88  1  0.27198000  0.78688000  0.83368000  1.0
  C  C89  1  0.89426000  0.71321000  0.83367000  1.0
  C  C90  1  0.44131000  0.78683000  0.66626000  1.0
  C  C91  1  0.89262000  0.71316000  0.66625000  1.0
  C  C92  1  0.72802000  0.21311000  0.16632000  1.0
  C  C93  1  0.10573000  0.28679000  0.16634000  1.0
  C  C94  1  0.55869000  0.21317000  0.33374000  1.0
  C  C95  1  0.10738000  0.28684000  0.33375000  1.0
  C  C96  1  0.33790000  0.82115000  0.84194000  1.0
  C  C97  1  0.82010000  0.67893000  0.84193000  1.0
  C  C98  1  0.34112000  0.82112000  0.65800000  1.0
  C  C99  1  0.00109000  0.67893000  0.65796000  1.0
  C  C100  1  0.66210000  0.17885000  0.15806000  1.0
  C  C101  1  0.17990000  0.32107000  0.15807000  1.0
  C  C102  1  0.65888000  0.17888000  0.34200000  1.0
  C  C103  1  0.99891000  0.32107000  0.34204000  1.0
  C  C104  1  0.43345000  0.81263000  0.80754000  1.0
  C  C105  1  0.75898000  0.68745000  0.80752000  1.0
  C  C106  1  0.25411000  0.81256000  0.69239000  1.0
  C  C107  1  0.05370000  0.68746000  0.69236000  1.0
  C  C108  1  0.56655000  0.18737000  0.19246000  1.0
  C  C109  1  0.24102000  0.31255000  0.19248000  1.0
  C  C110  1  0.74589000  0.18744000  0.30761000  1.0
  C  C111  1  0.94630000  0.31254000  0.30764000  1.0
  C  C112  1  0.49546000  0.84414000  0.81559000  1.0
  C  C113  1  0.68899000  0.65588000  0.81557000  1.0
  C  C114  1  0.16056000  0.84412000  0.68439000  1.0
  C  C115  1  0.15526000  0.65590000  0.68434000  1.0
  C  C116  1  0.50454000  0.15586000  0.18441000  1.0
  C  C117  1  0.31101000  0.34412000  0.18443000  1.0
  C  C118  1  0.83944000  0.15588000  0.31561000  1.0
  C  C119  1  0.84474000  0.34410000  0.31566000  1.0
  C  C120  1  0.46321000  0.88425000  0.85814000  1.0
  C  C121  1  0.67873000  0.61574000  0.85809000  1.0
  C  C122  1  0.15267000  0.88429000  0.64188000  1.0
  C  C123  1  0.20568000  0.61575000  0.64181000  1.0
  C  C124  1  0.53679000  0.11575000  0.14186000  1.0
  C  C125  1  0.32127000  0.38426000  0.14191000  1.0
  C  C126  1  0.84734000  0.11571000  0.35811000  1.0
  C  C127  1  0.79432000  0.38425000  0.35819000  1.0
  C  C128  1  0.36588000  0.89412000  0.89186000  1.0
  C  C129  1  0.74231000  0.60588000  0.89182000  1.0
  C  C130  1  0.24010000  0.89417000  0.60814000  1.0
  C  C131  1  0.15196000  0.60588000  0.60809000  1.0
  C  C132  1  0.63412000  0.10587000  0.10814000  1.0
  C  C133  1  0.25769000  0.39412000  0.10818000  1.0
  C  C134  1  0.75990000  0.10583000  0.39186000  1.0
  C  C135  1  0.84804000  0.39412000  0.39191000  1.0
  C  C136  1  0.30369000  0.86251000  0.88348000  1.0
  C  C137  1  0.81281000  0.63755000  0.88344000  1.0
  C  C138  1  0.33394000  0.86252000  0.61649000  1.0
  C  C139  1  0.04977000  0.63754000  0.61646000  1.0
  C  C140  1  0.69631000  0.13749000  0.11652000  1.0
  C  C141  1  0.18719000  0.36245000  0.11656000  1.0
  C  C142  1  0.66606000  0.13748000  0.38351000  1.0
  C  C143  1  0.95022000  0.36246000  0.38355000  1.0
  C  C144  1  0.59732000  0.83390000  0.77745000  1.0
  C  C145  1  0.62528000  0.66608000  0.77744000  1.0
  C  C146  1  0.06894000  0.83388000  0.72252000  1.0
  C  C147  1  0.20871000  0.66607000  0.72252000  1.0
  C  C148  1  0.40268000  0.16610000  0.22255000  1.0
  C  C149  1  0.37471000  0.33392000  0.22257000  1.0
  C  C150  1  0.93106000  0.16612000  0.27748000  1.0
  C  C151  1  0.79129000  0.33393000  0.27748000  1.0
  C  C152  1  0.37262000  0.96653000  0.95507000  1.0
  C  C153  1  0.67241000  0.53347000  0.95507000  1.0
  C  C154  1  0.16085000  0.96657000  0.54494000  1.0
  C  C155  1  0.29430000  0.53342000  0.54488000  1.0
  C  C156  1  0.62738000  0.03347000  0.04493000  1.0
  C  C157  1  0.32759000  0.46653000  0.04493000  1.0
  C  C158  1  0.83915000  0.03343000  0.45506000  1.0
  C  C159  1  0.70570000  0.46658000  0.45512000  1.0
  C  C160  1  0.30628000  0.00626000  0.00120000  1.0
  C  C161  1  0.69256000  0.49375000  0.00122000  1.0
  C  C162  1  0.18741000  0.00629000  0.49880000  1.0
  C  C163  1  0.31382000  0.49369000  0.49875000  1.0
  C  C164  1  0.69372000  0.99374000  0.99880000  1.0
  C  C165  1  0.30744000  0.50625000  0.99878000  1.0
  C  C166  1  0.81260000  0.99372000  0.50119000  1.0
  C  C167  1  0.68618000  0.50631000  0.50125000  1.0
  C  C168  1  0.35012000  0.01460000  0.04023000  1.0
  C  C169  1  0.60965000  0.48540000  0.04023000  1.0
  C  C170  1  0.13525000  0.01460000  0.45976000  1.0
  C  C171  1  0.40506000  0.48532000  0.45971000  1.0
  C  C172  1  0.64988000  0.98540000  0.95977000  1.0
  C  C173  1  0.39035000  0.51460000  0.95977000  1.0
  C  C174  1  0.86475000  0.98540000  0.54024000  1.0
  C  C175  1  0.59494000  0.51468000  0.54029000  1.0
  C  C176  1  0.29311000  0.05230000  0.08331000  1.0
  C  C177  1  0.62350000  0.44767000  0.08330000  1.0
  C  C178  1  0.15456000  0.05231000  0.41668000  1.0
  C  C179  1  0.42879000  0.44765000  0.41662000  1.0
  C  C180  1  0.70689000  0.94770000  0.91669000  1.0
  C  C181  1  0.37650000  0.55233000  0.91670000  1.0
  C  C182  1  0.84544000  0.94769000  0.58332000  1.0
  C  C183  1  0.57121000  0.55235000  0.58338000  1.0
  C  C184  1  0.19224000  0.08381000  0.08723000  1.0
  C  C185  1  0.72044000  0.41615000  0.08724000  1.0
  C  C186  1  0.22392000  0.08382000  0.41276000  1.0
  C  C187  1  0.36329000  0.41620000  0.41269000  1.0
  C  C188  1  0.80776000  0.91619000  0.91277000  1.0
  C  C189  1  0.27956000  0.58385000  0.91276000  1.0
  C  C190  1  0.77608000  0.91618000  0.58724000  1.0
  C  C191  1  0.63671000  0.58380000  0.58731000  1.0
  C  C192  1  0.14854000  0.07622000  0.04783000  1.0
  C  C193  1  0.80358000  0.42376000  0.04787000  1.0
  C  C194  1  0.27519000  0.07623000  0.45217000  1.0
  C  C195  1  0.27256000  0.42382000  0.45209000  1.0
  C  C196  1  0.85146000  0.92378000  0.95217000  1.0
  C  C197  1  0.19642000  0.57624000  0.95213000  1.0
  C  C198  1  0.72481000  0.92377000  0.54783000  1.0
  C  C199  1  0.72743000  0.57618000  0.54791000  1.0
  C  C200  1  0.20472000  0.03712000  0.00544000  1.0
  C  C201  1  0.78986000  0.46289000  0.00549000  1.0
  C  C202  1  0.25810000  0.03714000  0.49456000  1.0
  C  C203  1  0.24730000  0.46290000  0.49449000  1.0
  C  C204  1  0.79528000  0.96288000  0.99456000  1.0
  C  C205  1  0.21014000  0.53711000  0.99451000  1.0
  C  C206  1  0.74190000  0.96286000  0.50544000  1.0
  C  C207  1  0.75270000  0.53710000  0.50551000  1.0
  C  C208  1  0.13256000  0.12701000  0.13234000  1.0
  C  C209  1  0.73501000  0.37291000  0.13231000  1.0
  C  C210  1  0.24031000  0.12707000  0.36769000  1.0
  C  C211  1  0.39195000  0.37296000  0.36762000  1.0
  C  C212  1  0.86744000  0.87299000  0.86766000  1.0
  C  C213  1  0.26498000  0.62710000  0.86770000  1.0
  C  C214  1  0.75969000  0.87293000  0.63231000  1.0
  C  C215  1  0.60805000  0.62704000  0.63238000  1.0
  N  N216  1  0.32550000  0.93505000  0.93443000  1.0
  N  N217  1  0.74019000  0.56493000  0.93438000  1.0
  N  N218  1  0.23947000  0.93511000  0.56558000  1.0
  N  N219  1  0.19506000  0.56490000  0.56555000  1.0
  N  N220  1  0.67450000  0.06495000  0.06557000  1.0
  N  N221  1  0.25981000  0.43507000  0.06562000  1.0
  N  N222  1  0.76053000  0.06489000  0.43442000  1.0
  N  N223  1  0.80494000  0.43510000  0.43445000  1.0
  O  O224  1  0.17977000  0.80298000  0.85905000  1.0
  O  O225  1  0.96114000  0.69709000  0.85899000  1.0
  O  O226  1  0.51741000  0.80295000  0.64093000  1.0
  O  O227  1  0.84191000  0.69696000  0.64095000  1.0
  O  O228  1  0.82023000  0.19702000  0.14095000  1.0
  O  O229  1  0.03886000  0.30291000  0.14101000  1.0
  O  O230  1  0.48259000  0.19704000  0.35907000  1.0
  O  O231  1  0.15809000  0.30303000  0.35906000  1.0
  O  O232  1  0.31050000  0.74287000  0.80097000  1.0
  O  O233  1  0.88846000  0.75725000  0.80098000  1.0
  O  O234  1  0.44683000  0.74279000  0.69894000  1.0
  O  O235  1  0.85432000  0.75721000  0.69893000  1.0
  O  O236  1  0.68950000  0.25713000  0.19903000  1.0
  O  O237  1  0.11154000  0.24275000  0.19903000  1.0
  O  O238  1  0.55318000  0.25721000  0.30106000  1.0
  O  O239  1  0.14568000  0.24279000  0.30107000  1.0
  O  O240  1  0.61063000  0.81200000  0.73236000  1.0
  O  O241  1  0.65710000  0.68793000  0.73233000  1.0
  O  O242  1  0.07754000  0.81195000  0.76760000  1.0
  O  O243  1  0.15498000  0.68791000  0.76763000  1.0
  O  O244  1  0.38937000  0.18801000  0.26764000  1.0
  O  O245  1  0.34289000  0.31206000  0.26768000  1.0
  O  O246  1  0.92246000  0.18804000  0.23240000  1.0
  O  O247  1  0.84502000  0.31209000  0.23237000  1.0
  O  O248  1  0.66495000  0.84714000  0.79196000  1.0
  O  O249  1  0.54311000  0.65289000  0.79200000  1.0
  O  O250  1  0.98809000  0.84713000  0.70800000  1.0
  O  O251  1  0.30410000  0.65285000  0.70800000  1.0
  O  O252  1  0.33506000  0.15286000  0.20804000  1.0
  O  O253  1  0.45689000  0.34711000  0.20800000  1.0
  O  O254  1  0.01191000  0.15287000  0.29200000  1.0
  O  O255  1  0.69590000  0.34715000  0.29200000  1.0
  O  O256  1  0.46254000  0.96260000  0.93778000  1.0
  O  O257  1  0.59976000  0.53739000  0.93780000  1.0
  O  O258  1  0.07486000  0.96261000  0.56225000  1.0
  O  O259  1  0.36302000  0.53736000  0.56215000  1.0
  O  O260  1  0.53746000  0.03740000  0.06222000  1.0
  O  O261  1  0.40024000  0.46261000  0.06220000  1.0
  O  O262  1  0.92514000  0.03739000  0.43775000  1.0
  O  O263  1  0.63698000  0.46264000  0.43785000  1.0
  O  O264  1  0.16291000  0.11891000  0.17423000  1.0
  O  O265  1  0.66283000  0.38100000  0.17423000  1.0
  O  O266  1  0.21793000  0.11901000  0.32582000  1.0
  O  O267  1  0.45608000  0.38105000  0.32571000  1.0
  O  O268  1  0.83709000  0.88109000  0.82577000  1.0
  O  O269  1  0.33716000  0.61900000  0.82577000  1.0
  O  O270  1  0.78207000  0.88098000  0.67418000  1.0
  O  O271  1  0.54391000  0.61895000  0.67429000  1.0
  O  O272  1  0.05699000  0.16842000  0.12473000  1.0
  O  O273  1  0.81817000  0.33147000  0.12467000  1.0
  O  O274  1  0.27453000  0.16844000  0.37529000  1.0
  O  O275  1  0.35025000  0.33152000  0.37527000  1.0
  O  O276  1  0.94301000  0.83158000  0.87527000  1.0
  O  O277  1  0.18182000  0.66853000  0.87534000  1.0
  O  O278  1  0.72546000  0.83156000  0.62471000  1.0
  O  O279  1  0.64975000  0.66848000  0.62473000  1.0
  O  O280  1  0.03119000  0.74984000  0.93707000  1.0
  O  O281  1  0.71917000  0.74976000  0.56291000  1.0
  O  O282  1  0.96882000  0.25016000  0.06293000  1.0
  O  O283  1  0.28090000  0.25022000  0.43709000  1.0
  O  O284  1  0.47433000  0.55238000  0.75020000  1.0
  O  O285  1  0.77603000  0.94762000  0.74997000  1.0
  O  O286  1  0.52568000  0.44762000  0.24981000  1.0
  O  O287  1  0.22397000  0.05238000  0.25003000  1.0
