# generated using pymatgen
data_CdH7C9S2N3O
_symmetry_space_group_name_H-M   'P 1'
_cell_length_a   7.58729000
_cell_length_b   12.25670000
_cell_length_c   12.38360000
_cell_angle_alpha   97.14890000
_cell_angle_beta   90.00000000
_cell_angle_gamma   90.00000000
_symmetry_Int_Tables_number   1
_chemical_formula_structural   CdH7C9S2N3O
_chemical_formula_sum   'Cd4 H28 C36 S8 N12 O4'
_cell_volume   1142.66203103
_cell_formula_units_Z   4
loop_
 _symmetry_equiv_pos_site_id
 _symmetry_equiv_pos_as_xyz
  1  'x, y, z'
loop_
 _atom_site_type_symbol
 _atom_site_label
 _atom_site_symmetry_multiplicity
 _atom_site_fract_x
 _atom_site_fract_y
 _atom_site_fract_z
 _atom_site_occupancy
  Cd  Cd0  1  0.09218000  0.94193000  0.71369000  1.0
  Cd  Cd1  1  0.59218000  0.55807000  0.78630000  1.0
  Cd  Cd2  1  0.90782000  0.05807000  0.28630000  1.0
  Cd  Cd3  1  0.40782000  0.44193000  0.21369000  1.0
  H  H4  1  0.48299000  0.90968000  0.80304000  1.0
  H  H5  1  0.98299000  0.59032000  0.69696000  1.0
  H  H6  1  0.51701000  0.09032000  0.19696000  1.0
  H  H7  1  0.01701000  0.40968000  0.30304000  1.0
  H  H8  1  0.72764000  0.01508000  0.90477000  1.0
  H  H9  1  0.22764000  0.48492000  0.59523000  1.0
  H  H10  1  0.27236000  0.98492000  0.09523000  1.0
  H  H11  1  0.77236000  0.51508000  0.40477000  1.0
  H  H12  1  0.67466000  0.21278000  0.97945000  1.0
  H  H13  1  0.17466000  0.28722000  0.52055000  1.0
  H  H14  1  0.32534000  0.78722000  0.02055000  1.0
  H  H15  1  0.82534000  0.71278000  0.47945000  1.0
  H  H16  1  0.38333000  0.29736000  0.94630000  1.0
  H  H17  1  0.88333000  0.20264000  0.55371000  1.0
  H  H18  1  0.61667000  0.70264000  0.05370000  1.0
  H  H19  1  0.11667000  0.79736000  0.44630000  1.0
  H  H20  1  0.15077000  0.36355000  0.83171000  1.0
  H  H21  1  0.65077000  0.13645000  0.66829000  1.0
  H  H22  1  0.84923000  0.63645000  0.16829000  1.0
  H  H23  1  0.34922000  0.86355000  0.33171000  1.0
  H  H24  1  0.08876000  0.32950000  0.96066000  1.0
  H  H25  1  0.58877000  0.17050000  0.53934000  1.0
  H  H26  1  0.91124000  0.67049000  0.03934000  1.0
  H  H27  1  0.41124000  0.82950000  0.46066000  1.0
  H  H28  1  0.92616000  0.32872000  0.85581000  1.0
  H  H29  1  0.42616000  0.17128000  0.64419000  1.0
  H  H30  1  0.07384000  0.67128000  0.14419000  1.0
  H  H31  1  0.57384000  0.82872000  0.35581000  1.0
  C  C32  1  0.46642000  0.99580000  0.83615000  1.0
  C  C33  1  0.96642000  0.50420000  0.66385000  1.0
  C  C34  1  0.53358000  0.00420000  0.16385000  1.0
  C  C35  1  0.03358000  0.49580000  0.33615000  1.0
  C  C36  1  0.60196000  0.05515000  0.89303000  1.0
  C  C37  1  0.10196000  0.44486000  0.60697000  1.0
  C  C38  1  0.39804000  0.94486000  0.10697000  1.0
  C  C39  1  0.89804000  0.55514000  0.39303000  1.0
  C  C40  1  0.57271000  0.16463000  0.93335000  1.0
  C  C41  1  0.07271000  0.33537000  0.56665000  1.0
  C  C42  1  0.42729000  0.83537000  0.06665000  1.0
  C  C43  1  0.92729000  0.66463000  0.43335000  1.0
  C  C44  1  0.40941000  0.21184000  0.91564000  1.0
  C  C45  1  0.90941000  0.28816000  0.58436000  1.0
  C  C46  1  0.59059000  0.78816000  0.08436000  1.0
  C  C47  1  0.09059000  0.71184000  0.41564000  1.0
  C  C48  1  0.28046000  0.14744000  0.85777000  1.0
  C  C49  1  0.78046000  0.35256000  0.64223000  1.0
  C  C50  1  0.71954000  0.85256000  0.14223000  1.0
  C  C51  1  0.21954000  0.64744000  0.35777000  1.0
  C  C52  1  0.10280000  0.19251000  0.83362000  1.0
  C  C53  1  0.60280000  0.30749000  0.66638000  1.0
  C  C54  1  0.89720000  0.80749000  0.16638000  1.0
  C  C55  1  0.39720000  0.69251000  0.33362000  1.0
  C  C56  1  0.06333000  0.31005000  0.87305000  1.0
  C  C57  1  0.56333000  0.18995000  0.62695000  1.0
  C  C58  1  0.93667000  0.68995000  0.12695000  1.0
  C  C59  1  0.43667000  0.81005000  0.37305000  1.0
  C  C60  1  0.79605000  0.95005000  0.52208000  1.0
  C  C61  1  0.29606000  0.54995000  0.97791000  1.0
  C  C62  1  0.20395000  0.04995000  0.47791000  1.0
  C  C63  1  0.70394000  0.45005000  0.02209000  1.0
  C  C64  1  0.85861000  0.78159000  0.86293000  1.0
  C  C65  1  0.35861000  0.71841000  0.63707000  1.0
  C  C66  1  0.14139000  0.21841000  0.13707000  1.0
  C  C67  1  0.64139000  0.28159000  0.36293000  1.0
  S  S68  1  0.77572000  0.89241000  0.63359000  1.0
  S  S69  1  0.27572000  0.60759000  0.86641000  1.0
  S  S70  1  0.22428000  0.10759000  0.36641000  1.0
  S  S71  1  0.72428000  0.39241000  0.13359000  1.0
  S  S72  1  0.99479000  0.87792000  0.91228000  1.0
  S  S73  1  0.49478000  0.62208000  0.58771000  1.0
  S  S74  1  0.00522000  0.12208000  0.08771000  1.0
  S  S75  1  0.50521000  0.37792000  0.41229000  1.0
  N  N76  1  0.31051000  0.04110000  0.81888000  1.0
  N  N77  1  0.81051000  0.45890000  0.68112000  1.0
  N  N78  1  0.68949000  0.95890000  0.18112000  1.0
  N  N79  1  0.18949000  0.54110000  0.31888000  1.0
  N  N80  1  0.80523000  0.98993000  0.44023000  1.0
  N  N81  1  0.30523000  0.51007000  0.05977000  1.0
  N  N82  1  0.19477000  0.01007000  0.55977000  1.0
  N  N83  1  0.69477000  0.48993000  0.94023000  1.0
  N  N84  1  0.75707000  0.71284000  0.82819000  1.0
  N  N85  1  0.25707000  0.78716000  0.67181000  1.0
  N  N86  1  0.24292000  0.28716000  0.17181000  1.0
  N  N87  1  0.74293000  0.21284000  0.32819000  1.0
  O  O88  1  0.99366000  0.13359000  0.77913000  1.0
  O  O89  1  0.49366000  0.36641000  0.72087000  1.0
  O  O90  1  0.00633000  0.86641000  0.22087000  1.0
  O  O91  1  0.50634000  0.63359000  0.27913000  1.0
