# generated using pymatgen
data_CdH8C6(SN5)2
_symmetry_space_group_name_H-M   'P 1'
_cell_length_a   5.86498000
_cell_length_b   9.13183000
_cell_length_c   12.76760000
_cell_angle_alpha   76.79900000
_cell_angle_beta   89.99980000
_cell_angle_gamma   89.99850000
_symmetry_Int_Tables_number   1
_chemical_formula_structural   CdH8C6(SN5)2
_chemical_formula_sum   'Cd2 H16 C12 S4 N20'
_cell_volume   665.73746471
_cell_formula_units_Z   2
loop_
 _symmetry_equiv_pos_site_id
 _symmetry_equiv_pos_as_xyz
  1  'x, y, z'
loop_
 _atom_site_type_symbol
 _atom_site_label
 _atom_site_symmetry_multiplicity
 _atom_site_fract_x
 _atom_site_fract_y
 _atom_site_fract_z
 _atom_site_occupancy
  Cd  Cd0  1  0.49997000  0.50000000  0.49999000  1.0
  Cd  Cd1  1  0.99996000  0.00001000  0.00000000  1.0
  H  H2  1  0.53477000  0.89309000  0.75424000  1.0
  H  H3  1  0.03481000  0.60687000  0.74579000  1.0
  H  H4  1  0.46523000  0.10688000  0.24578000  1.0
  H  H5  1  0.96521000  0.39313000  0.25422000  1.0
  H  H6  1  0.15136000  0.84865000  0.48290000  1.0
  H  H7  1  0.65135000  0.65135000  0.01710000  1.0
  H  H8  1  0.84866000  0.15136000  0.51709000  1.0
  H  H9  1  0.34867000  0.34865000  0.98290000  1.0
  H  H10  1  0.07128000  0.97603000  0.71390000  1.0
  H  H11  1  0.57129000  0.52398000  0.78611000  1.0
  H  H12  1  0.92875000  0.02396000  0.28610000  1.0
  H  H13  1  0.42872000  0.47603000  0.21390000  1.0
  H  H14  1  0.22262000  0.11496000  0.64013000  1.0
  H  H15  1  0.72264000  0.38502000  0.85988000  1.0
  H  H16  1  0.77739000  0.88502000  0.35988000  1.0
  H  H17  1  0.27738000  0.61497000  0.14012000  1.0
  C  C18  1  0.47992000  0.85151000  0.68530000  1.0
  C  C19  1  0.97993000  0.64847000  0.81472000  1.0
  C  C20  1  0.52010000  0.14850000  0.31471000  1.0
  C  C21  1  0.02007000  0.35152000  0.18528000  1.0
  C  C22  1  0.28146000  0.82801000  0.54531000  1.0
  C  C23  1  0.78145000  0.67199000  0.95468000  1.0
  C  C24  1  0.71856000  0.17200000  0.45467000  1.0
  C  C25  1  0.21854000  0.32801000  0.04532000  1.0
  C  C26  1  0.99501000  0.58813000  0.36713000  1.0
  C  C27  1  0.49499000  0.91189000  0.13286000  1.0
  C  C28  1  0.00497000  0.41188000  0.63287000  1.0
  C  C29  1  0.50498000  0.08811000  0.86715000  1.0
  S  S30  1  0.74213000  0.63939000  0.31890000  1.0
  S  S31  1  0.24216000  0.86060000  0.18111000  1.0
  S  S32  1  0.25781000  0.36060000  0.68110000  1.0
  S  S33  1  0.75781000  0.13940000  0.81889000  1.0
  N  N34  1  0.13773000  0.01677000  0.63823000  1.0
  N  N35  1  0.63774000  0.48321000  0.86178000  1.0
  N  N36  1  0.86228000  0.98321000  0.36177000  1.0
  N  N37  1  0.36227000  0.51678000  0.13823000  1.0
  N  N38  1  0.18044000  0.55140000  0.39820000  1.0
  N  N39  1  0.68048000  0.94862000  0.10182000  1.0
  N  N40  1  0.81951000  0.44860000  0.60183000  1.0
  N  N41  1  0.31952000  0.05140000  0.89817000  1.0
  N  N42  1  0.57325000  0.74132000  0.64940000  1.0
  N  N43  1  0.07327000  0.75865000  0.85062000  1.0
  N  N44  1  0.42675000  0.25867000  0.35060000  1.0
  N  N45  1  0.92674000  0.24135000  0.14938000  1.0
  N  N46  1  0.44688000  0.72677000  0.56049000  1.0
  N  N47  1  0.94688000  0.77323000  0.93951000  1.0
  N  N48  1  0.55313000  0.27324000  0.43950000  1.0
  N  N49  1  0.05313000  0.22678000  0.06048000  1.0
  N  N50  1  0.29712000  0.90918000  0.62240000  1.0
  N  N51  1  0.79711000  0.59081000  0.87761000  1.0
  N  N52  1  0.70290000  0.09082000  0.37760000  1.0
  N  N53  1  0.20288000  0.40919000  0.12240000  1.0
