# generated using pymatgen
data_Zn3P2H20(C11O7)2
_symmetry_space_group_name_H-M   'P 1'
_cell_length_a   8.91218000
_cell_length_b   11.21070000
_cell_length_c   14.74560000
_cell_angle_alpha   112.32500000
_cell_angle_beta   105.18900000
_cell_angle_gamma   90.00370000
_symmetry_Int_Tables_number   1
_chemical_formula_structural   Zn3P2H20(C11O7)2
_chemical_formula_sum   'Zn6 P4 H40 C44 O28'
_cell_volume   1307.01217078
_cell_formula_units_Z   2
loop_
 _symmetry_equiv_pos_site_id
 _symmetry_equiv_pos_as_xyz
  1  'x, y, z'
loop_
 _atom_site_type_symbol
 _atom_site_label
 _atom_site_symmetry_multiplicity
 _atom_site_fract_x
 _atom_site_fract_y
 _atom_site_fract_z
 _atom_site_occupancy
  Zn  Zn0  1  0.75002000  0.68036000  0.00000000  1.0
  Zn  Zn1  1  0.24998000  0.31964000  0.00000000  1.0
  Zn  Zn2  1  0.57331000  0.90148000  0.09707000  1.0
  Zn  Zn3  1  0.92666000  0.80449000  0.90293000  1.0
  Zn  Zn4  1  0.42669000  0.09851000  0.90293000  1.0
  Zn  Zn5  1  0.07334000  0.19551000  0.09707000  1.0
  P  P6  1  0.57049000  0.82039000  0.86071000  1.0
  P  P7  1  0.92953000  0.95960000  0.13934000  1.0
  P  P8  1  0.42951000  0.17961000  0.13929000  1.0
  P  P9  1  0.07047000  0.04040000  0.86066000  1.0
  H  H10  1  0.29743000  0.74169000  0.79308000  1.0
  H  H11  1  0.20261000  0.94865000  0.20704000  1.0
  H  H12  1  0.70257000  0.25831000  0.20692000  1.0
  H  H13  1  0.79739000  0.05136000  0.79296000  1.0
  H  H14  1  0.38128000  0.73842000  0.69475000  1.0
  H  H15  1  0.11867000  0.04353000  0.30534000  1.0
  H  H16  1  0.61872000  0.26157000  0.30524000  1.0
  H  H17  1  0.88133000  0.95647000  0.69465000  1.0
  H  H18  1  0.34132000  0.56441000  0.86123000  1.0
  H  H19  1  0.15885000  0.70316000  0.13883000  1.0
  H  H20  1  0.65868000  0.43559000  0.13876000  1.0
  H  H21  1  0.84115000  0.29684000  0.86117000  1.0
  H  H22  1  0.54054000  0.22812000  0.69932000  1.0
  H  H23  1  0.95954000  0.52848000  0.30061000  1.0
  H  H24  1  0.45946000  0.77187000  0.30067000  1.0
  H  H25  1  0.04046000  0.47152000  0.69938000  1.0
  H  H26  1  0.52205000  0.55678000  0.61498000  1.0
  H  H27  1  0.97790000  0.94140000  0.38504000  1.0
  H  H28  1  0.47795000  0.44322000  0.38501000  1.0
  H  H29  1  0.02211000  0.05860000  0.61496000  1.0
  H  H30  1  0.72964000  0.03574000  0.48160000  1.0
  H  H31  1  0.77034000  0.55381000  0.51849000  1.0
  H  H32  1  0.27036000  0.96426000  0.51840000  1.0
  H  H33  1  0.22966000  0.44619000  0.48151000  1.0
  H  H34  1  0.74824000  0.16789000  0.44391000  1.0
  H  H35  1  0.75154000  0.72355000  0.55592000  1.0
  H  H36  1  0.25177000  0.83210000  0.55609000  1.0
  H  H37  1  0.24846000  0.27646000  0.44408000  1.0
  H  H38  1  0.55453000  0.98367000  0.30397000  1.0
  H  H39  1  0.94512000  0.67968000  0.69611000  1.0
  H  H40  1  0.44547000  0.01632000  0.69602000  1.0
  H  H41  1  0.05488000  0.32032000  0.30389000  1.0
  H  H42  1  0.45964000  0.12495000  0.35009000  1.0
  H  H43  1  0.03994000  0.77481000  0.64991000  1.0
  H  H44  1  0.54036000  0.87505000  0.64991000  1.0
  H  H45  1  0.96006000  0.22519000  0.35009000  1.0
  H  H46  1  0.44179000  0.99491000  0.38955000  1.0
  H  H47  1  0.05817000  0.60541000  0.61073000  1.0
  H  H48  1  0.55821000  0.00509000  0.61045000  1.0
  H  H49  1  0.94183000  0.39459000  0.38927000  1.0
  C  C50  1  0.39942000  0.71726000  0.76349000  1.0
  C  C51  1  0.10061000  0.95368000  0.23661000  1.0
  C  C52  1  0.60058000  0.28273000  0.23650000  1.0
  C  C53  1  0.89939000  0.04632000  0.76339000  1.0
  C  C54  1  0.42909000  0.57771000  0.74121000  1.0
  C  C55  1  0.07100000  0.83635000  0.25885000  1.0
  C  C56  1  0.57090000  0.42228000  0.25879000  1.0
  C  C57  1  0.92900000  0.16365000  0.74114000  1.0
  C  C58  1  0.39757000  0.51569000  0.80162000  1.0
  C  C59  1  0.10255000  0.71399000  0.19842000  1.0
  C  C60  1  0.60243000  0.48431000  0.19838000  1.0
  C  C61  1  0.89746000  0.28602000  0.80158000  1.0
  C  C62  1  0.44042000  0.39096000  0.78757000  1.0
  C  C63  1  0.05970000  0.60327000  0.21246000  1.0
  C  C64  1  0.55957000  0.60903000  0.21242000  1.0
  C  C65  1  0.94030000  0.39673000  0.78754000  1.0
  C  C66  1  0.50951000  0.32528000  0.71035000  1.0
  C  C67  1  0.99058000  0.61466000  0.28965000  1.0
  C  C68  1  0.49049000  0.67472000  0.28964000  1.0
  C  C69  1  0.00943000  0.38534000  0.71035000  1.0
  C  C70  1  0.53656000  0.38472000  0.64736000  1.0
  C  C71  1  0.96346000  0.73701000  0.35262000  1.0
  C  C72  1  0.46343000  0.61528000  0.35263000  1.0
  C  C73  1  0.03655000  0.26299000  0.64738000  1.0
  C  C74  1  0.49905000  0.51128000  0.66414000  1.0
  C  C75  1  0.00099000  0.84682000  0.33588000  1.0
  C  C76  1  0.50094000  0.48871000  0.33585000  1.0
  C  C77  1  0.99901000  0.15318000  0.66412000  1.0
  C  C78  1  0.60109000  0.31494000  0.56028000  1.0
  C  C79  1  0.89891000  0.75429000  0.43969000  1.0
  C  C80  1  0.39890000  0.68505000  0.43971000  1.0
  C  C81  1  0.10109000  0.24571000  0.56030000  1.0
  C  C82  1  0.41229000  0.32667000  0.85410000  1.0
  C  C83  1  0.08778000  0.47251000  0.14592000  1.0
  C  C84  1  0.58770000  0.67333000  0.14589000  1.0
  C  C85  1  0.91221000  0.52749000  0.85408000  1.0
  C  C86  1  0.66755000  0.10951000  0.45985000  1.0
  C  C87  1  0.83235000  0.64933000  0.54014000  1.0
  C  C88  1  0.33245000  0.89048000  0.54015000  1.0
  C  C89  1  0.16765000  0.35068000  0.45986000  1.0
  C  C90  1  0.52187000  0.05032000  0.37081000  1.0
  C  C91  1  0.97791000  0.67943000  0.62929000  1.0
  C  C92  1  0.47814000  0.94968000  0.62919000  1.0
  C  C93  1  0.02209000  0.32057000  0.37071000  1.0
  O  O94  1  0.58109000  0.78412000  0.95597000  1.0
  O  O95  1  0.91898000  0.82814000  0.04407000  1.0
  O  O96  1  0.41891000  0.21588000  0.04402000  1.0
  O  O97  1  0.08102000  0.17186000  0.95592000  1.0
  O  O98  1  0.55867000  0.96529000  0.89168000  1.0
  O  O99  1  0.94131000  0.07359000  0.10839000  1.0
  O  O100  1  0.44132000  0.03471000  0.10832000  1.0
  O  O101  1  0.05870000  0.92641000  0.89161000  1.0
  O  O102  1  0.71085000  0.77934000  0.81919000  1.0
  O  O103  1  0.78913000  0.95999000  0.18080000  1.0
  O  O104  1  0.28915000  0.22066000  0.18081000  1.0
  O  O105  1  0.21088000  0.04001000  0.81919000  1.0
  O  O106  1  0.62406000  0.19210000  0.55058000  1.0
  O  O107  1  0.87593000  0.64115000  0.44942000  1.0
  O  O108  1  0.37594000  0.80790000  0.44942000  1.0
  O  O109  1  0.12407000  0.35885000  0.55058000  1.0
  O  O110  1  0.62767000  0.36205000  0.50239000  1.0
  O  O111  1  0.87236000  0.85928000  0.49757000  1.0
  O  O112  1  0.37232000  0.63794000  0.49760000  1.0
  O  O113  1  0.12763000  0.14071000  0.50242000  1.0
  O  O114  1  0.31707000  0.37552000  0.90671000  1.0
  O  O115  1  0.18292000  0.46880000  0.09325000  1.0
  O  O116  1  0.68293000  0.62448000  0.09329000  1.0
  O  O117  1  0.81708000  0.53120000  0.90674000  1.0
  O  O118  1  0.48477000  0.22856000  0.85401000  1.0
  O  O119  1  0.01536000  0.37448000  0.14604000  1.0
  O  O120  1  0.51523000  0.77144000  0.14599000  1.0
  O  O121  1  0.98464000  0.62552000  0.85396000  1.0
