# generated using pymatgen
data_Cu2H21C22(NO2)5
_symmetry_space_group_name_H-M   'P 1'
_cell_length_a   16.29800000
_cell_length_b   16.29800000
_cell_length_c   18.44730000
_cell_angle_alpha   100.56400000
_cell_angle_beta   100.56400000
_cell_angle_gamma   91.16690000
_symmetry_Int_Tables_number   1
_chemical_formula_structural   Cu2H21C22(NO2)5
_chemical_formula_sum   'Cu8 H84 C88 N20 O40'
_cell_volume   4727.97128691
_cell_formula_units_Z   4
loop_
 _symmetry_equiv_pos_site_id
 _symmetry_equiv_pos_as_xyz
  1  'x, y, z'
loop_
 _atom_site_type_symbol
 _atom_site_label
 _atom_site_symmetry_multiplicity
 _atom_site_fract_x
 _atom_site_fract_y
 _atom_site_fract_z
 _atom_site_occupancy
  Cu  Cu0  1  0.12700000  0.57264000  0.44195000  1.0
  Cu  Cu1  1  0.97470000  0.58367000  0.53897000  1.0
  Cu  Cu2  1  0.42737000  0.87300000  0.05805000  1.0
  Cu  Cu3  1  0.41633000  0.02530000  0.96103000  1.0
  Cu  Cu4  1  0.87300000  0.42737000  0.55805000  1.0
  Cu  Cu5  1  0.02530000  0.41633000  0.46103000  1.0
  Cu  Cu6  1  0.57263000  0.12700000  0.94195000  1.0
  Cu  Cu7  1  0.58367000  0.97470000  0.03897000  1.0
  H  H8  1  0.87140000  0.47037000  0.44085000  1.0
  H  H9  1  0.93229000  0.63294000  0.23167000  1.0
  H  H10  1  0.94068000  0.52233000  0.22424000  1.0
  H  H11  1  0.84856000  0.63437000  0.33361000  1.0
  H  H12  1  0.85523000  0.52396000  0.32445000  1.0
  H  H13  1  0.73719000  0.34805000  0.05747000  1.0
  H  H14  1  0.64192000  0.38874000  0.01787000  1.0
  H  H15  1  0.58507000  0.37959000  0.13456000  1.0
  H  H16  1  0.67870000  0.33701000  0.17260000  1.0
  H  H17  1  0.65117000  0.72340000  0.18437000  1.0
  H  H18  1  0.57847000  0.65830000  0.11103000  1.0
  H  H19  1  0.65198000  0.69784000  0.01501000  1.0
  H  H20  1  0.73103000  0.75657000  0.08569000  1.0
  H  H21  1  0.07289000  0.70210000  0.34784000  1.0
  H  H22  1  0.13464000  0.77250000  0.25960000  1.0
  H  H23  1  0.35530000  0.63341000  0.30794000  1.0
  H  H24  1  0.28164000  0.56624000  0.39126000  1.0
  H  H25  1  0.06052000  0.74163000  0.53582000  1.0
  H  H26  1  0.15946000  0.84871000  0.62753000  1.0
  H  H27  1  0.12926000  0.70717000  0.79903000  1.0
  H  H28  1  0.03196000  0.60805000  0.70071000  1.0
  H  H29  1  0.52963000  0.12860000  0.05915000  1.0
  H  H30  1  0.36706000  0.06771000  0.26833000  1.0
  H  H31  1  0.47767000  0.05932000  0.27576000  1.0
  H  H32  1  0.36563000  0.15144000  0.16639000  1.0
  H  H33  1  0.47604000  0.14477000  0.17555000  1.0
  H  H34  1  0.65195000  0.26280000  0.44253000  1.0
  H  H35  1  0.61126000  0.35807000  0.48213000  1.0
  H  H36  1  0.62041000  0.41493000  0.36544000  1.0
  H  H37  1  0.66299000  0.32130000  0.32740000  1.0
  H  H38  1  0.27660000  0.34883000  0.31563000  1.0
  H  H39  1  0.34169000  0.42153000  0.38896000  1.0
  H  H40  1  0.30216000  0.34802000  0.48499000  1.0
  H  H41  1  0.24343000  0.26897000  0.41431000  1.0
  H  H42  1  0.29790000  0.92711000  0.15216000  1.0
  H  H43  1  0.22750000  0.86536000  0.24040000  1.0
  H  H44  1  0.36659000  0.64470000  0.19206000  1.0
  H  H45  1  0.43376000  0.71836000  0.10874000  1.0
  H  H46  1  0.25836000  0.93948000  0.96417000  1.0
  H  H47  1  0.15129000  0.84053000  0.87246000  1.0
  H  H48  1  0.29283000  0.87074000  0.70097000  1.0
  H  H49  1  0.39195000  0.96804000  0.79929000  1.0
  H  H50  1  0.12860000  0.52963000  0.55915000  1.0
  H  H51  1  0.06771000  0.36706000  0.76833000  1.0
  H  H52  1  0.05932000  0.47767000  0.77576000  1.0
  H  H53  1  0.15144000  0.36563000  0.66639000  1.0
  H  H54  1  0.14477000  0.47604000  0.67555000  1.0
  H  H55  1  0.26281000  0.65195000  0.94253000  1.0
  H  H56  1  0.35808000  0.61126000  0.98213000  1.0
  H  H57  1  0.41493000  0.62041000  0.86544000  1.0
  H  H58  1  0.32130000  0.66299000  0.82740000  1.0
  H  H59  1  0.34883000  0.27660000  0.81563000  1.0
  H  H60  1  0.42153000  0.34170000  0.88897000  1.0
  H  H61  1  0.34802000  0.30216000  0.98499000  1.0
  H  H62  1  0.26897000  0.24343000  0.91431000  1.0
  H  H63  1  0.92711000  0.29790000  0.65216000  1.0
  H  H64  1  0.86536000  0.22750000  0.74040000  1.0
  H  H65  1  0.64470000  0.36659000  0.69206000  1.0
  H  H66  1  0.71836000  0.43376000  0.60874000  1.0
  H  H67  1  0.93948000  0.25837000  0.46418000  1.0
  H  H68  1  0.84054000  0.15129000  0.37247000  1.0
  H  H69  1  0.87074000  0.29283000  0.20097000  1.0
  H  H70  1  0.96804000  0.39195000  0.29929000  1.0
  H  H71  1  0.47037000  0.87140000  0.94085000  1.0
  H  H72  1  0.63294000  0.93229000  0.73167000  1.0
  H  H73  1  0.52233000  0.94068000  0.72424000  1.0
  H  H74  1  0.63437000  0.84856000  0.83361000  1.0
  H  H75  1  0.52396000  0.85523000  0.82445000  1.0
  H  H76  1  0.34805000  0.73720000  0.55747000  1.0
  H  H77  1  0.38874000  0.64193000  0.51787000  1.0
  H  H78  1  0.37959000  0.58507000  0.63456000  1.0
  H  H79  1  0.33701000  0.67870000  0.67260000  1.0
  H  H80  1  0.72340000  0.65117000  0.68437000  1.0
  H  H81  1  0.65830000  0.57847000  0.61104000  1.0
  H  H82  1  0.69784000  0.65198000  0.51501000  1.0
  H  H83  1  0.75657000  0.73103000  0.58569000  1.0
  H  H84  1  0.70210000  0.07289000  0.84784000  1.0
  H  H85  1  0.77250000  0.13464000  0.75960000  1.0
  H  H86  1  0.63341000  0.35530000  0.80794000  1.0
  H  H87  1  0.56624000  0.28164000  0.89126000  1.0
  H  H88  1  0.74164000  0.06052000  0.03582000  1.0
  H  H89  1  0.84871000  0.15947000  0.12754000  1.0
  H  H90  1  0.70717000  0.12926000  0.29903000  1.0
  H  H91  1  0.60805000  0.03196000  0.20071000  1.0
  C  C92  1  0.77521000  0.62986000  0.17871000  1.0
  C  C93  1  0.66299000  0.53368000  0.09722000  1.0
  C  C94  1  0.79574000  0.47863000  0.15144000  1.0
  C  C95  1  0.90244000  0.57493000  0.23909000  1.0
  C  C96  1  0.88758000  0.58204000  0.31949000  1.0
  C  C97  1  0.96926000  0.59504000  0.37576000  1.0
  C  C98  1  0.68380000  0.38364000  0.07026000  1.0
  C  C99  1  0.63693000  0.34203000  0.11962000  1.0
  C  C100  1  0.60056000  0.25471000  0.08100000  1.0
  C  C101  1  0.64291000  0.68430000  0.12823000  1.0
  C  C102  1  0.66467000  0.73565000  0.07228000  1.0
  C  C103  1  0.61144000  0.81150000  0.07168000  1.0
  C  C104  1  0.13496000  0.68840000  0.33631000  1.0
  C  C105  1  0.17053000  0.72802000  0.28804000  1.0
  C  C106  1  0.25100000  0.70893000  0.27557000  1.0
  C  C107  1  0.29209000  0.64995000  0.31377000  1.0
  C  C108  1  0.25252000  0.61291000  0.36112000  1.0
  C  C109  1  0.07767000  0.73807000  0.59511000  1.0
  C  C110  1  0.13267000  0.79647000  0.64645000  1.0
  C  C111  1  0.15237000  0.78796000  0.72197000  1.0
  C  C112  1  0.11460000  0.71962000  0.74221000  1.0
  C  C113  1  0.06075000  0.66325000  0.68769000  1.0
  C  C114  1  0.37014000  0.22479000  0.32129000  1.0
  C  C115  1  0.46632000  0.33701000  0.40278000  1.0
  C  C116  1  0.52136000  0.20426000  0.34856000  1.0
  C  C117  1  0.42507000  0.09756000  0.26091000  1.0
  C  C118  1  0.41796000  0.11242000  0.18051000  1.0
  C  C119  1  0.40496000  0.03074000  0.12424000  1.0
  C  C120  1  0.61636000  0.31620000  0.42974000  1.0
  C  C121  1  0.65797000  0.36307000  0.38038000  1.0
  C  C122  1  0.74529000  0.39944000  0.41900000  1.0
  C  C123  1  0.31570000  0.35709000  0.37177000  1.0
  C  C124  1  0.26435000  0.33533000  0.42772000  1.0
  C  C125  1  0.18850000  0.38856000  0.42832000  1.0
  C  C126  1  0.31160000  0.86504000  0.16369000  1.0
  C  C127  1  0.27198000  0.82947000  0.21196000  1.0
  C  C128  1  0.29107000  0.74900000  0.22443000  1.0
  C  C129  1  0.35005000  0.70791000  0.18623000  1.0
  C  C130  1  0.38709000  0.74748000  0.13888000  1.0
  C  C131  1  0.26193000  0.92233000  0.90489000  1.0
  C  C132  1  0.20353000  0.86733000  0.85355000  1.0
  C  C133  1  0.21204000  0.84763000  0.77802000  1.0
  C  C134  1  0.28038000  0.88540000  0.75779000  1.0
  C  C135  1  0.33675000  0.93925000  0.81231000  1.0
  C  C136  1  0.22479000  0.37014000  0.82129000  1.0
  C  C137  1  0.33701000  0.46632000  0.90278000  1.0
  C  C138  1  0.20426000  0.52137000  0.84856000  1.0
  C  C139  1  0.09756000  0.42507000  0.76091000  1.0
  C  C140  1  0.11242000  0.41796000  0.68051000  1.0
  C  C141  1  0.03074000  0.40496000  0.62424000  1.0
  C  C142  1  0.31620000  0.61636000  0.92974000  1.0
  C  C143  1  0.36307000  0.65797000  0.88038000  1.0
  C  C144  1  0.39944000  0.74529000  0.91900000  1.0
  C  C145  1  0.35709000  0.31570000  0.87177000  1.0
  C  C146  1  0.33533000  0.26435000  0.92772000  1.0
  C  C147  1  0.38856000  0.18850000  0.92832000  1.0
  C  C148  1  0.86504000  0.31160000  0.66369000  1.0
  C  C149  1  0.82947000  0.27198000  0.71196000  1.0
  C  C150  1  0.74900000  0.29107000  0.72443000  1.0
  C  C151  1  0.70791000  0.35005000  0.68623000  1.0
  C  C152  1  0.74748000  0.38709000  0.63888000  1.0
  C  C153  1  0.92233000  0.26193000  0.40489000  1.0
  C  C154  1  0.86732000  0.20353000  0.35355000  1.0
  C  C155  1  0.84763000  0.21204000  0.27803000  1.0
  C  C156  1  0.88540000  0.28038000  0.25779000  1.0
  C  C157  1  0.93925000  0.33675000  0.31231000  1.0
  C  C158  1  0.62986000  0.77521000  0.67871000  1.0
  C  C159  1  0.53368000  0.66299000  0.59723000  1.0
  C  C160  1  0.47864000  0.79574000  0.65144000  1.0
  C  C161  1  0.57493000  0.90244000  0.73909000  1.0
  C  C162  1  0.58204000  0.88758000  0.81949000  1.0
  C  C163  1  0.59504000  0.96926000  0.87576000  1.0
  C  C164  1  0.38364000  0.68380000  0.57026000  1.0
  C  C165  1  0.34203000  0.63693000  0.61962000  1.0
  C  C166  1  0.25471000  0.60056000  0.58100000  1.0
  C  C167  1  0.68430000  0.64291000  0.62823000  1.0
  C  C168  1  0.73565000  0.66467000  0.57228000  1.0
  C  C169  1  0.81150000  0.61144000  0.57168000  1.0
  C  C170  1  0.68840000  0.13496000  0.83631000  1.0
  C  C171  1  0.72802000  0.17053000  0.78804000  1.0
  C  C172  1  0.70893000  0.25100000  0.77557000  1.0
  C  C173  1  0.64995000  0.29209000  0.81377000  1.0
  C  C174  1  0.61291000  0.25252000  0.86112000  1.0
  C  C175  1  0.73807000  0.07767000  0.09511000  1.0
  C  C176  1  0.79647000  0.13268000  0.14645000  1.0
  C  C177  1  0.78796000  0.15237000  0.22198000  1.0
  C  C178  1  0.71962000  0.11460000  0.24221000  1.0
  C  C179  1  0.66325000  0.06075000  0.18769000  1.0
  N  N180  1  0.82262000  0.56046000  0.18553000  1.0
  N  N181  1  0.71618000  0.46882000  0.10701000  1.0
  N  N182  1  0.69606000  0.61315000  0.13395000  1.0
  N  N183  1  0.17516000  0.63168000  0.37199000  1.0
  N  N184  1  0.04271000  0.67244000  0.61551000  1.0
  N  N185  1  0.43954000  0.17738000  0.31447000  1.0
  N  N186  1  0.53118000  0.28382000  0.39299000  1.0
  N  N187  1  0.38685000  0.30394000  0.36605000  1.0
  N  N188  1  0.36832000  0.82483000  0.12801000  1.0
  N  N189  1  0.32756000  0.95729000  0.88449000  1.0
  N  N190  1  0.17738000  0.43954000  0.81447000  1.0
  N  N191  1  0.28382000  0.53118000  0.89299000  1.0
  N  N192  1  0.30394000  0.38685000  0.86605000  1.0
  N  N193  1  0.82483000  0.36832000  0.62801000  1.0
  N  N194  1  0.95729000  0.32756000  0.38449000  1.0
  N  N195  1  0.56046000  0.82262000  0.68553000  1.0
  N  N196  1  0.46882000  0.71618000  0.60701000  1.0
  N  N197  1  0.61315000  0.69606000  0.63395000  1.0
  N  N198  1  0.63168000  0.17516000  0.87199000  1.0
  N  N199  1  0.67244000  0.04271000  0.11551000  1.0
  O  O200  1  0.80154000  0.70090000  0.21055000  1.0
  O  O201  1  0.59231000  0.52111000  0.05902000  1.0
  O  O202  1  0.83944000  0.41900000  0.15959000  1.0
  O  O203  1  0.02293000  0.53874000  0.36419000  1.0
  O  O204  1  0.98268000  0.65687000  0.42913000  1.0
  O  O205  1  0.62265000  0.22674000  0.01798000  1.0
  O  O206  1  0.55288000  0.21667000  0.11205000  1.0
  O  O207  1  0.54451000  0.81013000  0.09633000  1.0
  O  O208  1  0.64082000  0.87102000  0.04508000  1.0
  O  O209  1  0.92260000  0.47460000  0.48314000  1.0
  O  O210  1  0.29910000  0.19846000  0.28945000  1.0
  O  O211  1  0.47889000  0.40769000  0.44098000  1.0
  O  O212  1  0.58100000  0.16056000  0.34041000  1.0
  O  O213  1  0.46126000  0.97707000  0.13581000  1.0
  O  O214  1  0.34313000  0.01732000  0.07087000  1.0
  O  O215  1  0.77326000  0.37735000  0.48202000  1.0
  O  O216  1  0.78333000  0.44712000  0.38795000  1.0
  O  O217  1  0.18987000  0.45550000  0.40368000  1.0
  O  O218  1  0.12898000  0.35918000  0.45492000  1.0
  O  O219  1  0.52540000  0.07740000  0.01686000  1.0
  O  O220  1  0.19846000  0.29910000  0.78945000  1.0
  O  O221  1  0.40769000  0.47889000  0.94098000  1.0
  O  O222  1  0.16056000  0.58100000  0.84041000  1.0
  O  O223  1  0.97707000  0.46126000  0.63581000  1.0
  O  O224  1  0.01732000  0.34313000  0.57087000  1.0
  O  O225  1  0.37735000  0.77326000  0.98202000  1.0
  O  O226  1  0.44712000  0.78333000  0.88795000  1.0
  O  O227  1  0.45549000  0.18987000  0.90367000  1.0
  O  O228  1  0.35918000  0.12898000  0.95492000  1.0
  O  O229  1  0.07740000  0.52540000  0.51686000  1.0
  O  O230  1  0.70090000  0.80154000  0.71055000  1.0
  O  O231  1  0.52111000  0.59231000  0.55902000  1.0
  O  O232  1  0.41900000  0.83944000  0.65959000  1.0
  O  O233  1  0.53874000  0.02293000  0.86419000  1.0
  O  O234  1  0.65687000  0.98268000  0.92913000  1.0
  O  O235  1  0.22674000  0.62265000  0.51798000  1.0
  O  O236  1  0.21667000  0.55288000  0.61205000  1.0
  O  O237  1  0.81013000  0.54451000  0.59632000  1.0
  O  O238  1  0.87102000  0.64082000  0.54508000  1.0
  O  O239  1  0.47460000  0.92260000  0.98314000  1.0
