# generated using pymatgen
data_ZnH14C14(N2O)6
_symmetry_space_group_name_H-M   'P 1'
_cell_length_a   7.28530000
_cell_length_b   7.89264000
_cell_length_c   9.08396000
_cell_angle_alpha   93.56790000
_cell_angle_beta   96.51320000
_cell_angle_gamma   115.05300000
_symmetry_Int_Tables_number   1
_chemical_formula_structural   ZnH14C14(N2O)6
_chemical_formula_sum   'Zn1 H14 C14 N12 O6'
_cell_volume   466.59203796
_cell_formula_units_Z   1
loop_
 _symmetry_equiv_pos_site_id
 _symmetry_equiv_pos_as_xyz
  1  'x, y, z'
loop_
 _atom_site_type_symbol
 _atom_site_label
 _atom_site_symmetry_multiplicity
 _atom_site_fract_x
 _atom_site_fract_y
 _atom_site_fract_z
 _atom_site_occupancy
  Zn  Zn0  1  0.00000000  0.00000000  0.00000000  1.0
  H  H1  1  0.36785000  0.09865000  0.08790000  1.0
  H  H2  1  0.63215000  0.90135000  0.91210000  1.0
  H  H3  1  0.36655000  0.29838000  0.05958000  1.0
  H  H4  1  0.63345000  0.70161000  0.94042000  1.0
  H  H5  1  0.09768000  0.58079000  0.29167000  1.0
  H  H6  1  0.90232000  0.41920000  0.70833000  1.0
  H  H7  1  0.12019000  0.48507000  0.11261000  1.0
  H  H8  1  0.87982000  0.51493000  0.88739000  1.0
  H  H9  1  0.70073000  0.85261000  0.66905000  1.0
  H  H10  1  0.29927000  0.14739000  0.33095000  1.0
  H  H11  1  0.29526000  0.93640000  0.82410000  1.0
  H  H12  1  0.70474000  0.06359000  0.17590000  1.0
  H  H13  1  0.31234000  0.78456000  0.57623000  1.0
  H  H14  1  0.68766000  0.21545000  0.42377000  1.0
  C  C15  1  0.21307000  0.78716000  0.14499000  1.0
  C  C16  1  0.78693000  0.21284000  0.85500000  1.0
  C  C17  1  0.19373000  0.60268000  0.20285000  1.0
  C  C18  1  0.80628000  0.39732000  0.79714000  1.0
  C  C19  1  0.66927000  0.66923000  0.39202000  1.0
  C  C20  1  0.33073000  0.33077000  0.60798000  1.0
  C  C21  1  0.84449000  0.74515000  0.51277000  1.0
  C  C22  1  0.15551000  0.25486000  0.48723000  1.0
  C  C23  1  0.83561000  0.83294000  0.64919000  1.0
  C  C24  1  0.16439000  0.16705000  0.35081000  1.0
  C  C25  1  0.16430000  0.87927000  0.73538000  1.0
  C  C26  1  0.83570000  0.12073000  0.26462000  1.0
  C  C27  1  0.17322000  0.79533000  0.59805000  1.0
  C  C28  1  0.82678000  0.20467000  0.40195000  1.0
  N  N29  1  0.50259000  0.70254000  0.39110000  1.0
  N  N30  1  0.49741000  0.29747000  0.60889000  1.0
  N  N31  1  0.38899000  0.60686000  0.26287000  1.0
  N  N32  1  0.61101000  0.39314000  0.73713000  1.0
  N  N33  1  0.47723000  0.51776000  0.18758000  1.0
  N  N34  1  0.52277000  0.48224000  0.81242000  1.0
  N  N35  1  0.65428000  0.55499000  0.26817000  1.0
  N  N36  1  0.34572000  0.44501000  0.73183000  1.0
  N  N37  1  0.99488000  0.89686000  0.76069000  1.0
  N  N38  1  0.00512000  0.10313000  0.23932000  1.0
  N  N39  1  0.01385000  0.72588000  0.48762000  1.0
  N  N40  1  0.98616000  0.27412000  0.51238000  1.0
  O  O41  1  0.05395000  0.76910000  0.05822000  1.0
  O  O42  1  0.94605000  0.23089000  0.94177000  1.0
  O  O43  1  0.37365000  0.93655000  0.18914000  1.0
  O  O44  1  0.62635000  0.06344000  0.81086000  1.0
  O  O45  1  0.31765000  0.16632000  0.01445000  1.0
  O  O46  1  0.68235000  0.83368000  0.98555000  1.0
