# generated using pymatgen
data_CuH6C11SN7
_symmetry_space_group_name_H-M   'P 1'
_cell_length_a   5.51267000
_cell_length_b   5.96571000
_cell_length_c   10.06523268
_cell_angle_alpha   89.36061219
_cell_angle_beta   74.12253528
_cell_angle_gamma   87.58780000
_symmetry_Int_Tables_number   1
_chemical_formula_structural   CuH6C11SN7
_chemical_formula_sum   'Cu1 H6 C11 S1 N7'
_cell_volume   318.10449944
_cell_formula_units_Z   1
loop_
 _symmetry_equiv_pos_site_id
 _symmetry_equiv_pos_as_xyz
  1  'x, y, z'
loop_
 _atom_site_type_symbol
 _atom_site_label
 _atom_site_symmetry_multiplicity
 _atom_site_fract_x
 _atom_site_fract_y
 _atom_site_fract_z
 _atom_site_occupancy
  Cu  Cu0  1  0.62577000  0.49026000  0.99996000  1.0
  H  H1  1  0.96215000  0.24408000  0.14334000  1.0
  H  H2  1  0.10505000  0.24439000  0.85661000  1.0
  H  H3  1  0.53373000  0.84420000  0.22158000  1.0
  H  H4  1  0.75497000  0.84440000  0.77818000  1.0
  H  H5  1  0.70512000  0.91812000  0.42309000  1.0
  H  H6  1  0.12809000  0.91827000  0.57692000  1.0
  C  C7  1  0.42750000  0.01361000  0.00000000  1.0
  C  C8  1  0.00325000  0.44306000  0.31532000  1.0
  C  C9  1  0.31828000  0.44342000  0.68486000  1.0
  C  C10  1  0.18293000  0.28927000  0.35017000  1.0
  C  C11  1  0.53297000  0.28978000  0.65000000  1.0
  C  C12  1  0.90575000  0.39646000  0.20463000  1.0
  C  C13  1  0.11004000  0.39677000  0.79538000  1.0
  C  C14  1  0.67029000  0.72767000  0.24827000  1.0
  C  C15  1  0.91824000  0.72790000  0.75164000  1.0
  C  C16  1  0.76731000  0.76870000  0.35970000  1.0
  C  C17  1  0.12678000  0.76893000  0.64033000  1.0
  S  S18  1  0.30948000  0.76696000  0.99995000  1.0
  N  N19  1  0.50399000  0.19630000  0.00000000  1.0
  N  N20  1  0.93657000  0.62896000  0.39355000  1.0
  N  N21  1  0.32994000  0.62925000  0.60664000  1.0
  N  N22  1  0.73954000  0.54189000  0.17018000  1.0
  N  N23  1  0.90935000  0.54220000  0.82972000  1.0
  N  N24  1  0.32887000  0.16372000  0.37842000  1.0
  N  N25  1  0.70726000  0.16436000  0.62157000  1.0
