# generated using pymatgen
data_MnH17C19SN3O7
_symmetry_space_group_name_H-M   'P 1'
_cell_length_a   8.51462000
_cell_length_b   11.59680000
_cell_length_c   27.27520000
_cell_angle_alpha   78.97200000
_cell_angle_beta   89.99980000
_cell_angle_gamma   89.99960000
_symmetry_Int_Tables_number   1
_chemical_formula_structural   MnH17C19SN3O7
_chemical_formula_sum   'Mn4 H68 C76 S4 N12 O28'
_cell_volume   2643.48377861
_cell_formula_units_Z   4
loop_
 _symmetry_equiv_pos_site_id
 _symmetry_equiv_pos_as_xyz
  1  'x, y, z'
loop_
 _atom_site_type_symbol
 _atom_site_label
 _atom_site_symmetry_multiplicity
 _atom_site_fract_x
 _atom_site_fract_y
 _atom_site_fract_z
 _atom_site_occupancy
  Mn  Mn0  1  0.63371000  0.74490000  0.19718000  1.0
  Mn  Mn1  1  0.13370000  0.75510000  0.30282000  1.0
  Mn  Mn2  1  0.36629000  0.25510000  0.80282000  1.0
  Mn  Mn3  1  0.86629000  0.24491000  0.69718000  1.0
  H  H4  1  0.88941000  0.75636000  0.14506000  1.0
  H  H5  1  0.38940000  0.74365000  0.35494000  1.0
  H  H6  1  0.11059000  0.24364000  0.85494000  1.0
  H  H7  1  0.61059000  0.25636000  0.64505000  1.0
  H  H8  1  0.96628000  0.76754000  0.19816000  1.0
  H  H9  1  0.46627000  0.73246000  0.30185000  1.0
  H  H10  1  0.03371000  0.23246000  0.80184000  1.0
  H  H11  1  0.53370000  0.26754000  0.69816000  1.0
  H  H12  1  0.03797000  0.89299000  0.09863000  1.0
  H  H13  1  0.53797000  0.60701000  0.40137000  1.0
  H  H14  1  0.96202000  0.10700000  0.90137000  1.0
  H  H15  1  0.46203000  0.39299000  0.59863000  1.0
  H  H16  1  0.23820000  0.75918000  0.11960000  1.0
  H  H17  1  0.73820000  0.74082000  0.38040000  1.0
  H  H18  1  0.76179000  0.24081000  0.88040000  1.0
  H  H19  1  0.26180000  0.25919000  0.61960000  1.0
  H  H20  1  0.36971000  0.87223000  0.12450000  1.0
  H  H21  1  0.86971000  0.62778000  0.37550000  1.0
  H  H22  1  0.63029000  0.12777000  0.87550000  1.0
  H  H23  1  0.13029000  0.37223000  0.62450000  1.0
  H  H24  1  0.11225000  0.12050000  0.00445000  1.0
  H  H25  1  0.61225000  0.37949000  0.49555000  1.0
  H  H26  1  0.88775000  0.87949000  0.99555000  1.0
  H  H27  1  0.38775000  0.62050000  0.50445000  1.0
  H  H28  1  0.58543000  0.18898000  0.95292000  1.0
  H  H29  1  0.08544000  0.31103000  0.54707000  1.0
  H  H30  1  0.41457000  0.81102000  0.04708000  1.0
  H  H31  1  0.91456000  0.68897000  0.45293000  1.0
  H  H32  1  0.68343000  0.14410000  0.04112000  1.0
  H  H33  1  0.18344000  0.35590000  0.45888000  1.0
  H  H34  1  0.31657000  0.85589000  0.95888000  1.0
  H  H35  1  0.81656000  0.64410000  0.54112000  1.0
  H  H36  1  0.49147000  0.09086000  0.11108000  1.0
  H  H37  1  0.99147000  0.40914000  0.38892000  1.0
  H  H38  1  0.50853000  0.90913000  0.88892000  1.0
  H  H39  1  0.00853000  0.59087000  0.61108000  1.0
  H  H40  1  0.44901000  0.92397000  0.25178000  1.0
  H  H41  1  0.94901000  0.57604000  0.24822000  1.0
  H  H42  1  0.55100000  0.07603000  0.74822000  1.0
  H  H43  1  0.05100000  0.42397000  0.75178000  1.0
  H  H44  1  0.43586000  0.13720000  0.25153000  1.0
  H  H45  1  0.93587000  0.36281000  0.24847000  1.0
  H  H46  1  0.56414000  0.86280000  0.74847000  1.0
  H  H47  1  0.06414000  0.63720000  0.75153000  1.0
  H  H48  1  0.83024000  0.18098000  0.14892000  1.0
  H  H49  1  0.33025000  0.31901000  0.35108000  1.0
  H  H50  1  0.16976000  0.81902000  0.85108000  1.0
  H  H51  1  0.66977000  0.68099000  0.64892000  1.0
  H  H52  1  0.82003000  0.96864000  0.15123000  1.0
  H  H53  1  0.32004000  0.53136000  0.34877000  1.0
  H  H54  1  0.17998000  0.03136000  0.84877000  1.0
  H  H55  1  0.67998000  0.46864000  0.65123000  1.0
  H  H56  1  0.53542000  0.29810000  0.27371000  1.0
  H  H57  1  0.03542000  0.20190000  0.22629000  1.0
  H  H58  1  0.46458000  0.70190000  0.72629000  1.0
  H  H59  1  0.96458000  0.79811000  0.77371000  1.0
  H  H60  1  0.52640000  0.51455000  0.26640000  1.0
  H  H61  1  0.02639000  0.98545000  0.23360000  1.0
  H  H62  1  0.47360000  0.48545000  0.73360000  1.0
  H  H63  1  0.97361000  0.01455000  0.76640000  1.0
  H  H64  1  0.71583000  0.57114000  0.12420000  1.0
  H  H65  1  0.21584000  0.92886000  0.37580000  1.0
  H  H66  1  0.28417000  0.42886000  0.87580000  1.0
  H  H67  1  0.78416000  0.07114000  0.62420000  1.0
  H  H68  1  0.72587000  0.35680000  0.12378000  1.0
  H  H69  1  0.22588000  0.14320000  0.37622000  1.0
  H  H70  1  0.27412000  0.64319000  0.87622000  1.0
  H  H71  1  0.77412000  0.85680000  0.62378000  1.0
  C  C72  1  0.26155000  0.79161000  0.19340000  1.0
  C  C73  1  0.76151000  0.70839000  0.30660000  1.0
  C  C74  1  0.73845000  0.20839000  0.80660000  1.0
  C  C75  1  0.23846000  0.29161000  0.69340000  1.0
  C  C76  1  0.25330000  0.83688000  0.13683000  1.0
  C  C77  1  0.75329000  0.66312000  0.36317000  1.0
  C  C78  1  0.74670000  0.16312000  0.86317000  1.0
  C  C79  1  0.24671000  0.33688000  0.63683000  1.0
  C  C80  1  0.29221000  0.09997000  0.06160000  1.0
  C  C81  1  0.79221000  0.40003000  0.43840000  1.0
  C  C82  1  0.70778000  0.90003000  0.93840000  1.0
  C  C83  1  0.20778000  0.59997000  0.56160000  1.0
  C  C84  1  0.23715000  0.12410000  0.01254000  1.0
  C  C85  1  0.73715000  0.37590000  0.48746000  1.0
  C  C86  1  0.76285000  0.87590000  0.98746000  1.0
  C  C87  1  0.26285000  0.62410000  0.51254000  1.0
  C  C88  1  0.34366000  0.15667000  0.97338000  1.0
  C  C89  1  0.84367000  0.34333000  0.52662000  1.0
  C  C90  1  0.65633000  0.84333000  0.02662000  1.0
  C  C91  1  0.15633000  0.65667000  0.47338000  1.0
  C  C92  1  0.50432000  0.16321000  0.98391000  1.0
  C  C93  1  0.00433000  0.33679000  0.51609000  1.0
  C  C94  1  0.49567000  0.83678000  0.01609000  1.0
  C  C95  1  0.99567000  0.66321000  0.48391000  1.0
  C  C96  1  0.55840000  0.13859000  0.03307000  1.0
  C  C97  1  0.05840000  0.36141000  0.46693000  1.0
  C  C98  1  0.44160000  0.86141000  0.96693000  1.0
  C  C99  1  0.94160000  0.63858000  0.53308000  1.0
  C  C100  1  0.45210000  0.10739000  0.07240000  1.0
  C  C101  1  0.95210000  0.39261000  0.42760000  1.0
  C  C102  1  0.54789000  0.89260000  0.92760000  1.0
  C  C103  1  0.04789000  0.60739000  0.57240000  1.0
  C  C104  1  0.28372000  0.18751000  0.92058000  1.0
  C  C105  1  0.78373000  0.31249000  0.57942000  1.0
  C  C106  1  0.71627000  0.81249000  0.07942000  1.0
  C  C107  1  0.21628000  0.68751000  0.42058000  1.0
  C  C108  1  0.53088000  0.98421000  0.22924000  1.0
  C  C109  1  0.03088000  0.51580000  0.27076000  1.0
  C  C110  1  0.46912000  0.01579000  0.77076000  1.0
  C  C111  1  0.96913000  0.48421000  0.72924000  1.0
  C  C112  1  0.52634000  0.10379000  0.22970000  1.0
  C  C113  1  0.02635000  0.39622000  0.27030000  1.0
  C  C114  1  0.47366000  0.89621000  0.77030000  1.0
  C  C115  1  0.97367000  0.60378000  0.72971000  1.0
  C  C116  1  0.63310000  0.17966000  0.20051000  1.0
  C  C117  1  0.13311000  0.32035000  0.29949000  1.0
  C  C118  1  0.36690000  0.82034000  0.79949000  1.0
  C  C119  1  0.86691000  0.67965000  0.70051000  1.0
  C  C120  1  0.74177000  0.12914000  0.17217000  1.0
  C  C121  1  0.24177000  0.37086000  0.32783000  1.0
  C  C122  1  0.25823000  0.87087000  0.82783000  1.0
  C  C123  1  0.75823000  0.62913000  0.67217000  1.0
  C  C124  1  0.73764000  0.00886000  0.17350000  1.0
  C  C125  1  0.23765000  0.49114000  0.32650000  1.0
  C  C126  1  0.26236000  0.99114000  0.82650000  1.0
  C  C127  1  0.76236000  0.50886000  0.67350000  1.0
  C  C128  1  0.62946000  0.30752000  0.19884000  1.0
  C  C129  1  0.12947000  0.19248000  0.30116000  1.0
  C  C130  1  0.37053000  0.69248000  0.80116000  1.0
  C  C131  1  0.87054000  0.80753000  0.69884000  1.0
  C  C132  1  0.57269000  0.35457000  0.23909000  1.0
  C  C133  1  0.07269000  0.14543000  0.26090000  1.0
  C  C134  1  0.42731000  0.64543000  0.76091000  1.0
  C  C135  1  0.92732000  0.85458000  0.73909000  1.0
  C  C136  1  0.56831000  0.47569000  0.23553000  1.0
  C  C137  1  0.06831000  0.02431000  0.26447000  1.0
  C  C138  1  0.43169000  0.52431000  0.76447000  1.0
  C  C139  1  0.93169000  0.97569000  0.73553000  1.0
  C  C140  1  0.67532000  0.50717000  0.15636000  1.0
  C  C141  1  0.17532000  0.99283000  0.34364000  1.0
  C  C142  1  0.32468000  0.49283000  0.84364000  1.0
  C  C143  1  0.82468000  0.00717000  0.65636000  1.0
  C  C144  1  0.68222000  0.38737000  0.15662000  1.0
  C  C145  1  0.18222000  0.11263000  0.34338000  1.0
  C  C146  1  0.31778000  0.61263000  0.84338000  1.0
  C  C147  1  0.81777000  0.88738000  0.65662000  1.0
  S  S148  1  0.15489000  0.06068000  0.11110000  1.0
  S  S149  1  0.65489000  0.43933000  0.38890000  1.0
  S  S150  1  0.84511000  0.93932000  0.88890000  1.0
  S  S151  1  0.34512000  0.56068000  0.61110000  1.0
  N  N152  1  0.12801000  0.91931000  0.11913000  1.0
  N  N153  1  0.62801000  0.58068000  0.38087000  1.0
  N  N154  1  0.87199000  0.08068000  0.88087000  1.0
  N  N155  1  0.37199000  0.41931000  0.61913000  1.0
  N  N156  1  0.63392000  0.93664000  0.20131000  1.0
  N  N157  1  0.13393000  0.56336000  0.29869000  1.0
  N  N158  1  0.36608000  0.06336000  0.79869000  1.0
  N  N159  1  0.86609000  0.43665000  0.70131000  1.0
  N  N160  1  0.61844000  0.55145000  0.19493000  1.0
  N  N161  1  0.11844000  0.94855000  0.30506000  1.0
  N  N162  1  0.38156000  0.44855000  0.80506000  1.0
  N  N163  1  0.88156000  0.05145000  0.69493000  1.0
  O  O164  1  0.38586000  0.73893000  0.21010000  1.0
  O  O165  1  0.88587000  0.76109000  0.28990000  1.0
  O  O166  1  0.61414000  0.26107000  0.78990000  1.0
  O  O167  1  0.11414000  0.23892000  0.71010000  1.0
  O  O168  1  0.14366000  0.80569000  0.22051000  1.0
  O  O169  1  0.64367000  0.69431000  0.27950000  1.0
  O  O170  1  0.85634000  0.19431000  0.77949000  1.0
  O  O171  1  0.35633000  0.30569000  0.72051000  1.0
  O  O172  1  0.22871000  0.08619000  0.15558000  1.0
  O  O173  1  0.72871000  0.41381000  0.34442000  1.0
  O  O174  1  0.77129000  0.91380000  0.84442000  1.0
  O  O175  1  0.27128000  0.58619000  0.65558000  1.0
  O  O176  1  0.00512000  0.11274000  0.09399000  1.0
  O  O177  1  0.50512000  0.38726000  0.40601000  1.0
  O  O178  1  0.99488000  0.88725000  0.90601000  1.0
  O  O179  1  0.49488000  0.61275000  0.59399000  1.0
  O  O180  1  0.13515000  0.19390000  0.91418000  1.0
  O  O181  1  0.63516000  0.30610000  0.58582000  1.0
  O  O182  1  0.86485000  0.80610000  0.08582000  1.0
  O  O183  1  0.36484000  0.69390000  0.41418000  1.0
  O  O184  1  0.38535000  0.20798000  0.88567000  1.0
  O  O185  1  0.88536000  0.29202000  0.61433000  1.0
  O  O186  1  0.61465000  0.79202000  0.11433000  1.0
  O  O187  1  0.11465000  0.70798000  0.38567000  1.0
  O  O188  1  0.88097000  0.72875000  0.18239000  1.0
  O  O189  1  0.38097000  0.77124000  0.31761000  1.0
  O  O190  1  0.11903000  0.27125000  0.81761000  1.0
  O  O191  1  0.61905000  0.22874000  0.68240000  1.0
