# generated using pymatgen
data_ZnH10(C2N)4
_symmetry_space_group_name_H-M   'P 1'
_cell_length_a   14.72369370
_cell_length_b   14.72340000
_cell_length_c   14.72370000
_cell_angle_alpha   109.47100000
_cell_angle_beta   109.47235848
_cell_angle_gamma   109.47070750
_symmetry_Int_Tables_number   1
_chemical_formula_structural   ZnH10(C2N)4
_chemical_formula_sum   'Zn6 H60 C48 N24'
_cell_volume   2457.07146616
_cell_formula_units_Z   6
loop_
 _symmetry_equiv_pos_site_id
 _symmetry_equiv_pos_as_xyz
  1  'x, y, z'
loop_
 _atom_site_type_symbol
 _atom_site_label
 _atom_site_symmetry_multiplicity
 _atom_site_fract_x
 _atom_site_fract_y
 _atom_site_fract_z
 _atom_site_occupancy
  Zn  Zn0  1  0.75000000  0.25000000  0.50001000  1.0
  Zn  Zn1  1  0.50000000  0.75000000  0.25000000  1.0
  Zn  Zn2  1  0.25000000  0.49999000  0.75000000  1.0
  Zn  Zn3  1  0.75000000  0.50000000  0.25000000  1.0
  Zn  Zn4  1  0.25000000  0.74999000  0.50000000  1.0
  Zn  Zn5  1  0.50000000  0.25000000  0.75000000  1.0
  H  H6  1  0.88437000  0.47497000  0.73589000  1.0
  H  H7  1  0.73589000  0.88438000  0.47498000  1.0
  H  H8  1  0.47498000  0.73589000  0.88438000  1.0
  H  H9  1  0.85152000  0.11563000  0.59061000  1.0
  H  H10  1  0.73909000  0.26411000  0.14848000  1.0
  H  H11  1  0.40939000  0.52502000  0.26091000  1.0
  H  H12  1  0.73909000  0.14849000  0.26412000  1.0
  H  H13  1  0.52503000  0.40940000  0.26091000  1.0
  H  H14  1  0.11563000  0.85151000  0.59060000  1.0
  H  H15  1  0.40940000  0.26092000  0.52503000  1.0
  H  H16  1  0.85152000  0.59060000  0.11563000  1.0
  H  H17  1  0.52503000  0.26092000  0.40940000  1.0
  H  H18  1  0.11563000  0.59060000  0.85151000  1.0
  H  H19  1  0.26412000  0.14849000  0.73909000  1.0
  H  H20  1  0.26411000  0.73909000  0.14848000  1.0
  H  H21  1  0.88437000  0.73588000  0.47497000  1.0
  H  H22  1  0.73589000  0.47497000  0.88437000  1.0
  H  H23  1  0.47498000  0.88437000  0.73588000  1.0
  H  H24  1  0.59061000  0.11563000  0.85151000  1.0
  H  H25  1  0.14848000  0.73908000  0.26411000  1.0
  H  H26  1  0.26091000  0.40940000  0.52503000  1.0
  H  H27  1  0.59060000  0.85151000  0.11563000  1.0
  H  H28  1  0.26091000  0.52502000  0.40939000  1.0
  H  H29  1  0.14848000  0.26410000  0.73909000  1.0
  H  H30  1  0.00000000  0.30422000  0.46996000  1.0
  H  H31  1  0.46995000  0.00000000  0.30423000  1.0
  H  H32  1  0.30422000  0.46995000  0.00000000  1.0
  H  H33  1  0.83427000  0.53005000  0.53004000  1.0
  H  H34  1  0.69577000  0.69578000  0.16573000  1.0
  H  H35  1  1.00000000  0.46995000  0.30423000  1.0
  H  H36  1  0.69578000  0.16573000  0.69578000  1.0
  H  H37  1  0.46995000  0.30422000  0.00000000  1.0
  H  H38  1  0.53005000  0.53005000  0.83428000  1.0
  H  H39  1  0.53005000  0.83427000  0.53005000  1.0
  H  H40  1  0.30423000  0.00001000  0.46996000  1.0
  H  H41  1  0.16573000  0.69578000  0.69577000  1.0
  H  H42  1  0.07392000  0.26982000  0.56293000  1.0
  H  H43  1  0.56292000  0.07392000  0.26982000  1.0
  H  H44  1  0.26982000  0.56293000  0.07392000  1.0
  H  H45  1  0.48900000  0.92607000  0.19590000  1.0
  H  H46  1  0.70690000  0.43708000  0.51100000  1.0
  H  H47  1  0.80410000  0.73019000  0.29311000  1.0
  H  H48  1  0.70690000  0.51100000  0.43707000  1.0
  H  H49  1  0.73017000  0.80410000  0.29310000  1.0
  H  H50  1  0.92607000  0.48900000  0.19590000  1.0
  H  H51  1  0.80410000  0.29310000  0.73018000  1.0
  H  H52  1  0.48900000  0.19590000  0.92607000  1.0
  H  H53  1  0.73018000  0.29310000  0.80410000  1.0
  H  H54  1  0.92607000  0.19590000  0.48900000  1.0
  H  H55  1  0.43707000  0.51100000  0.70690000  1.0
  H  H56  1  0.43707000  0.70689000  0.51099000  1.0
  H  H57  1  0.07392000  0.56292000  0.26982000  1.0
  H  H58  1  0.56292000  0.26982000  0.07391000  1.0
  H  H59  1  0.26982000  0.07392000  0.56292000  1.0
  H  H60  1  0.19590000  0.92608000  0.48900000  1.0
  H  H61  1  0.51100000  0.70690000  0.43707000  1.0
  H  H62  1  0.29310000  0.80410000  0.73017000  1.0
  H  H63  1  0.19589000  0.48900000  0.92607000  1.0
  H  H64  1  0.29310000  0.73018000  0.80410000  1.0
  H  H65  1  0.51099000  0.43707000  0.70689000  1.0
  C  C66  1  0.00001000  0.36070000  0.62417000  1.0
  C  C67  1  0.62416000  0.00000000  0.36068000  1.0
  C  C68  1  0.36069000  0.62416000  0.00000000  1.0
  C  C69  1  0.73653000  0.37584000  0.37584000  1.0
  C  C70  1  0.63931000  0.63931000  0.26347000  1.0
  C  C71  1  0.00000000  0.62416000  0.36070000  1.0
  C  C72  1  0.63931000  0.26347000  0.63931000  1.0
  C  C73  1  0.62416000  0.36069000  0.00000000  1.0
  C  C74  1  0.37584000  0.37584000  0.73653000  1.0
  C  C75  1  0.37584000  0.73654000  0.37585000  1.0
  C  C76  1  0.36069000  0.00000000  0.62416000  1.0
  C  C77  1  0.26347000  0.63931000  0.63931000  1.0
  C  C78  1  0.94281000  0.45490000  0.71718000  1.0
  C  C79  1  0.71719000  0.94282000  0.45490000  1.0
  C  C80  1  0.45490000  0.71718000  0.94281000  1.0
  C  C81  1  0.77437000  0.05718000  0.51208000  1.0
  C  C82  1  0.73772000  0.28282000  0.22563000  1.0
  C  C83  1  0.48791000  0.54510000  0.26228000  1.0
  C  C84  1  0.73771000  0.22562000  0.28281000  1.0
  C  C85  1  0.54510000  0.48791000  0.26229000  1.0
  C  C86  1  0.05719000  0.77437000  0.51209000  1.0
  C  C87  1  0.48791000  0.26229000  0.54510000  1.0
  C  C88  1  0.77438000  0.51209000  0.05719000  1.0
  C  C89  1  0.54510000  0.26229000  0.48792000  1.0
  C  C90  1  0.05718000  0.51208000  0.77437000  1.0
  C  C91  1  0.28281000  0.22563000  0.73771000  1.0
  C  C92  1  0.28282000  0.73772000  0.22563000  1.0
  C  C93  1  0.94282000  0.71719000  0.45491000  1.0
  C  C94  1  0.71719000  0.45490000  0.94282000  1.0
  C  C95  1  0.45490000  0.94281000  0.71718000  1.0
  C  C96  1  0.51209000  0.05719000  0.77437000  1.0
  C  C97  1  0.22563000  0.73772000  0.28281000  1.0
  C  C98  1  0.26229000  0.48791000  0.54510000  1.0
  C  C99  1  0.51209000  0.77438000  0.05719000  1.0
  C  C100  1  0.26228000  0.54509000  0.48791000  1.0
  C  C101  1  0.22563000  0.28281000  0.73772000  1.0
  C  C102  1  0.00000000  0.27809000  0.53190000  1.0
  C  C103  1  0.53189000  0.00000000  0.27809000  1.0
  C  C104  1  0.27808000  0.53189000  0.00000000  1.0
  C  C105  1  0.74620000  0.46812000  0.46811000  1.0
  C  C106  1  0.72191000  0.72192000  0.25380000  1.0
  C  C107  1  0.00000000  0.53189000  0.27809000  1.0
  C  C108  1  0.72191000  0.25380000  0.72191000  1.0
  C  C109  1  0.53189000  0.27809000  0.00000000  1.0
  C  C110  1  0.46811000  0.46811000  0.74620000  1.0
  C  C111  1  0.46811000  0.74619000  0.46811000  1.0
  C  C112  1  0.27809000  0.00001000  0.53189000  1.0
  C  C113  1  0.25380000  0.72191000  0.72191000  1.0
  N  N114  1  0.90713000  0.35891000  0.62294000  1.0
  N  N115  1  0.62295000  0.90714000  0.35893000  1.0
  N  N116  1  0.35892000  0.62294000  0.90714000  1.0
  N  N117  1  0.71581000  0.09287000  0.45179000  1.0
  N  N118  1  0.73598000  0.37706000  0.28420000  1.0
  N  N119  1  0.54821000  0.64108000  0.26402000  1.0
  N  N120  1  0.73598000  0.28419000  0.37706000  1.0
  N  N121  1  0.64108000  0.54821000  0.26403000  1.0
  N  N122  1  0.09287000  0.71581000  0.45179000  1.0
  N  N123  1  0.54822000  0.26403000  0.64108000  1.0
  N  N124  1  0.71581000  0.45179000  0.09286000  1.0
  N  N125  1  0.64108000  0.26403000  0.54821000  1.0
  N  N126  1  0.09287000  0.45179000  0.71582000  1.0
  N  N127  1  0.37705000  0.28418000  0.73597000  1.0
  N  N128  1  0.37706000  0.73598000  0.28420000  1.0
  N  N129  1  0.90713000  0.62294000  0.35892000  1.0
  N  N130  1  0.62295000  0.35892000  0.90713000  1.0
  N  N131  1  0.35892000  0.90713000  0.62294000  1.0
  N  N132  1  0.45179000  0.09287000  0.71581000  1.0
  N  N133  1  0.28419000  0.73598000  0.37705000  1.0
  N  N134  1  0.26402000  0.54821000  0.64107000  1.0
  N  N135  1  0.45179000  0.71581000  0.09287000  1.0
  N  N136  1  0.26402000  0.64108000  0.54821000  1.0
  N  N137  1  0.28419000  0.37706000  0.73598000  1.0
