# generated using pymatgen
data_Ag3H7C13(NO3)2
_symmetry_space_group_name_H-M   'P 1'
_cell_length_a   8.54865000
_cell_length_b   10.52880000
_cell_length_c   15.86700000
_cell_angle_alpha   97.27450000
_cell_angle_beta   98.42550000
_cell_angle_gamma   102.77600000
_symmetry_Int_Tables_number   1
_chemical_formula_structural   Ag3H7C13(NO3)2
_chemical_formula_sum   'Ag12 H28 C52 N8 O24'
_cell_volume   1358.90410426
_cell_formula_units_Z   4
loop_
 _symmetry_equiv_pos_site_id
 _symmetry_equiv_pos_as_xyz
  1  'x, y, z'
loop_
 _atom_site_type_symbol
 _atom_site_label
 _atom_site_symmetry_multiplicity
 _atom_site_fract_x
 _atom_site_fract_y
 _atom_site_fract_z
 _atom_site_occupancy
  Ag  Ag0  1  0.27681000  0.27615000  0.18304000  1.0
  Ag  Ag1  1  0.72319000  0.72385000  0.81696000  1.0
  Ag  Ag2  1  0.48007000  0.41797000  0.39795000  1.0
  Ag  Ag3  1  0.51993000  0.58203000  0.60205000  1.0
  Ag  Ag4  1  0.21349000  0.18876000  0.33620000  1.0
  Ag  Ag5  1  0.78651000  0.81124000  0.66380000  1.0
  Ag  Ag6  1  0.67918000  0.30471000  0.25747000  1.0
  Ag  Ag7  1  0.32082000  0.69529000  0.74252000  1.0
  Ag  Ag8  1  0.92825000  0.12538000  0.18210000  1.0
  Ag  Ag9  1  0.07175000  0.87462000  0.81790000  1.0
  Ag  Ag10  1  0.11570000  0.99231000  0.08208000  1.0
  Ag  Ag11  1  0.88431000  0.00768000  0.91792000  1.0
  H  H12  1  0.84343000  0.00989000  0.49124000  1.0
  H  H13  1  0.15657000  0.99011000  0.50876000  1.0
  H  H14  1  0.51427000  0.25405000  0.54832000  1.0
  H  H15  1  0.48573000  0.74595000  0.45168000  1.0
  H  H16  1  0.90320000  0.35116000  0.79313000  1.0
  H  H17  1  0.09680000  0.64883000  0.20687000  1.0
  H  H18  1  0.57512000  0.42288000  0.09165000  1.0
  H  H19  1  0.42488000  0.57712000  0.90835000  1.0
  H  H20  1  0.85143000  0.10801000  0.35422000  1.0
  H  H21  1  0.14857000  0.89199000  0.64577000  1.0
  H  H22  1  0.07450000  0.52595000  0.58278000  1.0
  H  H23  1  0.92550000  0.47405000  0.41723000  1.0
  H  H24  1  0.66992000  0.08647000  0.59324000  1.0
  H  H25  1  0.33008000  0.91353000  0.40675000  1.0
  H  H26  1  0.14637000  0.14490000  0.62311000  1.0
  H  H27  1  0.85362000  0.85510000  0.37689000  1.0
  H  H28  1  0.02317000  0.24419000  0.01981000  1.0
  H  H29  1  0.97683000  0.75582000  0.98019000  1.0
  H  H30  1  0.40364000  0.79955000  0.30169000  1.0
  H  H31  1  0.59636000  0.20045000  0.69831000  1.0
  H  H32  1  0.55274000  0.00434000  0.09763000  1.0
  H  H33  1  0.44726000  0.99566000  0.90237000  1.0
  H  H34  1  0.65425000  0.62684000  0.11959000  1.0
  H  H35  1  0.34575000  0.37316000  0.88041000  1.0
  H  H36  1  0.91372000  0.38055000  0.91785000  1.0
  H  H37  1  0.08628000  0.61946000  0.08215000  1.0
  H  H38  1  0.68143000  0.48000000  0.95614000  1.0
  H  H39  1  0.31857000  0.52001000  0.04386000  1.0
  C  C40  1  0.98337000  0.45117000  0.69168000  1.0
  C  C41  1  0.01663000  0.54883000  0.30832000  1.0
  C  C42  1  0.77452000  0.08259000  0.47702000  1.0
  C  C43  1  0.22548000  0.91741000  0.52298000  1.0
  C  C44  1  0.59112000  0.21496000  0.50790000  1.0
  C  C45  1  0.40887000  0.78504000  0.49209000  1.0
  C  C46  1  0.96624000  0.34690000  0.73862000  1.0
  C  C47  1  0.03376000  0.65309000  0.26138000  1.0
  C  C48  1  0.67336000  0.38568000  0.06939000  1.0
  C  C49  1  0.32664000  0.61432000  0.93061000  1.0
  C  C50  1  0.02780000  0.23765000  0.71541000  1.0
  C  C51  1  0.97220000  0.76235000  0.28459000  1.0
  C  C52  1  0.77778000  0.13536000  0.40058000  1.0
  C  C53  1  0.22222000  0.86464000  0.59942000  1.0
  C  C54  1  0.06120000  0.44498000  0.61966000  1.0
  C  C55  1  0.93880000  0.55502000  0.38034000  1.0
  C  C56  1  0.01714000  0.13059000  0.76915000  1.0
  C  C57  1  0.98286000  0.86941000  0.23085000  1.0
  C  C58  1  0.67848000  0.12390000  0.53257000  1.0
  C  C59  1  0.32152000  0.87609000  0.46743000  1.0
  C  C60  1  0.10049000  0.23054000  0.64220000  1.0
  C  C61  1  0.89951000  0.76946000  0.35780000  1.0
  C  C62  1  0.11752000  0.33346000  0.59396000  1.0
  C  C63  1  0.88248000  0.66654000  0.40604000  1.0
  C  C64  1  0.91826000  0.28376000  0.02942000  1.0
  C  C65  1  0.08175000  0.71625000  0.97058000  1.0
  C  C66  1  0.46273000  0.80501000  0.24563000  1.0
  C  C67  1  0.53727000  0.19498000  0.75437000  1.0
  C  C68  1  0.92127000  0.56941000  0.72048000  1.0
  C  C69  1  0.07874000  0.43059000  0.27952000  1.0
  C  C70  1  0.69727000  0.82591000  0.02402000  1.0
  C  C71  1  0.30273000  0.17409000  0.97598000  1.0
  C  C72  1  0.54665000  0.91942000  0.13061000  1.0
  C  C73  1  0.45335000  0.08058000  0.86938000  1.0
  C  C74  1  0.19731000  0.32120000  0.51552000  1.0
  C  C75  1  0.80269000  0.67881000  0.48449000  1.0
  C  C76  1  0.47127000  0.91429000  0.20310000  1.0
  C  C77  1  0.52873000  0.08571000  0.79690000  1.0
  C  C78  1  0.51704000  0.58252000  0.26057000  1.0
  C  C79  1  0.48296000  0.41748000  0.73943000  1.0
  C  C80  1  0.60128000  0.70654000  0.14247000  1.0
  C  C81  1  0.39872000  0.29345000  0.85753000  1.0
  C  C82  1  0.61198000  0.81566000  0.10007000  1.0
  C  C83  1  0.38802000  0.18434000  0.89993000  1.0
  C  C84  1  0.40019000  0.02626000  0.23328000  1.0
  C  C85  1  0.59981000  0.97374000  0.76672000  1.0
  C  C86  1  0.52744000  0.70067000  0.21552000  1.0
  C  C87  1  0.47256000  0.29933000  0.78448000  1.0
  C  C88  1  0.85905000  0.36258000  0.97424000  1.0
  C  C89  1  0.14094000  0.63743000  0.02576000  1.0
  C  C90  1  0.73213000  0.41512000  0.99457000  1.0
  C  C91  1  0.26787000  0.58489000  0.00543000  1.0
  N  N92  1  0.85607000  0.25813000  0.09980000  1.0
  N  N93  1  0.14393000  0.74188000  0.90020000  1.0
  N  N94  1  0.69053000  0.22128000  0.37943000  1.0
  N  N95  1  0.30947000  0.77872000  0.62057000  1.0
  N  N96  1  0.59657000  0.26063000  0.43327000  1.0
  N  N97  1  0.40343000  0.73937000  0.56673000  1.0
  N  N98  1  0.73472000  0.31052000  0.12080000  1.0
  N  N99  1  0.26529000  0.68948000  0.87920000  1.0
  O  O100  1  0.05791000  0.02601000  0.73975000  1.0
  O  O101  1  0.94209000  0.97399000  0.26025000  1.0
  O  O102  1  0.18480000  0.20323000  0.47863000  1.0
  O  O103  1  0.81521000  0.79678000  0.52138000  1.0
  O  O104  1  0.27002000  0.42630000  0.49235000  1.0
  O  O105  1  0.72998000  0.57371000  0.50765000  1.0
  O  O106  1  0.33488000  0.02293000  0.29983000  1.0
  O  O107  1  0.66512000  0.97707000  0.70017000  1.0
  O  O108  1  0.95954000  0.66970000  0.68341000  1.0
  O  O109  1  0.04046000  0.33030000  0.31660000  1.0
  O  O110  1  0.41141000  0.11854000  0.18679000  1.0
  O  O111  1  0.58859000  0.88146000  0.81321000  1.0
  O  O112  1  0.70800000  0.72355000  0.97671000  1.0
  O  O113  1  0.29200000  0.27645000  0.02330000  1.0
  O  O114  1  0.83920000  0.56181000  0.78145000  1.0
  O  O115  1  0.16080000  0.43820000  0.21855000  1.0
  O  O116  1  0.54322000  0.47946000  0.21946000  1.0
  O  O117  1  0.45678000  0.52054000  0.78054000  1.0
  O  O118  1  0.75570000  0.94611000  0.01513000  1.0
  O  O119  1  0.24430000  0.05389000  0.98487000  1.0
  O  O120  1  0.97064000  0.15230000  0.84108000  1.0
  O  O121  1  0.02937000  0.84770000  0.15892000  1.0
  O  O122  1  0.48224000  0.59421000  0.33593000  1.0
  O  O123  1  0.51777000  0.40580000  0.66407000  1.0
