# generated using pymatgen
data_CuH16C16(N5O2)2
_symmetry_space_group_name_H-M   'P 1'
_cell_length_a   7.99974000
_cell_length_b   13.01440000
_cell_length_c   13.01460000
_cell_angle_alpha   79.90060000
_cell_angle_beta   79.78470000
_cell_angle_gamma   79.78490000
_symmetry_Int_Tables_number   1
_chemical_formula_structural   CuH16C16(N5O2)2
_chemical_formula_sum   'Cu2 H32 C32 N20 O8'
_cell_volume   1297.79139319
_cell_formula_units_Z   2
loop_
 _symmetry_equiv_pos_site_id
 _symmetry_equiv_pos_as_xyz
  1  'x, y, z'
loop_
 _atom_site_type_symbol
 _atom_site_label
 _atom_site_symmetry_multiplicity
 _atom_site_fract_x
 _atom_site_fract_y
 _atom_site_fract_z
 _atom_site_occupancy
  Cu  Cu0  1  0.00000000  0.00000000  0.00000000  1.0
  Cu  Cu1  1  0.50000000  0.00000000  0.00000000  1.0
  H  H2  1  0.07766000  0.27179000  0.99982000  1.0
  H  H3  1  0.42233000  0.00018000  0.72822000  1.0
  H  H4  1  0.92234000  0.72820000  0.00019000  1.0
  H  H5  1  0.57767000  0.99982000  0.27178000  1.0
  H  H6  1  0.05996000  0.25412000  0.13919000  1.0
  H  H7  1  0.44004000  0.86080000  0.74589000  1.0
  H  H8  1  0.94005000  0.74588000  0.86081000  1.0
  H  H9  1  0.55996000  0.13920000  0.25411000  1.0
  H  H10  1  0.23120000  0.39039000  0.20946000  1.0
  H  H11  1  0.26882000  0.79054000  0.60961000  1.0
  H  H12  1  0.76882000  0.60961000  0.79054000  1.0
  H  H13  1  0.73119000  0.20946000  0.39039000  1.0
  H  H14  1  0.38061000  0.58055000  0.18821000  1.0
  H  H15  1  0.11940000  0.81179000  0.41945000  1.0
  H  H16  1  0.61939000  0.41945000  0.81178000  1.0
  H  H17  1  0.88061000  0.18821000  0.58055000  1.0
  H  H18  1  0.44440000  0.63594000  0.05540000  1.0
  H  H19  1  0.05562000  0.94461000  0.36406000  1.0
  H  H20  1  0.55560000  0.36406000  0.94459000  1.0
  H  H21  1  0.94439000  0.05539000  0.63594000  1.0
  H  H22  1  0.03183000  0.64835000  0.26123000  1.0
  H  H23  1  0.46818000  0.73877000  0.35165000  1.0
  H  H24  1  0.96817000  0.35165000  0.73877000  1.0
  H  H25  1  0.53182000  0.26123000  0.64835000  1.0
  H  H26  1  0.85525000  0.85052000  0.21247000  1.0
  H  H27  1  0.64475000  0.78753000  0.14948000  1.0
  H  H28  1  0.14474000  0.14948000  0.78753000  1.0
  H  H29  1  0.35524000  0.21246000  0.85051000  1.0
  H  H30  1  0.30245000  0.80585000  0.98659000  1.0
  H  H31  1  0.19757000  0.01341000  0.19416000  1.0
  H  H32  1  0.69755000  0.19415000  0.01341000  1.0
  H  H33  1  0.80244000  0.98659000  0.80584000  1.0
  C  C34  1  0.31135000  0.19333000  0.06130000  1.0
  C  C35  1  0.18864000  0.93869000  0.80667000  1.0
  C  C36  1  0.68865000  0.80667000  0.93870000  1.0
  C  C37  1  0.81136000  0.06131000  0.19333000  1.0
  C  C38  1  0.14518000  0.27457000  0.06509000  1.0
  C  C39  1  0.35482000  0.93491000  0.72543000  1.0
  C  C40  1  0.85482000  0.72543000  0.93492000  1.0
  C  C41  1  0.64518000  0.06510000  0.27457000  1.0
  C  C42  1  0.22958000  0.42782000  0.12841000  1.0
  C  C43  1  0.27043000  0.87159000  0.57218000  1.0
  C  C44  1  0.77042000  0.57218000  0.87159000  1.0
  C  C45  1  0.72958000  0.12841000  0.42782000  1.0
  C  C46  1  0.27378000  0.52262000  0.07374000  1.0
  C  C47  1  0.22623000  0.92627000  0.47738000  1.0
  C  C48  1  0.72621000  0.47738000  0.92626000  1.0
  C  C49  1  0.77378000  0.07373000  0.52262000  1.0
  C  C50  1  0.33624000  0.60861000  0.11163000  1.0
  C  C51  1  0.16378000  0.88838000  0.39138000  1.0
  C  C52  1  0.66376000  0.39139000  0.88837000  1.0
  C  C53  1  0.83622000  0.11162000  0.60862000  1.0
  C  C54  1  0.06048000  0.71186000  0.19812000  1.0
  C  C55  1  0.43954000  0.80189000  0.28814000  1.0
  C  C56  1  0.93953000  0.28814000  0.80188000  1.0
  C  C57  1  0.56045000  0.19811000  0.71186000  1.0
  C  C58  1  0.97347000  0.81145000  0.17264000  1.0
  C  C59  1  0.52654000  0.82737000  0.18855000  1.0
  C  C60  1  0.02653000  0.18855000  0.82736000  1.0
  C  C61  1  0.47346000  0.17262000  0.81145000  1.0
  C  C62  1  0.20101000  0.79219000  0.05271000  1.0
  C  C63  1  0.29899000  0.94730000  0.20781000  1.0
  C  C64  1  0.79899000  0.20781000  0.94729000  1.0
  C  C65  1  0.70101000  0.05270000  0.79219000  1.0
  N  N66  1  0.06226000  0.86043000  0.08156000  1.0
  N  N67  1  0.43774000  0.91844000  0.13957000  1.0
  N  N68  1  0.93773000  0.13957000  0.91844000  1.0
  N  N69  1  0.56226000  0.08155000  0.86042000  1.0
  N  N70  1  0.20399000  0.70151000  0.12176000  1.0
  N  N71  1  0.29603000  0.87825000  0.29849000  1.0
  N  N72  1  0.79601000  0.29849000  0.87823000  1.0
  N  N73  1  0.70397000  0.12176000  0.70151000  1.0
  N  N74  1  0.18237000  0.38086000  0.05551000  1.0
  N  N75  1  0.31763000  0.94448000  0.61914000  1.0
  N  N76  1  0.81763000  0.61914000  0.94449000  1.0
  N  N77  1  0.68236000  0.05552000  0.38086000  1.0
  N  N78  1  0.19805000  0.44210000  0.95939000  1.0
  N  N79  1  0.30196000  0.04061000  0.55791000  1.0
  N  N80  1  0.80194000  0.55790000  0.04062000  1.0
  N  N81  1  0.69804000  0.95939000  0.44209000  1.0
  N  N82  1  0.25245000  0.52832000  0.97074000  1.0
  N  N83  1  0.24755000  0.02927000  0.47169000  1.0
  N  N84  1  0.74753000  0.47168000  0.02926000  1.0
  N  N85  1  0.75245000  0.97074000  0.52831000  1.0
  O  O86  1  0.44210000  0.21406000  0.08808000  1.0
  O  O87  1  0.05789000  0.91190000  0.78594000  1.0
  O  O88  1  0.55790000  0.78594000  0.91191000  1.0
  O  O89  1  0.94211000  0.08810000  0.21407000  1.0
  O  O90  1  0.29433000  0.10837000  0.02850000  1.0
  O  O91  1  0.20566000  0.97149000  0.89163000  1.0
  O  O92  1  0.70567000  0.89163000  0.97150000  1.0
  O  O93  1  0.79434000  0.02851000  0.10837000  1.0
