# generated using pymatgen
data_Pr2H14C14N4O15
_symmetry_space_group_name_H-M   'P 1'
_cell_length_a   10.30590000
_cell_length_b   11.55490000
_cell_length_c   22.24450000
_cell_angle_alpha   89.99980000
_cell_angle_beta   81.94460000
_cell_angle_gamma   89.99980000
_symmetry_Int_Tables_number   1
_chemical_formula_structural   Pr2H14C14N4O15
_chemical_formula_sum   'Pr8 H56 C56 N16 O60'
_cell_volume   2622.81896667
_cell_formula_units_Z   4
loop_
 _symmetry_equiv_pos_site_id
 _symmetry_equiv_pos_as_xyz
  1  'x, y, z'
loop_
 _atom_site_type_symbol
 _atom_site_label
 _atom_site_symmetry_multiplicity
 _atom_site_fract_x
 _atom_site_fract_y
 _atom_site_fract_z
 _atom_site_occupancy
  Pr  Pr0  1  0.26552000  0.92981000  0.93575000  1.0
  Pr  Pr1  1  0.88913000  0.69099000  0.72954000  1.0
  Pr  Pr2  1  0.23448000  0.42982000  0.56425000  1.0
  Pr  Pr3  1  0.61088000  0.19099000  0.77045000  1.0
  Pr  Pr4  1  0.73448000  0.07018000  0.06425000  1.0
  Pr  Pr5  1  0.11088000  0.30901000  0.27045000  1.0
  Pr  Pr6  1  0.76552000  0.57019000  0.43575000  1.0
  Pr  Pr7  1  0.38912000  0.80901000  0.22955000  1.0
  H  H8  1  0.22087000  0.76872000  0.57856000  1.0
  H  H9  1  0.07635000  0.85404000  0.58942000  1.0
  H  H10  1  0.23209000  0.92198000  0.56904000  1.0
  H  H11  1  0.87103000  0.82229000  0.27474000  1.0
  H  H12  1  0.98024000  0.93531000  0.29009000  1.0
  H  H13  1  0.02830000  0.78962000  0.29635000  1.0
  H  H14  1  0.34685000  0.98963000  0.65947000  1.0
  H  H15  1  0.86964000  0.88325000  0.15992000  1.0
  H  H16  1  0.46508000  0.13178000  0.93940000  1.0
  H  H17  1  0.42791000  0.09688000  0.00828000  1.0
  H  H18  1  0.53130000  0.79575000  0.90109000  1.0
  H  H19  1  0.55859000  0.92028000  0.87221000  1.0
  H  H20  1  0.25111000  0.67773000  0.97773000  1.0
  H  H21  1  0.21274000  0.70170000  0.91281000  1.0
  H  H22  1  0.27913000  0.26873000  0.92144000  1.0
  H  H23  1  0.42365000  0.35404000  0.91059000  1.0
  H  H24  1  0.26790000  0.42199000  0.93096000  1.0
  H  H25  1  0.62896000  0.32229000  0.22526000  1.0
  H  H26  1  0.51975000  0.43530000  0.20991000  1.0
  H  H27  1  0.47170000  0.28961000  0.20365000  1.0
  H  H28  1  0.15316000  0.48963000  0.84053000  1.0
  H  H29  1  0.63035000  0.38324000  0.34008000  1.0
  H  H30  1  0.03491000  0.63178000  0.56059000  1.0
  H  H31  1  0.07209000  0.59688000  0.49172000  1.0
  H  H32  1  0.96869000  0.29575000  0.59892000  1.0
  H  H33  1  0.94142000  0.42028000  0.62779000  1.0
  H  H34  1  0.24890000  0.17774000  0.52227000  1.0
  H  H35  1  0.28727000  0.20171000  0.58719000  1.0
  H  H36  1  0.77913000  0.23128000  0.42144000  1.0
  H  H37  1  0.92365000  0.14596000  0.41059000  1.0
  H  H38  1  0.76790000  0.07802000  0.43096000  1.0
  H  H39  1  0.12896000  0.17772000  0.72526000  1.0
  H  H40  1  0.01975000  0.06470000  0.70991000  1.0
  H  H41  1  0.97169000  0.21039000  0.70365000  1.0
  H  H42  1  0.65315000  0.01037000  0.34053000  1.0
  H  H43  1  0.13035000  0.11675000  0.84008000  1.0
  H  H44  1  0.53491000  0.86822000  0.06060000  1.0
  H  H45  1  0.57209000  0.90312000  0.99172000  1.0
  H  H46  1  0.46869000  0.20425000  0.09892000  1.0
  H  H47  1  0.44142000  0.07971000  0.12779000  1.0
  H  H48  1  0.74890000  0.32226000  0.02227000  1.0
  H  H49  1  0.78727000  0.29829000  0.08719000  1.0
  H  H50  1  0.72088000  0.73127000  0.07857000  1.0
  H  H51  1  0.57636000  0.64596000  0.08941000  1.0
  H  H52  1  0.73210000  0.57802000  0.06904000  1.0
  H  H53  1  0.37104000  0.67772000  0.77474000  1.0
  H  H54  1  0.48025000  0.56470000  0.79009000  1.0
  H  H55  1  0.52831000  0.71039000  0.79635000  1.0
  H  H56  1  0.84685000  0.51037000  0.15947000  1.0
  H  H57  1  0.36965000  0.61676000  0.65992000  1.0
  H  H58  1  0.96509000  0.36822000  0.43940000  1.0
  H  H59  1  0.92792000  0.40312000  0.50828000  1.0
  H  H60  1  0.03130000  0.70425000  0.40108000  1.0
  H  H61  1  0.05858000  0.57972000  0.37221000  1.0
  H  H62  1  0.75111000  0.82227000  0.47773000  1.0
  H  H63  1  0.71274000  0.79830000  0.41281000  1.0
  C  C64  1  0.09539000  0.80795000  0.81946000  1.0
  C  C65  1  0.15921000  0.85347000  0.76013000  1.0
  C  C66  1  0.26103000  0.93202000  0.74564000  1.0
  C  C67  1  0.33831000  0.01144000  0.77889000  1.0
  C  C68  1  0.19033000  0.86652000  0.66118000  1.0
  C  C69  1  0.17998000  0.85223000  0.59580000  1.0
  C  C70  1  0.30895000  0.84303000  0.08717000  1.0
  C  C71  1  0.17591000  0.84352000  0.12255000  1.0
  C  C72  1  0.05290000  0.86175000  0.10478000  1.0
  C  C73  1  0.99936000  0.87737000  0.04685000  1.0
  C  C74  1  0.03531000  0.84786000  0.20582000  1.0
  C  C75  1  0.97420000  0.84852000  0.27034000  1.0
  C  C76  1  0.76886000  0.95546000  0.71730000  1.0
  C  C77  1  0.70071000  0.91143000  0.78003000  1.0
  C  C78  1  0.40462000  0.30795000  0.68054000  1.0
  C  C79  1  0.34080000  0.35346000  0.73987000  1.0
  C  C80  1  0.23898000  0.43201000  0.75436000  1.0
  C  C81  1  0.16170000  0.51144000  0.72111000  1.0
  C  C82  1  0.30967000  0.36652000  0.83882000  1.0
  C  C83  1  0.32002000  0.35223000  0.90420000  1.0
  C  C84  1  0.19104000  0.34303000  0.41283000  1.0
  C  C85  1  0.32408000  0.34352000  0.37745000  1.0
  C  C86  1  0.44709000  0.36175000  0.39522000  1.0
  C  C87  1  0.50064000  0.37737000  0.45315000  1.0
  C  C88  1  0.46468000  0.34786000  0.29418000  1.0
  C  C89  1  0.52580000  0.34851000  0.22966000  1.0
  C  C90  1  0.73115000  0.45548000  0.78270000  1.0
  C  C91  1  0.79929000  0.41145000  0.71997000  1.0
  C  C92  1  0.90461000  0.19205000  0.18054000  1.0
  C  C93  1  0.84079000  0.14653000  0.23987000  1.0
  C  C94  1  0.73897000  0.06798000  0.25436000  1.0
  C  C95  1  0.66169000  0.98855000  0.22111000  1.0
  C  C96  1  0.80966000  0.13348000  0.33882000  1.0
  C  C97  1  0.82002000  0.14777000  0.40420000  1.0
  C  C98  1  0.69104000  0.15697000  0.91283000  1.0
  C  C99  1  0.82408000  0.15648000  0.87745000  1.0
  C  C100  1  0.94709000  0.13825000  0.89522000  1.0
  C  C101  1  0.00063000  0.12262000  0.95315000  1.0
  C  C102  1  0.96468000  0.15214000  0.79418000  1.0
  C  C103  1  0.02579000  0.15149000  0.72966000  1.0
  C  C104  1  0.23115000  0.04452000  0.28270000  1.0
  C  C105  1  0.29929000  0.08855000  0.21997000  1.0
  C  C106  1  0.59539000  0.69205000  0.31946000  1.0
  C  C107  1  0.65921000  0.64653000  0.26013000  1.0
  C  C108  1  0.76102000  0.56798000  0.24564000  1.0
  C  C109  1  0.83830000  0.48856000  0.27889000  1.0
  C  C110  1  0.69033000  0.63348000  0.16118000  1.0
  C  C111  1  0.67999000  0.64777000  0.09580000  1.0
  C  C112  1  0.80896000  0.65698000  0.58717000  1.0
  C  C113  1  0.67592000  0.65649000  0.62255000  1.0
  C  C114  1  0.55291000  0.63826000  0.60478000  1.0
  C  C115  1  0.49936000  0.62263000  0.54685000  1.0
  C  C116  1  0.53532000  0.65215000  0.70582000  1.0
  C  C117  1  0.47421000  0.65149000  0.77034000  1.0
  C  C118  1  0.26885000  0.54453000  0.21730000  1.0
  C  C119  1  0.20071000  0.58857000  0.28003000  1.0
  N  N120  1  0.11652000  0.81443000  0.70761000  1.0
  N  N121  1  0.27849000  0.93710000  0.68301000  1.0
  N  N122  1  0.16250000  0.83430000  0.18493000  1.0
  N  N123  1  0.96747000  0.86442000  0.15829000  1.0
  N  N124  1  0.38349000  0.31442000  0.79239000  1.0
  N  N125  1  0.22152000  0.43710000  0.81699000  1.0
  N  N126  1  0.33750000  0.33429000  0.31507000  1.0
  N  N127  1  0.53253000  0.36441000  0.34170000  1.0
  N  N128  1  0.88348000  0.18557000  0.29239000  1.0
  N  N129  1  0.72151000  0.06290000  0.31699000  1.0
  N  N130  1  0.83749000  0.16570000  0.81507000  1.0
  N  N131  1  0.03253000  0.13558000  0.84170000  1.0
  N  N132  1  0.61651000  0.68557000  0.20761000  1.0
  N  N133  1  0.77849000  0.56290000  0.18301000  1.0
  N  N134  1  0.66251000  0.66571000  0.68493000  1.0
  N  N135  1  0.46747000  0.63560000  0.65830000  1.0
  O  O136  1  0.98394000  0.76297000  0.82098000  1.0
  O  O137  1  0.15961000  0.81382000  0.86485000  1.0
  O  O138  1  0.30771000  0.02589000  0.83622000  1.0
  O  O139  1  0.42848000  0.06500000  0.74576000  1.0
  O  O140  1  0.40623000  0.82038000  0.11512000  1.0
  O  O141  1  0.32370000  0.86821000  0.03113000  1.0
  O  O142  1  0.06939000  0.85734000  0.99665000  1.0
  O  O143  1  0.87947000  0.90862000  0.05252000  1.0
  O  O144  1  0.85115000  0.88734000  0.68846000  1.0
  O  O145  1  0.73781000  0.05493000  0.70046000  1.0
  O  O146  1  0.72087000  0.80860000  0.79504000  1.0
  O  O147  1  0.62722000  0.98318000  0.81253000  1.0
  O  O148  1  0.39457000  0.09609000  0.96898000  1.0
  O  O149  1  0.50765000  0.87680000  0.90817000  1.0
  O  O150  1  0.28753000  0.69712000  0.93620000  1.0
  O  O151  1  0.51607000  0.26296000  0.67902000  1.0
  O  O152  1  0.34040000  0.31382000  0.63515000  1.0
  O  O153  1  0.19229000  0.52589000  0.66378000  1.0
  O  O154  1  0.07153000  0.56500000  0.75424000  1.0
  O  O155  1  0.09376000  0.32038000  0.38488000  1.0
  O  O156  1  0.17629000  0.36823000  0.46887000  1.0
  O  O157  1  0.43060000  0.35734000  0.50334000  1.0
  O  O158  1  0.62052000  0.40861000  0.44748000  1.0
  O  O159  1  0.64885000  0.38735000  0.81154000  1.0
  O  O160  1  0.76220000  0.55493000  0.79954000  1.0
  O  O161  1  0.77913000  0.30861000  0.70496000  1.0
  O  O162  1  0.87279000  0.48319000  0.68747000  1.0
  O  O163  1  0.10543000  0.59609000  0.53102000  1.0
  O  O164  1  0.99235000  0.37680000  0.59183000  1.0
  O  O165  1  0.21248000  0.19713000  0.56380000  1.0
  O  O166  1  0.01606000  0.23703000  0.17902000  1.0
  O  O167  1  0.84039000  0.18617000  0.13515000  1.0
  O  O168  1  0.69229000  0.97411000  0.16378000  1.0
  O  O169  1  0.57153000  0.93499000  0.25425000  1.0
  O  O170  1  0.59376000  0.17962000  0.88488000  1.0
  O  O171  1  0.67629000  0.13178000  0.96887000  1.0
  O  O172  1  0.93060000  0.14266000  0.00334000  1.0
  O  O173  1  0.12052000  0.09138000  0.94748000  1.0
  O  O174  1  0.14884000  0.11265000  0.31154000  1.0
  O  O175  1  0.26220000  0.94507000  0.29954000  1.0
  O  O176  1  0.27913000  0.19139000  0.20496000  1.0
  O  O177  1  0.37279000  0.01681000  0.18747000  1.0
  O  O178  1  0.60542000  0.90391000  0.03102000  1.0
  O  O179  1  0.49235000  0.12320000  0.09184000  1.0
  O  O180  1  0.71247000  0.30287000  0.06380000  1.0
  O  O181  1  0.48394000  0.73703000  0.32098000  1.0
  O  O182  1  0.65960000  0.68618000  0.36485000  1.0
  O  O183  1  0.80771000  0.47411000  0.33622000  1.0
  O  O184  1  0.92848000  0.43500000  0.24576000  1.0
  O  O185  1  0.90624000  0.67962000  0.61512000  1.0
  O  O186  1  0.82370000  0.63179000  0.53113000  1.0
  O  O187  1  0.56939000  0.64266000  0.49665000  1.0
  O  O188  1  0.37948000  0.59139000  0.55253000  1.0
  O  O189  1  0.35114000  0.61266000  0.18846000  1.0
  O  O190  1  0.23780000  0.44506000  0.20046000  1.0
  O  O191  1  0.22087000  0.69140000  0.29504000  1.0
  O  O192  1  0.12721000  0.51682000  0.31253000  1.0
  O  O193  1  0.89457000  0.40391000  0.46899000  1.0
  O  O194  1  0.00765000  0.62320000  0.40817000  1.0
  O  O195  1  0.78753000  0.80287000  0.43620000  1.0
