# generated using pymatgen
data_ZnH8C14S2N3O10
_symmetry_space_group_name_H-M   'P 1'
_cell_length_a   9.69466000
_cell_length_b   11.01240000
_cell_length_c   19.23290000
_cell_angle_alpha   90.18050000
_cell_angle_beta   89.95660000
_cell_angle_gamma   89.92320000
_symmetry_Int_Tables_number   1
_chemical_formula_structural   ZnH8C14S2N3O10
_chemical_formula_sum   'Zn2 H16 C28 S4 N6 O20'
_cell_volume   2053.32011972
_cell_formula_units_Z   2
loop_
 _symmetry_equiv_pos_site_id
 _symmetry_equiv_pos_as_xyz
  1  'x, y, z'
loop_
 _atom_site_type_symbol
 _atom_site_label
 _atom_site_symmetry_multiplicity
 _atom_site_fract_x
 _atom_site_fract_y
 _atom_site_fract_z
 _atom_site_occupancy
  Zn  Zn0  1  0.34749000  0.50243000  0.50057000  1.0
  Zn  Zn1  1  0.64214000  0.50294000  0.50064000  1.0
  H  H2  1  0.71552000  0.11374000  0.49656000  1.0
  H  H3  1  0.27278000  0.88648000  0.50728000  1.0
  H  H4  1  0.71511000  0.88578000  0.49342000  1.0
  H  H5  1  0.27191000  0.11389000  0.50428000  1.0
  H  H6  1  0.33832000  0.36800000  0.15186000  1.0
  H  H7  1  0.67779000  0.37379000  0.84666000  1.0
  H  H8  1  0.33185000  0.62100000  0.85062000  1.0
  H  H9  1  0.67584000  0.62246000  0.15231000  1.0
  H  H10  1  0.86214000  0.65626000  0.56170000  1.0
  H  H11  1  0.12431000  0.34073000  0.44233000  1.0
  H  H12  1  0.86301000  0.34226000  0.44114000  1.0
  H  H13  1  0.12332000  0.65948000  0.55912000  1.0
  H  H14  1  0.37282000  0.27842000  0.39366000  1.0
  H  H15  1  0.63460000  0.27822000  0.60662000  1.0
  H  H16  1  0.36650000  0.71556000  0.60859000  1.0
  H  H17  1  0.57707000  0.82778000  0.30367000  1.0
  C  C18  1  0.49417000  0.26138000  0.50018000  1.0
  C  C19  1  0.49564000  0.73834000  0.50260000  1.0
  C  C20  1  0.50530000  0.49478000  0.93358000  1.0
  C  C21  1  0.50681000  0.49461000  0.06693000  1.0
  C  C22  1  0.50069000  0.49883000  0.36922000  1.0
  C  C23  1  0.49733000  0.49851000  0.63238000  1.0
  C  C24  1  0.61915000  0.06307000  0.49802000  1.0
  C  C25  1  0.36891000  0.93717000  0.50405000  1.0
  C  C26  1  0.61923000  0.93705000  0.49694000  1.0
  C  C27  1  0.36844000  0.06327000  0.50237000  1.0
  C  C28  1  0.49415000  0.87362000  0.50098000  1.0
  C  C29  1  0.49368000  0.12666000  0.50019000  1.0
  C  C30  1  0.92160000  0.58727000  0.53417000  1.0
  C  C31  1  0.06555000  0.41097000  0.46889000  1.0
  C  C32  1  0.92216000  0.41155000  0.46843000  1.0
  C  C33  1  0.06503000  0.58873000  0.53294000  1.0
  C  C34  1  0.41178000  0.42469000  0.25229000  1.0
  C  C35  1  0.59783000  0.42785000  0.74719000  1.0
  C  C36  1  0.40561000  0.56787000  0.74953000  1.0
  C  C37  1  0.59738000  0.57008000  0.25258000  1.0
  C  C38  1  0.41121000  0.42522000  0.17982000  1.0
  C  C39  1  0.60126000  0.42854000  0.81964000  1.0
  C  C40  1  0.40582000  0.56571000  0.82195000  1.0
  C  C41  1  0.60112000  0.56704000  0.18009000  1.0
  C  C42  1  0.50665000  0.49563000  0.14347000  1.0
  C  C43  1  0.50404000  0.49613000  0.85712000  1.0
  C  C44  1  0.50343000  0.49828000  0.29063000  1.0
  C  C45  1  0.49961000  0.49742000  0.71065000  1.0
  S  S46  1  0.29054000  0.31968000  0.29051000  1.0
  S  S47  1  0.72414000  0.32880000  0.70652000  1.0
  S  S48  1  0.28324000  0.67235000  0.71165000  1.0
  S  S49  1  0.71490000  0.67770000  0.29150000  1.0
  N  N50  1  0.13600000  0.50025000  0.50060000  1.0
  N  N51  1  0.85163000  0.49932000  0.50134000  1.0
  N  N52  1  0.63025000  0.49521000  0.03427000  1.0
  N  N53  1  0.38175000  0.49375000  0.96641000  1.0
  N  N54  1  0.62949000  0.49417000  0.96561000  1.0
  N  N55  1  0.38265000  0.49255000  0.03499000  1.0
  O  O56  1  0.38813000  0.31672000  0.47552000  1.0
  O  O57  1  0.60481000  0.68434000  0.48446000  1.0
  O  O58  1  0.38421000  0.68482000  0.52366000  1.0
  O  O59  1  0.60028000  0.31608000  0.52401000  1.0
  O  O60  1  0.39192000  0.53861000  0.39805000  1.0
  O  O61  1  0.60603000  0.53619000  0.60286000  1.0
  O  O62  1  0.38822000  0.46210000  0.60234000  1.0
  O  O63  1  0.60673000  0.45754000  0.39968000  1.0
  O  O64  1  0.18429000  0.38500000  0.32759000  1.0
  O  O65  1  0.25418000  0.23517000  0.23671000  1.0
  O  O66  1  0.38360000  0.24781000  0.34417000  1.0
  O  O67  1  0.82096000  0.39769000  0.66576000  1.0
  O  O68  1  0.77173000  0.24917000  0.76026000  1.0
  O  O69  1  0.63053000  0.24923000  0.65618000  1.0
  O  O70  1  0.17745000  0.60744000  0.67421000  1.0
  O  O71  1  0.24629000  0.75636000  0.76562000  1.0
  O  O72  1  0.37654000  0.74496000  0.65809000  1.0
  O  O73  1  0.80067000  0.62133000  0.34260000  1.0
  O  O74  1  0.77259000  0.74878000  0.23601000  1.0
  O  O75  1  0.60964000  0.76365000  0.33484000  1.0
