# generated using pymatgen
data_NaH7C2(SO2)2
_symmetry_space_group_name_H-M   'P 1'
_cell_length_a   4.94097000
_cell_length_b   6.07207000
_cell_length_c   23.45370000
_cell_angle_alpha   89.99990000
_cell_angle_beta   90.00020000
_cell_angle_gamma   89.99990000
_symmetry_Int_Tables_number   1
_chemical_formula_structural   NaH7C2(SO2)2
_chemical_formula_sum   'Na4 H28 C8 S8 O16'
_cell_volume   703.65593043
_cell_formula_units_Z   4
loop_
 _symmetry_equiv_pos_site_id
 _symmetry_equiv_pos_as_xyz
  1  'x, y, z'
loop_
 _atom_site_type_symbol
 _atom_site_label
 _atom_site_symmetry_multiplicity
 _atom_site_fract_x
 _atom_site_fract_y
 _atom_site_fract_z
 _atom_site_occupancy
  Na  Na0  1  0.66575000  0.65939000  0.73420000  1.0
  Na  Na1  1  0.33424000  0.15939000  0.26580000  1.0
  Na  Na2  1  0.16575000  0.15940000  0.76579000  1.0
  Na  Na3  1  0.83425000  0.65940000  0.23420000  1.0
  H  H4  1  0.09275000  0.65927000  0.01680000  1.0
  H  H5  1  0.90725000  0.15927000  0.98321000  1.0
  H  H6  1  0.59275000  0.15927000  0.48320000  1.0
  H  H7  1  0.40725000  0.65927000  0.51680000  1.0
  H  H8  1  0.19995000  0.79049000  0.66865000  1.0
  H  H9  1  0.80005000  0.29049000  0.33135000  1.0
  H  H10  1  0.69995000  0.29049000  0.83135000  1.0
  H  H11  1  0.30006000  0.79050000  0.16865000  1.0
  H  H12  1  0.19724000  0.53511000  0.66920000  1.0
  H  H13  1  0.80276000  0.03511000  0.33080000  1.0
  H  H14  1  0.69724000  0.03511000  0.83080000  1.0
  H  H15  1  0.30276000  0.53511000  0.16920000  1.0
  H  H16  1  0.97369000  0.86425000  0.92388000  1.0
  H  H17  1  0.02631000  0.36425000  0.07612000  1.0
  H  H18  1  0.47369000  0.36425000  0.57612000  1.0
  H  H19  1  0.52631000  0.86426000  0.42388000  1.0
  H  H20  1  0.28643000  0.00440000  0.91748000  1.0
  H  H21  1  0.71357000  0.50441000  0.08252000  1.0
  H  H22  1  0.78643000  0.50440000  0.58252000  1.0
  H  H23  1  0.21357000  0.00441000  0.41748000  1.0
  H  H24  1  0.21913000  0.49831000  0.91720000  1.0
  H  H25  1  0.78086000  0.99831000  0.08280000  1.0
  H  H26  1  0.71913000  0.99830000  0.58280000  1.0
  H  H27  1  0.28087000  0.49831000  0.41720000  1.0
  H  H28  1  0.53118000  0.64229000  0.90723000  1.0
  H  H29  1  0.46882000  0.14229000  0.09277000  1.0
  H  H30  1  0.03118000  0.14229000  0.59277000  1.0
  H  H31  1  0.96883000  0.64229000  0.40723000  1.0
  C  C32  1  0.19160000  0.85097000  0.93215000  1.0
  C  C33  1  0.80840000  0.35098000  0.06785000  1.0
  C  C34  1  0.69160000  0.35097000  0.56784000  1.0
  C  C35  1  0.30840000  0.85098000  0.43215000  1.0
  C  C36  1  0.31079000  0.65226000  0.90194000  1.0
  C  C37  1  0.68921000  0.15227000  0.09806000  1.0
  C  C38  1  0.81079000  0.15226000  0.59806000  1.0
  C  C39  1  0.18921000  0.65227000  0.40194000  1.0
  S  S40  1  0.25044000  0.83903000  0.00877000  1.0
  S  S41  1  0.74956000  0.33903000  0.99123000  1.0
  S  S42  1  0.75044000  0.33903000  0.49123000  1.0
  S  S43  1  0.24956000  0.83903000  0.50877000  1.0
  S  S44  1  0.25239000  0.65917000  0.82688000  1.0
  S  S45  1  0.74761000  0.15917000  0.17312000  1.0
  S  S46  1  0.75239000  0.15915000  0.67312000  1.0
  S  S47  1  0.24761000  0.65916000  0.32688000  1.0
  O  O48  1  0.38762000  0.46020000  0.80385000  1.0
  O  O49  1  0.61237000  0.96020000  0.19615000  1.0
  O  O50  1  0.88762000  0.96019000  0.69615000  1.0
  O  O51  1  0.11238000  0.46019000  0.30385000  1.0
  O  O52  1  0.95986000  0.66045000  0.81740000  1.0
  O  O53  1  0.04012000  0.16044000  0.18260000  1.0
  O  O54  1  0.45986000  0.16044000  0.68260000  1.0
  O  O55  1  0.54014000  0.66044000  0.31740000  1.0
  O  O56  1  0.31732000  0.66177000  0.66321000  1.0
  O  O57  1  0.68268000  0.16177000  0.33679000  1.0
  O  O58  1  0.81732000  0.16177000  0.83679000  1.0
  O  O59  1  0.18268000  0.66177000  0.16321000  1.0
  O  O60  1  0.38785000  0.86060000  0.80528000  1.0
  O  O61  1  0.61215000  0.36060000  0.19472000  1.0
  O  O62  1  0.88785000  0.36059000  0.69472000  1.0
  O  O63  1  0.11215000  0.86059000  0.30527000  1.0
