# generated using pymatgen
data_ErH8(C3O5)2
_symmetry_space_group_name_H-M   'P 1'
_cell_length_a   5.97034000
_cell_length_b   7.33660000
_cell_length_c   13.09010000
_cell_angle_alpha   104.94000000
_cell_angle_beta   102.18400000
_cell_angle_gamma   90.07490000
_symmetry_Int_Tables_number   1
_chemical_formula_structural   ErH8(C3O5)2
_chemical_formula_sum   'Er2 H16 C12 O20'
_cell_volume   540.56851001
_cell_formula_units_Z   2
loop_
 _symmetry_equiv_pos_site_id
 _symmetry_equiv_pos_as_xyz
  1  'x, y, z'
loop_
 _atom_site_type_symbol
 _atom_site_label
 _atom_site_symmetry_multiplicity
 _atom_site_fract_x
 _atom_site_fract_y
 _atom_site_fract_z
 _atom_site_occupancy
  Er  Er0  1  0.01577000  0.82308000  0.67990000  1.0
  Er  Er1  1  0.98610000  0.15822000  0.31458000  1.0
  H  H2  1  0.36990000  0.95883000  0.05924000  1.0
  H  H3  1  0.62954000  0.89823000  0.93999000  1.0
  H  H4  1  0.50317000  0.32178000  0.56547000  1.0
  H  H5  1  0.47311000  0.30280000  0.73764000  1.0
  H  H6  1  0.50174000  0.76076000  0.43115000  1.0
  H  H7  1  0.52973000  0.59208000  0.25777000  1.0
  H  H8  1  0.18327000  0.24317000  0.07802000  1.0
  H  H9  1  0.79928000  0.15305000  0.90477000  1.0
  H  H10  1  0.19585000  0.99369000  0.48518000  1.0
  H  H11  1  0.15477000  0.20808000  0.76995000  1.0
  H  H12  1  0.81076000  0.50363000  0.50772000  1.0
  H  H13  1  0.84127000  0.45543000  0.22134000  1.0
  H  H14  1  0.77858000  0.65549000  0.81616000  1.0
  H  H15  1  0.59708000  0.71537000  0.72253000  1.0
  H  H16  1  0.22353000  0.86741000  0.17976000  1.0
  H  H17  1  0.40606000  0.01473000  0.27269000  1.0
  C  C18  1  0.20314000  0.96452000  0.90046000  1.0
  C  C19  1  0.37330000  0.05541000  0.00702000  1.0
  C  C20  1  0.61785000  0.04661000  0.98503000  1.0
  C  C21  1  0.78904000  0.07476000  0.09357000  1.0
  C  C22  1  0.15223000  0.38688000  0.56615000  1.0
  C  C23  1  0.34305000  0.24785000  0.56593000  1.0
  C  C24  1  0.37525000  0.18713000  0.67226000  1.0
  C  C25  1  0.51014000  0.00921000  0.67056000  1.0
  C  C26  1  0.85258000  0.82633000  0.43046000  1.0
  C  C27  1  0.66134000  0.68642000  0.42937000  1.0
  C  C28  1  0.62705000  0.53179000  0.32117000  1.0
  C  C29  1  0.49074000  0.35470000  0.32120000  1.0
  O  O30  1  0.22368000  0.79311000  0.85358000  1.0
  O  O31  1  0.04797000  0.06054000  0.85764000  1.0
  O  O32  1  0.33406000  0.24258000  0.05815000  1.0
  O  O33  1  0.64888000  0.17464000  0.92469000  1.0
  O  O34  1  0.78023000  0.95249000  0.14590000  1.0
  O  O35  1  0.93352000  0.21883000  0.13228000  1.0
  O  O36  1  0.97737000  0.34172000  0.48646000  1.0
  O  O37  1  0.17373000  0.53408000  0.64258000  1.0
  O  O38  1  0.28788000  0.09619000  0.46982000  1.0
  O  O39  1  0.15415000  0.15479000  0.69298000  1.0
  O  O40  1  0.40871000  0.86894000  0.68620000  1.0
  O  O41  1  0.71146000  0.01280000  0.65567000  1.0
  O  O42  1  0.03092000  0.84821000  0.50797000  1.0
  O  O43  1  0.82750000  0.90962000  0.35677000  1.0
  O  O44  1  0.71662000  0.61884000  0.52396000  1.0
  O  O45  1  0.84741000  0.48089000  0.29930000  1.0
  O  O46  1  0.59359000  0.20084000  0.30691000  1.0
  O  O47  1  0.28783000  0.37041000  0.33401000  1.0
  O  O48  1  0.75037000  0.66081000  0.74118000  1.0
  O  O49  1  0.25309000  0.94215000  0.25466000  1.0
