# generated using pymatgen
data_CdH5C5IN6O
_symmetry_space_group_name_H-M   'P 1'
_cell_length_a   7.86771000
_cell_length_b   9.33249000
_cell_length_c   13.96490000
_cell_angle_alpha   90.00000000
_cell_angle_beta   89.99980000
_cell_angle_gamma   94.75620000
_symmetry_Int_Tables_number   1
_chemical_formula_structural   CdH5C5IN6O
_chemical_formula_sum   'Cd4 H20 C20 I4 N24 O4'
_cell_volume   1021.84646973
_cell_formula_units_Z   4
loop_
 _symmetry_equiv_pos_site_id
 _symmetry_equiv_pos_as_xyz
  1  'x, y, z'
loop_
 _atom_site_type_symbol
 _atom_site_label
 _atom_site_symmetry_multiplicity
 _atom_site_fract_x
 _atom_site_fract_y
 _atom_site_fract_z
 _atom_site_occupancy
  Cd  Cd0  1  0.77572000  0.07602000  0.54592000  1.0
  Cd  Cd1  1  0.72428000  0.42398000  0.04592000  1.0
  Cd  Cd2  1  0.22428000  0.92398000  0.45408000  1.0
  Cd  Cd3  1  0.27572000  0.57601000  0.95408000  1.0
  H  H4  1  0.67357000  0.35946000  0.53361000  1.0
  H  H5  1  0.82644000  0.14054000  0.03361000  1.0
  H  H6  1  0.32644000  0.64054000  0.46639000  1.0
  H  H7  1  0.17357000  0.85946000  0.96640000  1.0
  H  H8  1  0.76052000  0.35143000  0.63806000  1.0
  H  H9  1  0.73948000  0.14857000  0.13806000  1.0
  H  H10  1  0.23948000  0.64857000  0.36194000  1.0
  H  H11  1  0.26052000  0.85143000  0.86194000  1.0
  H  H12  1  0.91648000  0.88241000  0.28081000  1.0
  H  H13  1  0.58352000  0.61759000  0.78081000  1.0
  H  H14  1  0.08352000  0.11759000  0.71919000  1.0
  H  H15  1  0.41648000  0.38240000  0.21919000  1.0
  H  H16  1  0.90243000  0.87293000  0.09879000  1.0
  H  H17  1  0.59757000  0.62708000  0.59880000  1.0
  H  H18  1  0.09757000  0.12708000  0.90120000  1.0
  H  H19  1  0.40243000  0.37292000  0.40121000  1.0
  H  H20  1  0.42424000  0.98422000  0.08559000  1.0
  H  H21  1  0.07577000  0.51577000  0.58558000  1.0
  H  H22  1  0.57576000  0.01577000  0.91442000  1.0
  H  H23  1  0.92424000  0.48422000  0.41441000  1.0
  C  C24  1  0.47239000  0.02230000  0.27991000  1.0
  C  C25  1  0.02761000  0.47771000  0.77991000  1.0
  C  C26  1  0.52761000  0.97771000  0.72009000  1.0
  C  C27  1  0.97239000  0.52230000  0.22009000  1.0
  C  C28  1  0.31622000  0.97685000  0.22861000  1.0
  C  C29  1  0.18378000  0.52316000  0.72861000  1.0
  C  C30  1  0.68378000  0.02316000  0.77139000  1.0
  C  C31  1  0.81622000  0.47684000  0.27139000  1.0
  C  C32  1  0.02878000  0.90776000  0.23635000  1.0
  C  C33  1  0.47122000  0.59225000  0.73635000  1.0
  C  C34  1  0.97122000  0.09225000  0.76365000  1.0
  C  C35  1  0.52878000  0.40775000  0.26365000  1.0
  C  C36  1  0.02189000  0.90197000  0.13649000  1.0
  C  C37  1  0.47811000  0.59803000  0.63649000  1.0
  C  C38  1  0.97811000  0.09803000  0.86351000  1.0
  C  C39  1  0.52189000  0.40197000  0.36351000  1.0
  C  C40  1  0.30926000  0.96536000  0.12866000  1.0
  C  C41  1  0.19074000  0.53465000  0.62865000  1.0
  C  C42  1  0.69074000  0.03465000  0.87134000  1.0
  C  C43  1  0.80926000  0.46536000  0.37134000  1.0
  I  I44  1  0.89178000  0.78723000  0.50733000  1.0
  I  I45  1  0.60821000  0.71276000  0.00734000  1.0
  I  I46  1  0.10822000  0.21276000  0.49267000  1.0
  I  I47  1  0.39179000  0.28723000  0.99266000  1.0
  N  N48  1  0.64161000  0.07231000  0.39591000  1.0
  N  N49  1  0.85839000  0.42769000  0.89590000  1.0
  N  N50  1  0.35839000  0.92769000  0.60410000  1.0
  N  N51  1  0.14161000  0.57231000  0.10410000  1.0
  N  N52  1  0.48184000  0.02134000  0.37594000  1.0
  N  N53  1  0.01816000  0.47866000  0.87594000  1.0
  N  N54  1  0.51816000  0.97866000  0.62406000  1.0
  N  N55  1  0.98183000  0.52134000  0.12406000  1.0
  N  N56  1  0.62300000  0.07303000  0.24146000  1.0
  N  N57  1  0.87700000  0.42697000  0.74146000  1.0
  N  N58  1  0.37700000  0.92697000  0.75855000  1.0
  N  N59  1  0.12299000  0.57303000  0.25855000  1.0
  N  N60  1  0.72706000  0.10360000  0.31581000  1.0
  N  N61  1  0.77294000  0.39640000  0.81581000  1.0
  N  N62  1  0.27294000  0.89640000  0.68419000  1.0
  N  N63  1  0.22706000  0.60360000  0.18419000  1.0
  N  N64  1  0.17525000  0.94461000  0.28179000  1.0
  N  N65  1  0.32475000  0.55539000  0.78179000  1.0
  N  N66  1  0.82475000  0.05539000  0.71821000  1.0
  N  N67  1  0.67525000  0.44461000  0.21821000  1.0
  N  N68  1  0.16282000  0.92820000  0.08330000  1.0
  N  N69  1  0.33719000  0.57180000  0.58330000  1.0
  N  N70  1  0.83719000  0.07180000  0.91670000  1.0
  N  N71  1  0.66282000  0.42820000  0.41670000  1.0
  O  O72  1  0.68164000  0.29814000  0.59209000  1.0
  O  O73  1  0.81837000  0.20186000  0.09209000  1.0
  O  O74  1  0.31837000  0.70186000  0.40790000  1.0
  O  O75  1  0.18164000  0.79814000  0.90791000  1.0
