# generated using pymatgen
data_ZnH16C20(NO)4
_symmetry_space_group_name_H-M   'P 1'
_cell_length_a   7.04185000
_cell_length_b   7.04179000
_cell_length_c   19.62400000
_cell_angle_alpha   90.54790000
_cell_angle_beta   90.54750000
_cell_angle_gamma   114.60700000
_symmetry_Int_Tables_number   1
_chemical_formula_structural   ZnH16C20(NO)4
_chemical_formula_sum   'Zn2 H32 C40 N8 O8'
_cell_volume   884.58942924
_cell_formula_units_Z   2
loop_
 _symmetry_equiv_pos_site_id
 _symmetry_equiv_pos_as_xyz
  1  'x, y, z'
loop_
 _atom_site_type_symbol
 _atom_site_label
 _atom_site_symmetry_multiplicity
 _atom_site_fract_x
 _atom_site_fract_y
 _atom_site_fract_z
 _atom_site_occupancy
  Zn  Zn0  1  0.64685000  0.35315000  0.75000000  1.0
  Zn  Zn1  1  0.35315000  0.64686000  0.25000000  1.0
  H  H2  1  0.17970000  0.09207000  0.81390000  1.0
  H  H3  1  0.90793000  0.82029000  0.68610000  1.0
  H  H4  1  0.82031000  0.90793000  0.18611000  1.0
  H  H5  1  0.09208000  0.17970000  0.31389000  1.0
  H  H6  1  0.68561000  0.65423000  0.87455000  1.0
  H  H7  1  0.34576000  0.31439000  0.62545000  1.0
  H  H8  1  0.31440000  0.34577000  0.12545000  1.0
  H  H9  1  0.65423000  0.68562000  0.37455000  1.0
  H  H10  1  0.35582000  0.57101000  0.96529000  1.0
  H  H11  1  0.42900000  0.64418000  0.53471000  1.0
  H  H12  1  0.64419000  0.42900000  0.03471000  1.0
  H  H13  1  0.57100000  0.35582000  0.46529000  1.0
  H  H14  1  0.84531000  0.09730000  0.83068000  1.0
  H  H15  1  0.90271000  0.15470000  0.66932000  1.0
  H  H16  1  0.15471000  0.90272000  0.16932000  1.0
  H  H17  1  0.09728000  0.84529000  0.33068000  1.0
  H  H18  1  0.50036000  0.95289000  0.87989000  1.0
  H  H19  1  0.04711000  0.49963000  0.62010000  1.0
  H  H20  1  0.49964000  0.04711000  0.12010000  1.0
  H  H21  1  0.95288000  0.50036000  0.37990000  1.0
  H  H22  1  0.77888000  0.15626000  0.08055000  1.0
  H  H23  1  0.84373000  0.22111000  0.41945000  1.0
  H  H24  1  0.22110000  0.84372000  0.91945000  1.0
  H  H25  1  0.15628000  0.77889000  0.58054000  1.0
  H  H26  1  0.12087000  0.30342000  0.03051000  1.0
  H  H27  1  0.69659000  0.87911000  0.46949000  1.0
  H  H28  1  0.87911000  0.69658000  0.96949000  1.0
  H  H29  1  0.30343000  0.12088000  0.53050000  1.0
  H  H30  1  0.22239000  0.64232000  0.80710000  1.0
  H  H31  1  0.35767000  0.77761000  0.69290000  1.0
  H  H32  1  0.77762000  0.35768000  0.19289000  1.0
  H  H33  1  0.64234000  0.22241000  0.30710000  1.0
  C  C34  1  0.27378000  0.23672000  0.84103000  1.0
  C  C35  1  0.76329000  0.72621000  0.65897000  1.0
  C  C36  1  0.72623000  0.76328000  0.15898000  1.0
  C  C37  1  0.23673000  0.27377000  0.34102000  1.0
  C  C38  1  0.53243000  0.52540000  0.87680000  1.0
  C  C39  1  0.47459000  0.46756000  0.62321000  1.0
  C  C40  1  0.46757000  0.47460000  0.12321000  1.0
  C  C41  1  0.52540000  0.53245000  0.37679000  1.0
  C  C42  1  0.37225000  0.48581000  0.92130000  1.0
  C  C43  1  0.51419000  0.62774000  0.57870000  1.0
  C  C44  1  0.62775000  0.51420000  0.07870000  1.0
  C  C45  1  0.48580000  0.37226000  0.42130000  1.0
  C  C46  1  0.00690000  0.21241000  0.92702000  1.0
  C  C47  1  0.78759000  0.99308000  0.57298000  1.0
  C  C48  1  0.99309000  0.78759000  0.07298000  1.0
  C  C49  1  0.21241000  0.00690000  0.42702000  1.0
  C  C50  1  0.83063000  0.10926000  0.88552000  1.0
  C  C51  1  0.89075000  0.16936000  0.61448000  1.0
  C  C52  1  0.16938000  0.89075000  0.11448000  1.0
  C  C53  1  0.10925000  0.83062000  0.38552000  1.0
  C  C54  1  0.63357000  0.02749000  0.91435000  1.0
  C  C55  1  0.97251000  0.36642000  0.58565000  1.0
  C  C56  1  0.36643000  0.97252000  0.08565000  1.0
  C  C57  1  0.02748000  0.63357000  0.41435000  1.0
  C  C58  1  0.60533000  0.04273000  0.98486000  1.0
  C  C59  1  0.95726000  0.39466000  0.51514000  1.0
  C  C60  1  0.39467000  0.95726000  0.01513000  1.0
  C  C61  1  0.04273000  0.60533000  0.48487000  1.0
  C  C62  1  0.78686000  0.14363000  0.02545000  1.0
  C  C63  1  0.85637000  0.21313000  0.47455000  1.0
  C  C64  1  0.21312000  0.85637000  0.97455000  1.0
  C  C65  1  0.14364000  0.78687000  0.52544000  1.0
  C  C66  1  0.98454000  0.22868000  0.99722000  1.0
  C  C67  1  0.77133000  0.01544000  0.50278000  1.0
  C  C68  1  0.01544000  0.77132000  0.00278000  1.0
  C  C69  1  0.22869000  0.98455000  0.49722000  1.0
  C  C70  1  0.05535000  0.61059000  0.79837000  1.0
  C  C71  1  0.38940000  0.94465000  0.70163000  1.0
  C  C72  1  0.94465000  0.38942000  0.20163000  1.0
  C  C73  1  0.61059000  0.05536000  0.29837000  1.0
  N  N74  1  0.20888000  0.30347000  0.89801000  1.0
  N  N75  1  0.69653000  0.79111000  0.60199000  1.0
  N  N76  1  0.79112000  0.69653000  0.10199000  1.0
  N  N77  1  0.30348000  0.20888000  0.39801000  1.0
  N  N78  1  0.46959000  0.36856000  0.82752000  1.0
  N  N79  1  0.63144000  0.53039000  0.67248000  1.0
  N  N80  1  0.53041000  0.63144000  0.17249000  1.0
  N  N81  1  0.36857000  0.46960000  0.32751000  1.0
  O  O82  1  0.95022000  0.43672000  0.76637000  1.0
  O  O83  1  0.56329000  0.04978000  0.73363000  1.0
  O  O84  1  0.04979000  0.56330000  0.23363000  1.0
  O  O85  1  0.43672000  0.95023000  0.26637000  1.0
  O  O86  1  0.98878000  0.73920000  0.81918000  1.0
  O  O87  1  0.26077000  0.01122000  0.68084000  1.0
  O  O88  1  0.01123000  0.26080000  0.18083000  1.0
  O  O89  1  0.73920000  0.98878000  0.31918000  1.0
