# generated using pymatgen
data_Zn3H68C98(N3O7)2
_symmetry_space_group_name_H-M   'P 1'
_cell_length_a   9.40193000
_cell_length_b   17.42770000
_cell_length_c   19.85890000
_cell_angle_alpha   76.12700000
_cell_angle_beta   83.48190000
_cell_angle_gamma   88.31090000
_symmetry_Int_Tables_number   1
_chemical_formula_structural   Zn3H68C98(N3O7)2
_chemical_formula_sum   'Zn3 H68 C98 N6 O14'
_cell_volume   3138.61260747
_cell_formula_units_Z   1
loop_
 _symmetry_equiv_pos_site_id
 _symmetry_equiv_pos_as_xyz
  1  'x, y, z'
loop_
 _atom_site_type_symbol
 _atom_site_label
 _atom_site_symmetry_multiplicity
 _atom_site_fract_x
 _atom_site_fract_y
 _atom_site_fract_z
 _atom_site_occupancy
  Zn  Zn0  1  0.12897000  0.95471000  0.01020000  1.0
  Zn  Zn1  1  0.87103000  0.04529000  0.98980000  1.0
  Zn  Zn2  1  0.00000000  0.50000000  0.00000000  1.0
  H  H3  1  0.81131000  0.40514000  0.98958000  1.0
  H  H4  1  0.18869000  0.59486000  0.01042000  1.0
  H  H5  1  0.84111000  0.36415000  0.06850000  1.0
  H  H6  1  0.15889000  0.63585000  0.93150000  1.0
  H  H7  1  0.27561000  0.03898000  0.18457000  1.0
  H  H8  1  0.72438000  0.96102000  0.81543000  1.0
  H  H9  1  0.25516000  0.16373000  0.37420000  1.0
  H  H10  1  0.74485000  0.83627000  0.62580000  1.0
  H  H11  1  0.33541000  0.12214000  0.26366000  1.0
  H  H12  1  0.66459000  0.87786000  0.73634000  1.0
  H  H13  1  0.32692000  0.25908000  0.43916000  1.0
  H  H14  1  0.67308000  0.74091000  0.56084000  1.0
  H  H15  1  0.56196000  0.88661000  0.14239000  1.0
  H  H16  1  0.43804000  0.11339000  0.85761000  1.0
  H  H17  1  0.93110000  0.38939000  0.56331000  1.0
  H  H18  1  0.06890000  0.61062000  0.43669000  1.0
  H  H19  1  0.95673000  0.26191000  0.21960000  1.0
  H  H20  1  0.04327000  0.73809000  0.78040000  1.0
  H  H21  1  0.42761000  0.77314000  0.22143000  1.0
  H  H22  1  0.57240000  0.22686000  0.77857000  1.0
  H  H23  1  0.94090000  0.74323000  0.13917000  1.0
  H  H24  1  0.05911000  0.25677000  0.86082000  1.0
  H  H25  1  0.21371000  0.45214000  0.27395000  1.0
  H  H26  1  0.78629000  0.54786000  0.72605000  1.0
  H  H27  1  0.81381000  0.35417000  0.80341000  1.0
  H  H28  1  0.18619000  0.64583000  0.19660000  1.0
  H  H29  1  0.80825000  0.62959000  0.21684000  1.0
  H  H30  1  0.19176000  0.37041000  0.78316000  1.0
  H  H31  1  0.89829000  0.17749000  0.14067000  1.0
  H  H32  1  0.10170000  0.82252000  0.85933000  1.0
  H  H33  1  0.14017000  0.35825000  0.20945000  1.0
  H  H34  1  0.85983000  0.64175000  0.79055000  1.0
  H  H35  1  0.40860000  0.68519000  0.33852000  1.0
  H  H36  1  0.59141000  0.31481000  0.66148000  1.0
  H  H37  1  0.44852000  0.44768000  0.49838000  1.0
  H  H38  1  0.55148000  0.55232000  0.50162000  1.0
  H  H39  1  0.90782000  0.34048000  0.68489000  1.0
  H  H40  1  0.09218000  0.65952000  0.31511000  1.0
  H  H41  1  0.35100000  0.12983000  0.03671000  1.0
  H  H42  1  0.64900000  0.87017000  0.96329000  1.0
  H  H43  1  0.26155000  0.47688000  0.90325000  1.0
  H  H44  1  0.73845000  0.52312000  0.09675000  1.0
  H  H45  1  0.45607000  0.37771000  0.89422000  1.0
  H  H46  1  0.54393000  0.62228000  0.10577000  1.0
  H  H47  1  0.51820000  0.42243000  0.28903000  1.0
  H  H48  1  0.48180000  0.57757000  0.71097000  1.0
  H  H49  1  0.24510000  0.22755000  0.08295000  1.0
  H  H50  1  0.75490000  0.77245000  0.91705000  1.0
  H  H51  1  0.64971000  0.31920000  0.93514000  1.0
  H  H52  1  0.35029000  0.68080000  0.06486000  1.0
  H  H53  1  0.04526000  0.38032000  0.44715000  1.0
  H  H54  1  0.95474000  0.61968000  0.55285000  1.0
  H  H55  1  0.18737000  0.53880000  0.66211000  1.0
  H  H56  1  0.81262000  0.46120000  0.33789000  1.0
  H  H57  1  0.33416000  0.45957000  0.61360000  1.0
  H  H58  1  0.66584000  0.54043000  0.38640000  1.0
  H  H59  1  0.55596000  0.03673000  0.03447000  1.0
  H  H60  1  0.44404000  0.96327000  0.96553000  1.0
  H  H61  1  0.64039000  0.54093000  0.21485000  1.0
  H  H62  1  0.35961000  0.45907000  0.78515000  1.0
  H  H63  1  0.09638000  0.54921000  0.78216000  1.0
  H  H64  1  0.90362000  0.45079000  0.21784000  1.0
  H  H65  1  0.28664000  0.56644000  0.41319000  1.0
  H  H66  1  0.71336000  0.43356000  0.58681000  1.0
  H  H67  1  0.83751000  0.21682000  0.93423000  1.0
  H  H68  1  0.16248000  0.78319000  0.06577000  1.0
  H  H69  1  0.06423000  0.33333333  0.08433000  1.0
  H  H70  1  0.93578000  0.66666667  0.91567000  1.0
  C  C71  1  0.20589000  0.08763000  0.19309000  1.0
  C  C72  1  0.79410000  0.91237000  0.80691000  1.0
  C  C73  1  0.24622000  0.22710000  0.35190000  1.0
  C  C74  1  0.75378000  0.77290000  0.64810000  1.0
  C  C75  1  0.23839000  0.13407000  0.23745000  1.0
  C  C76  1  0.76161000  0.86593000  0.76254000  1.0
  C  C77  1  0.28648000  0.28037000  0.38862000  1.0
  C  C78  1  0.71353000  0.71963000  0.61138000  1.0
  C  C79  1  0.90841000  0.45492000  0.87501000  1.0
  C  C80  1  0.09160000  0.54508000  0.12499000  1.0
  C  C81  1  0.61529000  0.83008000  0.15963000  1.0
  C  C82  1  0.38471000  0.16992000  0.84037000  1.0
  C  C83  1  0.04507000  0.40196000  0.54971000  1.0
  C  C84  1  0.95493000  0.59804000  0.45029000  1.0
  C  C85  1  0.02727000  0.21325000  0.21158000  1.0
  C  C86  1  0.97273000  0.78675000  0.78842000  1.0
  C  C87  1  0.08471000  0.10424000  0.15687000  1.0
  C  C88  1  0.91528000  0.89576000  0.84313000  1.0
  C  C89  1  0.54069000  0.76636000  0.20410000  1.0
  C  C90  1  0.45931000  0.23363000  0.79590000  1.0
  C  C91  1  0.82823000  0.74938000  0.15701000  1.0
  C  C92  1  0.17177000  0.25062000  0.84299000  1.0
  C  C93  1  0.22221000  0.38888000  0.29579000  1.0
  C  C94  1  0.77779000  0.61112000  0.70421000  1.0
  C  C95  1  0.89585000  0.39438000  0.77202000  1.0
  C  C96  1  0.10416000  0.60562000  0.22798000  1.0
  C  C97  1  0.19262000  0.25365000  0.28694000  1.0
  C  C98  1  0.80739000  0.74634000  0.71305000  1.0
  C  C99  1  0.75333000  0.68565000  0.20048000  1.0
  C  C100  1  0.24667000  0.31435000  0.79952000  1.0
  C  C101  1  0.99381000  0.16636000  0.16799000  1.0
  C  C102  1  0.00619000  0.83365000  0.83202000  1.0
  C  C103  1  0.18064000  0.33564000  0.25988000  1.0
  C  C104  1  0.81936000  0.66436000  0.74012000  1.0
  C  C105  1  0.75986000  0.82221000  0.13542000  1.0
  C  C106  1  0.24014000  0.17778000  0.86458000  1.0
  C  C107  1  0.43196000  0.62781000  0.32673000  1.0
  C  C108  1  0.56805000  0.37219000  0.67327000  1.0
  C  C109  1  0.25374000  0.41594000  0.46415000  1.0
  C  C110  1  0.74626000  0.58406000  0.53585000  1.0
  C  C111  1  0.33421000  0.43689000  0.51232000  1.0
  C  C112  1  0.66579000  0.56311000  0.48768000  1.0
  C  C113  1  0.05608000  0.06035000  0.10335000  1.0
  C  C114  1  0.94391000  0.93965000  0.89665000  1.0
  C  C115  1  0.94776000  0.38756000  0.70520000  1.0
  C  C116  1  0.05224000  0.61244000  0.29480000  1.0
  C  C117  1  0.45689000  0.15290000  0.01445000  1.0
  C  C118  1  0.54311000  0.84710000  0.98555000  1.0
  C  C119  1  0.26273000  0.42036000  0.94137000  1.0
  C  C120  1  0.73727000  0.57964000  0.05863000  1.0
  C  C121  1  0.37083000  0.36511000  0.93727000  1.0
  C  C122  1  0.62916000  0.63489000  0.06273000  1.0
  C  C123  1  0.49426000  0.48003000  0.30009000  1.0
  C  C124  1  0.50574000  0.51997000  0.69990000  1.0
  C  C125  1  0.48182000  0.23386000  0.98626000  1.0
  C  C126  1  0.51819000  0.76614000  0.01373000  1.0
  C  C127  1  0.25328000  0.28126000  0.04128000  1.0
  C  C128  1  0.74672000  0.71874000  0.95872000  1.0
  C  C129  1  0.62097000  0.25739000  0.95662000  1.0
  C  C130  1  0.37903000  0.74261000  0.04338000  1.0
  C  C131  1  0.15177000  0.19900000  0.24603000  1.0
  C  C132  1  0.84823000  0.80100000  0.75396000  1.0
  C  C133  1  0.60828000  0.69261000  0.22480000  1.0
  C  C134  1  0.39173000  0.30739000  0.77520000  1.0
  C  C135  1  0.39226000  0.48578000  0.35628000  1.0
  C  C136  1  0.60774000  0.51422000  0.64372000  1.0
  C  C137  1  0.53220000  0.62284000  0.26980000  1.0
  C  C138  1  0.46781000  0.37716000  0.73020000  1.0
  C  C139  1  0.10869000  0.39671000  0.48414000  1.0
  C  C140  1  0.89130000  0.60329000  0.51586000  1.0
  C  C141  1  0.10627000  0.49768000  0.69306000  1.0
  C  C142  1  0.89373000  0.50232000  0.30694000  1.0
  C  C143  1  0.12246000  0.42764000  0.59674000  1.0
  C  C144  1  0.87754000  0.57235000  0.40326000  1.0
  C  C145  1  0.26923000  0.44380000  0.57688000  1.0
  C  C146  1  0.73077000  0.55620000  0.42312000  1.0
  C  C147  1  0.05652000  0.43781000  0.66498000  1.0
  C  C148  1  0.94349000  0.56219000  0.33502000  1.0
  C  C149  1  0.95180000  0.45150000  0.80084000  1.0
  C  C150  1  0.04820000  0.54850000  0.19916000  1.0
  C  C151  1  0.56978000  0.09999000  0.01226000  1.0
  C  C152  1  0.43022000  0.90001000  0.98774000  1.0
  C  C153  1  0.36746000  0.29337000  0.98796000  1.0
  C  C154  1  0.63254000  0.70664000  0.01204000  1.0
  C  C155  1  0.27569000  0.36192000  0.36033000  1.0
  C  C156  1  0.72431000  0.63808000  0.63967000  1.0
  C  C157  1  0.56179000  0.54718000  0.25797000  1.0
  C  C158  1  0.43821000  0.45282000  0.74203000  1.0
  C  C159  1  0.84069000  0.88944000  0.08620000  1.0
  C  C160  1  0.15931000  0.11056000  0.91380000  1.0
  C  C161  1  0.05575000  0.50392000  0.75995000  1.0
  C  C162  1  0.94425000  0.49608000  0.24005000  1.0
  C  C163  1  0.36360000  0.56088000  0.36934000  1.0
  C  C164  1  0.63640000  0.43912000  0.63066000  1.0
  C  C165  1  0.72778000  0.20083000  0.95625000  1.0
  C  C166  1  0.27223000  0.79917000  0.04375000  1.0
  C  C167  1  0.15101000  0.34021000  0.04204000  1.0
  C  C168  1  0.84899000  0.65980000  0.95796000  1.0
  N  N169  1  0.31854000  0.41754000  0.39600000  1.0
  N  N170  1  0.68146000  0.58246000  0.60400000  1.0
  N  N171  1  0.15432000  0.40854000  0.99308000  1.0
  N  N172  1  0.84568000  0.59146000  0.00692000  1.0
  N  N173  1  0.70297000  0.12325000  0.98353000  1.0
  N  N174  1  0.29703000  0.87675000  0.01647000  1.0
  O  O175  1  0.82312000  0.40236000  0.91258000  1.0
  O  O176  1  0.17689000  0.59765000  0.08742000  1.0
  O  O177  1  0.97556000  0.88054000  0.07411000  1.0
  O  O178  1  0.02444000  0.11945000  0.92589000  1.0
  O  O179  1  0.94136000  0.07794000  0.07481000  1.0
  O  O180  1  0.05863000  0.92206000  0.92519000  1.0
  O  O181  1  0.81992000  0.41487000  0.03830000  1.0
  O  O182  1  0.18008000  0.58513000  0.96170000  1.0
  O  O183  1  0.15094000  0.01101000  0.08908000  1.0
  O  O184  1  0.84904000  0.98899000  0.91092000  1.0
  O  O185  1  0.76918000  0.95010000  0.05920000  1.0
  O  O186  1  0.23083000  0.04990000  0.94080000  1.0
  O  O187  1  0.96464000  0.50982000  0.89605000  1.0
  O  O188  1  0.03535000  0.49018000  0.10395000  1.0
