# generated using pymatgen
data_AlH9C15N2O5
_symmetry_space_group_name_H-M   'P 1'
_cell_length_a   6.66980000
_cell_length_b   22.82220000
_cell_length_c   25.41080000
_cell_angle_alpha   103.60300000
_cell_angle_beta   89.99980000
_cell_angle_gamma   89.99980000
_symmetry_Int_Tables_number   1
_chemical_formula_structural   AlH9C15N2O5
_chemical_formula_sum   'Al4 H36 C60 N8 O20'
_cell_volume   3759.51648831
_cell_formula_units_Z   4
loop_
 _symmetry_equiv_pos_site_id
 _symmetry_equiv_pos_as_xyz
  1  'x, y, z'
loop_
 _atom_site_type_symbol
 _atom_site_label
 _atom_site_symmetry_multiplicity
 _atom_site_fract_x
 _atom_site_fract_y
 _atom_site_fract_z
 _atom_site_occupancy
  Al  Al0  1  0.03227000  0.49926000  0.49942000  1.0
  Al  Al1  1  0.46570000  0.00134000  0.00021000  1.0
  Al  Al2  1  0.53226000  0.50074000  0.50058000  1.0
  Al  Al3  1  0.96570000  0.99866000  0.99979000  1.0
  H  H4  1  0.94316000  0.73164000  0.70415000  1.0
  H  H5  1  0.55100000  0.80520000  0.76794000  1.0
  H  H6  1  0.44316000  0.26836000  0.29585000  1.0
  H  H7  1  0.05101000  0.19480000  0.23206000  1.0
  H  H8  1  0.95835000  0.64618000  0.62331000  1.0
  H  H9  1  0.53477000  0.88699000  0.85171000  1.0
  H  H10  1  0.45837000  0.35383000  0.37669000  1.0
  H  H11  1  0.03478000  0.11301000  0.14829000  1.0
  H  H12  1  0.58620000  0.62411000  0.65074000  1.0
  H  H13  1  0.91812000  0.84374000  0.87369000  1.0
  H  H14  1  0.08622000  0.37589000  0.34926000  1.0
  H  H15  1  0.41812000  0.15626000  0.12631000  1.0
  H  H16  1  0.54411000  0.89849000  0.10856000  1.0
  H  H17  1  0.95675000  0.60152000  0.39114000  1.0
  H  H18  1  0.04411000  0.10152000  0.89145000  1.0
  H  H19  1  0.45674000  0.39847000  0.60886000  1.0
  H  H20  1  0.55638000  0.83189000  0.17452000  1.0
  H  H21  1  0.94537000  0.66812000  0.32522000  1.0
  H  H22  1  0.05638000  0.16811000  0.82549000  1.0
  H  H23  1  0.44536000  0.33187000  0.67478000  1.0
  H  H24  1  0.91270000  0.82251000  0.17315000  1.0
  H  H25  1  0.58903000  0.67750000  0.32712000  1.0
  H  H26  1  0.41269000  0.17749000  0.82684000  1.0
  H  H27  1  0.08902000  0.32251000  0.67288000  1.0
  H  H28  1  0.57007000  0.70642000  0.73421000  1.0
  H  H29  1  0.93714000  0.75849000  0.79278000  1.0
  H  H30  1  0.07007000  0.29358000  0.26579000  1.0
  H  H31  1  0.43714000  0.24151000  0.20722000  1.0
  H  H32  1  0.90159000  0.88928000  0.10730000  1.0
  H  H33  1  0.59933000  0.61074000  0.39299000  1.0
  H  H34  1  0.40159000  0.11072000  0.89270000  1.0
  H  H35  1  0.09932000  0.38926000  0.60702000  1.0
  H  H36  1  0.78505000  0.57959000  0.51202000  1.0
  H  H37  1  0.70995000  0.92037000  0.98531000  1.0
  H  H38  1  0.28505000  0.42041000  0.48798000  1.0
  H  H39  1  0.20995000  0.07963000  0.01469000  1.0
  C  C40  1  0.78193000  0.43574000  0.56378000  1.0
  C  C41  1  0.71731000  0.06419000  0.93615000  1.0
  C  C42  1  0.28194000  0.56426000  0.43622000  1.0
  C  C43  1  0.21731000  0.93581000  0.06385000  1.0
  C  C44  1  0.78044000  0.41904000  0.41854000  1.0
  C  C45  1  0.71864000  0.08077000  0.08153000  1.0
  C  C46  1  0.28042000  0.58096000  0.58146000  1.0
  C  C47  1  0.21864000  0.91923000  0.91847000  1.0
  C  C48  1  0.08371000  0.70734000  0.69353000  1.0
  C  C49  1  0.41323000  0.81233000  0.79171000  1.0
  C  C50  1  0.58372000  0.29267000  0.30647000  1.0
  C  C51  1  0.91323000  0.18767000  0.20828000  1.0
  C  C52  1  0.09179000  0.66009000  0.64777000  1.0
  C  C53  1  0.40437000  0.85869000  0.83822000  1.0
  C  C54  1  0.59180000  0.33991000  0.35223000  1.0
  C  C55  1  0.90438000  0.14131000  0.16178000  1.0
  C  C56  1  0.27329000  0.63021000  0.63168000  1.0
  C  C57  1  0.22578000  0.87034000  0.86803000  1.0
  C  C58  1  0.77330000  0.36979000  0.36832000  1.0
  C  C59  1  0.72577000  0.12966000  0.13197000  1.0
  C  C60  1  0.44583000  0.64788000  0.66292000  1.0
  C  C61  1  0.05655000  0.83470000  0.85042000  1.0
  C  C62  1  0.94584000  0.35212000  0.33708000  1.0
  C  C63  1  0.55655000  0.16531000  0.14958000  1.0
  C  C64  1  0.43624000  0.69445000  0.70932000  1.0
  C  C65  1  0.06741000  0.78749000  0.80459000  1.0
  C  C66  1  0.93626000  0.30555000  0.29068000  1.0
  C  C67  1  0.56741000  0.21251000  0.19541000  1.0
  C  C68  1  0.25552000  0.72543000  0.72538000  1.0
  C  C69  1  0.24555000  0.77540000  0.77422000  1.0
  C  C70  1  0.75553000  0.27457000  0.27462000  1.0
  C  C71  1  0.74556000  0.22460000  0.22578000  1.0
  C  C72  1  0.40721000  0.88142000  0.12300000  1.0
  C  C73  1  0.09387000  0.61859000  0.37684000  1.0
  C  C74  1  0.90721000  0.11859000  0.87701000  1.0
  C  C75  1  0.59386000  0.38141000  0.62316000  1.0
  C  C76  1  0.41406000  0.84472000  0.15948000  1.0
  C  C77  1  0.08746000  0.65529000  0.34038000  1.0
  C  C78  1  0.91406000  0.15528000  0.84052000  1.0
  C  C79  1  0.58745000  0.34471000  0.65962000  1.0
  C  C80  1  0.23534000  0.82328000  0.17761000  1.0
  C  C81  1  0.26647000  0.67675000  0.32240000  1.0
  C  C82  1  0.73534000  0.17672000  0.82239000  1.0
  C  C83  1  0.76647000  0.32326000  0.67760000  1.0
  C  C84  1  0.04985000  0.83947000  0.15877000  1.0
  C  C85  1  0.45169000  0.66052000  0.34139000  1.0
  C  C86  1  0.54984000  0.16053000  0.84123000  1.0
  C  C87  1  0.95168000  0.33948000  0.65861000  1.0
  C  C88  1  0.04395000  0.87631000  0.12231000  1.0
  C  C89  1  0.45714000  0.62370000  0.37788000  1.0
  C  C90  1  0.54394000  0.12369000  0.87769000  1.0
  C  C91  1  0.95713000  0.37631000  0.62213000  1.0
  C  C92  1  0.22236000  0.89735000  0.10398000  1.0
  C  C93  1  0.27846000  0.60270000  0.39607000  1.0
  C  C94  1  0.72236000  0.10265000  0.89602000  1.0
  C  C95  1  0.77844000  0.39730000  0.60393000  1.0
  C  C96  1  0.25869000  0.71580000  0.28394000  1.0
  C  C97  1  0.24348000  0.78428000  0.21611000  1.0
  C  C98  1  0.75869000  0.28420000  0.71606000  1.0
  C  C99  1  0.74349000  0.21573000  0.78389000  1.0
  N  N100  1  0.06798000  0.76433000  0.23239000  1.0
  N  N101  1  0.43418000  0.73578000  0.26770000  1.0
  N  N102  1  0.56798000  0.23566000  0.76761000  1.0
  N  N103  1  0.93417000  0.26422000  0.73230000  1.0
  N  N104  1  0.07580000  0.72954000  0.26688000  1.0
  N  N105  1  0.42637000  0.77059000  0.23321000  1.0
  N  N106  1  0.57579000  0.27046000  0.73312000  1.0
  N  N107  1  0.92637000  0.22941000  0.76679000  1.0
  O  O108  1  0.61235000  0.43832000  0.43952000  1.0
  O  O109  1  0.88680000  0.06008000  0.06168000  1.0
  O  O110  1  0.11235000  0.56168000  0.56048000  1.0
  O  O111  1  0.38679000  0.93992000  0.93832000  1.0
  O  O112  1  0.95253000  0.44913000  0.54725000  1.0
  O  O113  1  0.54576000  0.05101000  0.95220000  1.0
  O  O114  1  0.45255000  0.55087000  0.45275000  1.0
  O  O115  1  0.04577000  0.94899000  0.04780000  1.0
  O  O116  1  0.95240000  0.43756000  0.43729000  1.0
  O  O117  1  0.54691000  0.06387000  0.06149000  1.0
  O  O118  1  0.45241000  0.56244000  0.56271000  1.0
  O  O119  1  0.04691000  0.93613000  0.93851000  1.0
  O  O120  1  0.11238000  0.54852000  0.45139000  1.0
  O  O121  1  0.38598000  0.95172000  0.04822000  1.0
  O  O122  1  0.61236000  0.45148000  0.54861000  1.0
  O  O123  1  0.88597000  0.04828000  0.95178000  1.0
  O  O124  1  0.78293000  0.53603000  0.50434000  1.0
  O  O125  1  0.71420000  0.96394000  0.99562000  1.0
  O  O126  1  0.28293000  0.46397000  0.49566000  1.0
  O  O127  1  0.21420000  0.03606000  0.00438000  1.0
