# generated using pymatgen
data_AgH19C25(N2O)3
_symmetry_space_group_name_H-M   'P 1'
_cell_length_a   7.10655000
_cell_length_b   12.96680000
_cell_length_c   13.28590000
_cell_angle_alpha   67.84960000
_cell_angle_beta   82.40050000
_cell_angle_gamma   76.66840000
_symmetry_Int_Tables_number   1
_chemical_formula_structural   AgH19C25(N2O)3
_chemical_formula_sum   'Ag2 H38 C50 N12 O6'
_cell_volume   1101.97721044
_cell_formula_units_Z   2
loop_
 _symmetry_equiv_pos_site_id
 _symmetry_equiv_pos_as_xyz
  1  'x, y, z'
loop_
 _atom_site_type_symbol
 _atom_site_label
 _atom_site_symmetry_multiplicity
 _atom_site_fract_x
 _atom_site_fract_y
 _atom_site_fract_z
 _atom_site_occupancy
  Ag  Ag0  1  0.71864000  0.05005000  0.39467000  1.0
  Ag  Ag1  1  0.28136000  0.94995000  0.60533000  1.0
  H  H2  1  0.87552000  0.01505000  0.74086000  1.0
  H  H3  1  0.12448000  0.98495000  0.25914000  1.0
  H  H4  1  0.94788000  0.80338000  0.01181000  1.0
  H  H5  1  0.05212000  0.19662000  0.98819000  1.0
  H  H6  1  0.87650000  0.61203000  0.04825000  1.0
  H  H7  1  0.12350000  0.38797000  0.95175000  1.0
  H  H8  1  0.70823000  0.72183000  0.71864000  1.0
  H  H9  1  0.29177000  0.27817000  0.28136000  1.0
  H  H10  1  0.89851000  0.38747000  0.71800000  1.0
  H  H11  1  0.10149000  0.61253000  0.28200000  1.0
  H  H12  1  0.89580000  0.18018000  0.77161000  1.0
  H  H13  1  0.10420000  0.81982000  0.22840000  1.0
  H  H14  1  0.72791000  0.07953000  0.94307000  1.0
  H  H15  1  0.27208000  0.92047000  0.05693000  1.0
  H  H16  1  0.55302000  0.18559000  0.06313000  1.0
  H  H17  1  0.44698000  0.81441000  0.93687000  1.0
  H  H18  1  0.56701000  0.38998000  0.01208000  1.0
  H  H19  1  0.43299000  0.61002000  0.98792000  1.0
  H  H20  1  0.64331000  0.80678000  0.50099000  1.0
  H  H21  1  0.35669000  0.19322000  0.49901000  1.0
  H  H22  1  0.56163000  0.68227000  0.25346000  1.0
  H  H23  1  0.43837000  0.31773000  0.74654000  1.0
  H  H24  1  0.64584000  0.86243000  0.11398000  1.0
  H  H25  1  0.35416000  0.13757000  0.88602000  1.0
  H  H26  1  0.73144000  0.00373000  0.17796000  1.0
  H  H27  1  0.26855000  0.99627000  0.82204000  1.0
  H  H28  1  0.58590000  0.61331000  0.55894000  1.0
  H  H29  1  0.41410000  0.38669000  0.44106000  1.0
  H  H30  1  0.86539000  0.18906000  0.50160000  1.0
  H  H31  1  0.13460000  0.81094000  0.49840000  1.0
  H  H32  1  0.85104000  0.52926000  0.26604000  1.0
  H  H33  1  0.14896000  0.47074000  0.73396000  1.0
  H  H34  1  0.72289000  0.46630000  0.13345000  1.0
  H  H35  1  0.27711000  0.53370000  0.86655000  1.0
  H  H36  1  0.67195000  0.26836000  0.19572000  1.0
  H  H37  1  0.32805000  0.73164000  0.80428000  1.0
  H  H38  1  0.96293000  0.32723000  0.55675000  1.0
  H  H39  1  0.03707000  0.67277000  0.44325000  1.0
  C  C40  1  0.76699000  0.93763000  0.65107000  1.0
  C  C41  1  0.23301000  0.06237000  0.34893000  1.0
  C  C42  1  0.79355000  0.84746000  0.76179000  1.0
  C  C43  1  0.20645000  0.15254000  0.23821000  1.0
  C  C44  1  0.86553000  0.87006000  0.84520000  1.0
  C  C45  1  0.13447000  0.12994000  0.15480000  1.0
  C  C46  1  0.89175000  0.78512000  0.94925000  1.0
  C  C47  1  0.10825000  0.21488000  0.05075000  1.0
  C  C48  1  0.85229000  0.67947000  0.96909000  1.0
  C  C49  1  0.14771000  0.32053000  0.03091000  1.0
  C  C50  1  0.78922000  0.65460000  0.88602000  1.0
  C  C51  1  0.21078000  0.34541000  0.11398000  1.0
  C  C52  1  0.75824000  0.73993000  0.78310000  1.0
  C  C53  1  0.24176000  0.26007000  0.21690000  1.0
  C  C54  1  0.74019000  0.39835000  0.86473000  1.0
  C  C55  1  0.25981000  0.60165000  0.13527000  1.0
  C  C56  1  0.82673000  0.34103000  0.79421000  1.0
  C  C57  1  0.17327000  0.65897000  0.20580000  1.0
  C  C58  1  0.82397000  0.22617000  0.82424000  1.0
  C  C59  1  0.17603000  0.77383000  0.17576000  1.0
  C  C60  1  0.72879000  0.16921000  0.92175000  1.0
  C  C61  1  0.27121000  0.83079000  0.07825000  1.0
  C  C62  1  0.63366000  0.22827000  0.98896000  1.0
  C  C63  1  0.36633000  0.77173000  0.01104000  1.0
  C  C64  1  0.64026000  0.34225000  0.96123000  1.0
  C  C65  1  0.35974000  0.65775000  0.03877000  1.0
  C  C66  1  0.64230000  0.81498000  0.41620000  1.0
  C  C67  1  0.35770000  0.18502000  0.58380000  1.0
  C  C68  1  0.59833000  0.72936000  0.38828000  1.0
  C  C69  1  0.40166000  0.27064000  0.61172000  1.0
  C  C70  1  0.59739000  0.74688000  0.27728000  1.0
  C  C71  1  0.40261000  0.25312000  0.72272000  1.0
  C  C72  1  0.64315000  0.84655000  0.20063000  1.0
  C  C73  1  0.35685000  0.15345000  0.79936000  1.0
  C  C74  1  0.68837000  0.92634000  0.23557000  1.0
  C  C75  1  0.31163000  0.07366000  0.76443000  1.0
  C  C76  1  0.56213000  0.62542000  0.47467000  1.0
  C  C77  1  0.43787000  0.37458000  0.52533000  1.0
  C  C78  1  0.83828000  0.25377000  0.42081000  1.0
  C  C79  1  0.16172000  0.74623000  0.57919000  1.0
  C  C80  1  0.87249000  0.36383000  0.39303000  1.0
  C  C81  1  0.12751000  0.63617000  0.60696000  1.0
  C  C82  1  0.82855000  0.44303000  0.28831000  1.0
  C  C83  1  0.17146000  0.55696000  0.71169000  1.0
  C  C84  1  0.75600000  0.40911000  0.21625000  1.0
  C  C85  1  0.24400000  0.59089000  0.78374000  1.0
  C  C86  1  0.72719000  0.29808000  0.25034000  1.0
  C  C87  1  0.27281000  0.70192000  0.74966000  1.0
  C  C88  1  0.94169000  0.39285000  0.47526000  1.0
  C  C89  1  0.05830000  0.60715000  0.52474000  1.0
  N  N90  1  0.76590000  0.54262000  0.91348000  1.0
  N  N91  1  0.23410000  0.45738000  0.08652000  1.0
  N  N92  1  0.76268000  0.51191000  0.83342000  1.0
  N  N93  1  0.23732000  0.48809000  0.16658000  1.0
  N  N94  1  0.68666000  0.91133000  0.34177000  1.0
  N  N95  1  0.31334000  0.08867000  0.65823000  1.0
  N  N96  1  0.50863000  0.54710000  0.45347000  1.0
  N  N97  1  0.49136000  0.45290000  0.54653000  1.0
  N  N98  1  0.76594000  0.22155000  0.35114000  1.0
  N  N99  1  0.23406000  0.77845000  0.64885000  1.0
  N  N100  1  0.97177000  0.49386000  0.45490000  1.0
  N  N101  1  0.02823000  0.50614000  0.54510000  1.0
  O  O102  1  0.70223000  0.91594000  0.57866000  1.0
  O  O103  1  0.29777000  0.08406000  0.42134000  1.0
  O  O104  1  0.81452000  0.03277000  0.63633000  1.0
  O  O105  1  0.18548000  0.96723000  0.36367000  1.0
  O  O106  1  0.90876000  0.97128000  0.82448000  1.0
  O  O107  1  0.09124000  0.02872000  0.17552000  1.0
