# generated using pymatgen
data_MnH24C30(N2O3)2
_symmetry_space_group_name_H-M   'P 1'
_cell_length_a   9.78404000
_cell_length_b   11.43010000
_cell_length_c   23.19760000
_cell_angle_alpha   90.00020000
_cell_angle_beta   90.00000000
_cell_angle_gamma   97.02470000
_symmetry_Int_Tables_number   1
_chemical_formula_structural   MnH24C30(N2O3)2
_chemical_formula_sum   'Mn4 H96 C120 N16 O24'
_cell_volume   2574.77323461
_cell_formula_units_Z   4
loop_
 _symmetry_equiv_pos_site_id
 _symmetry_equiv_pos_as_xyz
  1  'x, y, z'
loop_
 _atom_site_type_symbol
 _atom_site_label
 _atom_site_symmetry_multiplicity
 _atom_site_fract_x
 _atom_site_fract_y
 _atom_site_fract_z
 _atom_site_occupancy
  Mn  Mn0  1  0.24796000  0.49848000  0.76862000  1.0
  Mn  Mn1  1  0.25205000  0.50152000  0.26862000  1.0
  Mn  Mn2  1  0.75205000  0.50152000  0.23138000  1.0
  Mn  Mn3  1  0.74796000  0.49848000  0.73138000  1.0
  H  H4  1  0.14687000  0.63800000  0.66453000  1.0
  H  H5  1  0.35313000  0.36201000  0.16452000  1.0
  H  H6  1  0.85313000  0.36200000  0.33548000  1.0
  H  H7  1  0.64688000  0.63799000  0.83548000  1.0
  H  H8  1  0.14541000  0.64114000  0.55756000  1.0
  H  H9  1  0.35458000  0.35886000  0.05756000  1.0
  H  H10  1  0.85459000  0.35886000  0.44245000  1.0
  H  H11  1  0.64542000  0.64114000  0.94245000  1.0
  H  H12  1  0.35124000  0.32609000  0.56177000  1.0
  H  H13  1  0.14876000  0.67391000  0.06177000  1.0
  H  H14  1  0.64876000  0.67391000  0.43823000  1.0
  H  H15  1  0.85124000  0.32609000  0.93824000  1.0
  H  H16  1  0.35107000  0.34242000  0.66793000  1.0
  H  H17  1  0.14893000  0.65758000  0.16793000  1.0
  H  H18  1  0.64893000  0.65758000  0.33207000  1.0
  H  H19  1  0.85107000  0.34242000  0.83207000  1.0
  H  H20  1  0.06928000  0.57674000  0.47615000  1.0
  H  H21  1  0.43072000  0.42327000  0.97615000  1.0
  H  H22  1  0.93072000  0.42326000  0.52385000  1.0
  H  H23  1  0.56928000  0.57674000  0.02385000  1.0
  H  H24  1  0.08111000  0.57699000  0.36917000  1.0
  H  H25  1  0.41889000  0.42302000  0.86917000  1.0
  H  H26  1  0.91889000  0.42301000  0.63083000  1.0
  H  H27  1  0.58111000  0.57699000  0.13083000  1.0
  H  H28  1  0.42471000  0.40041000  0.36902000  1.0
  H  H29  1  0.07529000  0.59958000  0.86902000  1.0
  H  H30  1  0.57529000  0.59959000  0.63098000  1.0
  H  H31  1  0.92471000  0.40042000  0.13098000  1.0
  H  H32  1  0.42855000  0.39001000  0.47631000  1.0
  H  H33  1  0.07144000  0.60999000  0.97631000  1.0
  H  H34  1  0.57144000  0.60999000  0.52369000  1.0
  H  H35  1  0.92856000  0.39001000  0.02369000  1.0
  H  H36  1  0.75161000  0.99082000  0.63966000  1.0
  H  H37  1  0.74839000  0.00918000  0.13966000  1.0
  H  H38  1  0.24839000  0.00918000  0.36034000  1.0
  H  H39  1  0.25161000  0.99082000  0.86034000  1.0
  H  H40  1  0.92090000  0.13251000  0.80133000  1.0
  H  H41  1  0.57910000  0.86749000  0.30133000  1.0
  H  H42  1  0.07910000  0.86749000  0.19867000  1.0
  H  H43  1  0.42090000  0.13251000  0.69867000  1.0
  H  H44  1  0.74103000  0.00557000  0.85328000  1.0
  H  H45  1  0.75897000  0.99443000  0.35328000  1.0
  H  H46  1  0.25896000  0.99443000  0.14672000  1.0
  H  H47  1  0.24103000  0.00557000  0.64672000  1.0
  H  H48  1  0.56628000  0.87024000  0.80133000  1.0
  H  H49  1  0.93372000  0.12976000  0.30133000  1.0
  H  H50  1  0.43372000  0.12976000  0.19867000  1.0
  H  H51  1  0.06628000  0.87024000  0.69867000  1.0
  H  H52  1  0.38788000  0.73289000  0.67866000  1.0
  H  H53  1  0.11212000  0.26711000  0.17866000  1.0
  H  H54  1  0.61212000  0.26711000  0.32134000  1.0
  H  H55  1  0.88788000  0.73289000  0.82134000  1.0
  H  H56  1  0.39704000  0.81526000  0.74319000  1.0
  H  H57  1  0.10296000  0.18474000  0.24319000  1.0
  H  H58  1  0.60296000  0.18473000  0.25681000  1.0
  H  H59  1  0.89704000  0.81527000  0.75682000  1.0
  H  H60  1  0.11394000  0.25474000  0.67904000  1.0
  H  H61  1  0.38606000  0.74526000  0.17904000  1.0
  H  H62  1  0.88606000  0.74526000  0.32096000  1.0
  H  H63  1  0.61394000  0.25474000  0.82096000  1.0
  H  H64  1  0.09677000  0.17723000  0.74496000  1.0
  H  H65  1  0.40323000  0.82277000  0.24495000  1.0
  H  H66  1  0.90323000  0.82277000  0.25504000  1.0
  H  H67  1  0.59677000  0.17723000  0.75505000  1.0
  H  H68  1  0.19906000  0.79650000  0.39836000  1.0
  H  H69  1  0.30094000  0.20350000  0.89836000  1.0
  H  H70  1  0.80094000  0.20350000  0.60164000  1.0
  H  H71  1  0.69906000  0.79651000  0.10163000  1.0
  H  H72  1  0.43720000  0.77513000  0.37157000  1.0
  H  H73  1  0.06281000  0.22488000  0.87156000  1.0
  H  H74  1  0.56281000  0.22487000  0.62844000  1.0
  H  H75  1  0.93720000  0.77513000  0.12843000  1.0
  H  H76  1  0.58226000  0.86539000  0.53560000  1.0
  H  H77  1  0.91774000  0.13461000  0.03560000  1.0
  H  H78  1  0.41774000  0.13461000  0.46440000  1.0
  H  H79  1  0.08225000  0.86539000  0.96440000  1.0
  H  H80  1  0.34831000  0.89010000  0.57049000  1.0
  H  H81  1  0.15168000  0.10990000  0.07048000  1.0
  H  H82  1  0.65169000  0.10990000  0.42952000  1.0
  H  H83  1  0.84831000  0.89011000  0.92951000  1.0
  H  H84  1  0.02027000  0.86911000  0.42102000  1.0
  H  H85  1  0.47973000  0.13089000  0.92102000  1.0
  H  H86  1  0.97973000  0.13089000  0.57898000  1.0
  H  H87  1  0.52028000  0.86911000  0.07898000  1.0
  H  H88  1  0.78090000  0.86674000  0.45717000  1.0
  H  H89  1  0.71910000  0.13325000  0.95717000  1.0
  H  H90  1  0.21911000  0.13325000  0.54283000  1.0
  H  H91  1  0.28090000  0.86675000  0.04283000  1.0
  H  H92  1  0.89984000  0.82562000  0.62611000  1.0
  H  H93  1  0.60016000  0.17438000  0.12610000  1.0
  H  H94  1  0.10016000  0.17437000  0.37389000  1.0
  H  H95  1  0.39983000  0.82562000  0.87389000  1.0
  H  H96  1  0.14509000  0.82905000  0.59838000  1.0
  H  H97  1  0.35491000  0.17095000  0.09838000  1.0
  H  H98  1  0.85491000  0.17095000  0.40162000  1.0
  H  H99  1  0.64509000  0.82905000  0.90162000  1.0
  C  C100  1  0.19347000  0.57229000  0.63978000  1.0
  C  C101  1  0.30653000  0.42771000  0.13978000  1.0
  C  C102  1  0.80653000  0.42771000  0.36022000  1.0
  C  C103  1  0.69347000  0.57229000  0.86022000  1.0
  C  C104  1  0.19147000  0.57222000  0.57999000  1.0
  C  C105  1  0.30853000  0.42779000  0.07999000  1.0
  C  C106  1  0.80853000  0.42778000  0.42001000  1.0
  C  C107  1  0.69147000  0.57222000  0.92001000  1.0
  C  C108  1  0.24920000  0.48442000  0.54951000  1.0
  C  C109  1  0.25080000  0.51558000  0.04951000  1.0
  C  C110  1  0.75080000  0.51558000  0.45049000  1.0
  C  C111  1  0.74920000  0.48442000  0.95049000  1.0
  C  C112  1  0.30670000  0.39910000  0.58189000  1.0
  C  C113  1  0.19330000  0.60091000  0.08189000  1.0
  C  C114  1  0.69330000  0.60090000  0.41811000  1.0
  C  C115  1  0.80670000  0.39910000  0.91811000  1.0
  C  C116  1  0.30546000  0.40630000  0.64169000  1.0
  C  C117  1  0.19454000  0.59371000  0.14169000  1.0
  C  C118  1  0.69454000  0.59370000  0.35831000  1.0
  C  C119  1  0.80546000  0.40629000  0.85831000  1.0
  C  C120  1  0.24942000  0.48379000  0.48601000  1.0
  C  C121  1  0.25057000  0.51621000  0.98601000  1.0
  C  C122  1  0.75057000  0.51621000  0.51399000  1.0
  C  C123  1  0.74943000  0.48380000  0.01399000  1.0
  C  C124  1  0.15045000  0.53615000  0.45462000  1.0
  C  C125  1  0.34955000  0.46386000  0.95462000  1.0
  C  C126  1  0.84955000  0.46385000  0.54538000  1.0
  C  C127  1  0.65045000  0.53615000  0.04538000  1.0
  C  C128  1  0.15597000  0.53672000  0.39488000  1.0
  C  C129  1  0.34403000  0.46329000  0.89488000  1.0
  C  C130  1  0.84403000  0.46328000  0.60512000  1.0
  C  C131  1  0.65597000  0.53672000  0.10512000  1.0
  C  C132  1  0.34849000  0.43881000  0.39478000  1.0
  C  C133  1  0.15151000  0.56119000  0.89478000  1.0
  C  C134  1  0.65151000  0.56119000  0.60522000  1.0
  C  C135  1  0.84849000  0.43881000  0.10522000  1.0
  C  C136  1  0.34948000  0.43289000  0.45458000  1.0
  C  C137  1  0.15052000  0.56711000  0.95458000  1.0
  C  C138  1  0.65052000  0.56711000  0.54542000  1.0
  C  C139  1  0.84948000  0.43289000  0.04542000  1.0
  C  C140  1  0.64877000  0.92201000  0.71671000  1.0
  C  C141  1  0.85123000  0.07799000  0.21670000  1.0
  C  C142  1  0.35124000  0.07799000  0.28329000  1.0
  C  C143  1  0.14876000  0.92201000  0.78329000  1.0
  C  C144  1  0.74990000  0.99447000  0.68656000  1.0
  C  C145  1  0.75010000  0.00553000  0.18656000  1.0
  C  C146  1  0.25011000  0.00553000  0.31344000  1.0
  C  C147  1  0.24989000  0.99447000  0.81344000  1.0
  C  C148  1  0.84738000  0.07077000  0.71658000  1.0
  C  C149  1  0.65262000  0.92923000  0.21658000  1.0
  C  C150  1  0.15262000  0.92923000  0.28342000  1.0
  C  C151  1  0.34738000  0.07077000  0.78342000  1.0
  C  C152  1  0.84562000  0.07444000  0.77706000  1.0
  C  C153  1  0.65438000  0.92556000  0.27706000  1.0
  C  C154  1  0.15438000  0.92556000  0.22294000  1.0
  C  C155  1  0.34562000  0.07444000  0.72294000  1.0
  C  C156  1  0.74388000  0.00141000  0.80629000  1.0
  C  C157  1  0.75612000  0.99859000  0.30629000  1.0
  C  C158  1  0.25612000  0.99859000  0.19371000  1.0
  C  C159  1  0.24387000  0.00140000  0.69371000  1.0
  C  C160  1  0.64501000  0.92508000  0.77723000  1.0
  C  C161  1  0.85499000  0.07492000  0.27723000  1.0
  C  C162  1  0.35499000  0.07492000  0.22277000  1.0
  C  C163  1  0.14501000  0.92508000  0.72277000  1.0
  C  C164  1  0.45888000  0.77090000  0.71233000  1.0
  C  C165  1  0.04113000  0.22910000  0.21232000  1.0
  C  C166  1  0.54113000  0.22910000  0.28768000  1.0
  C  C167  1  0.95887000  0.77089000  0.78768000  1.0
  C  C168  1  0.52044000  0.66988000  0.74242000  1.0
  C  C169  1  0.97956000  0.33012000  0.24241000  1.0
  C  C170  1  0.47956000  0.33012000  0.25759000  1.0
  C  C171  1  0.02044000  0.66988000  0.75758000  1.0
  C  C172  1  0.03935000  0.22079000  0.71220000  1.0
  C  C173  1  0.46065000  0.77922000  0.21220000  1.0
  C  C174  1  0.96065000  0.77921000  0.28780000  1.0
  C  C175  1  0.53935000  0.22079000  0.78780000  1.0
  C  C176  1  0.97849000  0.32544000  0.73916000  1.0
  C  C177  1  0.52151000  0.67456000  0.23916000  1.0
  C  C178  1  0.02151000  0.67456000  0.26084000  1.0
  C  C179  1  0.47849000  0.32544000  0.76085000  1.0
  C  C180  1  0.24968000  0.84367000  0.48773000  1.0
  C  C181  1  0.25032000  0.15633000  0.98772000  1.0
  C  C182  1  0.75032000  0.15633000  0.51228000  1.0
  C  C183  1  0.74968000  0.84367000  0.01227000  1.0
  C  C184  1  0.27953000  0.81358000  0.43077000  1.0
  C  C185  1  0.22048000  0.18642000  0.93076000  1.0
  C  C186  1  0.72048000  0.18642000  0.56924000  1.0
  C  C187  1  0.77952000  0.81358000  0.06923000  1.0
  C  C188  1  0.41477000  0.80222000  0.41542000  1.0
  C  C189  1  0.08524000  0.19778000  0.91542000  1.0
  C  C190  1  0.58524000  0.19778000  0.58458000  1.0
  C  C191  1  0.91476000  0.80222000  0.08458000  1.0
  C  C192  1  0.49379000  0.85103000  0.50651000  1.0
  C  C193  1  0.00621000  0.14898000  0.00651000  1.0
  C  C194  1  0.50621000  0.14898000  0.49349000  1.0
  C  C195  1  0.99379000  0.85103000  0.99349000  1.0
  C  C196  1  0.36158000  0.86360000  0.52590000  1.0
  C  C197  1  0.13842000  0.13640000  0.02590000  1.0
  C  C198  1  0.63842000  0.13640000  0.47410000  1.0
  C  C199  1  0.86158000  0.86360000  0.97410000  1.0
  C  C200  1  0.10596000  0.84810000  0.50667000  1.0
  C  C201  1  0.39404000  0.15190000  0.00667000  1.0
  C  C202  1  0.89404000  0.15190000  0.49333000  1.0
  C  C203  1  0.60595000  0.84810000  0.99333000  1.0
  C  C204  1  0.99951000  0.85832000  0.46703000  1.0
  C  C205  1  0.50049000  0.14167000  0.96703000  1.0
  C  C206  1  0.00049000  0.14167000  0.53297000  1.0
  C  C207  1  0.49951000  0.85833000  0.03297000  1.0
  C  C208  1  0.86525000  0.85799000  0.48717000  1.0
  C  C209  1  0.63475000  0.14201000  0.98717000  1.0
  C  C210  1  0.13475000  0.14201000  0.51283000  1.0
  C  C211  1  0.36525000  0.85799000  0.01283000  1.0
  C  C212  1  0.93069000  0.83621000  0.58091000  1.0
  C  C213  1  0.56931000  0.16378000  0.08091000  1.0
  C  C214  1  0.06931000  0.16378000  0.41909000  1.0
  C  C215  1  0.43068000  0.83621000  0.91908000  1.0
  C  C216  1  0.06832000  0.83779000  0.56514000  1.0
  C  C217  1  0.43168000  0.16221000  0.06514000  1.0
  C  C218  1  0.93168000  0.16220000  0.43486000  1.0
  C  C219  1  0.56831000  0.83780000  0.93486000  1.0
  N  N220  1  0.25026000  0.49111000  0.67080000  1.0
  N  N221  1  0.24974000  0.50889000  0.17080000  1.0
  N  N222  1  0.74974000  0.50888000  0.32920000  1.0
  N  N223  1  0.75026000  0.49111000  0.82920000  1.0
  N  N224  1  0.25407000  0.49036000  0.36516000  1.0
  N  N225  1  0.24593000  0.50964000  0.86516000  1.0
  N  N226  1  0.74593000  0.50964000  0.63484000  1.0
  N  N227  1  0.75407000  0.49036000  0.13484000  1.0
  N  N228  1  0.52150000  0.81994000  0.45215000  1.0
  N  N229  1  0.97850000  0.18006000  0.95214000  1.0
  N  N230  1  0.47851000  0.18006000  0.54786000  1.0
  N  N231  1  0.02149000  0.81994000  0.04785000  1.0
  N  N232  1  0.82921000  0.84664000  0.54302000  1.0
  N  N233  1  0.67079000  0.15336000  0.04301000  1.0
  N  N234  1  0.17079000  0.15336000  0.45698000  1.0
  N  N235  1  0.32921000  0.84663000  0.95698000  1.0
  O  O236  1  0.55714000  0.85225000  0.68312000  1.0
  O  O237  1  0.94286000  0.14775000  0.18312000  1.0
  O  O238  1  0.44287000  0.14774000  0.31688000  1.0
  O  O239  1  0.05714000  0.85225000  0.81688000  1.0
  O  O240  1  0.44082000  0.60677000  0.77638000  1.0
  O  O241  1  0.05919000  0.39323000  0.27638000  1.0
  O  O242  1  0.55919000  0.39322000  0.22362000  1.0
  O  O243  1  0.94081000  0.60678000  0.72362000  1.0
  O  O244  1  0.64482000  0.65660000  0.73195000  1.0
  O  O245  1  0.85518000  0.34340000  0.23195000  1.0
  O  O246  1  0.35518000  0.34340000  0.26805000  1.0
  O  O247  1  0.14482000  0.65660000  0.76805000  1.0
  O  O248  1  0.94170000  0.13853000  0.68298000  1.0
  O  O249  1  0.55830000  0.86147000  0.18297000  1.0
  O  O250  1  0.05830000  0.86147000  0.31703000  1.0
  O  O251  1  0.44170000  0.13853000  0.81703000  1.0
  O  O252  1  0.85728000  0.34229000  0.72499000  1.0
  O  O253  1  0.64272000  0.65771000  0.22499000  1.0
  O  O254  1  0.14272000  0.65770000  0.27501000  1.0
  O  O255  1  0.35728000  0.34229000  0.77501000  1.0
  O  O256  1  0.05604000  0.38721000  0.77451000  1.0
  O  O257  1  0.44396000  0.61280000  0.27451000  1.0
  O  O258  1  0.94396000  0.61279000  0.22549000  1.0
  O  O259  1  0.55604000  0.38721000  0.72549000  1.0
