# generated using pymatgen
data_KH4C6S(NO)3
_symmetry_space_group_name_H-M   'P 1'
_cell_length_a   5.32892000
_cell_length_b   8.22749000
_cell_length_c   19.77550000
_cell_angle_alpha   90.00060000
_cell_angle_beta   90.00030000
_cell_angle_gamma   89.99550000
_symmetry_Int_Tables_number   1
_chemical_formula_structural   KH4C6S(NO)3
_chemical_formula_sum   'K4 H16 C24 S4 N12 O12'
_cell_volume   867.02982120
_cell_formula_units_Z   4
loop_
 _symmetry_equiv_pos_site_id
 _symmetry_equiv_pos_as_xyz
  1  'x, y, z'
loop_
 _atom_site_type_symbol
 _atom_site_label
 _atom_site_symmetry_multiplicity
 _atom_site_fract_x
 _atom_site_fract_y
 _atom_site_fract_z
 _atom_site_occupancy
  K  K0  1  0.00871000  0.65192000  0.73492000  1.0
  K  K1  1  0.49128000  0.34808000  0.23492000  1.0
  K  K2  1  0.50867000  0.84809000  0.26507000  1.0
  K  K3  1  0.99134000  0.15192000  0.76507000  1.0
  H  H4  1  0.95865000  0.06978000  0.60247000  1.0
  H  H5  1  0.54133000  0.93022000  0.10247000  1.0
  H  H6  1  0.45865000  0.43023000  0.39753000  1.0
  H  H7  1  0.04139000  0.56980000  0.89752000  1.0
  H  H8  1  0.05251000  0.15606000  0.48490000  1.0
  H  H9  1  0.44747000  0.84394000  0.98490000  1.0
  H  H10  1  0.55256000  0.34397000  0.51510000  1.0
  H  H11  1  0.94749000  0.65605000  0.01510000  1.0
  H  H12  1  0.37760000  0.91722000  0.41571000  1.0
  H  H13  1  0.12239000  0.08276000  0.91571000  1.0
  H  H14  1  0.87756000  0.58277000  0.58429000  1.0
  H  H15  1  0.62245000  0.41720000  0.08429000  1.0
  H  H16  1  0.28188000  0.83495000  0.53351000  1.0
  H  H17  1  0.21812000  0.16503000  0.03351000  1.0
  H  H18  1  0.78181000  0.66502000  0.46649000  1.0
  H  H19  1  0.71819000  0.33495000  0.96649000  1.0
  C  C20  1  0.60967000  0.95225000  0.57543000  1.0
  C  C21  1  0.89033000  0.04775000  0.07543000  1.0
  C  C22  1  0.10964000  0.54775000  0.42457000  1.0
  C  C23  1  0.39039000  0.45225000  0.92457000  1.0
  C  C24  1  0.82872000  0.03990000  0.56174000  1.0
  C  C25  1  0.67126000  0.96011000  0.06175000  1.0
  C  C26  1  0.32871000  0.46010000  0.43826000  1.0
  C  C27  1  0.17131000  0.53991000  0.93826000  1.0
  C  C28  1  0.88286000  0.08652000  0.49552000  1.0
  C  C29  1  0.61712000  0.91348000  0.99552000  1.0
  C  C30  1  0.38287000  0.41348000  0.50448000  1.0
  C  C31  1  0.11717000  0.58653000  0.00448000  1.0
  C  C32  1  0.71852000  0.04431000  0.44300000  1.0
  C  C33  1  0.78147000  0.95569000  0.94300000  1.0
  C  C34  1  0.21852000  0.45569000  0.55700000  1.0
  C  C35  1  0.28151000  0.54430000  0.05700000  1.0
  C  C36  1  0.50202000  0.95333000  0.45673000  1.0
  C  C37  1  0.99797000  0.04666000  0.95674000  1.0
  C  C38  1  0.00200000  0.54667000  0.54327000  1.0
  C  C39  1  0.49801000  0.45331000  0.04327000  1.0
  C  C40  1  0.44853000  0.90711000  0.52279000  1.0
  C  C41  1  0.05146000  0.09288000  0.02280000  1.0
  C  C42  1  0.94850000  0.59288000  0.47721000  1.0
  C  C43  1  0.55151000  0.40710000  0.97720000  1.0
  S  S44  1  0.52021000  0.90527000  0.66017000  1.0
  S  S45  1  0.97978000  0.09472000  0.16017000  1.0
  S  S46  1  0.02015000  0.59475000  0.33984000  1.0
  S  S47  1  0.47985000  0.40526000  0.83983000  1.0
  N  N48  1  0.75913000  0.09011000  0.37479000  1.0
  N  N49  1  0.74086000  0.90988000  0.87479000  1.0
  N  N50  1  0.25913000  0.40991000  0.62522000  1.0
  N  N51  1  0.24088000  0.59008000  0.12521000  1.0
  N  N52  1  0.97297000  0.12220000  0.35582000  1.0
  N  N53  1  0.52702000  0.87780000  0.85582000  1.0
  N  N54  1  0.47300000  0.37780000  0.64418000  1.0
  N  N55  1  0.02702000  0.62220000  0.14418000  1.0
  N  N56  1  0.16217000  0.15209000  0.33107000  1.0
  N  N57  1  0.33782000  0.84792000  0.83107000  1.0
  N  N58  1  0.66218000  0.34791000  0.66892000  1.0
  N  N59  1  0.83784000  0.65209000  0.16892000  1.0
  O  O60  1  0.42037000  0.73885000  0.65847000  1.0
  O  O61  1  0.07963000  0.26114000  0.15847000  1.0
  O  O62  1  0.92029000  0.76117000  0.34154000  1.0
  O  O63  1  0.57972000  0.23884000  0.84153000  1.0
  O  O64  1  0.75091000  0.91799000  0.70092000  1.0
  O  O65  1  0.74908000  0.08201000  0.20092000  1.0
  O  O66  1  0.25085000  0.58204000  0.29909000  1.0
  O  O67  1  0.24914000  0.41797000  0.79909000  1.0
  O  O68  1  0.33138000  0.02778000  0.67824000  1.0
  O  O69  1  0.16860000  0.97222000  0.17824000  1.0
  O  O70  1  0.83131000  0.47227000  0.32176000  1.0
  O  O71  1  0.66867000  0.52775000  0.82176000  1.0
