# generated using pymatgen
data_CuH5C5NCl
_symmetry_space_group_name_H-M   'P 1'
_cell_length_a   6.61065000
_cell_length_b   7.36492000
_cell_length_c   12.78080000
_cell_angle_alpha   89.99990000
_cell_angle_beta   81.17940000
_cell_angle_gamma   89.99960000
_symmetry_Int_Tables_number   1
_chemical_formula_structural   CuH5C5NCl
_chemical_formula_sum   'Cu4 H20 C20 N4 Cl4'
_cell_volume   614.89839275
_cell_formula_units_Z   4
loop_
 _symmetry_equiv_pos_site_id
 _symmetry_equiv_pos_as_xyz
  1  'x, y, z'
loop_
 _atom_site_type_symbol
 _atom_site_label
 _atom_site_symmetry_multiplicity
 _atom_site_fract_x
 _atom_site_fract_y
 _atom_site_fract_z
 _atom_site_occupancy
  Cu  Cu0  1  0.04581000  0.86007000  0.40500000  1.0
  Cu  Cu1  1  0.45420000  0.36007000  0.09500000  1.0
  Cu  Cu2  1  0.95420000  0.13993000  0.59500000  1.0
  Cu  Cu3  1  0.54579000  0.63995000  0.90501000  1.0
  H  H4  1  0.70158000  0.06624000  0.09705000  1.0
  H  H5  1  0.79841000  0.56623000  0.40296000  1.0
  H  H6  1  0.29840000  0.93377000  0.90295000  1.0
  H  H7  1  0.20159000  0.43378000  0.59704000  1.0
  H  H8  1  0.89580000  0.68878000  0.03778000  1.0
  H  H9  1  0.60421000  0.18879000  0.46222000  1.0
  H  H10  1  0.10421000  0.31121000  0.96221000  1.0
  H  H11  1  0.39580000  0.81120000  0.53779000  1.0
  H  H12  1  0.68182000  0.97756000  0.91331000  1.0
  H  H13  1  0.81817000  0.47755000  0.58669000  1.0
  H  H14  1  0.31817000  0.02244000  0.08669000  1.0
  H  H15  1  0.18185000  0.52245000  0.41331000  1.0
  H  H16  1  0.81190000  0.78740000  0.75623000  1.0
  H  H17  1  0.68808000  0.28738000  0.74376000  1.0
  H  H18  1  0.18806000  0.21263000  0.24376000  1.0
  H  H19  1  0.31195000  0.71263000  0.25624000  1.0
  H  H20  1  0.93064000  0.62883000  0.84236000  1.0
  H  H21  1  0.56934000  0.12881000  0.65763000  1.0
  H  H22  1  0.06934000  0.37118000  0.15762000  1.0
  H  H23  1  0.43068000  0.87118000  0.34238000  1.0
  C  C24  1  0.84235000  0.90972000  0.20542000  1.0
  C  C25  1  0.65766000  0.40973000  0.29458000  1.0
  C  C26  1  0.15767000  0.09026000  0.79458000  1.0
  C  C27  1  0.34234000  0.59026000  0.70542000  1.0
  C  C28  1  0.77616000  0.93625000  0.10767000  1.0
  C  C29  1  0.72383000  0.43625000  0.39234000  1.0
  C  C30  1  0.22384000  0.06373000  0.89233000  1.0
  C  C31  1  0.27617000  0.56374000  0.60767000  1.0
  C  C32  1  0.81442000  0.81467000  0.02666000  1.0
  C  C33  1  0.68557000  0.31467000  0.47334000  1.0
  C  C34  1  0.18558000  0.18532000  0.97333000  1.0
  C  C35  1  0.31445000  0.68533000  0.52667000  1.0
  C  C36  1  0.75858000  0.84862000  0.92386000  1.0
  C  C37  1  0.74141000  0.34861000  0.57614000  1.0
  C  C38  1  0.24141000  0.15139000  0.07615000  1.0
  C  C39  1  0.25860000  0.65138000  0.42384000  1.0
  C  C40  1  0.82563000  0.74129000  0.83595000  1.0
  C  C41  1  0.67436000  0.24129000  0.66406000  1.0
  C  C42  1  0.17432000  0.25872000  0.16405000  1.0
  C  C43  1  0.32567000  0.75874000  0.33595000  1.0
  N  N44  1  0.89964000  0.89503000  0.28732000  1.0
  N  N45  1  0.60037000  0.39503000  0.21267000  1.0
  N  N46  1  0.10038000  0.10495000  0.71267000  1.0
  N  N47  1  0.39961000  0.60495000  0.78733000  1.0
  Cl  Cl48  1  0.19239000  0.15836000  0.44555000  1.0
  Cl  Cl49  1  0.30760000  0.65836000  0.05445000  1.0
  Cl  Cl50  1  0.80762000  0.84164000  0.55444000  1.0
  Cl  Cl51  1  0.69239000  0.34165000  0.94556000  1.0
