# generated using pymatgen
data_TbAgH8C18(NO2)4
_symmetry_space_group_name_H-M   'P 1'
_cell_length_a   8.53789000
_cell_length_b   17.65630000
_cell_length_c   25.00300000
_cell_angle_alpha   90.00000000
_cell_angle_beta   90.00000000
_cell_angle_gamma   90.00000000
_symmetry_Int_Tables_number   1
_chemical_formula_structural   TbAgH8C18(NO2)4
_chemical_formula_sum   'Tb8 Ag8 H64 C144 N32 O64'
_cell_volume   3769.14092282
_cell_formula_units_Z   8
loop_
 _symmetry_equiv_pos_site_id
 _symmetry_equiv_pos_as_xyz
  1  'x, y, z'
loop_
 _atom_site_type_symbol
 _atom_site_label
 _atom_site_symmetry_multiplicity
 _atom_site_fract_x
 _atom_site_fract_y
 _atom_site_fract_z
 _atom_site_occupancy
  Tb  Tb0  1  0.66542000  0.21622000  0.97476000  1.0
  Tb  Tb1  1  0.83458000  0.21622000  0.52524000  1.0
  Tb  Tb2  1  0.16542000  0.28378000  0.02524000  1.0
  Tb  Tb3  1  0.33458000  0.28378000  0.47476000  1.0
  Tb  Tb4  1  0.33458000  0.78378000  0.02524000  1.0
  Tb  Tb5  1  0.16542000  0.78378000  0.47476000  1.0
  Tb  Tb6  1  0.83458000  0.71622000  0.97476000  1.0
  Tb  Tb7  1  0.66542000  0.71622000  0.52524000  1.0
  Ag  Ag8  1  0.96236000  0.04510000  0.27294000  1.0
  Ag  Ag9  1  0.53764000  0.04510000  0.22706000  1.0
  Ag  Ag10  1  0.46236000  0.45490000  0.72706000  1.0
  Ag  Ag11  1  0.03764000  0.45490000  0.77294000  1.0
  Ag  Ag12  1  0.03764000  0.95490000  0.72706000  1.0
  Ag  Ag13  1  0.46236000  0.95490000  0.77294000  1.0
  Ag  Ag14  1  0.53764000  0.54510000  0.27294000  1.0
  Ag  Ag15  1  0.96236000  0.54510000  0.22706000  1.0
  H  H16  1  0.56753000  0.65373000  0.08921000  1.0
  H  H17  1  0.93247000  0.65372000  0.41079000  1.0
  H  H18  1  0.06753000  0.84627000  0.91079000  1.0
  H  H19  1  0.43247000  0.84627000  0.58921000  1.0
  H  H20  1  0.43247000  0.34627000  0.91079000  1.0
  H  H21  1  0.06753000  0.34627000  0.58921000  1.0
  H  H22  1  0.93247000  0.15373000  0.08921000  1.0
  H  H23  1  0.56753000  0.15373000  0.41079000  1.0
  H  H24  1  0.21724000  0.87901000  0.12810000  1.0
  H  H25  1  0.28276000  0.87901000  0.37190000  1.0
  H  H26  1  0.71724000  0.62099000  0.87190000  1.0
  H  H27  1  0.78276000  0.62099000  0.62810000  1.0
  H  H28  1  0.78276000  0.12099000  0.87190000  1.0
  H  H29  1  0.71724000  0.12099000  0.62810000  1.0
  H  H30  1  0.28276000  0.37901000  0.12810000  1.0
  H  H31  1  0.21724000  0.37901000  0.37190000  1.0
  H  H32  1  0.91421000  0.41282000  0.14536000  1.0
  H  H33  1  0.58579000  0.41282000  0.35464000  1.0
  H  H34  1  0.41421000  0.08717000  0.85464000  1.0
  H  H35  1  0.08579000  0.08717000  0.64536000  1.0
  H  H36  1  0.08579000  0.58718000  0.85464000  1.0
  H  H37  1  0.41421000  0.58718000  0.64536000  1.0
  H  H38  1  0.58579000  0.91283000  0.14536000  1.0
  H  H39  1  0.91421000  0.91282000  0.35464000  1.0
  H  H40  1  0.76237000  0.68621000  0.16429000  1.0
  H  H41  1  0.73763000  0.68621000  0.33571000  1.0
  H  H42  1  0.26237000  0.81379000  0.83571000  1.0
  H  H43  1  0.23763000  0.81379000  0.66429000  1.0
  H  H44  1  0.23763000  0.31379000  0.83571000  1.0
  H  H45  1  0.26237000  0.31379000  0.66429000  1.0
  H  H46  1  0.73763000  0.18621000  0.16429000  1.0
  H  H47  1  0.76237000  0.18621000  0.33571000  1.0
  H  H48  1  0.45393000  0.51271000  0.04262000  1.0
  H  H49  1  0.04607000  0.51271000  0.45738000  1.0
  H  H50  1  0.95393000  0.98729000  0.95738000  1.0
  H  H51  1  0.54607000  0.98729000  0.54262000  1.0
  H  H52  1  0.54608000  0.48729000  0.95738000  1.0
  H  H53  1  0.95393000  0.48729000  0.54262000  1.0
  H  H54  1  0.04607000  0.01271000  0.04262000  1.0
  H  H55  1  0.45393000  0.01271000  0.45738000  1.0
  H  H56  1  0.38752000  0.99822000  0.06117000  1.0
  H  H57  1  0.11248000  0.99822000  0.43883000  1.0
  H  H58  1  0.88752000  0.50178000  0.93883000  1.0
  H  H59  1  0.61248000  0.50178000  0.56117000  1.0
  H  H60  1  0.61248000  0.00178000  0.93883000  1.0
  H  H61  1  0.88752000  0.00178000  0.56117000  1.0
  H  H62  1  0.11248000  0.49822000  0.06117000  1.0
  H  H63  1  0.38752000  0.49822000  0.43883000  1.0
  H  H64  1  0.04559000  0.88680000  0.20635000  1.0
  H  H65  1  0.45441000  0.88680000  0.29365000  1.0
  H  H66  1  0.54559000  0.61320000  0.79365000  1.0
  H  H67  1  0.95441000  0.61320000  0.70635000  1.0
  H  H68  1  0.95441000  0.11320000  0.79365000  1.0
  H  H69  1  0.54559000  0.11320000  0.70635000  1.0
  H  H70  1  0.45441000  0.38680000  0.20635000  1.0
  H  H71  1  0.04559000  0.38680000  0.29365000  1.0
  H  H72  1  0.17227000  0.16499000  0.20771000  1.0
  H  H73  1  0.32773000  0.16499000  0.29229000  1.0
  H  H74  1  0.67227000  0.33501000  0.79229000  1.0
  H  H75  1  0.82773000  0.33501000  0.70771000  1.0
  H  H76  1  0.82773000  0.83501000  0.79229000  1.0
  H  H77  1  0.67227000  0.83501000  0.70771000  1.0
  H  H78  1  0.32773000  0.66499000  0.20771000  1.0
  H  H79  1  0.17226000  0.66499000  0.29229000  1.0
  C  C80  1  0.80871000  0.31296000  0.07534000  1.0
  C  C81  1  0.69129000  0.31296000  0.42466000  1.0
  C  C82  1  0.30871000  0.18704000  0.92466000  1.0
  C  C83  1  0.19129000  0.18704000  0.57534000  1.0
  C  C84  1  0.19129000  0.68704000  0.92466000  1.0
  C  C85  1  0.30871000  0.68704000  0.57534000  1.0
  C  C86  1  0.69129000  0.81296000  0.07534000  1.0
  C  C87  1  0.80871000  0.81296000  0.42466000  1.0
  C  C88  1  0.74022000  0.38997000  0.08507000  1.0
  C  C89  1  0.75978000  0.38998000  0.41493000  1.0
  C  C90  1  0.24022000  0.11002000  0.91493000  1.0
  C  C91  1  0.25978000  0.11002000  0.58507000  1.0
  C  C92  1  0.25978000  0.61002000  0.91493000  1.0
  C  C93  1  0.24022000  0.61002000  0.58507000  1.0
  C  C94  1  0.75978000  0.88998000  0.08507000  1.0
  C  C95  1  0.74021000  0.88998000  0.41493000  1.0
  C  C96  1  0.81509000  0.43551000  0.12304000  1.0
  C  C97  1  0.68491000  0.43551000  0.37696000  1.0
  C  C98  1  0.31509000  0.06449000  0.87696000  1.0
  C  C99  1  0.18491000  0.06449000  0.62304000  1.0
  C  C100  1  0.18492000  0.56449000  0.87696000  1.0
  C  C101  1  0.31509000  0.56449000  0.62304000  1.0
  C  C102  1  0.68492000  0.93551000  0.12304000  1.0
  C  C103  1  0.81508000  0.93551000  0.37696000  1.0
  C  C104  1  0.76370000  0.50971000  0.12982000  1.0
  C  C105  1  0.73630000  0.50971000  0.37018000  1.0
  C  C106  1  0.26370000  0.99029000  0.87018000  1.0
  C  C107  1  0.23629000  0.99029000  0.62982000  1.0
  C  C108  1  0.23630000  0.49029000  0.87018000  1.0
  C  C109  1  0.26371000  0.49029000  0.62982000  1.0
  C  C110  1  0.73630000  0.00971000  0.12982000  1.0
  C  C111  1  0.76370000  0.00971000  0.37018000  1.0
  C  C112  1  0.73975000  0.62998000  0.14857000  1.0
  C  C113  1  0.76025000  0.62998000  0.35143000  1.0
  C  C114  1  0.23975000  0.87002000  0.85143000  1.0
  C  C115  1  0.26025000  0.87002000  0.64857000  1.0
  C  C116  1  0.26025000  0.37002000  0.85143000  1.0
  C  C117  1  0.23975000  0.37002000  0.64857000  1.0
  C  C118  1  0.76025000  0.12998000  0.14857000  1.0
  C  C119  1  0.73975000  0.12998000  0.35143000  1.0
  C  C120  1  0.64173000  0.53889000  0.09784000  1.0
  C  C121  1  0.85827000  0.53889000  0.40216000  1.0
  C  C122  1  0.14174000  0.96111000  0.90216000  1.0
  C  C123  1  0.35827000  0.96111000  0.59784000  1.0
  C  C124  1  0.35827000  0.46111000  0.90216000  1.0
  C  C125  1  0.14174000  0.46111000  0.59784000  1.0
  C  C126  1  0.85827000  0.03889000  0.09784000  1.0
  C  C127  1  0.64173000  0.03889000  0.40216000  1.0
  C  C128  1  0.55724000  0.49252000  0.06348000  1.0
  C  C129  1  0.94276000  0.49252000  0.43652000  1.0
  C  C130  1  0.05724000  0.00748000  0.93652000  1.0
  C  C131  1  0.44276000  0.00748000  0.56348000  1.0
  C  C132  1  0.44276000  0.50748000  0.93652000  1.0
  C  C133  1  0.05724000  0.50748000  0.56348000  1.0
  C  C134  1  0.94276000  0.99252000  0.06348000  1.0
  C  C135  1  0.55724000  0.99252000  0.43652000  1.0
  C  C136  1  0.60690000  0.41775000  0.05690000  1.0
  C  C137  1  0.89310000  0.41775000  0.44310000  1.0
  C  C138  1  0.10690000  0.08225000  0.94310000  1.0
  C  C139  1  0.39310000  0.08225000  0.55690000  1.0
  C  C140  1  0.39310000  0.58225000  0.94310000  1.0
  C  C141  1  0.10690000  0.58225000  0.55690000  1.0
  C  C142  1  0.89310000  0.91775000  0.05690000  1.0
  C  C143  1  0.60689000  0.91775000  0.44310000  1.0
  C  C144  1  0.51096000  0.37248000  0.01771000  1.0
  C  C145  1  0.98904000  0.37248000  0.48229000  1.0
  C  C146  1  0.01096000  0.12752000  0.98229000  1.0
  C  C147  1  0.48904000  0.12752000  0.51771000  1.0
  C  C148  1  0.48904000  0.62752000  0.98229000  1.0
  C  C149  1  0.01096000  0.62752000  0.51771000  1.0
  C  C150  1  0.98904000  0.87248000  0.01771000  1.0
  C  C151  1  0.51096000  0.87248000  0.48229000  1.0
  C  C152  1  0.45100000  0.14544000  0.04676000  1.0
  C  C153  1  0.04900000  0.14544000  0.45324000  1.0
  C  C154  1  0.95100000  0.35456000  0.95324000  1.0
  C  C155  1  0.54900000  0.35456000  0.54676000  1.0
  C  C156  1  0.54900000  0.85456000  0.95324000  1.0
  C  C157  1  0.95100000  0.85456000  0.54676000  1.0
  C  C158  1  0.04900000  0.64544000  0.04676000  1.0
  C  C159  1  0.45100000  0.64544000  0.45324000  1.0
  C  C160  1  0.36562000  0.11158000  0.09293000  1.0
  C  C161  1  0.13438000  0.11157000  0.40707000  1.0
  C  C162  1  0.86562000  0.38843000  0.90707000  1.0
  C  C163  1  0.63438000  0.38843000  0.59293000  1.0
  C  C164  1  0.63438000  0.88843000  0.90707000  1.0
  C  C165  1  0.86562000  0.88843000  0.59293000  1.0
  C  C166  1  0.13438000  0.61157000  0.09293000  1.0
  C  C167  1  0.36562000  0.61157000  0.40707000  1.0
  C  C168  1  0.34091000  0.03318000  0.09338000  1.0
  C  C169  1  0.15909000  0.03318000  0.40662000  1.0
  C  C170  1  0.84091000  0.46682000  0.90662000  1.0
  C  C171  1  0.65909000  0.46682000  0.59338000  1.0
  C  C172  1  0.65909000  0.96682000  0.90662000  1.0
  C  C173  1  0.84091000  0.96682000  0.59338000  1.0
  C  C174  1  0.15909000  0.53318000  0.09338000  1.0
  C  C175  1  0.34091000  0.53318000  0.40662000  1.0
  C  C176  1  0.25094000  0.00363000  0.13503000  1.0
  C  C177  1  0.24906000  0.00363000  0.36497000  1.0
  C  C178  1  0.75094000  0.49637000  0.86497000  1.0
  C  C179  1  0.74906000  0.49637000  0.63503000  1.0
  C  C180  1  0.74906000  0.99637000  0.86497000  1.0
  C  C181  1  0.75094000  0.99637000  0.63503000  1.0
  C  C182  1  0.24906000  0.50363000  0.13503000  1.0
  C  C183  1  0.25094000  0.50363000  0.36497000  1.0
  C  C184  1  0.10426000  0.93650000  0.19036000  1.0
  C  C185  1  0.39575000  0.93650000  0.30964000  1.0
  C  C186  1  0.60426000  0.56350000  0.80964000  1.0
  C  C187  1  0.89574000  0.56350000  0.69036000  1.0
  C  C188  1  0.89575000  0.06350000  0.80964000  1.0
  C  C189  1  0.60426000  0.06350000  0.69036000  1.0
  C  C190  1  0.39575000  0.43650000  0.19036000  1.0
  C  C191  1  0.10425000  0.43650000  0.30964000  1.0
  C  C192  1  0.18584000  0.05135000  0.17500000  1.0
  C  C193  1  0.31416000  0.05135000  0.32500000  1.0
  C  C194  1  0.68584000  0.44865000  0.82500000  1.0
  C  C195  1  0.81416000  0.44865000  0.67500000  1.0
  C  C196  1  0.81416000  0.94865000  0.82500000  1.0
  C  C197  1  0.68584000  0.94865000  0.67500000  1.0
  C  C198  1  0.31416000  0.55135000  0.17500000  1.0
  C  C199  1  0.18583000  0.55135000  0.32500000  1.0
  C  C200  1  0.21803000  0.12884000  0.17594000  1.0
  C  C201  1  0.28197000  0.12884000  0.32406000  1.0
  C  C202  1  0.71803000  0.37116000  0.82406000  1.0
  C  C203  1  0.78197000  0.37116000  0.67594000  1.0
  C  C204  1  0.78197000  0.87116000  0.82406000  1.0
  C  C205  1  0.71803000  0.87116000  0.67594000  1.0
  C  C206  1  0.28197000  0.62884000  0.17594000  1.0
  C  C207  1  0.21802000  0.62884000  0.32406000  1.0
  C  C208  1  0.30873000  0.15889000  0.13472000  1.0
  C  C209  1  0.19127000  0.15889000  0.36528000  1.0
  C  C210  1  0.80873000  0.34111000  0.86528000  1.0
  C  C211  1  0.69127000  0.34111000  0.63472000  1.0
  C  C212  1  0.69127000  0.84111000  0.86528000  1.0
  C  C213  1  0.80873000  0.84111000  0.63472000  1.0
  C  C214  1  0.19127000  0.65889000  0.13472000  1.0
  C  C215  1  0.30872000  0.65889000  0.36528000  1.0
  C  C216  1  0.34773000  0.24240000  0.13949000  1.0
  C  C217  1  0.15227000  0.24240000  0.36051000  1.0
  C  C218  1  0.84773000  0.25760000  0.86051000  1.0
  C  C219  1  0.65227000  0.25760000  0.63949000  1.0
  C  C220  1  0.65227000  0.75760000  0.86051000  1.0
  C  C221  1  0.84773000  0.75760000  0.63949000  1.0
  C  C222  1  0.15227000  0.74240000  0.13949000  1.0
  C  C223  1  0.34773000  0.74240000  0.36051000  1.0
  N  N224  1  0.81930000  0.56787000  0.16230000  1.0
  N  N225  1  0.68070000  0.56787000  0.33770000  1.0
  N  N226  1  0.31930000  0.93213000  0.83770000  1.0
  N  N227  1  0.18070000  0.93213000  0.66230000  1.0
  N  N228  1  0.18070000  0.43213000  0.83770000  1.0
  N  N229  1  0.31930000  0.43213000  0.66230000  1.0
  N  N230  1  0.68070000  0.06787000  0.16230000  1.0
  N  N231  1  0.81930000  0.06787000  0.33770000  1.0
  N  N232  1  0.63149000  0.61486000  0.11046000  1.0
  N  N233  1  0.86851000  0.61486000  0.38954000  1.0
  N  N234  1  0.13149000  0.88514000  0.88953000  1.0
  N  N235  1  0.36851000  0.88514000  0.61046000  1.0
  N  N236  1  0.36852000  0.38514000  0.88953000  1.0
  N  N237  1  0.13149000  0.38514000  0.61046000  1.0
  N  N238  1  0.86852000  0.11486000  0.11046000  1.0
  N  N239  1  0.63148000  0.11486000  0.38954000  1.0
  N  N240  1  0.09349000  0.00764000  0.20866000  1.0
  N  N241  1  0.40651000  0.00764000  0.29134000  1.0
  N  N242  1  0.59350000  0.49236000  0.79134000  1.0
  N  N243  1  0.90651000  0.49236000  0.70866000  1.0
  N  N244  1  0.90651000  0.99236000  0.79134000  1.0
  N  N245  1  0.59350000  0.99236000  0.70866000  1.0
  N  N246  1  0.40651000  0.50764000  0.20866000  1.0
  N  N247  1  0.09349000  0.50763000  0.29134000  1.0
  N  N248  1  0.19737000  0.93153000  0.14705000  1.0
  N  N249  1  0.30263000  0.93152000  0.35295000  1.0
  N  N250  1  0.69737000  0.56847000  0.85295000  1.0
  N  N251  1  0.80263000  0.56847000  0.64705000  1.0
  N  N252  1  0.80263000  0.06847000  0.85295000  1.0
  N  N253  1  0.69737000  0.06847000  0.64705000  1.0
  N  N254  1  0.30263000  0.43153000  0.14705000  1.0
  N  N255  1  0.19736000  0.43152000  0.35295000  1.0
  O  O256  1  0.95601000  0.30621000  0.08267000  1.0
  O  O257  1  0.54399000  0.30621000  0.41733000  1.0
  O  O258  1  0.45601000  0.19379000  0.91733000  1.0
  O  O259  1  0.04399000  0.19379000  0.58267000  1.0
  O  O260  1  0.04399000  0.69379000  0.91733000  1.0
  O  O261  1  0.45601000  0.69379000  0.58267000  1.0
  O  O262  1  0.54399000  0.80621000  0.08267000  1.0
  O  O263  1  0.95601000  0.80621000  0.41733000  1.0
  O  O264  1  0.72108000  0.25870000  0.06056000  1.0
  O  O265  1  0.77893000  0.25871000  0.43944000  1.0
  O  O266  1  0.22107000  0.24129000  0.93944000  1.0
  O  O267  1  0.27893000  0.24129000  0.56056000  1.0
  O  O268  1  0.27893000  0.74129000  0.93944000  1.0
  O  O269  1  0.22107000  0.74129000  0.56056000  1.0
  O  O270  1  0.77893000  0.75871000  0.06056000  1.0
  O  O271  1  0.72107000  0.75871000  0.43944000  1.0
  O  O272  1  0.57803000  0.33999000  0.97806000  1.0
  O  O273  1  0.92197000  0.33999000  0.52194000  1.0
  O  O274  1  0.07803000  0.16001000  0.02194000  1.0
  O  O275  1  0.42197000  0.16001000  0.47806000  1.0
  O  O276  1  0.42197000  0.66001000  0.02194000  1.0
  O  O277  1  0.07803000  0.66001000  0.47806000  1.0
  O  O278  1  0.92197000  0.83999000  0.97806000  1.0
  O  O279  1  0.57803000  0.83999000  0.52194000  1.0
  O  O280  1  0.36401000  0.37414000  0.02411000  1.0
  O  O281  1  0.13599000  0.37414000  0.47589000  1.0
  O  O282  1  0.86401000  0.12586000  0.97589000  1.0
  O  O283  1  0.63599000  0.12586000  0.52411000  1.0
  O  O284  1  0.63599000  0.62586000  0.97589000  1.0
  O  O285  1  0.86401000  0.62586000  0.52411000  1.0
  O  O286  1  0.13599000  0.87414000  0.02411000  1.0
  O  O287  1  0.36401000  0.87414000  0.47589000  1.0
  O  O288  1  0.56236000  0.10989000  0.02416000  1.0
  O  O289  1  0.93764000  0.10989000  0.47584000  1.0
  O  O290  1  0.06236000  0.39011000  0.97584000  1.0
  O  O291  1  0.43764000  0.39011000  0.52416000  1.0
  O  O292  1  0.43764000  0.89011000  0.97584000  1.0
  O  O293  1  0.06236000  0.89011000  0.52416000  1.0
  O  O294  1  0.93764000  0.60989000  0.02416000  1.0
  O  O295  1  0.56236000  0.60989000  0.47584000  1.0
  O  O296  1  0.41174000  0.21188000  0.03023000  1.0
  O  O297  1  0.08826000  0.21188000  0.46977000  1.0
  O  O298  1  0.91174000  0.28812000  0.96977000  1.0
  O  O299  1  0.58826000  0.28812000  0.53023000  1.0
  O  O300  1  0.58826000  0.78812000  0.96977000  1.0
  O  O301  1  0.91174000  0.78812000  0.53023000  1.0
  O  O302  1  0.08826000  0.71188000  0.03023000  1.0
  O  O303  1  0.41174000  0.71188000  0.46977000  1.0
  O  O304  1  0.25749000  0.28814000  0.11292000  1.0
  O  O305  1  0.24251000  0.28813000  0.38708000  1.0
  O  O306  1  0.75749000  0.21187000  0.88708000  1.0
  O  O307  1  0.74251000  0.21187000  0.61292000  1.0
  O  O308  1  0.74251000  0.71187000  0.88708000  1.0
  O  O309  1  0.75749000  0.71187000  0.61292000  1.0
  O  O310  1  0.24251000  0.78814000  0.11292000  1.0
  O  O311  1  0.25749000  0.78813000  0.38708000  1.0
  O  O312  1  0.45336000  0.26196000  0.17086000  1.0
  O  O313  1  0.04664000  0.26196000  0.32914000  1.0
  O  O314  1  0.95336000  0.23804000  0.82914000  1.0
  O  O315  1  0.54664000  0.23804000  0.67086000  1.0
  O  O316  1  0.54664000  0.73804000  0.82914000  1.0
  O  O317  1  0.95336000  0.73804000  0.67086000  1.0
  O  O318  1  0.04664000  0.76196000  0.17086000  1.0
  O  O319  1  0.45335000  0.76196000  0.32914000  1.0
