# generated using pymatgen
data_CuH5C6IN3
_symmetry_space_group_name_H-M   'P 1'
_cell_length_a   7.82576000
_cell_length_b   13.15090000
_cell_length_c   16.05300000
_cell_angle_alpha   104.23400000
_cell_angle_beta   98.83200000
_cell_angle_gamma   102.66200000
_symmetry_Int_Tables_number   1
_chemical_formula_structural   CuH5C6IN3
_chemical_formula_sum   'Cu8 H40 C48 I8 N24'
_cell_volume   1524.39370706
_cell_formula_units_Z   8
loop_
 _symmetry_equiv_pos_site_id
 _symmetry_equiv_pos_as_xyz
  1  'x, y, z'
loop_
 _atom_site_type_symbol
 _atom_site_label
 _atom_site_symmetry_multiplicity
 _atom_site_fract_x
 _atom_site_fract_y
 _atom_site_fract_z
 _atom_site_occupancy
  Cu  Cu0  1  0.55043000  0.30012000  0.81311000  1.0
  Cu  Cu1  1  0.44957000  0.69987000  0.18689000  1.0
  Cu  Cu2  1  0.48673000  0.58448000  0.97334000  1.0
  Cu  Cu3  1  0.51327000  0.41552000  0.02666000  1.0
  Cu  Cu4  1  0.58884000  0.13471000  0.86412000  1.0
  Cu  Cu5  1  0.41117000  0.86529000  0.13588000  1.0
  Cu  Cu6  1  0.52190000  0.09505000  0.70076000  1.0
  Cu  Cu7  1  0.47811000  0.90495000  0.29924000  1.0
  H  H8  1  0.87170000  0.01008000  0.24022000  1.0
  H  H9  1  0.12830000  0.98992000  0.75978000  1.0
  H  H10  1  0.03982000  0.95226000  0.21937000  1.0
  H  H11  1  0.96019000  0.04774000  0.78063000  1.0
  H  H12  1  0.80833000  0.29572000  0.44052000  1.0
  H  H13  1  0.19166000  0.70428000  0.55948000  1.0
  H  H14  1  0.88754000  0.23468000  0.35739000  1.0
  H  H15  1  0.11246000  0.76532000  0.64261000  1.0
  H  H16  1  0.64523000  0.24646000  0.60713000  1.0
  H  H17  1  0.35478000  0.75354000  0.39287000  1.0
  H  H18  1  0.53322000  0.28952000  0.47025000  1.0
  H  H19  1  0.46678000  0.71049000  0.52975000  1.0
  H  H20  1  0.10271000  0.99367000  0.40009000  1.0
  H  H21  1  0.89728000  0.00634000  0.59991000  1.0
  H  H22  1  0.22494000  0.96634000  0.54380000  1.0
  H  H23  1  0.77506000  0.03366000  0.45620000  1.0
  H  H24  1  0.66868000  0.97275000  0.96078000  1.0
  H  H25  1  0.33133000  0.02725000  0.03922000  1.0
  H  H26  1  0.86920000  0.98197000  0.09718000  1.0
  H  H27  1  0.13081000  0.01803000  0.90282000  1.0
  H  H28  1  0.08609000  0.32595000  0.13041000  1.0
  H  H29  1  0.91392000  0.67405000  0.86959000  1.0
  H  H30  1  0.87737000  0.30152000  0.98981000  1.0
  H  H31  1  0.12264000  0.69848000  0.01020000  1.0
  H  H32  1  0.49147000  0.29464000  0.16376000  1.0
  H  H33  1  0.50853000  0.70536000  0.83624000  1.0
  H  H34  1  0.67848000  0.30746000  0.30448000  1.0
  H  H35  1  0.32151000  0.69255000  0.69552000  1.0
  H  H36  1  0.09039000  0.55126000  0.25561000  1.0
  H  H37  1  0.90961000  0.44874000  0.74439000  1.0
  H  H38  1  0.88034000  0.53142000  0.11680000  1.0
  H  H39  1  0.11965000  0.46858000  0.88320000  1.0
  H  H40  1  0.62801000  0.48237000  0.73872000  1.0
  H  H41  1  0.37198000  0.51763000  0.26128000  1.0
  H  H42  1  0.49657000  0.53566000  0.61090000  1.0
  H  H43  1  0.50342000  0.46434000  0.38910000  1.0
  H  H44  1  0.03234000  0.26306000  0.56242000  1.0
  H  H45  1  0.96764000  0.73694000  0.43758000  1.0
  H  H46  1  0.18550000  0.21943000  0.69161000  1.0
  H  H47  1  0.81449000  0.78056000  0.30838000  1.0
  C  C48  1  0.24822000  0.17384000  0.34364000  1.0
  C  C49  1  0.75179000  0.82616000  0.65636000  1.0
  C  C50  1  0.11332000  0.17847000  0.21408000  1.0
  C  C51  1  0.88669000  0.82153000  0.78592000  1.0
  C  C52  1  0.52494000  0.19238000  0.55973000  1.0
  C  C53  1  0.47507000  0.80763000  0.44027000  1.0
  C  C54  1  0.46379000  0.21506000  0.48270000  1.0
  C  C55  1  0.53622000  0.78495000  0.51730000  1.0
  C  C56  1  0.30787000  0.14419000  0.42275000  1.0
  C  C57  1  0.69213000  0.85581000  0.57725000  1.0
  C  C58  1  0.22176000  0.05194000  0.44471000  1.0
  C  C59  1  0.77824000  0.94807000  0.55530000  1.0
  C  C60  1  0.29043000  0.03643000  0.52445000  1.0
  C  C61  1  0.70957000  0.96358000  0.47555000  1.0
  C  C62  1  0.76317000  0.05003000  0.00035000  1.0
  C  C63  1  0.23684000  0.94997000  0.99965000  1.0
  C  C64  1  0.87677000  0.05638000  0.07815000  1.0
  C  C65  1  0.12324000  0.94362000  0.92184000  1.0
  C  C66  1  0.99388000  0.15728000  0.12885000  1.0
  C  C67  1  0.00613000  0.84272000  0.87115000  1.0
  C  C68  1  0.99504000  0.24638000  0.09499000  1.0
  C  C69  1  0.00497000  0.75362000  0.90501000  1.0
  C  C70  1  0.87898000  0.23302000  0.01659000  1.0
  C  C71  1  0.12103000  0.76699000  0.98341000  1.0
  C  C72  1  0.03323000  0.44818000  0.37503000  1.0
  C  C73  1  0.96677000  0.55182000  0.62497000  1.0
  C  C74  1  0.18429000  0.43662000  0.49879000  1.0
  C  C75  1  0.81571000  0.56338000  0.50121000  1.0
  C  C76  1  0.62688000  0.34903000  0.18499000  1.0
  C  C77  1  0.37312000  0.65096000  0.81501000  1.0
  C  C78  1  0.73546000  0.35576000  0.26445000  1.0
  C  C79  1  0.26454000  0.64424000  0.73555000  1.0
  C  C80  1  0.90785000  0.42830000  0.29203000  1.0
  C  C81  1  0.09215000  0.57170000  0.70797000  1.0
  C  C82  1  0.95977000  0.49215000  0.23701000  1.0
  C  C83  1  0.04022000  0.50785000  0.76299000  1.0
  C  C84  1  0.84258000  0.48185000  0.15982000  1.0
  C  C85  1  0.15742000  0.51815000  0.84018000  1.0
  C  C86  1  0.49806000  0.43410000  0.69673000  1.0
  C  C87  1  0.50193000  0.56590000  0.30327000  1.0
  C  C88  1  0.42395000  0.46382000  0.62546000  1.0
  C  C89  1  0.57605000  0.53618000  0.37454000  1.0
  C  C90  1  0.25445000  0.40159000  0.57334000  1.0
  C  C91  1  0.74554000  0.59841000  0.42666000  1.0
  C  C92  1  0.16561000  0.31256000  0.59842000  1.0
  C  C93  1  0.83438000  0.68744000  0.40157000  1.0
  C  C94  1  0.25069000  0.28814000  0.67064000  1.0
  C  C95  1  0.74930000  0.71185000  0.32936000  1.0
  I  I96  1  0.83295000  0.23013000  0.77764000  1.0
  I  I97  1  0.16705000  0.76987000  0.22236000  1.0
  I  I98  1  0.73756000  0.49480000  0.93234000  1.0
  I  I99  1  0.26243000  0.50520000  0.06765000  1.0
  I  I100  1  0.33581000  0.22552000  0.90920000  1.0
  I  I101  1  0.66419000  0.77448000  0.09080000  1.0
  I  I102  1  0.42803000  0.93339000  0.76014000  1.0
  I  I103  1  0.57197000  0.06661000  0.23985000  1.0
  N  N104  1  0.24032000  0.27229000  0.25226000  1.0
  N  N105  1  0.75969000  0.72771000  0.74775000  1.0
  N  N106  1  0.32448000  0.26901000  0.33174000  1.0
  N  N107  1  0.67552000  0.73100000  0.66826000  1.0
  N  N108  1  0.11383000  0.11427000  0.27075000  1.0
  N  N109  1  0.88618000  0.88573000  0.72925000  1.0
  N  N110  1  0.00315000  0.01150000  0.26202000  1.0
  N  N111  1  0.99686000  0.98850000  0.73798000  1.0
  N  N112  1  0.43920000  0.10505000  0.58215000  1.0
  N  N113  1  0.56081000  0.89496000  0.41785000  1.0
  N  N114  1  0.76087000  0.13656000  0.96972000  1.0
  N  N115  1  0.23914000  0.86344000  0.03028000  1.0
  N  N116  1  0.16706000  0.53894000  0.41035000  1.0
  N  N117  1  0.83294000  0.46107000  0.58965000  1.0
  N  N118  1  0.25918000  0.53235000  0.48731000  1.0
  N  N119  1  0.74082000  0.46765000  0.51270000  1.0
  N  N120  1  0.03911000  0.38203000  0.42975000  1.0
  N  N121  1  0.96089000  0.61797000  0.57025000  1.0
  N  N122  1  0.92254000  0.28105000  0.42192000  1.0
  N  N123  1  0.07745000  0.71895000  0.57807000  1.0
  N  N124  1  0.67745000  0.41083000  0.13265000  1.0
  N  N125  1  0.32255000  0.58917000  0.86735000  1.0
  N  N126  1  0.41573000  0.34627000  0.71904000  1.0
  N  N127  1  0.58427000  0.65373000  0.28095000  1.0
