# generated using pymatgen
data_Cd3H22(C2O)16
_symmetry_space_group_name_H-M   'P 1'
_cell_length_a   6.78590000
_cell_length_b   14.35130000
_cell_length_c   17.91990000
_cell_angle_alpha   90.00030000
_cell_angle_beta   90.00040000
_cell_angle_gamma   90.72220000
_symmetry_Int_Tables_number   1
_chemical_formula_structural   Cd3H22(C2O)16
_chemical_formula_sum   'Cd6 H44 C64 O32'
_cell_volume   1745.01746889
_cell_formula_units_Z   2
loop_
 _symmetry_equiv_pos_site_id
 _symmetry_equiv_pos_as_xyz
  1  'x, y, z'
loop_
 _atom_site_type_symbol
 _atom_site_label
 _atom_site_symmetry_multiplicity
 _atom_site_fract_x
 _atom_site_fract_y
 _atom_site_fract_z
 _atom_site_occupancy
  Cd  Cd0  1  0.00000000  0.00000000  0.50000000  1.0
  Cd  Cd1  1  0.50000000  0.00000000  0.00000000  1.0
  Cd  Cd2  1  0.56531000  0.14161000  0.46769000  1.0
  Cd  Cd3  1  0.93469000  0.85839000  0.96769000  1.0
  Cd  Cd4  1  0.43469000  0.85839000  0.53231000  1.0
  Cd  Cd5  1  0.06531000  0.14161000  0.03231000  1.0
  H  H6  1  0.12360000  0.98730000  0.26038000  1.0
  H  H7  1  0.37641000  0.01270000  0.76039000  1.0
  H  H8  1  0.87641000  0.01270000  0.73961000  1.0
  H  H9  1  0.62360000  0.98730000  0.23961000  1.0
  H  H10  1  0.26784000  0.79557000  0.08519000  1.0
  H  H11  1  0.23217000  0.20443000  0.58518000  1.0
  H  H12  1  0.73216000  0.20443000  0.91482000  1.0
  H  H13  1  0.76783000  0.79557000  0.41481000  1.0
  H  H14  1  0.33491000  0.71394000  0.31569000  1.0
  H  H15  1  0.16508000  0.28607000  0.81569000  1.0
  H  H16  1  0.66509000  0.28607000  0.68431000  1.0
  H  H17  1  0.83492000  0.71393000  0.18431000  1.0
  H  H18  1  0.50590000  0.69681000  0.07942000  1.0
  H  H19  1  0.99410000  0.30318000  0.57942000  1.0
  H  H20  1  0.49409000  0.30318000  0.92058000  1.0
  H  H21  1  0.00591000  0.69682000  0.42058000  1.0
  H  H22  1  0.27826000  0.63250000  0.07455000  1.0
  H  H23  1  0.22174000  0.36750000  0.57455000  1.0
  H  H24  1  0.72173000  0.36750000  0.92545000  1.0
  H  H25  1  0.77827000  0.63250000  0.42545000  1.0
  H  H26  1  0.80861000  0.62012000  0.07224000  1.0
  H  H27  1  0.69138000  0.37988000  0.57224000  1.0
  H  H28  1  0.19138000  0.37988000  0.92776000  1.0
  H  H29  1  0.30862000  0.62012000  0.42776000  1.0
  H  H30  1  0.99646000  0.47183000  0.06211000  1.0
  H  H31  1  0.50353000  0.52817000  0.56211000  1.0
  H  H32  1  0.00353000  0.52817000  0.93789000  1.0
  H  H33  1  0.49647000  0.47183000  0.43789000  1.0
  H  H34  1  0.46411000  0.31523000  0.10750000  1.0
  H  H35  1  0.03589000  0.68476000  0.60749000  1.0
  H  H36  1  0.53588000  0.68476000  0.89251000  1.0
  H  H37  1  0.96411000  0.31524000  0.39251000  1.0
  H  H38  1  0.28233000  0.46099000  0.12298000  1.0
  H  H39  1  0.21767000  0.53901000  0.62297000  1.0
  H  H40  1  0.71766000  0.53901000  0.87703000  1.0
  H  H41  1  0.78233000  0.46099000  0.37703000  1.0
  H  H42  1  0.93067000  0.11252000  0.37423000  1.0
  H  H43  1  0.56933000  0.88748000  0.87423000  1.0
  H  H44  1  0.06932000  0.88748000  0.62577000  1.0
  H  H45  1  0.43067000  0.11252000  0.12577000  1.0
  H  H46  1  0.05596000  0.17724000  0.42965000  1.0
  H  H47  1  0.44404000  0.82276000  0.92964000  1.0
  H  H48  1  0.94404000  0.82276000  0.57035000  1.0
  H  H49  1  0.55596000  0.17724000  0.07035000  1.0
  C  C50  1  0.22373000  0.85234000  0.29653000  1.0
  C  C51  1  0.27627000  0.14766000  0.79653000  1.0
  C  C52  1  0.77628000  0.14766000  0.70347000  1.0
  C  C53  1  0.72373000  0.85234000  0.20347000  1.0
  C  C54  1  0.17311000  0.91898000  0.24310000  1.0
  C  C55  1  0.32689000  0.08102000  0.74310000  1.0
  C  C56  1  0.82689000  0.08102000  0.75690000  1.0
  C  C57  1  0.67311000  0.91898000  0.25690000  1.0
  C  C58  1  0.18990000  0.89759000  0.16755000  1.0
  C  C59  1  0.31011000  0.10241000  0.66755000  1.0
  C  C60  1  0.81011000  0.10241000  0.83245000  1.0
  C  C61  1  0.68989000  0.89759000  0.33244000  1.0
  C  C62  1  0.25527000  0.80971000  0.14462000  1.0
  C  C63  1  0.24474000  0.19029000  0.64462000  1.0
  C  C64  1  0.74473000  0.19029000  0.85538000  1.0
  C  C65  1  0.75526000  0.80971000  0.35538000  1.0
  C  C66  1  0.30728000  0.74371000  0.19833000  1.0
  C  C67  1  0.19272000  0.25630000  0.69832000  1.0
  C  C68  1  0.69272000  0.25630000  0.80167000  1.0
  C  C69  1  0.80728000  0.74370000  0.30167000  1.0
  C  C70  1  0.29087000  0.76515000  0.27441000  1.0
  C  C71  1  0.20913000  0.23485000  0.77441000  1.0
  C  C72  1  0.70913000  0.23485000  0.72559000  1.0
  C  C73  1  0.79088000  0.76515000  0.22559000  1.0
  C  C74  1  0.21325000  0.87747000  0.37747000  1.0
  C  C75  1  0.28674000  0.12253000  0.87747000  1.0
  C  C76  1  0.78676000  0.12253000  0.62253000  1.0
  C  C77  1  0.71326000  0.87747000  0.12253000  1.0
  C  C78  1  0.14476000  0.97005000  0.11126000  1.0
  C  C79  1  0.35525000  0.02995000  0.61126000  1.0
  C  C80  1  0.85524000  0.02995000  0.88874000  1.0
  C  C81  1  0.64476000  0.97004000  0.38874000  1.0
  C  C82  1  0.85674000  0.29773000  0.07020000  1.0
  C  C83  1  0.64325000  0.70227000  0.57020000  1.0
  C  C84  1  0.14325000  0.70227000  0.92980000  1.0
  C  C85  1  0.35675000  0.29773000  0.42980000  1.0
  C  C86  1  0.74410000  0.38432000  0.08428000  1.0
  C  C87  1  0.75589000  0.61567000  0.58428000  1.0
  C  C88  1  0.25589000  0.61568000  0.91572000  1.0
  C  C89  1  0.24411000  0.38432000  0.41572000  1.0
  C  C90  1  0.42012000  0.63902000  0.10423000  1.0
  C  C91  1  0.07988000  0.36098000  0.60423000  1.0
  C  C92  1  0.57987000  0.36098000  0.89577000  1.0
  C  C93  1  0.92013000  0.63902000  0.39577000  1.0
  C  C94  1  0.53370000  0.55031000  0.09925000  1.0
  C  C95  1  0.96630000  0.44968000  0.59925000  1.0
  C  C96  1  0.46629000  0.44969000  0.90075000  1.0
  C  C97  1  0.03371000  0.55031000  0.40075000  1.0
  C  C98  1  0.73526000  0.55313000  0.08230000  1.0
  C  C99  1  0.76474000  0.44686000  0.58230000  1.0
  C  C100  1  0.26473000  0.44687000  0.91770000  1.0
  C  C101  1  0.23527000  0.55313000  0.41770000  1.0
  C  C102  1  0.84018000  0.47083000  0.07586000  1.0
  C  C103  1  0.65982000  0.52916000  0.57585000  1.0
  C  C104  1  0.15981000  0.52916000  0.92415000  1.0
  C  C105  1  0.34018000  0.47083000  0.42415000  1.0
  C  C106  1  0.54236000  0.38151000  0.10150000  1.0
  C  C107  1  0.95764000  0.61849000  0.60150000  1.0
  C  C108  1  0.45764000  0.61849000  0.89850000  1.0
  C  C109  1  0.04236000  0.38151000  0.39850000  1.0
  C  C110  1  0.43907000  0.46402000  0.10970000  1.0
  C  C111  1  0.06092000  0.53597000  0.60969000  1.0
  C  C112  1  0.56092000  0.53597000  0.89031000  1.0
  C  C113  1  0.93908000  0.46403000  0.39031000  1.0
  O  O114  1  0.12791000  0.95360000  0.39359000  1.0
  O  O115  1  0.37209000  0.04641000  0.89359000  1.0
  O  O116  1  0.87210000  0.04641000  0.60641000  1.0
  O  O117  1  0.62791000  0.95360000  0.10641000  1.0
  O  O118  1  0.93245000  0.13572000  0.42538000  1.0
  O  O119  1  0.56755000  0.86428000  0.92538000  1.0
  O  O120  1  0.06755000  0.86428000  0.57462000  1.0
  O  O121  1  0.43245000  0.13572000  0.07462000  1.0
  O  O122  1  0.29221000  0.82203000  0.42409000  1.0
  O  O123  1  0.20777000  0.17797000  0.92409000  1.0
  O  O124  1  0.70778000  0.17797000  0.57591000  1.0
  O  O125  1  0.79222000  0.82202000  0.07591000  1.0
  O  O126  1  0.17571000  0.95339000  0.04102000  1.0
  O  O127  1  0.32429000  0.04661000  0.54102000  1.0
  O  O128  1  0.82429000  0.04661000  0.95898000  1.0
  O  O129  1  0.67571000  0.95339000  0.45898000  1.0
  O  O130  1  0.08228000  0.04857000  0.13339000  1.0
  O  O131  1  0.41773000  0.95144000  0.63339000  1.0
  O  O132  1  0.91772000  0.95143000  0.86661000  1.0
  O  O133  1  0.58227000  0.04856000  0.36661000  1.0
  O  O134  1  0.38217000  0.65837000  0.18209000  1.0
  O  O135  1  0.11784000  0.34164000  0.68209000  1.0
  O  O136  1  0.61783000  0.34163000  0.81791000  1.0
  O  O137  1  0.88217000  0.65837000  0.31791000  1.0
  O  O138  1  0.76393000  0.21911000  0.06133000  1.0
  O  O139  1  0.73606000  0.78089000  0.56133000  1.0
  O  O140  1  0.23606000  0.78089000  0.93867000  1.0
  O  O141  1  0.26394000  0.21911000  0.43867000  1.0
  O  O142  1  0.04298000  0.30111000  0.06385000  1.0
  O  O143  1  0.45701000  0.69889000  0.56385000  1.0
  O  O144  1  0.95701000  0.69889000  0.93615000  1.0
  O  O145  1  0.54299000  0.30111000  0.43615000  1.0
