# generated using pymatgen
data_CuH5C9N4O
_symmetry_space_group_name_H-M   'P 1'
_cell_length_a   7.15229000
_cell_length_b   12.51800000
_cell_length_c   15.57230000
_cell_angle_alpha   89.99880000
_cell_angle_beta   89.99960000
_cell_angle_gamma   89.02520000
_symmetry_Int_Tables_number   1
_chemical_formula_structural   CuH5C9N4O
_chemical_formula_sum   'Cu4 H20 C36 N16 O4'
_cell_volume   1394.02308615
_cell_formula_units_Z   4
loop_
 _symmetry_equiv_pos_site_id
 _symmetry_equiv_pos_as_xyz
  1  'x, y, z'
loop_
 _atom_site_type_symbol
 _atom_site_label
 _atom_site_symmetry_multiplicity
 _atom_site_fract_x
 _atom_site_fract_y
 _atom_site_fract_z
 _atom_site_occupancy
  Cu  Cu0  1  0.26369000  0.35370000  0.12259000  1.0
  Cu  Cu1  1  0.73630000  0.14630000  0.62259000  1.0
  Cu  Cu2  1  0.73630000  0.64630000  0.87742000  1.0
  Cu  Cu3  1  0.26370000  0.85369000  0.37741000  1.0
  H  H4  1  0.08434000  0.40939000  0.41588000  1.0
  H  H5  1  0.91564000  0.09060000  0.91588000  1.0
  H  H6  1  0.91565000  0.59061000  0.58412000  1.0
  H  H7  1  0.08435000  0.90940000  0.08413000  1.0
  H  H8  1  0.19282000  0.43703000  0.51594000  1.0
  H  H9  1  0.80717000  0.06297000  0.01593000  1.0
  H  H10  1  0.80719000  0.56298000  0.48406000  1.0
  H  H11  1  0.19282000  0.93703000  0.98407000  1.0
  H  H12  1  0.25978000  0.60253000  0.39714000  1.0
  H  H13  1  0.74021000  0.89747000  0.89713000  1.0
  H  H14  1  0.74024000  0.39747000  0.60286000  1.0
  H  H15  1  0.25979000  0.10253000  0.10287000  1.0
  H  H16  1  0.25459000  0.52194000  0.30353000  1.0
  H  H17  1  0.74539000  0.97806000  0.80353000  1.0
  H  H18  1  0.74543000  0.47807000  0.69647000  1.0
  H  H19  1  0.25462000  0.02193000  0.19646000  1.0
  H  H20  1  0.47010000  0.58014000  0.33679000  1.0
  H  H21  1  0.52990000  0.91986000  0.83679000  1.0
  H  H22  1  0.52993000  0.41985000  0.66321000  1.0
  H  H23  1  0.47011000  0.08014000  0.16321000  1.0
  C  C24  1  0.24223000  0.21087000  0.38562000  1.0
  C  C25  1  0.75776000  0.28913000  0.88561000  1.0
  C  C26  1  0.75777000  0.78913000  0.61439000  1.0
  C  C27  1  0.24223000  0.71088000  0.11439000  1.0
  C  C28  1  0.23434000  0.27388000  0.46982000  1.0
  C  C29  1  0.76563000  0.22614000  0.96982000  1.0
  C  C30  1  0.76566000  0.72613000  0.53019000  1.0
  C  C31  1  0.23433000  0.77388000  0.03019000  1.0
  C  C32  1  0.24600000  0.26235000  0.30712000  1.0
  C  C33  1  0.75401000  0.23763000  0.80710000  1.0
  C  C34  1  0.75400000  0.73763000  0.69290000  1.0
  C  C35  1  0.24600000  0.76236000  0.19290000  1.0
  C  C36  1  0.25150000  0.10011000  0.38711000  1.0
  C  C37  1  0.74853000  0.39989000  0.88711000  1.0
  C  C38  1  0.74850000  0.89989000  0.61289000  1.0
  C  C39  1  0.25147000  0.60011000  0.11290000  1.0
  C  C40  1  0.40046000  0.24665000  0.52268000  1.0
  C  C41  1  0.59952000  0.25335000  0.02267000  1.0
  C  C42  1  0.59953000  0.75336000  0.47732000  1.0
  C  C43  1  0.40047000  0.74664000  0.97733000  1.0
  C  C44  1  0.07188000  0.23893000  0.52012000  1.0
  C  C45  1  0.92810000  0.26106000  0.02012000  1.0
  C  C46  1  0.92811000  0.76108000  0.47989000  1.0
  C  C47  1  0.07189000  0.73894000  0.97988000  1.0
  C  C48  1  0.21166000  0.39554000  0.45399000  1.0
  C  C49  1  0.78835000  0.10445000  0.95399000  1.0
  C  C50  1  0.78836000  0.60445000  0.54601000  1.0
  C  C51  1  0.21164000  0.89555000  0.04601000  1.0
  C  C52  1  0.38169000  0.44601000  0.41165000  1.0
  C  C53  1  0.61831000  0.05398000  0.91166000  1.0
  C  C54  1  0.61831000  0.55398000  0.58833000  1.0
  C  C55  1  0.38170000  0.94602000  0.08833000  1.0
  C  C56  1  0.34087000  0.54385000  0.35915000  1.0
  C  C57  1  0.65912000  0.95615000  0.85915000  1.0
  C  C58  1  0.65913000  0.45616000  0.64084000  1.0
  C  C59  1  0.34090000  0.04384000  0.14084000  1.0
  N  N60  1  0.24935000  0.30365000  0.23920000  1.0
  N  N61  1  0.75068000  0.19635000  0.73919000  1.0
  N  N62  1  0.75064000  0.69635000  0.76081000  1.0
  N  N63  1  0.24935000  0.80365000  0.26082000  1.0
  N  N64  1  0.25884000  0.00627000  0.38722000  1.0
  N  N65  1  0.74117000  0.49374000  0.88722000  1.0
  N  N66  1  0.74117000  0.99373000  0.61279000  1.0
  N  N67  1  0.25883000  0.50628000  0.11279000  1.0
  N  N68  1  0.51779000  0.20877000  0.56536000  1.0
  N  N69  1  0.48219000  0.29124000  0.06534000  1.0
  N  N70  1  0.48219000  0.79124000  0.43466000  1.0
  N  N71  1  0.51780000  0.70876000  0.93466000  1.0
  N  N72  1  0.94468000  0.20712000  0.55851000  1.0
  N  N73  1  0.05529000  0.29288000  0.05852000  1.0
  N  N74  1  0.05530000  0.79289000  0.44149000  1.0
  N  N75  1  0.94468000  0.70712000  0.94149000  1.0
  O  O76  1  0.53924000  0.40900000  0.42421000  1.0
  O  O77  1  0.46075000  0.09099000  0.92421000  1.0
  O  O78  1  0.46077000  0.59095000  0.57575000  1.0
  O  O79  1  0.53925000  0.90902000  0.07577000  1.0
