# generated using pymatgen
data_CsH5C6O
_symmetry_space_group_name_H-M   'P 1'
_cell_length_a   7.72349000
_cell_length_b   14.64350000
_cell_length_c   18.26270000
_cell_angle_alpha   90.00010000
_cell_angle_beta   89.99990000
_cell_angle_gamma   89.99990000
_symmetry_Int_Tables_number   1
_chemical_formula_structural   CsH5C6O
_chemical_formula_sum   'Cs12 H60 C72 O12'
_cell_volume   2065.49175247
_cell_formula_units_Z   12
loop_
 _symmetry_equiv_pos_site_id
 _symmetry_equiv_pos_as_xyz
  1  'x, y, z'
loop_
 _atom_site_type_symbol
 _atom_site_label
 _atom_site_symmetry_multiplicity
 _atom_site_fract_x
 _atom_site_fract_y
 _atom_site_fract_z
 _atom_site_occupancy
  Cs  Cs0  1  0.24176000  0.46602000  0.50654000  1.0
  Cs  Cs1  1  0.74176000  0.53398000  0.49346000  1.0
  Cs  Cs2  1  0.74176000  0.03398000  0.00654000  1.0
  Cs  Cs3  1  0.24176000  0.96602000  0.99346000  1.0
  Cs  Cs4  1  0.10493000  0.53448000  0.30419000  1.0
  Cs  Cs5  1  0.60493000  0.46552000  0.69581000  1.0
  Cs  Cs6  1  0.60493000  0.96552000  0.80419000  1.0
  Cs  Cs7  1  0.10492000  0.03448000  0.19581000  1.0
  Cs  Cs8  1  0.10424000  0.69858000  0.60787000  1.0
  Cs  Cs9  1  0.60424000  0.30142000  0.39213000  1.0
  Cs  Cs10  1  0.60424000  0.80142000  0.10787000  1.0
  Cs  Cs11  1  0.10424000  0.19858000  0.89213000  1.0
  H  H12  1  0.36710000  0.67009000  0.40788000  1.0
  H  H13  1  0.86711000  0.32991000  0.59212000  1.0
  H  H14  1  0.86711000  0.82991000  0.90788000  1.0
  H  H15  1  0.36710000  0.17009000  0.09213000  1.0
  H  H16  1  0.47752000  0.82316000  0.37112000  1.0
  H  H17  1  0.97752000  0.17684000  0.62888000  1.0
  H  H18  1  0.97752000  0.67685000  0.87112000  1.0
  H  H19  1  0.47752000  0.32315000  0.12888000  1.0
  H  H20  1  0.27959000  0.95808000  0.36934000  1.0
  H  H21  1  0.77959000  0.04192000  0.63066000  1.0
  H  H22  1  0.77960000  0.54192000  0.86934000  1.0
  H  H23  1  0.27959000  0.45808000  0.13066000  1.0
  H  H24  1  0.96810000  0.93672000  0.40122000  1.0
  H  H25  1  0.46811000  0.06327000  0.59878000  1.0
  H  H26  1  0.46811000  0.56328000  0.90122000  1.0
  H  H27  1  0.96811000  0.43673000  0.09878000  1.0
  H  H28  1  0.85710000  0.78334000  0.43659000  1.0
  H  H29  1  0.35710000  0.21666000  0.56341000  1.0
  H  H30  1  0.35710000  0.71666000  0.93659000  1.0
  H  H31  1  0.85710000  0.28334000  0.06341000  1.0
  H  H32  1  0.03820000  0.24853000  0.49078000  1.0
  H  H33  1  0.53820000  0.75147000  0.50922000  1.0
  H  H34  1  0.53820000  0.25147000  0.99078000  1.0
  H  H35  1  0.03820000  0.74853000  0.00922000  1.0
  H  H36  1  0.22596000  0.11538000  0.46335000  1.0
  H  H37  1  0.72597000  0.88462000  0.53665000  1.0
  H  H38  1  0.72596000  0.38462000  0.96335000  1.0
  H  H39  1  0.22597000  0.61538000  0.03665000  1.0
  H  H40  1  0.36200000  0.09819000  0.33966000  1.0
  H  H41  1  0.86200000  0.90181000  0.66034000  1.0
  H  H42  1  0.86200000  0.40181000  0.83966000  1.0
  H  H43  1  0.36200000  0.59819000  0.16034000  1.0
  H  H44  1  0.29396000  0.21399000  0.24261000  1.0
  H  H45  1  0.79397000  0.78601000  0.75739000  1.0
  H  H46  1  0.79397000  0.28601000  0.74261000  1.0
  H  H47  1  0.29397000  0.71399000  0.25739000  1.0
  H  H48  1  0.09752000  0.34012000  0.26667000  1.0
  H  H49  1  0.59752000  0.65989000  0.73333000  1.0
  H  H50  1  0.59752000  0.15989000  0.76667000  1.0
  H  H51  1  0.09752000  0.84011000  0.23332000  1.0
  H  H52  1  0.00035000  0.58587000  0.75490000  1.0
  H  H53  1  0.50035000  0.41412000  0.24510000  1.0
  H  H54  1  0.50035000  0.91413000  0.25490000  1.0
  H  H55  1  0.00035000  0.08587000  0.74510000  1.0
  H  H56  1  0.17220000  0.53434000  0.86122000  1.0
  H  H57  1  0.67220000  0.46566000  0.13878000  1.0
  H  H58  1  0.67220000  0.96566000  0.36122000  1.0
  H  H59  1  0.17220000  0.03434000  0.63877000  1.0
  H  H60  1  0.33320000  0.38580000  0.85733000  1.0
  H  H61  1  0.83319000  0.61420000  0.14268000  1.0
  H  H62  1  0.83320000  0.11420000  0.35732000  1.0
  H  H63  1  0.33319000  0.88580000  0.64268000  1.0
  H  H64  1  0.30971000  0.28820000  0.74499000  1.0
  H  H65  1  0.80971000  0.71180000  0.25501000  1.0
  H  H66  1  0.80971000  0.21180000  0.24499000  1.0
  H  H67  1  0.30971000  0.78820000  0.75501000  1.0
  H  H68  1  0.13727000  0.33826000  0.63929000  1.0
  H  H69  1  0.63727000  0.66174000  0.36071000  1.0
  H  H70  1  0.63727000  0.16174000  0.13929000  1.0
  H  H71  1  0.13727000  0.83826000  0.86071000  1.0
  C  C72  1  0.10391000  0.71465000  0.42599000  1.0
  C  C73  1  0.60392000  0.28535000  0.57401000  1.0
  C  C74  1  0.60392000  0.78535000  0.92599000  1.0
  C  C75  1  0.10391000  0.21465000  0.07401000  1.0
  C  C76  1  0.28035000  0.72904000  0.40608000  1.0
  C  C77  1  0.78035000  0.27096000  0.59393000  1.0
  C  C78  1  0.78035000  0.77096000  0.90608000  1.0
  C  C79  1  0.28035000  0.22904000  0.09393000  1.0
  C  C80  1  0.34107000  0.81499000  0.38562000  1.0
  C  C81  1  0.84107000  0.18501000  0.61439000  1.0
  C  C82  1  0.84107000  0.68501000  0.88562000  1.0
  C  C83  1  0.34107000  0.31499000  0.11438000  1.0
  C  C84  1  0.23062000  0.89071000  0.38394000  1.0
  C  C85  1  0.73062000  0.10929000  0.61606000  1.0
  C  C86  1  0.73062000  0.60929000  0.88394000  1.0
  C  C87  1  0.23062000  0.39071000  0.11606000  1.0
  C  C88  1  0.05598000  0.87825000  0.40232000  1.0
  C  C89  1  0.55598000  0.12175000  0.59768000  1.0
  C  C90  1  0.55599000  0.62175000  0.90232000  1.0
  C  C91  1  0.05598000  0.37825000  0.09768000  1.0
  C  C92  1  0.99313000  0.79253000  0.42219000  1.0
  C  C93  1  0.49314000  0.20747000  0.57781000  1.0
  C  C94  1  0.49314000  0.70747000  0.92219000  1.0
  C  C95  1  0.99313000  0.29253000  0.07781000  1.0
  C  C96  1  0.05688000  0.30930000  0.38273000  1.0
  C  C97  1  0.55688000  0.69070000  0.61727000  1.0
  C  C98  1  0.55688000  0.19070000  0.88273000  1.0
  C  C99  1  0.05688000  0.80930000  0.11727000  1.0
  C  C100  1  0.09583000  0.24104000  0.43649000  1.0
  C  C101  1  0.59583000  0.75896000  0.56351000  1.0
  C  C102  1  0.59583000  0.25896000  0.93649000  1.0
  C  C103  1  0.09584000  0.74104000  0.06351000  1.0
  C  C104  1  0.20034000  0.16592000  0.42071000  1.0
  C  C105  1  0.70034000  0.83408000  0.57929000  1.0
  C  C106  1  0.70034000  0.33408000  0.92071000  1.0
  C  C107  1  0.20034000  0.66592000  0.07929000  1.0
  C  C108  1  0.27480000  0.15491000  0.35132000  1.0
  C  C109  1  0.77480000  0.84509000  0.64868000  1.0
  C  C110  1  0.77480000  0.34508000  0.85132000  1.0
  C  C111  1  0.27480000  0.65491000  0.14868000  1.0
  C  C112  1  0.23743000  0.21994000  0.29724000  1.0
  C  C113  1  0.73743000  0.78006000  0.70276000  1.0
  C  C114  1  0.73743000  0.28006000  0.79724000  1.0
  C  C115  1  0.23743000  0.71994000  0.20276000  1.0
  C  C116  1  0.12900000  0.29376000  0.31156000  1.0
  C  C117  1  0.62900000  0.70624000  0.68844000  1.0
  C  C118  1  0.62900000  0.20624000  0.81156000  1.0
  C  C119  1  0.12900000  0.79376000  0.18844000  1.0
  C  C120  1  0.05768000  0.46846000  0.68632000  1.0
  C  C121  1  0.55768000  0.53154000  0.31368000  1.0
  C  C122  1  0.55768000  0.03154000  0.18632000  1.0
  C  C123  1  0.05768000  0.96847000  0.81368000  1.0
  C  C124  1  0.07043000  0.52108000  0.75220000  1.0
  C  C125  1  0.57043000  0.47891000  0.24780000  1.0
  C  C126  1  0.57043000  0.97892000  0.25220000  1.0
  C  C127  1  0.07043000  0.02108000  0.74780000  1.0
  C  C128  1  0.16644000  0.49148000  0.81230000  1.0
  C  C129  1  0.66644000  0.50852000  0.18770000  1.0
  C  C130  1  0.66644000  0.00852000  0.31230000  1.0
  C  C131  1  0.16644000  0.99148000  0.68770000  1.0
  C  C132  1  0.25439000  0.40773000  0.81094000  1.0
  C  C133  1  0.75439000  0.59227000  0.18906000  1.0
  C  C134  1  0.75439000  0.09227000  0.31094000  1.0
  C  C135  1  0.25439000  0.90773000  0.68906000  1.0
  C  C136  1  0.24093000  0.35343000  0.74784000  1.0
  C  C137  1  0.74093000  0.64657000  0.25216000  1.0
  C  C138  1  0.74093000  0.14657000  0.24784000  1.0
  C  C139  1  0.24093000  0.85343000  0.75216000  1.0
  C  C140  1  0.14559000  0.38230000  0.68738000  1.0
  C  C141  1  0.64559000  0.61770000  0.31262000  1.0
  C  C142  1  0.64559000  0.11770000  0.18738000  1.0
  C  C143  1  0.14559000  0.88230000  0.81262000  1.0
  O  O144  1  0.04828000  0.63423000  0.44795000  1.0
  O  O145  1  0.54828000  0.36577000  0.55205000  1.0
  O  O146  1  0.54828000  0.86577000  0.94795000  1.0
  O  O147  1  0.04828000  0.13423000  0.05205000  1.0
  O  O148  1  0.96207000  0.38121000  0.39793000  1.0
  O  O149  1  0.46206000  0.61879000  0.60207000  1.0
  O  O150  1  0.46206000  0.11879000  0.89793000  1.0
  O  O151  1  0.96206000  0.88121000  0.10207000  1.0
  O  O152  1  0.97113000  0.49751000  0.62918000  1.0
  O  O153  1  0.47113000  0.50249000  0.37082000  1.0
  O  O154  1  0.47112000  0.00249000  0.12918000  1.0
  O  O155  1  0.97112000  0.99751000  0.87082000  1.0
