# generated using pymatgen
data_AgH5(C2N)2
_symmetry_space_group_name_H-M   'P 1'
_cell_length_a   5.82506000
_cell_length_b   7.54508000
_cell_length_c   10.95710000
_cell_angle_alpha   93.59550000
_cell_angle_beta   89.99980000
_cell_angle_gamma   89.99960000
_symmetry_Int_Tables_number   1
_chemical_formula_structural   AgH5(C2N)2
_chemical_formula_sum   'Ag4 H20 C16 N8'
_cell_volume   480.62260644
_cell_formula_units_Z   4
loop_
 _symmetry_equiv_pos_site_id
 _symmetry_equiv_pos_as_xyz
  1  'x, y, z'
loop_
 _atom_site_type_symbol
 _atom_site_label
 _atom_site_symmetry_multiplicity
 _atom_site_fract_x
 _atom_site_fract_y
 _atom_site_fract_z
 _atom_site_occupancy
  Ag  Ag0  1  0.50001000  0.50002000  0.50000000  1.0
  Ag  Ag1  1  0.00000000  0.00002000  0.00001000  1.0
  Ag  Ag2  1  0.00000000  0.49999000  0.00000000  1.0
  Ag  Ag3  1  0.49996000  0.99998000  0.50000000  1.0
  H  H4  1  0.90505000  0.63953000  0.25034000  1.0
  H  H5  1  0.40504000  0.86049000  0.24964000  1.0
  H  H6  1  0.09498000  0.36050000  0.74966000  1.0
  H  H7  1  0.59495000  0.13951000  0.75033000  1.0
  H  H8  1  0.97603000  0.55740000  0.39391000  1.0
  H  H9  1  0.47605000  0.94262000  0.10609000  1.0
  H  H10  1  0.02398000  0.44259000  0.60608000  1.0
  H  H11  1  0.52397000  0.05739000  0.89391000  1.0
  H  H12  1  0.10139000  0.75832000  0.34845000  1.0
  H  H13  1  0.60139000  0.74169000  0.15154000  1.0
  H  H14  1  0.89863000  0.24166000  0.65157000  1.0
  H  H15  1  0.39861000  0.25831000  0.84844000  1.0
  H  H16  1  0.73024000  0.32913000  0.25096000  1.0
  H  H17  1  0.23025000  0.17090000  0.24905000  1.0
  H  H18  1  0.26976000  0.67090000  0.74902000  1.0
  H  H19  1  0.76976000  0.82910000  0.75100000  1.0
  H  H20  1  0.50541000  0.32606000  0.02902000  1.0
  H  H21  1  0.00538000  0.17391000  0.47099000  1.0
  H  H22  1  0.49458000  0.67392000  0.97097000  1.0
  H  H23  1  0.99454000  0.82606000  0.52905000  1.0
  C  C24  1  0.04497000  0.62460000  0.31543000  1.0
  C  C25  1  0.54496000  0.87543000  0.18456000  1.0
  C  C26  1  0.95504000  0.37542000  0.68457000  1.0
  C  C27  1  0.45503000  0.12460000  0.81542000  1.0
  C  C28  1  0.23604000  0.52234000  0.25596000  1.0
  C  C29  1  0.73604000  0.97766000  0.24404000  1.0
  C  C30  1  0.76396000  0.47766000  0.74403000  1.0
  C  C31  1  0.26393000  0.02232000  0.75596000  1.0
  C  C32  1  0.56458000  0.38338000  0.22828000  1.0
  C  C33  1  0.06457000  0.11663000  0.27172000  1.0
  C  C34  1  0.43546000  0.61663000  0.77170000  1.0
  C  C35  1  0.93543000  0.88337000  0.72830000  1.0
  C  C36  1  0.45215000  0.38183000  0.11784000  1.0
  C  C37  1  0.95214000  0.11817000  0.38216000  1.0
  C  C38  1  0.54786000  0.61819000  0.88216000  1.0
  C  C39  1  0.04782000  0.88179000  0.61784000  1.0
  N  N40  1  0.42724000  0.47187000  0.31510000  1.0
  N  N41  1  0.92723000  0.02816000  0.18490000  1.0
  N  N42  1  0.57279000  0.52815000  0.68489000  1.0
  N  N43  1  0.07277000  0.97185000  0.81511000  1.0
  N  N44  1  0.24545000  0.47049000  0.13549000  1.0
  N  N45  1  0.74544000  0.02950000  0.36451000  1.0
  N  N46  1  0.75458000  0.52949000  0.86450000  1.0
  N  N47  1  0.25454000  0.97049000  0.63550000  1.0
