# generated using pymatgen
data_Al2H5C19O10
_symmetry_space_group_name_H-M   'P 1'
_cell_length_a   6.69488000
_cell_length_b   19.56840000
_cell_length_c   21.37440000
_cell_angle_alpha   86.66390000
_cell_angle_beta   89.42650000
_cell_angle_gamma   89.50480000
_symmetry_Int_Tables_number   1
_chemical_formula_structural   Al2H5C19O10
_chemical_formula_sum   'Al4 H10 C38 O20'
_cell_volume   2795.24276083
_cell_formula_units_Z   2
loop_
 _symmetry_equiv_pos_site_id
 _symmetry_equiv_pos_as_xyz
  1  'x, y, z'
loop_
 _atom_site_type_symbol
 _atom_site_label
 _atom_site_symmetry_multiplicity
 _atom_site_fract_x
 _atom_site_fract_y
 _atom_site_fract_z
 _atom_site_occupancy
  Al  Al0  1  0.75704000  0.26495000  0.26218000  1.0
  Al  Al1  1  0.24296000  0.73505000  0.73782000  1.0
  Al  Al2  1  0.25600000  0.26488000  0.26218000  1.0
  Al  Al3  1  0.74400000  0.73512000  0.73782000  1.0
  H  H4  1  0.33924000  0.95608000  0.98222000  1.0
  H  H5  1  0.66076000  0.04392000  0.01778000  1.0
  H  H6  1  0.21674000  0.09505000  0.96400000  1.0
  H  H7  1  0.78326000  0.90495000  0.03600000  1.0
  H  H8  1  0.87061000  0.05243000  0.90150000  1.0
  H  H9  1  0.12939000  0.94757000  0.09850000  1.0
  H  H10  1  0.50900000  0.17573000  0.25877000  1.0
  H  H11  1  0.49100000  0.82427000  0.74123000  1.0
  H  H12  1  0.00399000  0.35274000  0.27456000  1.0
  H  H13  1  0.99601000  0.64726000  0.72545000  1.0
  C  C14  1  0.50741000  0.34876000  0.17460000  1.0
  C  C15  1  0.49259000  0.65124000  0.82540000  1.0
  C  C16  1  0.50147000  0.34526000  0.34438000  1.0
  C  C17  1  0.49853000  0.65474000  0.65562000  1.0
  C  C18  1  0.00598000  0.17771000  0.34766000  1.0
  C  C19  1  0.99402000  0.82229000  0.65234000  1.0
  C  C20  1  0.01126000  0.18481000  0.18045000  1.0
  C  C21  1  0.98874000  0.81519000  0.81955000  1.0
  C  C22  1  0.92807000  0.02978000  0.94576000  1.0
  C  C23  1  0.07193000  0.97022000  0.05424000  1.0
  C  C24  1  0.12063000  0.05234000  0.97950000  1.0
  C  C25  1  0.87937000  0.94766000  0.02050000  1.0
  C  C26  1  0.01251000  0.13759000  0.13145000  1.0
  C  C27  1  0.98749000  0.86241000  0.86855000  1.0
  C  C28  1  0.81118000  0.02396000  0.00947000  1.0
  C  C29  1  0.18881000  0.97604000  0.99053000  1.0
  C  C30  1  0.00323000  0.04796000  0.04442000  1.0
  C  C31  1  0.99677000  0.95204000  0.95558000  1.0
  C  C32  1  0.00903000  0.09638000  0.09087000  1.0
  C  C33  1  0.99097000  0.90362000  0.90913000  1.0
  C  C34  1  0.99482000  0.87589000  0.60319000  1.0
  C  C35  1  0.00518000  0.12411000  0.39681000  1.0
  C  C36  1  0.99675000  0.92364000  0.56339000  1.0
  C  C37  1  0.00325000  0.07637000  0.43661000  1.0
  C  C38  1  0.99893000  0.97590000  0.51992000  1.0
  C  C39  1  0.00107000  0.02411000  0.48008000  1.0
  C  C40  1  0.50729000  0.39526000  0.11978000  1.0
  C  C41  1  0.49271000  0.60474000  0.88022000  1.0
  C  C42  1  0.50482000  0.43539000  0.07350000  1.0
  C  C43  1  0.49518000  0.56461000  0.92650000  1.0
  C  C44  1  0.50167000  0.47954000  0.02307000  1.0
  C  C45  1  0.49833000  0.52045000  0.97692000  1.0
  C  C46  1  0.49938000  0.39270000  0.39347000  1.0
  C  C47  1  0.50062000  0.60730000  0.60653000  1.0
  C  C48  1  0.49947000  0.43408000  0.43445000  1.0
  C  C49  1  0.50054000  0.56592000  0.56555000  1.0
  C  C50  1  0.49977000  0.47925000  0.47933000  1.0
  C  C51  1  0.50024000  0.52075000  0.52066000  1.0
  O  O52  1  0.33205000  0.32694000  0.32495000  1.0
  O  O53  1  0.66795000  0.67306000  0.67505000  1.0
  O  O54  1  0.67777000  0.33090000  0.19614000  1.0
  O  O55  1  0.32223000  0.66910000  0.80386000  1.0
  O  O56  1  0.84025000  0.20331000  0.20052000  1.0
  O  O57  1  0.15975000  0.79669000  0.79948000  1.0
  O  O58  1  0.67290000  0.32707000  0.32469000  1.0
  O  O59  1  0.32710000  0.67293000  0.67531000  1.0
  O  O60  1  0.83536000  0.19824000  0.32816000  1.0
  O  O61  1  0.16464000  0.80176000  0.67184000  1.0
  O  O62  1  0.33668000  0.33094000  0.19632000  1.0
  O  O63  1  0.66332000  0.66906000  0.80368000  1.0
  O  O64  1  0.50754000  0.22468000  0.26341000  1.0
  O  O65  1  0.49246000  0.77532000  0.73659000  1.0
  O  O66  1  0.17685000  0.19797000  0.32802000  1.0
  O  O67  1  0.82315000  0.80203000  0.67198000  1.0
  O  O68  1  0.18036000  0.20334000  0.20024000  1.0
  O  O69  1  0.81964000  0.79667000  0.79976000  1.0
  O  O70  1  0.00553000  0.30591000  0.26211000  1.0
  O  O71  1  0.99447000  0.69409000  0.73789000  1.0
