# generated using pymatgen
data_CaCdH12(C4O3)4
_symmetry_space_group_name_H-M   'P 1'
_cell_length_a   14.07250000
_cell_length_b   15.73170000
_cell_length_c   15.73139020
_cell_angle_alpha   78.45890288
_cell_angle_beta   63.43245630
_cell_angle_gamma   63.42990000
_symmetry_Int_Tables_number   1
_chemical_formula_structural   CaCdH12(C4O3)4
_chemical_formula_sum   'Ca4 Cd4 H48 C64 O48'
_cell_volume   2785.96348319
_cell_formula_units_Z   4
loop_
 _symmetry_equiv_pos_site_id
 _symmetry_equiv_pos_as_xyz
  1  'x, y, z'
loop_
 _atom_site_type_symbol
 _atom_site_label
 _atom_site_symmetry_multiplicity
 _atom_site_fract_x
 _atom_site_fract_y
 _atom_site_fract_z
 _atom_site_occupancy
  Ca  Ca0  1  0.95633000  0.58734000  0.99997000  1.0
  Ca  Ca1  1  0.54358000  0.41277000  0.00003000  1.0
  Ca  Ca2  1  0.45638000  0.99998000  0.58723000  1.0
  Ca  Ca3  1  0.04364000  0.00003000  0.41266000  1.0
  Cd  Cd4  1  0.76721000  0.49997000  0.96556000  1.0
  Cd  Cd5  1  0.23272000  0.50002000  0.03442000  1.0
  Cd  Cd6  1  0.73274000  0.03444000  0.50003000  1.0
  Cd  Cd7  1  0.26716000  0.96558000  0.49998000  1.0
  H  H8  1  0.23190000  0.73374000  0.64572000  1.0
  H  H9  1  0.61131000  0.26628000  0.35437000  1.0
  H  H10  1  0.03431000  0.35415000  0.73381000  1.0
  H  H11  1  0.12254000  0.64562000  0.26597000  1.0
  H  H12  1  0.11136000  0.35428000  0.26626000  1.0
  H  H13  1  0.73195000  0.64563000  0.73373000  1.0
  H  H14  1  0.62226000  0.26620000  0.64585000  1.0
  H  H15  1  0.53413000  0.73403000  0.35438000  1.0
  H  H16  1  0.73140000  0.72850000  0.13496000  1.0
  H  H17  1  0.59485000  0.27160000  0.86500000  1.0
  H  H18  1  0.54033000  0.86499000  0.72839000  1.0
  H  H19  1  0.13387000  0.13488000  0.27150000  1.0
  H  H20  1  0.09486000  0.86504000  0.27150000  1.0
  H  H21  1  0.23145000  0.13500000  0.72840000  1.0
  H  H22  1  0.63371000  0.27161000  0.13501000  1.0
  H  H23  1  0.04025000  0.72850000  0.86512000  1.0
  H  H24  1  0.69674000  0.67870000  0.08325000  1.0
  H  H25  1  0.45866000  0.32134000  0.91673000  1.0
  H  H26  1  0.62478000  0.91671000  0.67851000  1.0
  H  H27  1  0.22020000  0.08317000  0.32134000  1.0
  H  H28  1  0.95868000  0.91675000  0.32130000  1.0
  H  H29  1  0.19673000  0.08327000  0.67866000  1.0
  H  H30  1  0.72000000  0.32148000  0.08329000  1.0
  H  H31  1  0.12471000  0.67866000  0.91683000  1.0
  H  H32  1  0.07936000  0.59007000  0.77559000  1.0
  H  H33  1  0.44482000  0.41007000  0.22466000  1.0
  H  H34  1  0.33053000  0.22441000  0.59015000  1.0
  H  H35  1  0.14503000  0.77547000  0.40975000  1.0
  H  H36  1  0.94501000  0.22441000  0.40993000  1.0
  H  H37  1  0.57955000  0.77533000  0.58993000  1.0
  H  H38  1  0.64508000  0.40985000  0.77560000  1.0
  H  H39  1  0.83024000  0.59025000  0.22454000  1.0
  H  H40  1  0.08482000  0.83011000  0.58814000  1.0
  H  H41  1  0.50330000  0.16972000  0.41168000  1.0
  H  H42  1  0.08498000  0.41179000  0.83022000  1.0
  H  H43  1  0.32731000  0.58808000  0.16962000  1.0
  H  H44  1  0.00305000  0.41186000  0.16990000  1.0
  H  H45  1  0.58469000  0.58831000  0.83028000  1.0
  H  H46  1  0.82698000  0.16978000  0.58821000  1.0
  H  H47  1  0.58501000  0.83038000  0.41192000  1.0
  H  H48  1  0.77629000  0.77383000  0.71886000  1.0
  H  H49  1  0.26909000  0.22614000  0.28103000  1.0
  H  H50  1  0.44974000  0.28096000  0.77409000  1.0
  H  H51  1  0.50475000  0.71905000  0.22610000  1.0
  H  H52  1  0.76898000  0.28114000  0.22617000  1.0
  H  H53  1  0.27627000  0.71898000  0.77385000  1.0
  H  H54  1  0.00480000  0.22591000  0.71903000  1.0
  H  H55  1  0.94990000  0.77390000  0.28095000  1.0
  C  C56  1  0.85712000  0.62022000  0.82447000  1.0
  C  C57  1  0.30185000  0.37978000  0.17551000  1.0
  C  C58  1  0.52256000  0.17544000  0.62041000  1.0
  C  C59  1  0.31827000  0.82456000  0.37968000  1.0
  C  C60  1  0.80181000  0.17553000  0.37978000  1.0
  C  C61  1  0.35714000  0.82449000  0.62022000  1.0
  C  C62  1  0.81841000  0.37959000  0.82456000  1.0
  C  C63  1  0.02252000  0.62032000  0.17544000  1.0
  C  C64  1  0.86910000  0.89202000  0.59541000  1.0
  C  C65  1  0.35658000  0.10791000  0.40446000  1.0
  C  C66  1  0.23889000  0.40452000  0.89212000  1.0
  C  C67  1  0.53571000  0.59551000  0.10787000  1.0
  C  C68  1  0.85653000  0.40459000  0.10798000  1.0
  C  C69  1  0.36894000  0.59554000  0.89209000  1.0
  C  C70  1  0.03552000  0.10788000  0.59548000  1.0
  C  C71  1  0.73908000  0.89213000  0.40449000  1.0
  C  C72  1  0.92006000  0.67687000  0.75556000  1.0
  C  C73  1  0.35253000  0.32315000  0.24442000  1.0
  C  C74  1  0.40294000  0.24432000  0.67709000  1.0
  C  C75  1  0.32429000  0.75565000  0.32298000  1.0
  C  C76  1  0.85248000  0.24444000  0.32314000  1.0
  C  C77  1  0.42010000  0.75558000  0.67685000  1.0
  C  C78  1  0.82435000  0.32291000  0.75568000  1.0
  C  C79  1  0.90292000  0.67702000  0.24435000  1.0
  C  C80  1  0.03470000  0.65258000  0.74138000  1.0
  C  C81  1  0.42858000  0.34748000  0.25872000  1.0
  C  C82  1  0.31264000  0.25853000  0.65273000  1.0
  C  C83  1  0.22390000  0.74139000  0.34720000  1.0
  C  C84  1  0.92866000  0.25862000  0.34742000  1.0
  C  C85  1  0.53478000  0.74128000  0.65252000  1.0
  C  C86  1  0.72390000  0.34727000  0.74147000  1.0
  C  C87  1  0.81249000  0.65280000  0.25861000  1.0
  C  C88  1  0.09459000  0.70799000  0.68214000  1.0
  C  C89  1  0.48469000  0.29204000  0.31790000  1.0
  C  C90  1  0.19734000  0.31778000  0.70810000  1.0
  C  C91  1  0.22337000  0.68211000  0.29175000  1.0
  C  C92  1  0.98472000  0.31786000  0.29201000  1.0
  C  C93  1  0.59463000  0.68209000  0.70796000  1.0
  C  C94  1  0.72321000  0.29191000  0.68222000  1.0
  C  C95  1  0.69723000  0.70825000  0.31789000  1.0
  C  C96  1  0.03914000  0.78692000  0.63528000  1.0
  C  C97  1  0.46143000  0.21301000  0.36464000  1.0
  C  C98  1  0.17385000  0.36460000  0.78707000  1.0
  C  C99  1  0.32574000  0.63530000  0.21282000  1.0
  C  C100  1  0.96134000  0.36471000  0.21308000  1.0
  C  C101  1  0.53908000  0.63536000  0.78699000  1.0
  C  C102  1  0.82552000  0.21294000  0.63540000  1.0
  C  C103  1  0.67387000  0.78718000  0.36469000  1.0
  C  C104  1  0.92494000  0.80990000  0.64861000  1.0
  C  C105  1  0.38360000  0.19001000  0.35127000  1.0
  C  C106  1  0.26503000  0.35127000  0.81009000  1.0
  C  C107  1  0.42653000  0.64871000  0.18991000  1.0
  C  C108  1  0.88345000  0.35139000  0.19010000  1.0
  C  C109  1  0.42487000  0.64873000  0.80999000  1.0
  C  C110  1  0.92639000  0.18991000  0.64873000  1.0
  C  C111  1  0.76515000  0.81009000  0.35129000  1.0
  C  C112  1  0.86478000  0.75539000  0.70895000  1.0
  C  C113  1  0.32919000  0.24459000  0.29097000  1.0
  C  C114  1  0.37973000  0.29089000  0.75562000  1.0
  C  C115  1  0.42624000  0.70908000  0.24448000  1.0
  C  C116  1  0.82910000  0.29105000  0.24462000  1.0
  C  C117  1  0.36474000  0.70903000  0.75541000  1.0
  C  C118  1  0.92623000  0.24438000  0.70911000  1.0
  C  C119  1  0.87980000  0.75552000  0.29092000  1.0
  O  O120  1  0.89329000  0.57517000  0.88992000  1.0
  O  O121  1  0.35840000  0.42485000  0.11009000  1.0
  O  O122  1  0.53149000  0.11006000  0.57524000  1.0
  O  O123  1  0.21661000  0.88991000  0.42486000  1.0
  O  O124  1  0.85838000  0.11008000  0.42483000  1.0
  O  O125  1  0.39334000  0.88991000  0.57515000  1.0
  O  O126  1  0.71679000  0.42476000  0.88994000  1.0
  O  O127  1  0.03138000  0.57515000  0.11009000  1.0
  O  O128  1  0.77100000  0.61585000  0.82165000  1.0
  O  O129  1  0.20864000  0.38400000  0.17824000  1.0
  O  O130  1  0.61304000  0.17823000  0.61612000  1.0
  O  O131  1  0.40722000  0.82186000  0.38396000  1.0
  O  O132  1  0.70850000  0.17835000  0.38415000  1.0
  O  O133  1  0.27088000  0.82176000  0.61599000  1.0
  O  O134  1  0.90739000  0.38387000  0.82177000  1.0
  O  O135  1  0.11304000  0.61604000  0.17814000  1.0
  O  O136  1  0.75953000  0.92340000  0.61754000  1.0
  O  O137  1  0.30040000  0.07666000  0.38233000  1.0
  O  O138  1  0.31721000  0.38236000  0.92338000  1.0
  O  O139  1  0.62309000  0.61769000  0.07662000  1.0
  O  O140  1  0.80047000  0.38246000  0.07660000  1.0
  O  O141  1  0.25939000  0.61767000  0.92334000  1.0
  O  O142  1  0.12294000  0.07662000  0.61764000  1.0
  O  O143  1  0.81740000  0.92338000  0.38231000  1.0
  O  O144  1  0.93192000  0.92861000  0.52784000  1.0
  O  O145  1  0.38833000  0.07127000  0.47208000  1.0
  O  O146  1  0.13954000  0.47218000  0.92872000  1.0
  O  O147  1  0.54065000  0.52785000  0.07124000  1.0
  O  O148  1  0.88837000  0.47216000  0.07139000  1.0
  O  O149  1  0.43167000  0.52792000  0.92873000  1.0
  O  O150  1  0.04044000  0.07128000  0.52782000  1.0
  O  O151  1  0.63974000  0.92877000  0.47215000  1.0
  O  O152  1  0.20368000  0.68166000  0.67416000  1.0
  O  O153  1  0.55940000  0.31838000  0.32597000  1.0
  O  O154  1  0.11463000  0.32577000  0.68172000  1.0
  O  O155  1  0.12236000  0.67395000  0.31811000  1.0
  O  O156  1  0.05950000  0.32584000  0.31834000  1.0
  O  O157  1  0.70375000  0.67403000  0.68162000  1.0
  O  O158  1  0.62211000  0.31829000  0.67423000  1.0
  O  O159  1  0.61442000  0.68189000  0.32605000  1.0
  O  O160  1  0.75713000  0.70018000  0.07461000  1.0
  O  O161  1  0.53190000  0.29990000  0.92536000  1.0
  O  O162  1  0.54291000  0.92531000  0.69998000  1.0
  O  O163  1  0.16842000  0.07454000  0.29988000  1.0
  O  O164  1  0.03192000  0.92540000  0.29982000  1.0
  O  O165  1  0.25716000  0.07464000  0.70010000  1.0
  O  O166  1  0.66820000  0.30002000  0.07469000  1.0
  O  O167  1  0.04284000  0.70012000  0.92546000  1.0
