# generated using pymatgen
data_Zn2H35C46N3O13
_symmetry_space_group_name_H-M   'P 1'
_cell_length_a   13.34150000
_cell_length_b   13.95270000
_cell_length_c   15.27240000
_cell_angle_alpha   90.25530000
_cell_angle_beta   92.60280000
_cell_angle_gamma   111.90300000
_symmetry_Int_Tables_number   1
_chemical_formula_structural   Zn2H35C46N3O13
_chemical_formula_sum   'Zn2 H35 C46 N3 O13'
_cell_volume   2634.31913014
_cell_formula_units_Z   1
loop_
 _symmetry_equiv_pos_site_id
 _symmetry_equiv_pos_as_xyz
  1  'x, y, z'
loop_
 _atom_site_type_symbol
 _atom_site_label
 _atom_site_symmetry_multiplicity
 _atom_site_fract_x
 _atom_site_fract_y
 _atom_site_fract_z
 _atom_site_occupancy
  Zn  Zn0  1  0.49297000  0.39730000  0.49749000  1.0
  Zn  Zn1  1  0.50832000  0.60381000  0.49636000  1.0
  H  H2  1  0.86228000  0.74598000  0.59259000  1.0
  H  H3  1  0.20255000  0.70676000  0.64827000  1.0
  H  H4  1  0.05318000  0.77226000  0.63848000  1.0
  H  H5  1  0.80686000  0.44120000  0.49835000  1.0
  H  H6  1  0.13625000  0.24404000  0.46436000  1.0
  H  H7  1  0.85813000  0.32066000  0.50414000  1.0
  H  H8  1  0.27954000  0.58163000  0.59978000  1.0
  H  H9  1  0.45805000  0.33326000  0.05372000  1.0
  H  H10  1  0.46648000  0.33468000  0.21715000  1.0
  H  H11  1  0.48683000  0.64846000  0.22258000  1.0
  H  H12  1  0.47245000  0.64686000  0.05910000  1.0
  H  H13  1  0.58105000  0.65124000  0.94552000  1.0
  H  H14  1  0.35684000  0.33351000  0.92483000  1.0
  H  H15  1  0.34582000  0.69619000  0.44161000  1.0
  H  H16  1  0.66140000  0.81298000  0.54647000  1.0
  H  H17  1  0.66566000  0.99464000  0.54665000  1.0
  H  H18  1  0.56350000  0.09003000  0.62889000  1.0
  H  H19  1  0.55656000  0.26783000  0.62624000  1.0
  H  H20  1  0.44032000  0.22809000  0.36779000  1.0
  H  H21  1  0.43706000  0.04674000  0.35996000  1.0
  H  H22  1  0.72323000  0.63103000  0.72431000  1.0
  H  H23  1  0.74583000  0.66513000  0.83850000  1.0
  H  H24  1  0.77591000  0.84980000  0.80250000  1.0
  H  H25  1  0.86912000  0.80731000  0.74998000  1.0
  H  H26  1  0.75573000  0.81539000  0.68865000  1.0
  H  H27  1  0.24613000  0.36702000  0.69674000  1.0
  H  H28  1  0.20911000  0.29955000  0.79663000  1.0
  H  H29  1  0.20474000  0.13625000  0.72087000  1.0
  H  H30  1  0.11328000  0.18573000  0.66720000  1.0
  H  H31  1  0.23975000  0.20592000  0.62135000  1.0
  H  H32  1  0.29205000  0.94834000  0.53728000  1.0
  H  H33  1  0.21185000  0.81321000  0.52594000  1.0
  H  H34  1  0.11430000  0.84899000  0.39193000  1.0
  H  H35  1  0.09873000  0.91579000  0.48642000  1.0
  H  H36  1  0.19113000  0.98408000  0.40717000  1.0
  C  C37  1  0.48890000  0.49399000  0.32757000  1.0
  C  C38  1  0.29019000  0.43053000  0.50043000  1.0
  C  C39  1  0.49453000  0.49805000  0.66587000  1.0
  C  C40  1  0.70871000  0.57017000  0.51670000  1.0
  C  C41  1  0.99930000  0.69940000  0.60761000  1.0
  C  C42  1  0.82460000  0.59066000  0.54335000  1.0
  C  C43  1  0.10302000  0.30011000  0.48544000  1.0
  C  C44  1  0.99080000  0.27348000  0.48662000  1.0
  C  C45  1  0.94575000  0.34503000  0.50723000  1.0
  C  C46  1  0.01340000  0.44613000  0.53380000  1.0
  C  C47  1  0.12756000  0.47157000  0.54250000  1.0
  C  C48  1  0.97048000  0.52525000  0.55266000  1.0
  C  C49  1  0.04047000  0.62122000  0.59202000  1.0
  C  C50  1  0.15118000  0.63643000  0.61235000  1.0
  C  C51  1  0.19420000  0.56675000  0.58600000  1.0
  C  C52  1  0.86302000  0.51221000  0.52985000  1.0
  C  C53  1  0.89370000  0.68527000  0.58271000  1.0
  C  C54  1  0.17086000  0.39916000  0.51128000  1.0
  C  C55  1  0.46187000  0.40189000  0.09042000  1.0
  C  C56  1  0.46761000  0.40259000  0.18161000  1.0
  C  C57  1  0.47831000  0.49195000  0.22962000  1.0
  C  C58  1  0.47994000  0.57980000  0.18463000  1.0
  C  C59  1  0.47292000  0.57869000  0.09351000  1.0
  C  C60  1  0.46572000  0.49037000  0.04469000  1.0
  C  C61  1  0.53290000  0.58213000  0.90694000  1.0
  C  C62  1  0.54091000  0.58432000  0.81629000  1.0
  C  C63  1  0.48447000  0.49604000  0.76329000  1.0
  C  C64  1  0.41832000  0.40612000  0.80483000  1.0
  C  C65  1  0.40980000  0.40444000  0.89560000  1.0
  C  C66  1  0.46782000  0.49218000  0.94810000  1.0
  C  C67  1  0.40982000  0.86230000  0.46257000  1.0
  C  C68  1  0.41491000  0.76421000  0.46471000  1.0
  C  C69  1  0.59133000  0.83028000  0.52427000  1.0
  C  C70  1  0.59225000  0.93010000  0.52522000  1.0
  C  C71  1  0.50053000  0.94812000  0.49412000  1.0
  C  C72  1  0.53583000  0.11772000  0.56953000  1.0
  C  C73  1  0.53261000  0.21611000  0.56878000  1.0
  C  C74  1  0.46568000  0.19295000  0.42385000  1.0
  C  C75  1  0.46477000  0.09324000  0.41999000  1.0
  C  C76  1  0.50022000  0.05378000  0.49433000  1.0
  C  C77  1  0.71762000  0.68552000  0.77475000  1.0
  C  C78  1  0.78337000  0.79619000  0.75266000  1.0
  C  C79  1  0.25004000  0.30143000  0.73502000  1.0
  C  C80  1  0.19912000  0.20101000  0.68301000  1.0
  C  C81  1  0.24546000  0.88571000  0.49006000  1.0
  C  C82  1  0.15762000  0.91021000  0.44064000  1.0
  N  N83  1  0.50395000  0.74903000  0.49473000  1.0
  N  N84  1  0.49790000  0.25274000  0.49710000  1.0
  N  N85  1  0.91879000  0.16643000  0.46561000  1.0
  O  O86  1  0.46539000  0.40734000  0.36518000  1.0
  O  O87  1  0.52076000  0.58224000  0.36628000  1.0
  O  O88  1  0.33112000  0.36308000  0.51677000  1.0
  O  O89  1  0.33943000  0.52130000  0.47361000  1.0
  O  O90  1  0.52440000  0.43072000  0.63109000  1.0
  O  O91  1  0.47223000  0.56763000  0.62520000  1.0
  O  O92  1  0.65457000  0.48121000  0.48315000  1.0
  O  O93  1  0.67197000  0.64097000  0.53058000  1.0
  O  O94  1  0.60622000  0.67527000  0.77970000  1.0
  O  O95  1  0.36205000  0.31752000  0.75550000  1.0
  O  O96  1  0.31825000  0.87257000  0.42688000  1.0
  O  O97  1  0.96051000  0.10446000  0.44369000  1.0
  O  O98  1  0.81963000  0.14285000  0.47219000  1.0
