# generated using pymatgen
data_ZnH18C28(NO)4
_symmetry_space_group_name_H-M   'P 1'
_cell_length_a   8.67975000
_cell_length_b   10.38820000
_cell_length_c   14.33010000
_cell_angle_alpha   97.83100000
_cell_angle_beta   91.38920000
_cell_angle_gamma   109.77960000
_symmetry_Int_Tables_number   1
_chemical_formula_structural   ZnH18C28(NO)4
_chemical_formula_sum   'Zn2 H36 C56 N8 O8'
_cell_volume   1201.09574173
_cell_formula_units_Z   2
loop_
 _symmetry_equiv_pos_site_id
 _symmetry_equiv_pos_as_xyz
  1  'x, y, z'
loop_
 _atom_site_type_symbol
 _atom_site_label
 _atom_site_symmetry_multiplicity
 _atom_site_fract_x
 _atom_site_fract_y
 _atom_site_fract_z
 _atom_site_occupancy
  Zn  Zn0  1  0.71749000  0.70327000  0.28710000  1.0
  Zn  Zn1  1  0.28253000  0.29675000  0.71290000  1.0
  H  H2  1  0.59745000  0.68100000  0.92790000  1.0
  H  H3  1  0.40254000  0.31898000  0.07210000  1.0
  H  H4  1  0.56005000  0.63316000  0.75337000  1.0
  H  H5  1  0.43994000  0.36682000  0.24663000  1.0
  H  H6  1  0.01392000  0.97097000  0.74843000  1.0
  H  H7  1  0.98607000  0.02903000  0.25157000  1.0
  H  H8  1  0.03199000  0.00829000  0.92317000  1.0
  H  H9  1  0.96799000  0.99171000  0.07684000  1.0
  H  H10  1  0.50209000  0.68739000  0.61812000  1.0
  H  H11  1  0.49790000  0.31259000  0.38187000  1.0
  H  H12  1  0.03106000  0.85702000  0.61493000  1.0
  H  H13  1  0.96893000  0.14300000  0.38507000  1.0
  H  H14  1  0.22618000  0.91759000  0.52709000  1.0
  H  H15  1  0.77381000  0.08239000  0.47292000  1.0
  H  H16  1  0.44129000  0.96409000  0.40974000  1.0
  H  H17  1  0.55871000  0.03591000  0.59028000  1.0
  H  H18  1  0.35428000  0.90098000  0.23774000  1.0
  H  H19  1  0.64573000  0.09903000  0.76227000  1.0
  H  H20  1  0.05283000  0.78912000  0.18753000  1.0
  H  H21  1  0.94719000  0.21090000  0.81247000  1.0
  H  H22  1  0.27982000  0.59940000  0.53227000  1.0
  H  H23  1  0.72019000  0.40059000  0.46772000  1.0
  H  H24  1  0.03041000  0.50723000  0.41708000  1.0
  H  H25  1  0.96960000  0.49275000  0.58290000  1.0
  H  H26  1  0.06691000  0.49565000  0.24474000  1.0
  H  H27  1  0.93311000  0.50435000  0.75525000  1.0
  H  H28  1  0.35346000  0.58073000  0.19172000  1.0
  H  H29  1  0.64656000  0.41928000  0.80828000  1.0
  H  H30  1  0.72620000  0.36734000  0.05685000  1.0
  H  H31  1  0.27377000  0.63267000  0.94314000  1.0
  H  H32  1  0.68586000  0.13027000  0.96962000  1.0
  H  H33  1  0.31411000  0.86973000  0.03038000  1.0
  H  H34  1  0.66441000  0.93683000  0.05941000  1.0
  H  H35  1  0.33556000  0.06317000  0.94060000  1.0
  H  H36  1  0.71860000  0.21217000  0.32034000  1.0
  H  H37  1  0.28143000  0.78786000  0.67966000  1.0
  C  C38  1  0.68825000  0.74432000  0.88604000  1.0
  C  C39  1  0.31173000  0.25567000  0.11396000  1.0
  C  C40  1  0.66642000  0.71777000  0.78778000  1.0
  C  C41  1  0.33357000  0.28222000  0.21222000  1.0
  C  C42  1  0.78472000  0.79817000  0.73472000  1.0
  C  C43  1  0.21526000  0.20183000  0.26528000  1.0
  C  C44  1  0.91926000  0.90313000  0.78515000  1.0
  C  C45  1  0.08072000  0.09687000  0.21485000  1.0
  C  C46  1  0.92916000  0.92422000  0.88351000  1.0
  C  C47  1  0.07082000  0.07578000  0.11649000  1.0
  C  C48  1  0.60339000  0.69861000  0.48181000  1.0
  C  C49  1  0.39661000  0.30139000  0.51819000  1.0
  C  C50  1  0.61342000  0.71714000  0.58055000  1.0
  C  C51  1  0.38657000  0.28286000  0.41945000  1.0
  C  C52  1  0.76859000  0.77505000  0.63038000  1.0
  C  C53  1  0.23140000  0.22494000  0.36962000  1.0
  C  C54  1  0.90853000  0.81215000  0.57876000  1.0
  C  C55  1  0.09146000  0.18786000  0.42125000  1.0
  C  C56  1  0.88894000  0.79116000  0.48011000  1.0
  C  C57  1  0.11106000  0.20884000  0.51989000  1.0
  C  C58  1  0.02649000  0.82621000  0.41755000  1.0
  C  C59  1  0.97352000  0.17379000  0.58245000  1.0
  C  C60  1  0.19134000  0.88867000  0.45146000  1.0
  C  C61  1  0.80867000  0.11133000  0.54854000  1.0
  C  C62  1  0.31125000  0.91637000  0.38657000  1.0
  C  C63  1  0.68876000  0.08362000  0.61344000  1.0
  C  C64  1  0.26396000  0.88041000  0.29027000  1.0
  C  C65  1  0.73605000  0.11959000  0.70974000  1.0
  C  C66  1  0.09711000  0.81864000  0.26200000  1.0
  C  C67  1  0.90290000  0.18137000  0.73801000  1.0
  C  C68  1  0.44740000  0.63956000  0.42094000  1.0
  C  C69  1  0.55261000  0.36043000  0.57905000  1.0
  C  C70  1  0.29256000  0.59532000  0.45648000  1.0
  C  C71  1  0.70745000  0.40466000  0.54351000  1.0
  C  C72  1  0.15371000  0.54261000  0.39280000  1.0
  C  C73  1  0.84630000  0.45738000  0.60718000  1.0
  C  C74  1  0.17263000  0.53649000  0.29623000  1.0
  C  C75  1  0.82738000  0.46352000  0.70376000  1.0
  C  C76  1  0.33114000  0.58299000  0.26643000  1.0
  C  C77  1  0.66887000  0.41702000  0.73355000  1.0
  C  C78  1  0.71563000  0.28088000  0.09473000  1.0
  C  C79  1  0.28435000  0.71913000  0.90527000  1.0
  C  C80  1  0.69268000  0.14882000  0.04663000  1.0
  C  C81  1  0.30730000  0.85118000  0.95337000  1.0
  C  C82  1  0.67782000  0.03925000  0.09644000  1.0
  C  C83  1  0.32219000  0.96077000  0.90356000  1.0
  C  C84  1  0.68767000  0.06176000  0.19544000  1.0
  C  C85  1  0.31232000  0.93825000  0.80456000  1.0
  C  C86  1  0.71051000  0.19428000  0.24339000  1.0
  C  C87  1  0.28950000  0.80573000  0.75662000  1.0
  C  C88  1  0.72380000  0.30420000  0.19382000  1.0
  C  C89  1  0.27621000  0.69580000  0.80618000  1.0
  C  C90  1  0.73741000  0.44271000  0.24794000  1.0
  C  C91  1  0.26260000  0.55730000  0.75207000  1.0
  C  C92  1  0.68725000  0.94865000  0.25093000  1.0
  C  C93  1  0.31275000  0.05136000  0.74906000  1.0
  N  N94  1  0.81649000  0.84600000  0.93434000  1.0
  N  N95  1  0.18350000  0.15400000  0.06566000  1.0
  N  N96  1  0.73919000  0.73565000  0.43476000  1.0
  N  N97  1  0.26080000  0.26434000  0.56524000  1.0
  N  N98  1  0.98162000  0.79332000  0.32382000  1.0
  N  N99  1  0.01839000  0.20668000  0.67618000  1.0
  N  N100  1  0.46461000  0.63184000  0.32695000  1.0
  N  N101  1  0.53540000  0.36816000  0.67305000  1.0
  O  O102  1  0.72014000  0.53401000  0.19935000  1.0
  O  O103  1  0.27989000  0.46600000  0.80066000  1.0
  O  O104  1  0.75838000  0.46220000  0.33672000  1.0
  O  O105  1  0.24162000  0.53781000  0.66329000  1.0
  O  O106  1  0.68628000  0.83354000  0.20265000  1.0
  O  O107  1  0.31374000  0.16647000  0.79735000  1.0
  O  O108  1  0.69479000  0.97212000  0.33981000  1.0
  O  O109  1  0.30521000  0.02787000  0.66019000  1.0
