# generated using pymatgen
data_ZnH9C27S5N2O21F5
_symmetry_space_group_name_H-M   'P 1'
_cell_length_a   9.61486000
_cell_length_b   10.73920000
_cell_length_c   27.71700000
_cell_angle_alpha   92.45110000
_cell_angle_beta   95.58330000
_cell_angle_gamma   96.27470000
_symmetry_Int_Tables_number   1
_chemical_formula_structural   ZnH9C27S5N2O21F5
_chemical_formula_sum   'Zn2 H18 C54 S10 N4 O42 F10'
_cell_volume   2827.17487319
_cell_formula_units_Z   2
loop_
 _symmetry_equiv_pos_site_id
 _symmetry_equiv_pos_as_xyz
  1  'x, y, z'
loop_
 _atom_site_type_symbol
 _atom_site_label
 _atom_site_symmetry_multiplicity
 _atom_site_fract_x
 _atom_site_fract_y
 _atom_site_fract_z
 _atom_site_occupancy
  Zn  Zn0  1  0.65087000  0.51729000  0.51075000  1.0
  Zn  Zn1  1  0.34661000  0.48930000  0.49268000  1.0
  H  H2  1  0.67352000  0.07750000  0.44573000  1.0
  H  H3  1  0.34652000  0.93049000  0.56331000  1.0
  H  H4  1  0.15502000  0.69773000  0.52490000  1.0
  H  H5  1  0.83970000  0.32221000  0.46812000  1.0
  H  H6  1  0.57586000  0.59905000  0.24399000  1.0
  H  H7  1  0.38010000  0.33839000  0.74732000  1.0
  H  H8  1  0.62966000  0.69680000  0.74083000  1.0
  H  H9  1  0.36563000  0.23511000  0.27006000  1.0
  H  H10  1  0.66101000  0.67542000  0.40863000  1.0
  H  H11  1  0.29461000  0.30170000  0.57718000  1.0
  H  H12  1  0.97507000  0.09256000  0.52752000  1.0
  H  H13  1  0.17343000  0.85776000  0.42264000  1.0
  H  H14  1  0.00623000  0.38057000  0.63390000  1.0
  H  H15  1  0.86519000  0.54843000  0.34981000  1.0
  H  H16  1  0.00181000  0.38481000  0.11643000  1.0
  H  H17  1  0.65411000  0.22486000  0.79387000  1.0
  H  H18  1  0.65355000  0.94171000  0.00759000  1.0
  H  H19  1  0.91398000  0.17319000  0.10767000  1.0
  C  C20  1  0.51276000  0.74091000  0.51142000  1.0
  C  C21  1  0.49704000  0.26578000  0.49417000  1.0
  C  C22  1  0.46682000  0.40405000  0.09963000  1.0
  C  C23  1  0.54223000  0.48882000  0.90181000  1.0
  C  C24  1  0.35996000  0.46353000  0.12046000  1.0
  C  C25  1  0.59165000  0.39445000  0.87195000  1.0
  C  C26  1  0.26967000  0.52852000  0.09070000  1.0
  C  C27  1  0.62083000  0.28016000  0.89174000  1.0
  C  C28  1  0.54175000  0.31902000  0.12688000  1.0
  C  C29  1  0.49832000  0.59977000  0.88168000  1.0
  C  C30  1  0.50781000  0.47486000  0.35214000  1.0
  C  C31  1  0.46545000  0.49609000  0.64778000  1.0
  C  C32  1  0.47729000  0.56360000  0.98125000  1.0
  C  C33  1  0.58638000  0.35290000  0.02648000  1.0
  C  C34  1  0.58120000  0.36403000  0.97379000  1.0
  C  C35  1  0.43012000  0.52160000  0.02666000  1.0
  C  C36  1  0.53541000  0.47283000  0.95240000  1.0
  C  C37  1  0.49493000  0.42536000  0.05088000  1.0
  C  C38  1  0.46218000  0.68173000  0.96298000  1.0
  C  C39  1  0.66488000  0.27368000  0.05502000  1.0
  C  C40  1  0.46845000  0.69625000  0.91296000  1.0
  C  C41  1  0.63610000  0.25549000  0.10338000  1.0
  C  C42  1  0.51220000  0.50102000  0.40604000  1.0
  C  C43  1  0.46142000  0.48817000  0.59333000  1.0
  C  C44  1  0.31173000  0.56194000  0.04545000  1.0
  C  C45  1  0.60817000  0.26794000  0.94161000  1.0
  C  C46  1  0.64462000  0.98445000  0.52127000  1.0
  C  C47  1  0.37618000  0.02317000  0.48811000  1.0
  C  C48  1  0.54561000  0.06721000  0.54718000  1.0
  C  C49  1  0.47481000  0.94155000  0.46212000  1.0
  C  C50  1  0.50336000  0.12872000  0.49763000  1.0
  C  C51  1  0.51622000  0.87951000  0.51101000  1.0
  C  C52  1  0.60192000  0.04500000  0.47200000  1.0
  C  C53  1  0.41851000  0.96295000  0.53716000  1.0
  C  C54  1  0.07951000  0.61640000  0.51315000  1.0
  C  C55  1  0.91560000  0.40343000  0.47966000  1.0
  C  C56  1  0.98917000  0.53067000  0.54430000  1.0
  C  C57  1  0.00723000  0.48928000  0.44876000  1.0
  C  C58  1  0.95390000  0.60479000  0.47350000  1.0
  C  C59  1  0.04066000  0.41515000  0.51904000  1.0
  C  C60  1  0.35692000  0.46768000  0.17387000  1.0
  C  C61  1  0.60795000  0.42320000  0.82070000  1.0
  C  C62  1  0.52883000  0.30665000  0.17940000  1.0
  C  C63  1  0.47767000  0.61096000  0.82878000  1.0
  C  C64  1  0.41833000  0.32700000  0.28295000  1.0
  C  C65  1  0.56735000  0.61346000  0.72331000  1.0
  C  C66  1  0.44009000  0.35863000  0.33245000  1.0
  C  C67  1  0.54270000  0.60128000  0.67301000  1.0
  C  C68  1  0.56063000  0.55913000  0.31891000  1.0
  C  C69  1  0.40325000  0.40372000  0.67578000  1.0
  C  C70  1  0.53809000  0.53080000  0.26905000  1.0
  C  C71  1  0.42604000  0.41282000  0.72629000  1.0
  C  C72  1  0.46595000  0.41571000  0.25154000  1.0
  C  C73  1  0.51035000  0.51608000  0.74939000  1.0
  S  S74  1  0.67283000  0.70348000  0.33360000  1.0
  S  S75  1  0.28393000  0.27015000  0.65265000  1.0
  S  S76  1  0.81410000  0.96067000  0.54889000  1.0
  S  S77  1  0.20401000  0.03631000  0.46236000  1.0
  S  S78  1  0.97167000  0.56118000  0.60762000  1.0
  S  S79  1  0.04477000  0.47188000  0.38695000  1.0
  S  S80  1  0.09688000  0.56568000  0.10444000  1.0
  S  S81  1  0.69233000  0.14847000  0.86101000  1.0
  S  S82  1  0.45399000  0.82174000  0.00101000  1.0
  S  S83  1  0.81486000  0.20264000  0.03690000  1.0
  N  N84  1  0.44541000  0.39155000  0.19970000  1.0
  N  N85  1  0.53499000  0.51778000  0.80156000  1.0
  N  N86  1  0.86254000  0.51925000  0.50448000  1.0
  N  N87  1  0.13260000  0.49951000  0.48880000  1.0
  O  O88  1  0.62967000  0.69747000  0.51814000  1.0
  O  O89  1  0.37837000  0.30449000  0.49755000  1.0
  O  O90  1  0.39152000  0.67965000  0.50203000  1.0
  O  O91  1  0.61301000  0.33212000  0.49003000  1.0
  O  O92  1  0.62955000  0.54493000  0.43021000  1.0
  O  O93  1  0.34194000  0.48495000  0.56853000  1.0
  O  O94  1  0.39719000  0.47727000  0.42361000  1.0
  O  O95  1  0.57885000  0.48460000  0.57685000  1.0
  O  O96  1  0.29085000  0.53920000  0.19557000  1.0
  O  O97  1  0.67827000  0.36672000  0.79349000  1.0
  O  O98  1  0.41493000  0.68964000  0.80810000  1.0
  O  O99  1  0.59184000  0.23681000  0.20511000  1.0
  O  O100  1  0.81657000  0.66998000  0.33372000  1.0
  O  O101  1  0.63317000  0.79655000  0.30129000  1.0
  O  O102  1  0.64778000  0.74765000  0.38598000  1.0
  O  O103  1  0.31279000  0.16561000  0.68063000  1.0
  O  O104  1  0.14362000  0.30858000  0.64933000  1.0
  O  O105  1  0.32392000  0.23818000  0.59983000  1.0
  O  O106  1  0.79559000  0.93715000  0.59844000  1.0
  O  O107  1  0.88248000  0.87793000  0.51911000  1.0
  O  O108  1  0.89164000  0.09949000  0.54600000  1.0
  O  O109  1  0.12440000  0.08270000  0.49926000  1.0
  O  O110  1  0.20941000  0.09288000  0.41664000  1.0
  O  O111  1  0.14591000  0.88992000  0.45367000  1.0
  O  O112  1  0.11159000  0.60392000  0.62910000  1.0
  O  O113  1  0.85684000  0.63443000  0.60946000  1.0
  O  O114  1  0.92242000  0.42576000  0.62338000  1.0
  O  O115  1  0.12620000  0.58794000  0.37823000  1.0
  O  O116  1  0.09645000  0.35275000  0.38136000  1.0
  O  O117  1  0.89318000  0.46225000  0.36028000  1.0
  O  O118  1  0.10867000  0.68253000  0.13173000  1.0
  O  O119  1  0.00784000  0.54233000  0.05935000  1.0
  O  O120  1  0.05103000  0.45504000  0.13833000  1.0
  O  O121  1  0.83987000  0.19155000  0.86331000  1.0
  O  O122  1  0.64292000  0.03381000  0.88126000  1.0
  O  O123  1  0.61984000  0.14162000  0.80783000  1.0
  O  O124  1  0.32790000  0.87595000  0.98678000  1.0
  O  O125  1  0.49151000  0.79506000  0.05081000  1.0
  O  O126  1  0.58261000  0.90268000  0.98138000  1.0
  O  O127  1  0.78666000  0.06782000  0.03554000  1.0
  O  O128  1  0.87289000  0.27024000  0.99911000  1.0
  O  O129  1  0.92933000  0.23851000  0.08438000  1.0
  F  F130  1  0.89862000  0.69597000  0.45016000  1.0
  F  F131  1  0.09432000  0.31946000  0.54044000  1.0
  F  F132  1  0.59449000  0.69624000  0.64718000  1.0
  F  F133  1  0.39711000  0.27068000  0.36278000  1.0
  F  F134  1  0.44197000  0.80581000  0.89556000  1.0
  F  F135  1  0.70559000  0.17056000  0.12760000  1.0
  F  F136  1  0.23376000  0.63471000  0.01847000  1.0
  F  F137  1  0.62043000  0.15573000  0.96031000  1.0
  F  F138  1  0.58345000  0.13359000  0.58968000  1.0
  F  F139  1  0.43362000  0.87609000  0.41908000  1.0
