# generated using pymatgen
data_NiH10C10(NO)4
_symmetry_space_group_name_H-M   'P 1'
_cell_length_a   5.05145000
_cell_length_b   8.19123000
_cell_length_c   11.97700000
_cell_angle_alpha   87.34990000
_cell_angle_beta   89.99990000
_cell_angle_gamma   89.99990000
_symmetry_Int_Tables_number   1
_chemical_formula_structural   NiH10C10(NO)4
_chemical_formula_sum   'Ni2 H20 C20 N8 O8'
_cell_volume   495.04936964
_cell_formula_units_Z   2
loop_
 _symmetry_equiv_pos_site_id
 _symmetry_equiv_pos_as_xyz
  1  'x, y, z'
loop_
 _atom_site_type_symbol
 _atom_site_label
 _atom_site_symmetry_multiplicity
 _atom_site_fract_x
 _atom_site_fract_y
 _atom_site_fract_z
 _atom_site_occupancy
  Ni  Ni0  1  0.00000000  0.00000000  0.00000000  1.0
  Ni  Ni1  1  0.50000000  0.50000000  0.50000000  1.0
  H  H2  1  0.64907000  0.51323000  0.25154000  1.0
  H  H3  1  0.14908000  0.98678000  0.24845000  1.0
  H  H4  1  0.35092000  0.48678000  0.74845000  1.0
  H  H5  1  0.85092000  0.01322000  0.75155000  1.0
  H  H6  1  0.84986000  0.67425000  0.19379000  1.0
  H  H7  1  0.34986000  0.82575000  0.30621000  1.0
  H  H8  1  0.15016000  0.32575000  0.80621000  1.0
  H  H9  1  0.65015000  0.17424000  0.69379000  1.0
  H  H10  1  0.71874000  0.23366000  0.18026000  1.0
  H  H11  1  0.21875000  0.26635000  0.31974000  1.0
  H  H12  1  0.28125000  0.76635000  0.81974000  1.0
  H  H13  1  0.78125000  0.73365000  0.68026000  1.0
  H  H14  1  0.43089000  0.29116000  0.00146000  1.0
  H  H15  1  0.93089000  0.20884000  0.49854000  1.0
  H  H16  1  0.56911000  0.70883000  0.99855000  1.0
  H  H17  1  0.06911000  0.79117000  0.50145000  1.0
  H  H18  1  0.31619000  0.58252000  0.10880000  1.0
  H  H19  1  0.81618000  0.91749000  0.39120000  1.0
  H  H20  1  0.68382000  0.41748000  0.89121000  1.0
  H  H21  1  0.18381000  0.08252000  0.60880000  1.0
  C  C22  1  0.98793000  0.57445000  0.35061000  1.0
  C  C23  1  0.48793000  0.92555000  0.14939000  1.0
  C  C24  1  0.01207000  0.42555000  0.64939000  1.0
  C  C25  1  0.51207000  0.07444000  0.85061000  1.0
  C  C26  1  0.85392000  0.55265000  0.23723000  1.0
  C  C27  1  0.35392000  0.94736000  0.26277000  1.0
  C  C28  1  0.14609000  0.44736000  0.76277000  1.0
  C  C29  1  0.64608000  0.05264000  0.73723000  1.0
  C  C30  1  0.89900000  0.28563000  0.14571000  1.0
  C  C31  1  0.39900000  0.21438000  0.35429000  1.0
  C  C32  1  0.10100000  0.71437000  0.85429000  1.0
  C  C33  1  0.60100000  0.78562000  0.64571000  1.0
  C  C34  1  0.26604000  0.32501000  0.05320000  1.0
  C  C35  1  0.76604000  0.17500000  0.44680000  1.0
  C  C36  1  0.73396000  0.67500000  0.94680000  1.0
  C  C37  1  0.23395000  0.82501000  0.55320000  1.0
  C  C38  1  0.21651000  0.46584000  0.10761000  1.0
  C  C39  1  0.71651000  0.03416000  0.39239000  1.0
  C  C40  1  0.78349000  0.53416000  0.89240000  1.0
  C  C41  1  0.28349000  0.96584000  0.60761000  1.0
  N  N42  1  0.98390000  0.43894000  0.16577000  1.0
  N  N43  1  0.48390000  0.06107000  0.33422000  1.0
  N  N44  1  0.01610000  0.56106000  0.83423000  1.0
  N  N45  1  0.51610000  0.93893000  0.66578000  1.0
  N  N46  1  0.06581000  0.21364000  0.07708000  1.0
  N  N47  1  0.56581000  0.28637000  0.42292000  1.0
  N  N48  1  0.93419000  0.78636000  0.92292000  1.0
  N  N49  1  0.43418000  0.71363000  0.57708000  1.0
  O  O50  1  0.23830000  0.56156000  0.35636000  1.0
  O  O51  1  0.73830000  0.93844000  0.14364000  1.0
  O  O52  1  0.76170000  0.43844000  0.64364000  1.0
  O  O53  1  0.26169000  0.06156000  0.85636000  1.0
  O  O54  1  0.83612000  0.61698000  0.42865000  1.0
  O  O55  1  0.33612000  0.88303000  0.07135000  1.0
  O  O56  1  0.16388000  0.38302000  0.57135000  1.0
  O  O57  1  0.66388000  0.11698000  0.92865000  1.0
