# generated using pymatgen
data_NaCu2H27C38N6O5
_symmetry_space_group_name_H-M   'P 1'
_cell_length_a   8.62712000
_cell_length_b   19.22740000
_cell_length_c   21.18700000
_cell_angle_alpha   90.00000000
_cell_angle_beta   90.00010000
_cell_angle_gamma   89.99980000
_symmetry_Int_Tables_number   1
_chemical_formula_structural   NaCu2H27C38N6O5
_chemical_formula_sum   'Na4 Cu8 H108 C152 N24 O20'
_cell_volume   3514.43784411
_cell_formula_units_Z   4
loop_
 _symmetry_equiv_pos_site_id
 _symmetry_equiv_pos_as_xyz
  1  'x, y, z'
loop_
 _atom_site_type_symbol
 _atom_site_label
 _atom_site_symmetry_multiplicity
 _atom_site_fract_x
 _atom_site_fract_y
 _atom_site_fract_z
 _atom_site_occupancy
  Na  Na0  1  0.14522000  0.99710000  0.66208000  1.0
  Na  Na1  1  0.35478000  0.00290000  0.16208000  1.0
  Na  Na2  1  0.64522000  0.50290000  0.33792000  1.0
  Na  Na3  1  0.85477000  0.49710000  0.83792000  1.0
  Cu  Cu4  1  0.01488000  0.91903000  0.41184000  1.0
  Cu  Cu5  1  0.48512000  0.08098000  0.91184000  1.0
  Cu  Cu6  1  0.51488000  0.58097000  0.58816000  1.0
  Cu  Cu7  1  0.98513000  0.41903000  0.08816000  1.0
  Cu  Cu8  1  0.69497000  0.82443000  0.36449000  1.0
  Cu  Cu9  1  0.80503000  0.17557000  0.86450000  1.0
  Cu  Cu10  1  0.19497000  0.67557000  0.63551000  1.0
  Cu  Cu11  1  0.30503000  0.32443000  0.13550000  1.0
  H  H12  1  0.82770000  0.84495000  0.46530000  1.0
  H  H13  1  0.67230000  0.15505000  0.96530000  1.0
  H  H14  1  0.32769000  0.65505000  0.53470000  1.0
  H  H15  1  0.17231000  0.34495000  0.03470000  1.0
  H  H16  1  0.85507000  0.05096000  0.56366000  1.0
  H  H17  1  0.64492000  0.94904000  0.06366000  1.0
  H  H18  1  0.35507000  0.44904000  0.43635000  1.0
  H  H19  1  0.14493000  0.55096000  0.93635000  1.0
  H  H20  1  0.65152000  0.02709000  0.64244000  1.0
  H  H21  1  0.84848000  0.97291000  0.14245000  1.0
  H  H22  1  0.15152000  0.47291000  0.35756000  1.0
  H  H23  1  0.34848000  0.52710000  0.85756000  1.0
  H  H24  1  0.59628000  0.90558000  0.67627000  1.0
  H  H25  1  0.90373000  0.09442000  0.17627000  1.0
  H  H26  1  0.09628000  0.59442000  0.32373000  1.0
  H  H27  1  0.40373000  0.40559000  0.82373000  1.0
  H  H28  1  0.74023000  0.80788000  0.62632000  1.0
  H  H29  1  0.75978000  0.19212000  0.12632000  1.0
  H  H30  1  0.24022000  0.69212000  0.37368000  1.0
  H  H31  1  0.25978000  0.30788000  0.87368000  1.0
  H  H32  1  0.94254000  0.83127000  0.54615000  1.0
  H  H33  1  0.55746000  0.16873000  0.04615000  1.0
  H  H34  1  0.44254000  0.66873000  0.45385000  1.0
  H  H35  1  0.05747000  0.33127000  0.95385000  1.0
  H  H36  1  0.35477000  0.10940000  0.48490000  1.0
  H  H37  1  0.14523000  0.89060000  0.98490000  1.0
  H  H38  1  0.85477000  0.39060000  0.51510000  1.0
  H  H39  1  0.64523000  0.60940000  0.01510000  1.0
  H  H40  1  0.45784000  0.13669000  0.37585000  1.0
  H  H41  1  0.04217000  0.86331000  0.87585000  1.0
  H  H42  1  0.95784000  0.36331000  0.62415000  1.0
  H  H43  1  0.54216000  0.63669000  0.12414000  1.0
  H  H44  1  0.35851000  0.06927000  0.28265000  1.0
  H  H45  1  0.14150000  0.93073000  0.78265000  1.0
  H  H46  1  0.85850000  0.43073000  0.71735000  1.0
  H  H47  1  0.64149000  0.56927000  0.21735000  1.0
  H  H48  1  0.95883000  0.91478000  0.19807000  1.0
  H  H49  1  0.54118000  0.08522000  0.69807000  1.0
  H  H50  1  0.45881000  0.58522000  0.80193000  1.0
  H  H51  1  0.04117000  0.41478000  0.30193000  1.0
  H  H52  1  0.84684000  0.81995000  0.13329000  1.0
  H  H53  1  0.65316000  0.18005000  0.63329000  1.0
  H  H54  1  0.34683000  0.68005000  0.86670000  1.0
  H  H55  1  0.15316000  0.31995000  0.36670000  1.0
  H  H56  1  0.83652000  0.69854000  0.17592000  1.0
  H  H57  1  0.66348000  0.30146000  0.67591000  1.0
  H  H58  1  0.33652000  0.80146000  0.82409000  1.0
  H  H59  1  0.16348000  0.19854000  0.32408000  1.0
  H  H60  1  0.92745000  0.67612000  0.28550000  1.0
  H  H61  1  0.57255000  0.32388000  0.78550000  1.0
  H  H62  1  0.42745000  0.82388000  0.71450000  1.0
  H  H63  1  0.07255000  0.17612000  0.21450000  1.0
  H  H64  1  0.03183000  0.77208000  0.35106000  1.0
  H  H65  1  0.46817000  0.22792000  0.85106000  1.0
  H  H66  1  0.53183000  0.72792000  0.64894000  1.0
  H  H67  1  0.96818000  0.27208000  0.14894000  1.0
  H  H68  1  0.36198000  0.85641000  0.17549000  1.0
  H  H69  1  0.13801000  0.14359000  0.67550000  1.0
  H  H70  1  0.86198000  0.64359000  0.82451000  1.0
  H  H71  1  0.63802000  0.35641000  0.32450000  1.0
  H  H72  1  0.29622000  0.72950000  0.16726000  1.0
  H  H73  1  0.20378000  0.27049000  0.66726000  1.0
  H  H74  1  0.79622000  0.77050000  0.83274000  1.0
  H  H75  1  0.70378000  0.22950000  0.33274000  1.0
  H  H76  1  0.42012000  0.64414000  0.24161000  1.0
  H  H77  1  0.07988000  0.35586000  0.74160000  1.0
  H  H78  1  0.92013000  0.85587000  0.75840000  1.0
  H  H79  1  0.57987000  0.14414000  0.25839000  1.0
  H  H80  1  0.78601000  0.01252000  0.24762000  1.0
  H  H81  1  0.71399000  0.98747000  0.74763000  1.0
  H  H82  1  0.28600000  0.48748000  0.75238000  1.0
  H  H83  1  0.21401000  0.51252000  0.25238000  1.0
  H  H84  1  0.90438000  0.12360000  0.28204000  1.0
  H  H85  1  0.59562000  0.87639000  0.78204000  1.0
  H  H86  1  0.40437000  0.37640000  0.71796000  1.0
  H  H87  1  0.09564000  0.62361000  0.21797000  1.0
  H  H88  1  0.89481000  0.15932000  0.39480000  1.0
  H  H89  1  0.60518000  0.84068000  0.89480000  1.0
  H  H90  1  0.39481000  0.34068000  0.60520000  1.0
  H  H91  1  0.10519000  0.65932000  0.10521000  1.0
  H  H92  1  0.76509000  0.08123000  0.47319000  1.0
  H  H93  1  0.73491000  0.91877000  0.97320000  1.0
  H  H94  1  0.26509000  0.41877000  0.52681000  1.0
  H  H95  1  0.23491000  0.58123000  0.02681000  1.0
  H  H96  1  0.65360000  0.96903000  0.43919000  1.0
  H  H97  1  0.84640000  0.03097000  0.93919000  1.0
  H  H98  1  0.15359000  0.53097000  0.56081000  1.0
  H  H99  1  0.34640000  0.46903000  0.06081000  1.0
  H  H100  1  0.63327000  0.75740000  0.50610000  1.0
  H  H101  1  0.86673000  0.24260000  0.00611000  1.0
  H  H102  1  0.13327000  0.74261000  0.49389000  1.0
  H  H103  1  0.36673000  0.25739000  0.99389000  1.0
  H  H104  1  0.75890000  0.70447000  0.60089000  1.0
  H  H105  1  0.74110000  0.29553000  0.10089000  1.0
  H  H106  1  0.25890000  0.79553000  0.39911000  1.0
  H  H107  1  0.24109000  0.20447000  0.89911000  1.0
  H  H108  1  0.95013000  0.60943000  0.58893000  1.0
  H  H109  1  0.54987000  0.39058000  0.08893000  1.0
  H  H110  1  0.45014000  0.89057000  0.41107000  1.0
  H  H111  1  0.04986000  0.10943000  0.91107000  1.0
  H  H112  1  0.02178000  0.56828000  0.48033000  1.0
  H  H113  1  0.47823000  0.43172000  0.98032000  1.0
  H  H114  1  0.52179000  0.93171000  0.51968000  1.0
  H  H115  1  0.97821000  0.06828000  0.01968000  1.0
  H  H116  1  0.89461000  0.61887000  0.38714000  1.0
  H  H117  1  0.60540000  0.38112000  0.88714000  1.0
  H  H118  1  0.39462000  0.88112000  0.61286000  1.0
  H  H119  1  0.10538000  0.11888000  0.11286000  1.0
  C  C120  1  0.91135000  0.94282000  0.54807000  1.0
  C  C121  1  0.58865000  0.05718000  0.04807000  1.0
  C  C122  1  0.41135000  0.55718000  0.45193000  1.0
  C  C123  1  0.08866000  0.44282000  0.95193000  1.0
  C  C124  1  0.82788000  0.99753000  0.57650000  1.0
  C  C125  1  0.67212000  0.00247000  0.07650000  1.0
  C  C126  1  0.32788000  0.50247000  0.42350000  1.0
  C  C127  1  0.17212000  0.49753000  0.92350000  1.0
  C  C128  1  0.71456000  0.98389000  0.62147000  1.0
  C  C129  1  0.78544000  0.01611000  0.12147000  1.0
  C  C130  1  0.21456000  0.51611000  0.37853000  1.0
  C  C131  1  0.28544000  0.48389000  0.87853000  1.0
  C  C132  1  0.68299000  0.91574000  0.64010000  1.0
  C  C133  1  0.81702000  0.08426000  0.14010000  1.0
  C  C134  1  0.18298000  0.58425000  0.35990000  1.0
  C  C135  1  0.31702000  0.41575000  0.85990000  1.0
  C  C136  1  0.76353000  0.86119000  0.61186000  1.0
  C  C137  1  0.73647000  0.13881000  0.11186000  1.0
  C  C138  1  0.26353000  0.63881000  0.38814000  1.0
  C  C139  1  0.23647000  0.36119000  0.88814000  1.0
  C  C140  1  0.87571000  0.87419000  0.56593000  1.0
  C  C141  1  0.62429000  0.12581000  0.06593000  1.0
  C  C142  1  0.37571000  0.62581000  0.43407000  1.0
  C  C143  1  0.12429000  0.37419000  0.93407000  1.0
  C  C144  1  0.12629000  0.00826000  0.50981000  1.0
  C  C145  1  0.37371000  0.99175000  0.00981000  1.0
  C  C146  1  0.62629000  0.49175000  0.49019000  1.0
  C  C147  1  0.87371000  0.50825000  0.99019000  1.0
  C  C148  1  0.20677000  0.02840000  0.44976000  1.0
  C  C149  1  0.29323000  0.97160000  0.94976000  1.0
  C  C150  1  0.70677000  0.47160000  0.55024000  1.0
  C  C151  1  0.79323000  0.52840000  0.05024000  1.0
  C  C152  1  0.31621000  0.08121000  0.44315000  1.0
  C  C153  1  0.18379000  0.91879000  0.94315000  1.0
  C  C154  1  0.81622000  0.41879000  0.55686000  1.0
  C  C155  1  0.68379000  0.58121000  0.05685000  1.0
  C  C156  1  0.37160000  0.09592000  0.38254000  1.0
  C  C157  1  0.12841000  0.90408000  0.88254000  1.0
  C  C158  1  0.87160000  0.40408000  0.61746000  1.0
  C  C159  1  0.62840000  0.59592000  0.11746000  1.0
  C  C160  1  0.31837000  0.05833000  0.33035000  1.0
  C  C161  1  0.18163000  0.94167000  0.83035000  1.0
  C  C162  1  0.81836000  0.44167000  0.66965000  1.0
  C  C163  1  0.68163000  0.55833000  0.16965000  1.0
  C  C164  1  0.21199000  0.00481000  0.34090000  1.0
  C  C165  1  0.28801000  0.99519000  0.84090000  1.0
  C  C166  1  0.71199000  0.49519000  0.65910000  1.0
  C  C167  1  0.78801000  0.50481000  0.15910000  1.0
  C  C168  1  0.14725000  0.95658000  0.29162000  1.0
  C  C169  1  0.35275000  0.04341000  0.79162000  1.0
  C  C170  1  0.64724000  0.54341000  0.70838000  1.0
  C  C171  1  0.85275000  0.45659000  0.20838000  1.0
  C  C172  1  0.00585000  0.85038000  0.27871000  1.0
  C  C173  1  0.49415000  0.14962000  0.77871000  1.0
  C  C174  1  0.50585000  0.64962000  0.72129000  1.0
  C  C175  1  0.99415000  0.35038000  0.22129000  1.0
  C  C176  1  0.95088000  0.86252000  0.21694000  1.0
  C  C177  1  0.54912000  0.13747000  0.71694000  1.0
  C  C178  1  0.45087000  0.63747000  0.78306000  1.0
  C  C179  1  0.04913000  0.36253000  0.28305000  1.0
  C  C180  1  0.88996000  0.80867000  0.18067000  1.0
  C  C181  1  0.61004000  0.19133000  0.68067000  1.0
  C  C182  1  0.38996000  0.69133000  0.81933000  1.0
  C  C183  1  0.11003000  0.30867000  0.31933000  1.0
  C  C184  1  0.88359000  0.74084000  0.20434000  1.0
  C  C185  1  0.61641000  0.25916000  0.70434000  1.0
  C  C186  1  0.38359000  0.75916000  0.79566000  1.0
  C  C187  1  0.11641000  0.24084000  0.29566000  1.0
  C  C188  1  0.93628000  0.72828000  0.26565000  1.0
  C  C189  1  0.56373000  0.27172000  0.76565000  1.0
  C  C190  1  0.43627000  0.77172000  0.73435000  1.0
  C  C191  1  0.06373000  0.22828000  0.23435000  1.0
  C  C192  1  0.99505000  0.78212000  0.30272000  1.0
  C  C193  1  0.50496000  0.21788000  0.80272000  1.0
  C  C194  1  0.49504000  0.71788000  0.69728000  1.0
  C  C195  1  0.00496000  0.28212000  0.19728000  1.0
  C  C196  1  0.70973000  0.98297000  0.34075000  1.0
  C  C197  1  0.79027000  0.01703000  0.84076000  1.0
  C  C198  1  0.20973000  0.51703000  0.65925000  1.0
  C  C199  1  0.29027000  0.48297000  0.15925000  1.0
  C  C200  1  0.78261000  0.02744000  0.29699000  1.0
  C  C201  1  0.71739000  0.97256000  0.79699000  1.0
  C  C202  1  0.28260000  0.47256000  0.70301000  1.0
  C  C203  1  0.21740000  0.52744000  0.20301000  1.0
  C  C204  1  0.84862000  0.08987000  0.31656000  1.0
  C  C205  1  0.65138000  0.91013000  0.81657000  1.0
  C  C206  1  0.34862000  0.41013000  0.68344000  1.0
  C  C207  1  0.15139000  0.58987000  0.18344000  1.0
  C  C208  1  0.84258000  0.11029000  0.37988000  1.0
  C  C209  1  0.65741000  0.88971000  0.87988000  1.0
  C  C210  1  0.34258000  0.38971000  0.62012000  1.0
  C  C211  1  0.15743000  0.61029000  0.12013000  1.0
  C  C212  1  0.77087000  0.06654000  0.42358000  1.0
  C  C213  1  0.72912000  0.93346000  0.92359000  1.0
  C  C214  1  0.27088000  0.43346000  0.57641000  1.0
  C  C215  1  0.22913000  0.56654000  0.07642000  1.0
  C  C216  1  0.70698000  0.00328000  0.40456000  1.0
  C  C217  1  0.79302000  0.99672000  0.90456000  1.0
  C  C218  1  0.20698000  0.49672000  0.59544000  1.0
  C  C219  1  0.29303000  0.50328000  0.09544000  1.0
  C  C220  1  0.56561000  0.91313000  0.26829000  1.0
  C  C221  1  0.93440000  0.08686000  0.76830000  1.0
  C  C222  1  0.06560000  0.58687000  0.73170000  1.0
  C  C223  1  0.43440000  0.41313000  0.23170000  1.0
  C  C224  1  0.51198000  0.84006000  0.25573000  1.0
  C  C225  1  0.98802000  0.15994000  0.75574000  1.0
  C  C226  1  0.01198000  0.65994000  0.74427000  1.0
  C  C227  1  0.48802000  0.34006000  0.24427000  1.0
  C  C228  1  0.41219000  0.81853000  0.20770000  1.0
  C  C229  1  0.08781000  0.18147000  0.70770000  1.0
  C  C230  1  0.91219000  0.68147000  0.79230000  1.0
  C  C231  1  0.58781000  0.31853000  0.29230000  1.0
  C  C232  1  0.37728000  0.74766000  0.20312000  1.0
  C  C233  1  0.12272000  0.25234000  0.70312000  1.0
  C  C234  1  0.87728000  0.75234000  0.79689000  1.0
  C  C235  1  0.62272000  0.24766000  0.29688000  1.0
  C  C236  1  0.44503000  0.69963000  0.24434000  1.0
  C  C237  1  0.05497000  0.30037000  0.74434000  1.0
  C  C238  1  0.94503000  0.80037000  0.75566000  1.0
  C  C239  1  0.55497000  0.19963000  0.25566000  1.0
  C  C240  1  0.54389000  0.72502000  0.29105000  1.0
  C  C241  1  0.95611000  0.27498000  0.79105000  1.0
  C  C242  1  0.04389000  0.77498000  0.70895000  1.0
  C  C243  1  0.45611000  0.22502000  0.20895000  1.0
  C  C244  1  0.62817000  0.68265000  0.33964000  1.0
  C  C245  1  0.87182000  0.31736000  0.83964000  1.0
  C  C246  1  0.12818000  0.81736000  0.66036000  1.0
  C  C247  1  0.37182000  0.18264000  0.16036000  1.0
  C  C248  1  0.75550000  0.69170000  0.43992000  1.0
  C  C249  1  0.74451000  0.30830000  0.93992000  1.0
  C  C250  1  0.25550000  0.80830000  0.56008000  1.0
  C  C251  1  0.24450000  0.19170000  0.06008000  1.0
  C  C252  1  0.71930000  0.71609000  0.50089000  1.0
  C  C253  1  0.78070000  0.28391000  0.00089000  1.0
  C  C254  1  0.21930000  0.78391000  0.49911000  1.0
  C  C255  1  0.28070000  0.21609000  0.99911000  1.0
  C  C256  1  0.78925000  0.68638000  0.55375000  1.0
  C  C257  1  0.71075000  0.31362000  0.05375000  1.0
  C  C258  1  0.28925000  0.81362000  0.44625000  1.0
  C  C259  1  0.21075000  0.18638000  0.94625000  1.0
  C  C260  1  0.89787000  0.63293000  0.54718000  1.0
  C  C261  1  0.60213000  0.36708000  0.04718000  1.0
  C  C262  1  0.39788000  0.86707000  0.45282000  1.0
  C  C263  1  0.10212000  0.13293000  0.95282000  1.0
  C  C264  1  0.93632000  0.60949000  0.48683000  1.0
  C  C265  1  0.56369000  0.39051000  0.98683000  1.0
  C  C266  1  0.43632000  0.89051000  0.51318000  1.0
  C  C267  1  0.06368000  0.10949000  0.01318000  1.0
  C  C268  1  0.86541000  0.63815000  0.43379000  1.0
  C  C269  1  0.63459000  0.36185000  0.93379000  1.0
  C  C270  1  0.36541000  0.86185000  0.56621000  1.0
  C  C271  1  0.13459000  0.13815000  0.06621000  1.0
  N  N272  1  0.02221000  0.95663000  0.50119000  1.0
  N  N273  1  0.47779000  0.04337000  0.00119000  1.0
  N  N274  1  0.52221000  0.54337000  0.49881000  1.0
  N  N275  1  0.97779000  0.45663000  0.99881000  1.0
  N  N276  1  0.16075000  0.99232000  0.39926000  1.0
  N  N277  1  0.33925000  0.00768000  0.89926000  1.0
  N  N278  1  0.66075000  0.50768000  0.60074000  1.0
  N  N279  1  0.83925000  0.49232000  0.10074000  1.0
  N  N280  1  0.06789000  0.90277000  0.31724000  1.0
  N  N281  1  0.43211000  0.09723000  0.81724000  1.0
  N  N282  1  0.56789000  0.59723000  0.68276000  1.0
  N  N283  1  0.93211000  0.40277000  0.18276000  1.0
  N  N284  1  0.64468000  0.91892000  0.32321000  1.0
  N  N285  1  0.85532000  0.08108000  0.82321000  1.0
  N  N286  1  0.14467000  0.58108000  0.67679000  1.0
  N  N287  1  0.35533000  0.41892000  0.17679000  1.0
  N  N288  1  0.57044000  0.79320000  0.29562000  1.0
  N  N289  1  0.92956000  0.20680000  0.79563000  1.0
  N  N290  1  0.07044000  0.70680000  0.70437000  1.0
  N  N291  1  0.42956000  0.29320000  0.20437000  1.0
  N  N292  1  0.68062000  0.72216000  0.38786000  1.0
  N  N293  1  0.81938000  0.27784000  0.88786000  1.0
  N  N294  1  0.18062000  0.77784000  0.61214000  1.0
  N  N295  1  0.31938000  0.22216000  0.11214000  1.0
  O  O296  1  0.85245000  0.85349000  0.42104000  1.0
  O  O297  1  0.64755000  0.14651000  0.92105000  1.0
  O  O298  1  0.35244000  0.64651000  0.57896000  1.0
  O  O299  1  0.14756000  0.35349000  0.07895000  1.0
  O  O300  1  0.15833000  0.03961000  0.56036000  1.0
  O  O301  1  0.34167000  0.96040000  0.06037000  1.0
  O  O302  1  0.65833000  0.46039000  0.43964000  1.0
  O  O303  1  0.84167000  0.53961000  0.93963000  1.0
  O  O304  1  0.17406000  0.96854000  0.23431000  1.0
  O  O305  1  0.32594000  0.03146000  0.73431000  1.0
  O  O306  1  0.67405000  0.53146000  0.76569000  1.0
  O  O307  1  0.82594000  0.46854000  0.26569000  1.0
  O  O308  1  0.53345000  0.96036000  0.22963000  1.0
  O  O309  1  0.96655000  0.03964000  0.72963000  1.0
  O  O310  1  0.03344000  0.53964000  0.77037000  1.0
  O  O311  1  0.46655000  0.46035000  0.27037000  1.0
  O  O312  1  0.63964000  0.61810000  0.33209000  1.0
  O  O313  1  0.86036000  0.38190000  0.83209000  1.0
  O  O314  1  0.13965000  0.88190000  0.66791000  1.0
  O  O315  1  0.36035000  0.11810000  0.16791000  1.0
