# generated using pymatgen
data_AgH2C3N5O6
_symmetry_space_group_name_H-M   'P 1'
_cell_length_a   5.35246000
_cell_length_b   10.53510000
_cell_length_c   15.12560000
_cell_angle_alpha   99.94240000
_cell_angle_beta   89.99980000
_cell_angle_gamma   89.99960000
_symmetry_Int_Tables_number   1
_chemical_formula_structural   AgH2C3N5O6
_chemical_formula_sum   'Ag4 H8 C12 N20 O24'
_cell_volume   840.10374569
_cell_formula_units_Z   4
loop_
 _symmetry_equiv_pos_site_id
 _symmetry_equiv_pos_as_xyz
  1  'x, y, z'
loop_
 _atom_site_type_symbol
 _atom_site_label
 _atom_site_symmetry_multiplicity
 _atom_site_fract_x
 _atom_site_fract_y
 _atom_site_fract_z
 _atom_site_occupancy
  Ag  Ag0  1  0.34852000  0.83071000  0.23145000  1.0
  Ag  Ag1  1  0.84852000  0.16929000  0.26855000  1.0
  Ag  Ag2  1  0.65147000  0.16929000  0.76855000  1.0
  Ag  Ag3  1  0.15148000  0.83071000  0.73145000  1.0
  H  H4  1  0.67952000  0.95268000  0.12559000  1.0
  H  H5  1  0.17953000  0.04733000  0.37441000  1.0
  H  H6  1  0.32048000  0.04733000  0.87441000  1.0
  H  H7  1  0.82048000  0.95267000  0.62559000  1.0
  H  H8  1  0.45634000  0.04860000  0.15814000  1.0
  H  H9  1  0.95635000  0.95139000  0.34187000  1.0
  H  H10  1  0.54366000  0.95140000  0.84187000  1.0
  H  H11  1  0.04366000  0.04861000  0.65813000  1.0
  C  C12  1  0.35447000  0.53496000  0.40457000  1.0
  C  C13  1  0.85448000  0.46504000  0.09543000  1.0
  C  C14  1  0.64553000  0.46504000  0.59543000  1.0
  C  C15  1  0.14554000  0.53496000  0.90457000  1.0
  C  C16  1  0.38163000  0.66872000  0.39514000  1.0
  C  C17  1  0.88163000  0.33128000  0.10486000  1.0
  C  C18  1  0.61836000  0.33128000  0.60486000  1.0
  C  C19  1  0.11838000  0.66872000  0.89515000  1.0
  C  C20  1  0.48087000  0.77387000  0.46019000  1.0
  C  C21  1  0.98086000  0.22613000  0.03980000  1.0
  C  C22  1  0.51913000  0.22613000  0.53981000  1.0
  C  C23  1  0.01914000  0.77388000  0.96019000  1.0
  N  N24  1  0.29650000  0.67992000  0.31509000  1.0
  N  N25  1  0.79651000  0.32007000  0.18491000  1.0
  N  N26  1  0.70349000  0.32007000  0.68492000  1.0
  N  N27  1  0.20350000  0.67993000  0.81509000  1.0
  N  N28  1  0.24537000  0.47042000  0.33205000  1.0
  N  N29  1  0.74536000  0.52958000  0.16795000  1.0
  N  N30  1  0.75465000  0.52958000  0.66795000  1.0
  N  N31  1  0.25465000  0.47042000  0.83205000  1.0
  N  N32  1  0.43934000  0.46564000  0.46838000  1.0
  N  N33  1  0.93933000  0.53436000  0.03162000  1.0
  N  N34  1  0.56067000  0.53437000  0.53162000  1.0
  N  N35  1  0.06067000  0.46564000  0.96838000  1.0
  N  N36  1  0.67108000  0.85217000  0.43780000  1.0
  N  N37  1  0.17107000  0.14783000  0.06220000  1.0
  N  N38  1  0.32892000  0.14784000  0.56220000  1.0
  N  N39  1  0.82893000  0.85217000  0.93780000  1.0
  N  N40  1  0.37789000  0.79126000  0.54587000  1.0
  N  N41  1  0.87789000  0.20874000  0.95413000  1.0
  N  N42  1  0.62211000  0.20874000  0.45413000  1.0
  N  N43  1  0.12211000  0.79126000  0.04587000  1.0
  O  O44  1  0.58141000  0.99016000  0.17885000  1.0
  O  O45  1  0.08141000  0.00984000  0.32115000  1.0
  O  O46  1  0.41859000  0.00984000  0.82115000  1.0
  O  O47  1  0.91858000  0.99016000  0.67885000  1.0
  O  O48  1  0.20979000  0.55666000  0.27638000  1.0
  O  O49  1  0.70979000  0.44334000  0.22362000  1.0
  O  O50  1  0.79022000  0.44334000  0.72362000  1.0
  O  O51  1  0.29021000  0.55666000  0.77638000  1.0
  O  O52  1  0.74658000  0.82814000  0.35644000  1.0
  O  O53  1  0.24657000  0.17186000  0.14356000  1.0
  O  O54  1  0.25341000  0.17186000  0.64356000  1.0
  O  O55  1  0.75343000  0.82815000  0.85644000  1.0
  O  O56  1  0.76294000  0.94187000  0.49279000  1.0
  O  O57  1  0.26294000  0.05813000  0.00721000  1.0
  O  O58  1  0.23706000  0.05813000  0.50721000  1.0
  O  O59  1  0.73705000  0.94188000  0.99279000  1.0
  O  O60  1  0.47529000  0.86259000  0.61205000  1.0
  O  O61  1  0.97529000  0.13741000  0.88795000  1.0
  O  O62  1  0.52472000  0.13741000  0.38795000  1.0
  O  O63  1  0.02470000  0.86260000  0.11205000  1.0
  O  O64  1  0.17979000  0.72876000  0.55438000  1.0
  O  O65  1  0.67980000  0.27125000  0.94562000  1.0
  O  O66  1  0.82021000  0.27124000  0.44562000  1.0
  O  O67  1  0.32020000  0.72875000  0.05438000  1.0
