# generated using pymatgen
data_CdH14C20(NO)4
_symmetry_space_group_name_H-M   'P 1'
_cell_length_a   6.96951000
_cell_length_b   10.82840000
_cell_length_c   13.01970000
_cell_angle_alpha   98.19250000
_cell_angle_beta   100.90000000
_cell_angle_gamma   107.55100000
_symmetry_Int_Tables_number   1
_chemical_formula_structural   CdH14C20(NO)4
_chemical_formula_sum   'Cd2 H28 C40 N8 O8'
_cell_volume   898.80493932
_cell_formula_units_Z   2
loop_
 _symmetry_equiv_pos_site_id
 _symmetry_equiv_pos_as_xyz
  1  'x, y, z'
loop_
 _atom_site_type_symbol
 _atom_site_label
 _atom_site_symmetry_multiplicity
 _atom_site_fract_x
 _atom_site_fract_y
 _atom_site_fract_z
 _atom_site_occupancy
  Cd  Cd0  1  0.33540000  0.24086000  0.74739000  1.0
  Cd  Cd1  1  0.66460000  0.75914000  0.25262000  1.0
  H  H2  1  0.87640000  0.65270000  0.76047000  1.0
  H  H3  1  0.12360000  0.34730000  0.23953000  1.0
  H  H4  1  0.06097000  0.83320000  0.68117000  1.0
  H  H5  1  0.93903000  0.16680000  0.31883000  1.0
  H  H6  1  0.82088000  0.57052000  0.36932000  1.0
  H  H7  1  0.17912000  0.42948000  0.63069000  1.0
  H  H8  1  0.64021000  0.38944000  0.45101000  1.0
  H  H9  1  0.35978000  0.61056000  0.54899000  1.0
  H  H10  1  0.38892000  0.10520000  0.47365000  1.0
  H  H11  1  0.61108000  0.89481000  0.52635000  1.0
  H  H12  1  0.11098000  0.97364000  0.27590000  1.0
  H  H13  1  0.88902000  0.02637000  0.72410000  1.0
  H  H14  1  0.58147000  0.19340000  0.27382000  1.0
  H  H15  1  0.41852000  0.80659000  0.72618000  1.0
  H  H16  1  0.48943000  0.36697000  0.19198000  1.0
  H  H17  1  0.51057000  0.63303000  0.80801000  1.0
  H  H18  1  0.13523000  0.07366000  0.90371000  1.0
  H  H19  1  0.86477000  0.92633000  0.09629000  1.0
  H  H20  1  0.22507000  0.89992000  0.98855000  1.0
  H  H21  1  0.77492000  0.10008000  0.01146000  1.0
  H  H22  1  0.20958000  0.62344000  0.99519000  1.0
  H  H23  1  0.79042000  0.37656000  0.00482000  1.0
  H  H24  1  0.12862000  0.46468000  0.79195000  1.0
  H  H25  1  0.87138000  0.53532000  0.20805000  1.0
  H  H26  1  0.28507000  0.95716000  0.60148000  1.0
  H  H27  1  0.71494000  0.04284000  0.39852000  1.0
  H  H28  1  0.30635000  0.48689000  0.12521000  1.0
  H  H29  1  0.69365000  0.51311000  0.87479000  1.0
  C  C30  1  0.74587000  0.50912000  0.61051000  1.0
  C  C31  1  0.25413000  0.49089000  0.38949000  1.0
  C  C32  1  0.86694000  0.63422000  0.67487000  1.0
  C  C33  1  0.13305000  0.36578000  0.32513000  1.0
  C  C34  1  0.96964000  0.73615000  0.63006000  1.0
  C  C35  1  0.03036000  0.26385000  0.36994000  1.0
  C  C36  1  0.94988000  0.71552000  0.51872000  1.0
  C  C37  1  0.05012000  0.28449000  0.48129000  1.0
  C  C38  1  0.83298000  0.58888000  0.45506000  1.0
  C  C39  1  0.16702000  0.41112000  0.54494000  1.0
  C  C40  1  0.73345000  0.48706000  0.50033000  1.0
  C  C41  1  0.26655000  0.51294000  0.49968000  1.0
  C  C42  1  0.61543000  0.40334000  0.65450000  1.0
  C  C43  1  0.38457000  0.59666000  0.34550000  1.0
  C  C44  1  0.04621000  0.82268000  0.46918000  1.0
  C  C45  1  0.95380000  0.17732000  0.53082000  1.0
  C  C46  1  0.26394000  0.01050000  0.44877000  1.0
  C  C47  1  0.73606000  0.98950000  0.55123000  1.0
  C  C48  1  0.12403000  0.94470000  0.35259000  1.0
  C  C49  1  0.87597000  0.05530000  0.64741000  1.0
  C  C50  1  0.40929000  0.03542000  0.13598000  1.0
  C  C51  1  0.59071000  0.96458000  0.86402000  1.0
  C  C52  1  0.48154000  0.16728000  0.19316000  1.0
  C  C53  1  0.51846000  0.83271000  0.80683000  1.0
  C  C54  1  0.43132000  0.26492000  0.14672000  1.0
  C  C55  1  0.56868000  0.73508000  0.85327000  1.0
  C  C56  1  0.31002000  0.23303000  0.04067000  1.0
  C  C57  1  0.68997000  0.76696000  0.95932000  1.0
  C  C58  1  0.23357000  0.10018000  0.98471000  1.0
  C  C59  1  0.76644000  0.89982000  0.01529000  1.0
  C  C60  1  0.28161000  0.00271000  0.03202000  1.0
  C  C61  1  0.71838000  0.99729000  0.96798000  1.0
  C  C62  1  0.47977000  0.93223000  0.17956000  1.0
  C  C63  1  0.52023000  0.06777000  0.82044000  1.0
  C  C64  1  0.26440000  0.33528000  0.98906000  1.0
  C  C65  1  0.73561000  0.66472000  0.01094000  1.0
  C  C66  1  0.21273000  0.52448000  0.96959000  1.0
  C  C67  1  0.78727000  0.47551000  0.03042000  1.0
  C  C68  1  0.17611000  0.44518000  0.87050000  1.0
  C  C69  1  0.82389000  0.55482000  0.12950000  1.0
  N  N70  1  0.98841000  0.82897000  0.36590000  1.0
  N  N71  1  0.01160000  0.17103000  0.63410000  1.0
  N  N72  1  0.21263000  0.93243000  0.52059000  1.0
  N  N73  1  0.78738000  0.06757000  0.47941000  1.0
  N  N74  1  0.21030000  0.32849000  0.88295000  1.0
  N  N75  1  0.78970000  0.67151000  0.11704000  1.0
  N  N76  1  0.26699000  0.45370000  0.04261000  1.0
  N  N77  1  0.73301000  0.54630000  0.95739000  1.0
  O  O78  1  0.53794000  0.28512000  0.60272000  1.0
  O  O79  1  0.46206000  0.71489000  0.39728000  1.0
  O  O80  1  0.57417000  0.44004000  0.74491000  1.0
  O  O81  1  0.42583000  0.55996000  0.25509000  1.0
  O  O82  1  0.39422000  0.81143000  0.13344000  1.0
  O  O83  1  0.60578000  0.18857000  0.86656000  1.0
  O  O84  1  0.63882000  0.97111000  0.26121000  1.0
  O  O85  1  0.36118000  0.02889000  0.73879000  1.0
