# generated using pymatgen
data_FeNiP2H44C42S4(NO2)2
_symmetry_space_group_name_H-M   'P 1'
_cell_length_a   8.90043000
_cell_length_b   10.43500000
_cell_length_c   12.57180800
_cell_angle_alpha   66.90258728
_cell_angle_beta   77.86803320
_cell_angle_gamma   83.29460000
_symmetry_Int_Tables_number   1
_chemical_formula_structural   FeNiP2H44C42S4(NO2)2
_chemical_formula_sum   'Fe1 Ni1 P2 H44 C42 S4 N2 O4'
_cell_volume   1049.26991653
_cell_formula_units_Z   1
loop_
 _symmetry_equiv_pos_site_id
 _symmetry_equiv_pos_as_xyz
  1  'x, y, z'
loop_
 _atom_site_type_symbol
 _atom_site_label
 _atom_site_symmetry_multiplicity
 _atom_site_fract_x
 _atom_site_fract_y
 _atom_site_fract_z
 _atom_site_occupancy
  Fe  Fe0  1  0.00000000  0.50000000  0.00000000  1.0
  Ni  Ni1  1  1.00000000  0.50000000  0.50001000  1.0
  P  P2  1  0.92016000  0.17806000  0.64279000  1.0
  P  P3  1  0.07983000  0.82193000  0.35720000  1.0
  H  H4  1  0.64888000  0.28745000  0.75419000  1.0
  H  H5  1  0.35113000  0.71254000  0.24580000  1.0
  H  H6  1  0.40167000  0.18771000  0.87250000  1.0
  H  H7  1  0.59833000  0.81229000  0.12750000  1.0
  H  H8  1  0.53991000  0.80358000  0.82070000  1.0
  H  H9  1  0.46007000  0.19642000  0.17930000  1.0
  H  H10  1  0.78973000  0.90423000  0.70132000  1.0
  H  H11  1  0.21025000  0.09575000  0.29868000  1.0
  H  H12  1  0.25941000  0.03778000  0.02994000  1.0
  H  H13  1  0.74060000  0.96222000  0.97006000  1.0
  H  H14  1  0.12814000  0.91654000  0.03761000  1.0
  H  H15  1  0.87186000  0.08346000  0.96240000  1.0
  H  H16  1  0.15806000  0.07558000  0.90970000  1.0
  H  H17  1  0.84193000  0.92442000  0.09031000  1.0
  H  H18  1  0.17288000  0.15128000  0.47943000  1.0
  H  H19  1  0.82710000  0.84872000  0.52056000  1.0
  H  H20  1  0.16727000  0.96842000  0.51823000  1.0
  H  H21  1  0.83272000  0.03158000  0.48176000  1.0
  H  H22  1  0.28721000  0.10860000  0.65775000  1.0
  H  H23  1  0.71279000  0.89141000  0.34223000  1.0
  H  H24  1  0.39988000  0.01720000  0.57325000  1.0
  H  H25  1  0.60011000  0.98281000  0.42673000  1.0
  H  H26  1  0.26972000  0.92602000  0.70343000  1.0
  H  H27  1  0.73028000  0.07400000  0.29655000  1.0
  H  H28  1  0.17906000  0.64000000  0.07925000  1.0
  H  H29  1  0.82093000  0.36000000  0.92075000  1.0
  H  H30  1  0.86981000  0.67470000  0.11953000  1.0
  H  H31  1  0.13018000  0.32530000  0.88047000  1.0
  H  H32  1  0.76777000  0.70575000  0.92242000  1.0
  H  H33  1  0.23222000  0.29426000  0.07757000  1.0
  H  H34  1  0.01296000  0.68180000  0.76166000  1.0
  H  H35  1  0.98705000  0.31822000  0.23833000  1.0
  H  H36  1  0.38994000  0.59426000  0.91052000  1.0
  H  H37  1  0.61006000  0.40575000  0.08949000  1.0
  H  H38  1  0.27319000  0.67773000  0.67687000  1.0
  H  H39  1  0.72682000  0.32227000  0.32313000  1.0
  H  H40  1  0.44635000  0.65693000  0.51401000  1.0
  H  H41  1  0.55366000  0.34310000  0.48599000  1.0
  H  H42  1  0.70868000  0.59983000  0.42204000  1.0
  H  H43  1  0.29133000  0.40017000  0.57797000  1.0
  H  H44  1  0.88135000  0.51761000  0.72434000  1.0
  H  H45  1  0.11866000  0.48239000  0.27566000  1.0
  H  H46  1  0.62936000  0.56635000  0.83048000  1.0
  H  H47  1  0.37066000  0.43365000  0.16953000  1.0
  C  C48  1  0.73696000  0.10277000  0.72005000  1.0
  C  C49  1  0.26303000  0.89722000  0.27994000  1.0
  C  C50  1  0.62509000  0.18131000  0.76780000  1.0
  C  C51  1  0.37491000  0.81868000  0.23220000  1.0
  C  C52  1  0.48582000  0.12492000  0.83556000  1.0
  C  C53  1  0.51418000  0.87508000  0.16444000  1.0
  C  C54  1  0.45727000  0.98619000  0.85752000  1.0
  C  C55  1  0.54272000  0.01380000  0.14248000  1.0
  C  C56  1  0.56678000  0.90893000  0.80633000  1.0
  C  C57  1  0.43322000  0.09106000  0.19367000  1.0
  C  C58  1  0.70472000  0.96626000  0.73845000  1.0
  C  C59  1  0.29527000  0.03373000  0.26155000  1.0
  C  C60  1  0.21232000  0.99336000  0.97826000  1.0
  C  C61  1  0.78768000  0.00664000  0.02174000  1.0
  C  C62  1  0.16317000  0.04973000  0.55369000  1.0
  C  C63  1  0.83682000  0.95027000  0.44630000  1.0
  C  C64  1  0.28674000  0.02415000  0.62676000  1.0
  C  C65  1  0.71325000  0.97586000  0.37322000  1.0
  C  C66  1  0.15259000  0.65474000  0.90025000  1.0
  C  C67  1  0.84741000  0.34527000  0.09975000  1.0
  C  C68  1  0.10368000  0.65262000  0.01793000  1.0
  C  C69  1  0.89632000  0.34737000  0.98207000  1.0
  C  C70  1  0.94061000  0.67398000  0.03816000  1.0
  C  C71  1  0.05939000  0.32603000  0.96184000  1.0
  C  C72  1  0.88682000  0.68893000  0.93408000  1.0
  C  C73  1  0.11318000  0.31108000  0.06591000  1.0
  C  C74  1  0.01618000  0.67631000  0.84931000  1.0
  C  C75  1  0.98383000  0.32369000  0.15069000  1.0
  C  C76  1  0.30847000  0.62819000  0.84967000  1.0
  C  C77  1  0.69154000  0.37181000  0.15034000  1.0
  C  C78  1  0.35682000  0.64277000  0.73587000  1.0
  C  C79  1  0.64318000  0.35724000  0.26414000  1.0
  C  C80  1  0.51102000  0.61464000  0.68228000  1.0
  C  C81  1  0.48899000  0.38538000  0.31773000  1.0
  C  C82  1  0.53961000  0.62547000  0.56436000  1.0
  C  C83  1  0.46040000  0.37455000  0.43565000  1.0
  C  C84  1  0.68467000  0.59337000  0.51250000  1.0
  C  C85  1  0.31534000  0.40664000  0.48751000  1.0
  C  C86  1  0.78134000  0.54790000  0.68171000  1.0
  C  C87  1  0.21868000  0.45210000  0.31829000  1.0
  C  C88  1  0.63905000  0.57569000  0.73985000  1.0
  C  C89  1  0.36097000  0.42431000  0.26016000  1.0
  S  S90  1  0.01414000  0.25393000  0.73282000  1.0
  S  S91  1  0.98585000  0.74606000  0.26718000  1.0
  S  S92  1  0.89298000  0.32748000  0.48160000  1.0
  S  S93  1  0.10702000  0.67251000  0.51841000  1.0
  N  N94  1  0.80483000  0.55365000  0.57002000  1.0
  N  N95  1  0.19518000  0.44635000  0.42998000  1.0
  O  O96  1  0.00929000  0.04254000  0.62360000  1.0
  O  O97  1  0.99070000  0.95745000  0.37640000  1.0
  O  O98  1  0.32987000  0.91787000  0.92635000  1.0
  O  O99  1  0.67013000  0.08212000  0.07365000  1.0
