# generated using pymatgen
data_AlH11C16N2O5
_symmetry_space_group_name_H-M   'P 1'
_cell_length_a   6.66480000
_cell_length_b   23.66660000
_cell_length_c   25.82470000
_cell_angle_alpha   90.01920000
_cell_angle_beta   91.11830000
_cell_angle_gamma   90.99790000
_symmetry_Int_Tables_number   1
_chemical_formula_structural   AlH11C16N2O5
_chemical_formula_sum   'Al4 H44 C64 N8 O20'
_cell_volume   4072.01695295
_cell_formula_units_Z   4
loop_
 _symmetry_equiv_pos_site_id
 _symmetry_equiv_pos_as_xyz
  1  'x, y, z'
loop_
 _atom_site_type_symbol
 _atom_site_label
 _atom_site_symmetry_multiplicity
 _atom_site_fract_x
 _atom_site_fract_y
 _atom_site_fract_z
 _atom_site_occupancy
  Al  Al0  1  0.98737000  0.99598000  0.50548000  1.0
  Al  Al1  1  0.48687000  0.99797000  0.50102000  1.0
  Al  Al2  1  0.01511000  0.49683000  0.00324000  1.0
  Al  Al3  1  0.51518000  0.49852000  0.00331000  1.0
  H  H4  1  0.22919000  0.92498000  0.48705000  1.0
  H  H5  1  0.74727000  0.07249000  0.49510000  1.0
  H  H6  1  0.26721000  0.57058000  0.98989000  1.0
  H  H7  1  0.75649000  0.42341000  0.99168000  1.0
  H  H8  1  0.45971000  0.63273000  0.90718000  1.0
  H  H9  1  0.43207000  0.70318000  0.83581000  1.0
  H  H10  1  0.03832000  0.66626000  0.79286000  1.0
  H  H11  1  0.40757000  0.79413000  0.67634000  1.0
  H  H12  1  0.02284000  0.90800000  0.64242000  1.0
  H  H13  1  0.02839000  0.83491000  0.71243000  1.0
  H  H14  1  0.96763000  0.36081000  0.10052000  1.0
  H  H15  1  0.95814000  0.28944000  0.17180000  1.0
  H  H16  1  0.57811000  0.33000000  0.20912000  1.0
  H  H17  1  0.94911000  0.20471000  0.32618000  1.0
  H  H18  1  0.52969000  0.08277000  0.36512000  1.0
  H  H19  1  0.55503000  0.15525000  0.29505000  1.0
  H  H20  1  0.55833000  0.37075000  0.89994000  1.0
  H  H21  1  0.56979000  0.29782000  0.83026000  1.0
  H  H22  1  0.95599000  0.33483000  0.78830000  1.0
  H  H23  1  0.56556000  0.20851000  0.67349000  1.0
  H  H24  1  0.95993000  0.08978000  0.63603000  1.0
  H  H25  1  0.95466000  0.16067000  0.70784000  1.0
  H  H26  1  0.47552000  0.58554000  0.13750000  1.0
  H  H27  1  0.45278000  0.66043000  0.20542000  1.0
  H  H28  1  0.06485000  0.71064000  0.17493000  1.0
  H  H29  1  0.43026000  0.83487000  0.28974000  1.0
  H  H30  1  0.03218000  0.86442000  0.40310000  1.0
  H  H31  1  0.04467000  0.79634000  0.32962000  1.0
  H  H32  1  0.12064000  0.56419000  0.89507000  1.0
  H  H33  1  0.22097000  0.59881000  0.84105000  1.0
  H  H34  1  0.34788000  0.90271000  0.57921000  1.0
  H  H35  1  0.23655000  0.84694000  0.61321000  1.0
  H  H36  1  0.63928000  0.43086000  0.10540000  1.0
  H  H37  1  0.74919000  0.39794000  0.15935000  1.0
  H  H38  1  0.86424000  0.09449000  0.42014000  1.0
  H  H39  1  0.75990000  0.15054000  0.38543000  1.0
  H  H40  1  0.89422000  0.43839000  0.88943000  1.0
  H  H41  1  0.78505000  0.40389000  0.83575000  1.0
  H  H42  1  0.62251000  0.10227000  0.57496000  1.0
  H  H43  1  0.73716000  0.15684000  0.61088000  1.0
  H  H44  1  0.14552000  0.59931000  0.08166000  1.0
  H  H45  1  0.25075000  0.65678000  0.11585000  1.0
  H  H46  1  0.37102000  0.93512000  0.39394000  1.0
  H  H47  1  0.26122000  0.90286000  0.33883000  1.0
  C  C48  1  0.73208000  0.92634000  0.43376000  1.0
  C  C49  1  0.73082000  0.93282000  0.57662000  1.0
  C  C50  1  0.24653000  0.06843000  0.57088000  1.0
  C  C51  1  0.23486000  0.06225000  0.42902000  1.0
  C  C52  1  0.77309000  0.56300000  0.07618000  1.0
  C  C53  1  0.76393000  0.56966000  0.93482000  1.0
  C  C54  1  0.25894000  0.43330000  0.92843000  1.0
  C  C55  1  0.26660000  0.42630000  0.07102000  1.0
  C  C56  1  0.76118000  0.60956000  0.89111000  1.0
  C  C57  1  0.58481000  0.64010000  0.88142000  1.0
  C  C58  1  0.56807000  0.67898000  0.84178000  1.0
  C  C59  1  0.73513000  0.68885000  0.80954000  1.0
  C  C60  1  0.91115000  0.65872000  0.81805000  1.0
  C  C61  1  0.92963000  0.61880000  0.85843000  1.0
  C  C62  1  0.72595000  0.72996000  0.76975000  1.0
  C  C63  1  0.71982000  0.76635000  0.73630000  1.0
  C  C64  1  0.71785000  0.80889000  0.69771000  1.0
  C  C65  1  0.54291000  0.81917000  0.66883000  1.0
  C  C66  1  0.53613000  0.86086000  0.62964000  1.0
  C  C67  1  0.71721000  0.89192000  0.61935000  1.0
  C  C68  1  0.89017000  0.88192000  0.64993000  1.0
  C  C69  1  0.89426000  0.84159000  0.68859000  1.0
  C  C70  1  0.27392000  0.38578000  0.11423000  1.0
  C  C71  1  0.09941000  0.35400000  0.12523000  1.0
  C  C72  1  0.09302000  0.31464000  0.16471000  1.0
  C  C73  1  0.26898000  0.30572000  0.19529000  1.0
  C  C74  1  0.44372000  0.33698000  0.18531000  1.0
  C  C75  1  0.45209000  0.37727000  0.14497000  1.0
  C  C76  1  0.26786000  0.26448000  0.23508000  1.0
  C  C77  1  0.26331000  0.22807000  0.26853000  1.0
  C  C78  1  0.25362000  0.18580000  0.30727000  1.0
  C  C79  1  0.07690000  0.17789000  0.33483000  1.0
  C  C80  1  0.05898000  0.13631000  0.37371000  1.0
  C  C81  1  0.23016000  0.10296000  0.38584000  1.0
  C  C82  1  0.40477000  0.11055000  0.35653000  1.0
  C  C83  1  0.41987000  0.15066000  0.31785000  1.0
  C  C84  1  0.25427000  0.39379000  0.88424000  1.0
  C  C85  1  0.42816000  0.36280000  0.87463000  1.0
  C  C86  1  0.43571000  0.32258000  0.83593000  1.0
  C  C87  1  0.26154000  0.31193000  0.80472000  1.0
  C  C88  1  0.08849000  0.34302000  0.81282000  1.0
  C  C89  1  0.07955000  0.38434000  0.85213000  1.0
  C  C90  1  0.26094000  0.26933000  0.76615000  1.0
  C  C91  1  0.26052000  0.23230000  0.73323000  1.0
  C  C92  1  0.26010000  0.19028000  0.69412000  1.0
  C  C93  1  0.43218000  0.18248000  0.66509000  1.0
  C  C94  1  0.43854000  0.14210000  0.62492000  1.0
  C  C95  1  0.26034000  0.10951000  0.61360000  1.0
  C  C96  1  0.09023000  0.11699000  0.64431000  1.0
  C  C97  1  0.08646000  0.15614000  0.68398000  1.0
  C  C98  1  0.77859000  0.60564000  0.11773000  1.0
  C  C99  1  0.60259000  0.61386000  0.14592000  1.0
  C  C100  1  0.58877000  0.65539000  0.18324000  1.0
  C  C101  1  0.75797000  0.69124000  0.19341000  1.0
  C  C102  1  0.93549000  0.68302000  0.16668000  1.0
  C  C103  1  0.95211000  0.64015000  0.12896000  1.0
  C  C104  1  0.74867000  0.73452000  0.23118000  1.0
  C  C105  1  0.73966000  0.77103000  0.26442000  1.0
  C  C106  1  0.73649000  0.81146000  0.30486000  1.0
  C  C107  1  0.56270000  0.84152000  0.31465000  1.0
  C  C108  1  0.55293000  0.88027000  0.35614000  1.0
  C  C109  1  0.72745000  0.88813000  0.38875000  1.0
  C  C110  1  0.90177000  0.85795000  0.37757000  1.0
  C  C111  1  0.91007000  0.82037000  0.33676000  1.0
  N  N112  1  0.10356000  0.59011000  0.86411000  1.0
  N  N113  1  0.36179000  0.86821000  0.60238000  1.0
  N  N114  1  0.62553000  0.40708000  0.13787000  1.0
  N  N115  1  0.88278000  0.13057000  0.39934000  1.0
  N  N116  1  0.90881000  0.41448000  0.85716000  1.0
  N  N117  1  0.61041000  0.13705000  0.59767000  1.0
  N  N118  1  0.12789000  0.63443000  0.10369000  1.0
  N  N119  1  0.38087000  0.90915000  0.36293000  1.0
  O  O120  1  0.90232000  0.94085000  0.45384000  1.0
  O  O121  1  0.56578000  0.95108000  0.55713000  1.0
  O  O122  1  0.40937000  0.05455000  0.54861000  1.0
  O  O123  1  0.06898000  0.04794000  0.45038000  1.0
  O  O124  1  0.07348000  0.04887000  0.55736000  1.0
  O  O125  1  0.40677000  0.04393000  0.44352000  1.0
  O  O126  1  0.56318000  0.94294000  0.45109000  1.0
  O  O127  1  0.90424000  0.94719000  0.56026000  1.0
  O  O128  1  0.23587000  0.96135000  0.50437000  1.0
  O  O129  1  0.74079000  0.03211000  0.50083000  1.0
  O  O130  1  0.93996000  0.54720000  0.05712000  1.0
  O  O131  1  0.59627000  0.55568000  0.95507000  1.0
  O  O132  1  0.42998000  0.44877000  0.94727000  1.0
  O  O133  1  0.09566000  0.44159000  0.05306000  1.0
  O  O134  1  0.08984000  0.44922000  0.94622000  1.0
  O  O135  1  0.43431000  0.44395000  0.05299000  1.0
  O  O136  1  0.60136000  0.54461000  0.06045000  1.0
  O  O137  1  0.93455000  0.55103000  0.95079000  1.0
  O  O138  1  0.26594000  0.53291000  0.00458000  1.0
  O  O139  1  0.76242000  0.46309000  0.00079000  1.0
