# generated using pymatgen
data_CuH7C8SIN2
_symmetry_space_group_name_H-M   'P 1'
_cell_length_a   4.32502000
_cell_length_b   12.79000000
_cell_length_c   16.66120000
_cell_angle_alpha   90.00000000
_cell_angle_beta   89.99990000
_cell_angle_gamma   93.98670000
_symmetry_Int_Tables_number   1
_chemical_formula_structural   CuH7C8SIN2
_chemical_formula_sum   'Cu4 H28 C32 S4 I4 N8'
_cell_volume   919.41750856
_cell_formula_units_Z   4
loop_
 _symmetry_equiv_pos_site_id
 _symmetry_equiv_pos_as_xyz
  1  'x, y, z'
loop_
 _atom_site_type_symbol
 _atom_site_label
 _atom_site_symmetry_multiplicity
 _atom_site_fract_x
 _atom_site_fract_y
 _atom_site_fract_z
 _atom_site_occupancy
  Cu  Cu0  1  0.18786000  0.48351000  0.07777000  1.0
  Cu  Cu1  1  0.81217000  0.01649000  0.57776000  1.0
  Cu  Cu2  1  0.81214000  0.51649000  0.92223000  1.0
  Cu  Cu3  1  0.18787000  0.98351000  0.42223000  1.0
  H  H4  1  0.85924000  0.81104000  0.29708000  1.0
  H  H5  1  0.14075000  0.68895000  0.79708000  1.0
  H  H6  1  0.14076000  0.18896000  0.70292000  1.0
  H  H7  1  0.85924000  0.31104000  0.20292000  1.0
  H  H8  1  0.64002000  0.80095000  0.15542000  1.0
  H  H9  1  0.36000000  0.69904000  0.65542000  1.0
  H  H10  1  0.35999000  0.19905000  0.84458000  1.0
  H  H11  1  0.64002000  0.30095000  0.34458000  1.0
  H  H12  1  0.22035000  0.34906000  0.43269000  1.0
  H  H13  1  0.77963000  0.15094000  0.93269000  1.0
  H  H14  1  0.77964000  0.65094000  0.56731000  1.0
  H  H15  1  0.22036000  0.84906000  0.06731000  1.0
  H  H16  1  0.15574000  0.68183000  0.45671000  1.0
  H  H17  1  0.84425000  0.81817000  0.95670000  1.0
  H  H18  1  0.84423000  0.31817000  0.54329000  1.0
  H  H19  1  0.15574000  0.18183000  0.04329000  1.0
  H  H20  1  0.80999000  0.65552000  0.06704000  1.0
  H  H21  1  0.19004000  0.84447000  0.56704000  1.0
  H  H22  1  0.19003000  0.34447000  0.93296000  1.0
  H  H23  1  0.80999000  0.15553000  0.43296000  1.0
  H  H24  1  0.66144000  0.49535000  0.38580000  1.0
  H  H25  1  0.33855000  0.00465000  0.88580000  1.0
  H  H26  1  0.33855000  0.50465000  0.61420000  1.0
  H  H27  1  0.66144000  0.99535000  0.11420000  1.0
  H  H28  1  0.53020000  0.62165000  0.36868000  1.0
  H  H29  1  0.46979000  0.87835000  0.86868000  1.0
  H  H30  1  0.46979000  0.37835000  0.63132000  1.0
  H  H31  1  0.53020000  0.12165000  0.13132000  1.0
  C  C32  1  0.90777000  0.74770000  0.25604000  1.0
  C  C33  1  0.09223000  0.75229000  0.75605000  1.0
  C  C34  1  0.09223000  0.25230000  0.74396000  1.0
  C  C35  1  0.90777000  0.24770000  0.24396000  1.0
  C  C36  1  0.79041000  0.74315000  0.17821000  1.0
  C  C37  1  0.20961000  0.75685000  0.67822000  1.0
  C  C38  1  0.20960000  0.25685000  0.82179000  1.0
  C  C39  1  0.79041000  0.24315000  0.32179000  1.0
  C  C40  1  0.21505000  0.51797000  0.43646000  1.0
  C  C41  1  0.78494000  0.98203000  0.93646000  1.0
  C  C42  1  0.78494000  0.48203000  0.56354000  1.0
  C  C43  1  0.21504000  0.01797000  0.06353000  1.0
  C  C44  1  0.14920000  0.59672000  0.23545000  1.0
  C  C45  1  0.85082000  0.90328000  0.73545000  1.0
  C  C46  1  0.85081000  0.40328000  0.76455000  1.0
  C  C47  1  0.14919000  0.09672000  0.26455000  1.0
  C  C48  1  0.12226000  0.41593000  0.46142000  1.0
  C  C49  1  0.87772000  0.08408000  0.96142000  1.0
  C  C50  1  0.87773000  0.58408000  0.53858000  1.0
  C  C51  1  0.12226000  0.91592000  0.03858000  1.0
  C  C52  1  0.08971000  0.60197000  0.47613000  1.0
  C  C53  1  0.91029000  0.89804000  0.97613000  1.0
  C  C54  1  0.91029000  0.39804000  0.52386000  1.0
  C  C55  1  0.08969000  0.10196000  0.02386000  1.0
  C  C56  1  0.88208000  0.66295000  0.12963000  1.0
  C  C57  1  0.11794000  0.83705000  0.62964000  1.0
  C  C58  1  0.11793000  0.33705000  0.87037000  1.0
  C  C59  1  0.88208000  0.16295000  0.37037000  1.0
  C  C60  1  0.45618000  0.53820000  0.37246000  1.0
  C  C61  1  0.54381000  0.96180000  0.87246000  1.0
  C  C62  1  0.54382000  0.46181000  0.62754000  1.0
  C  C63  1  0.45617000  0.03820000  0.12754000  1.0
  S  S64  1  0.35884000  0.49421000  0.27060000  1.0
  S  S65  1  0.64117000  0.00578000  0.77059000  1.0
  S  S66  1  0.64117000  0.50579000  0.72941000  1.0
  S  S67  1  0.35883000  0.99421000  0.22940000  1.0
  I  I68  1  0.65170000  0.37308000  0.05324000  1.0
  I  I69  1  0.34832000  0.12691000  0.55324000  1.0
  I  I70  1  0.34830000  0.62691000  0.94676000  1.0
  I  I71  1  0.65170000  0.87309000  0.44676000  1.0
  N  N72  1  0.06797000  0.59017000  0.15660000  1.0
  N  N73  1  0.93205000  0.90983000  0.65659000  1.0
  N  N74  1  0.93204000  0.40983000  0.84341000  1.0
  N  N75  1  0.06797000  0.09017000  0.34341000  1.0
  N  N76  1  0.08301000  0.67403000  0.28503000  1.0
  N  N77  1  0.91699000  0.82597000  0.78503000  1.0
  N  N78  1  0.91700000  0.32597000  0.71497000  1.0
  N  N79  1  0.08300000  0.17403000  0.21497000  1.0
