# generated using pymatgen
data_Zn3H12C20(N3O4)2
_symmetry_space_group_name_H-M   'P 1'
_cell_length_a   8.73839482
_cell_length_b   9.11625000
_cell_length_c   10.14610000
_cell_angle_alpha   100.65800000
_cell_angle_beta   106.48405013
_cell_angle_gamma   65.27071284
_symmetry_Int_Tables_number   1
_chemical_formula_structural   Zn3H12C20(N3O4)2
_chemical_formula_sum   'Zn3 H12 C20 N6 O8'
_cell_volume   701.91832627
_cell_formula_units_Z   1
loop_
 _symmetry_equiv_pos_site_id
 _symmetry_equiv_pos_as_xyz
  1  'x, y, z'
loop_
 _atom_site_type_symbol
 _atom_site_label
 _atom_site_symmetry_multiplicity
 _atom_site_fract_x
 _atom_site_fract_y
 _atom_site_fract_z
 _atom_site_occupancy
  Zn  Zn0  1  1.00000000  0.50001000  0.50000000  1.0
  Zn  Zn1  1  0.82975000  0.20684000  0.49140000  1.0
  Zn  Zn2  1  0.17021000  0.79316000  0.50858000  1.0
  H  H3  1  0.89354000  0.69594000  0.82148000  1.0
  H  H4  1  0.10651000  0.30402000  0.17854000  1.0
  H  H5  1  0.97957000  0.23106000  0.93272000  1.0
  H  H6  1  0.02046000  0.76890000  0.06729000  1.0
  H  H7  1  0.53004000  0.70781000  0.89258000  1.0
  H  H8  1  0.46995000  0.29220000  0.10741000  1.0
  H  H9  1  0.28918000  0.37639000  0.87270000  1.0
  H  H10  1  0.71083000  0.62362000  0.12730000  1.0
  H  H11  1  0.40847000  0.25174000  0.62171000  1.0
  H  H12  1  0.59152000  0.74828000  0.37828000  1.0
  H  H13  1  0.48130000  0.92148000  0.63206000  1.0
  H  H14  1  0.51866000  0.07852000  0.36792000  1.0
  C  C15  1  0.92792000  0.46006000  0.86331000  1.0
  C  C16  1  0.07211000  0.53994000  0.13670000  1.0
  C  C17  1  0.93874000  0.61201000  0.90097000  1.0
  C  C18  1  0.06128000  0.38797000  0.09907000  1.0
  C  C19  1  0.98973000  0.34823000  0.96331000  1.0
  C  C20  1  0.01031000  0.65173000  0.03668000  1.0
  C  C21  1  0.85938000  0.41540000  0.71578000  1.0
  C  C22  1  0.14063000  0.58459000  0.28424000  1.0
  C  C23  1  0.39970000  0.54658000  0.86893000  1.0
  C  C24  1  0.60030000  0.45345000  0.13109000  1.0
  C  C25  1  0.51753000  0.61736000  0.94075000  1.0
  C  C26  1  0.48251000  0.38260000  0.05923000  1.0
  C  C27  1  0.38273000  0.42897000  0.92893000  1.0
  C  C28  1  0.61726000  0.57104000  0.07108000  1.0
  C  C29  1  0.28824000  0.59892000  0.73045000  1.0
  C  C30  1  0.71174000  0.40112000  0.26955000  1.0
  C  C31  1  0.32544000  0.18448000  0.59008000  1.0
  C  C32  1  0.67454000  0.81553000  0.40990000  1.0
  C  C33  1  0.36173000  0.02178000  0.59512000  1.0
  C  C34  1  0.63825000  0.97822000  0.40487000  1.0
  N  N35  1  0.15466000  0.25637000  0.53370000  1.0
  N  N36  1  0.84533000  0.74366000  0.46629000  1.0
  N  N37  1  0.08754000  0.14415000  0.50387000  1.0
  N  N38  1  0.91244000  0.85587000  0.49611000  1.0
  N  N39  1  0.21161000  0.00068000  0.54073000  1.0
  N  N40  1  0.78836000  0.99932000  0.45925000  1.0
  O  O41  1  0.83684000  0.28067000  0.68842000  1.0
  O  O42  1  0.16315000  0.71934000  0.31161000  1.0
  O  O43  1  0.83119000  0.50576000  0.62324000  1.0
  O  O44  1  0.16882000  0.49422000  0.37678000  1.0
  O  O45  1  0.16168000  0.55661000  0.68205000  1.0
  O  O46  1  0.83833000  0.44339000  0.31793000  1.0
  O  O47  1  0.32850000  0.68731000  0.67158000  1.0
  O  O48  1  0.67145000  0.31273000  0.32840000  1.0
