# generated using pymatgen
data_Zn8H43C60NO26
_symmetry_space_group_name_H-M   'P 1'
_cell_length_a   18.41020000
_cell_length_b   18.48200000
_cell_length_c   18.50499658
_cell_angle_alpha   60.53408579
_cell_angle_beta   60.18018318
_cell_angle_gamma   60.22000000
_symmetry_Int_Tables_number   1
_chemical_formula_structural   Zn8H43C60NO26
_chemical_formula_sum   'Zn8 H43 C60 N1 O26'
_cell_volume   4483.54198055
_cell_formula_units_Z   1
loop_
 _symmetry_equiv_pos_site_id
 _symmetry_equiv_pos_as_xyz
  1  'x, y, z'
loop_
 _atom_site_type_symbol
 _atom_site_label
 _atom_site_symmetry_multiplicity
 _atom_site_fract_x
 _atom_site_fract_y
 _atom_site_fract_z
 _atom_site_occupancy
  Zn  Zn0  1  0.54622000  0.04397000  0.53645000  1.0
  Zn  Zn1  1  0.54673000  0.86862000  0.54255000  1.0
  Zn  Zn2  1  0.54485000  0.04221000  0.36673000  1.0
  Zn  Zn3  1  0.37222000  0.03991000  0.53632000  1.0
  Zn  Zn4  1  0.95277000  0.46067000  0.95436000  1.0
  Zn  Zn5  1  0.95804000  0.45567000  0.12676000  1.0
  Zn  Zn6  1  0.95779000  0.63006000  0.95512000  1.0
  Zn  Zn7  1  0.13028000  0.45694000  0.95505000  1.0
  H  H8  1  0.30909000  0.30325000  0.78652000  1.0
  H  H9  1  0.05443000  0.84940000  0.70105000  1.0
  H  H10  1  0.14971000  0.26844000  0.81092000  1.0
  H  H11  1  0.02636000  0.87660000  0.79374000  1.0
  H  H12  1  0.15176000  0.94413000  0.60678000  1.0
  H  H13  1  0.12363000  0.97276000  0.69856000  1.0
  H  H14  1  0.70551000  0.90962000  0.18278000  1.0
  H  H15  1  0.80221000  0.81446000  0.08771000  1.0
  H  H16  1  0.75435000  0.53042000  0.37006000  1.0
  H  H17  1  0.85115000  0.53046000  0.36994000  1.0
  H  H18  1  0.65813000  0.62674000  0.46685000  1.0
  H  H19  1  0.74442000  0.16791000  0.46254000  1.0
  H  H20  1  0.75483000  0.62730000  0.46624000  1.0
  H  H21  1  0.40285000  0.19452000  0.70722000  1.0
  H  H22  1  0.75725000  0.81480000  0.84071000  1.0
  H  H23  1  0.86795000  0.55503000  0.71856000  1.0
  H  H24  1  0.77512000  0.53201000  0.81297000  1.0
  H  H25  1  0.76740000  0.65443000  0.62625000  1.0
  H  H26  1  0.67472000  0.63189000  0.72110000  1.0
  H  H27  1  0.23249000  0.22885000  0.68425000  1.0
  H  H28  1  0.65072000  0.25100000  0.19083000  1.0
  H  H29  1  0.74106000  0.35044000  0.09520000  1.0
  H  H30  1  0.40901000  0.23963000  0.18578000  1.0
  H  H31  1  0.92035000  0.18915000  0.31643000  1.0
  H  H32  1  0.83328000  0.26995000  0.36677000  1.0
  H  H33  1  0.21547000  0.03982000  0.46273000  1.0
  H  H34  1  0.11067000  0.05525000  0.48859000  1.0
  H  H35  1  0.71687000  0.00052000  0.61719000  1.0
  H  H36  1  0.67010000  0.06592000  0.68501000  1.0
  H  H37  1  0.76787000  0.97235000  0.69203000  1.0
  H  H38  1  0.58242000  0.96812000  0.74504000  1.0
  H  H39  1  0.63357000  0.93957000  0.81928000  1.0
  H  H40  1  0.95072000  0.05865000  0.44276000  1.0
  H  H41  1  0.31333000  0.33720000  0.09178000  1.0
  H  H42  1  0.85954000  0.03588000  0.53892000  1.0
  H  H43  1  0.93917000  0.95355000  0.48873000  1.0
  H  H44  1  0.80166000  0.01988000  0.44990000  1.0
  H  H45  1  0.89122000  0.04550000  0.35456000  1.0
  H  H46  1  0.02449000  0.27881000  0.37207000  1.0
  H  H47  1  0.06756000  0.18769000  0.33480000  1.0
  H  H48  1  0.12109000  0.19199000  0.46502000  1.0
  H  H49  1  0.41141000  0.68435000  0.73036000  1.0
  H  H50  1  0.31570000  0.59005000  0.82387000  1.0
  C  C51  1  0.36448000  0.85936000  0.63583000  1.0
  C  C52  1  0.79269000  0.15546000  0.40015000  1.0
  C  C53  1  0.21781000  0.20067000  0.33172000  1.0
  C  C54  1  0.64202000  0.13638000  0.35643000  1.0
  C  C55  1  0.30674000  0.19271000  0.30058000  1.0
  C  C56  1  0.33978000  0.24390000  0.21240000  1.0
  C  C57  1  0.28605000  0.29869000  0.15980000  1.0
  C  C58  1  0.19611000  0.30572000  0.19199000  1.0
  C  C59  1  0.16406000  0.25486000  0.27917000  1.0
  C  C60  1  0.08484000  0.22659000  0.34984000  1.0
  C  C61  1  0.14471000  0.16714000  0.41085000  1.0
  C  C62  1  0.30224000  0.20253000  0.67830000  1.0
  C  C63  1  0.21690000  0.83647000  0.70398000  1.0
  C  C64  1  0.30702000  0.80322000  0.69263000  1.0
  C  C65  1  0.34125000  0.71261000  0.73742000  1.0
  C  C66  1  0.62983000  0.86562000  0.64547000  1.0
  C  C67  1  0.28765000  0.65974000  0.78978000  1.0
  C  C68  1  0.19646000  0.69397000  0.80046000  1.0
  C  C69  1  0.16320000  0.78346000  0.75616000  1.0
  C  C70  1  0.08120000  0.85820000  0.73656000  1.0
  C  C71  1  0.14204000  0.91811000  0.67742000  1.0
  C  C72  1  0.72757000  0.71021000  0.34031000  1.0
  C  C73  1  0.75280000  0.19826000  0.32767000  1.0
  C  C74  1  0.69879000  0.80192000  0.30525000  1.0
  C  C75  1  0.72699000  0.83811000  0.21241000  1.0
  C  C76  1  0.78111000  0.78476000  0.15915000  1.0
  C  C77  1  0.80988000  0.69185000  0.19521000  1.0
  C  C78  1  0.36435000  0.13355000  0.35624000  1.0
  C  C79  1  0.78120000  0.65668000  0.28685000  1.0
  C  C80  1  0.78479000  0.57197000  0.36449000  1.0
  C  C81  1  0.72434000  0.63254000  0.42498000  1.0
  C  C82  1  0.72204000  0.72085000  0.72129000  1.0
  C  C83  1  0.67999000  0.81122000  0.70850000  1.0
  C  C84  1  0.69660000  0.19532000  0.30006000  1.0
  C  C85  1  0.69158000  0.84508000  0.75532000  1.0
  C  C86  1  0.74782000  0.78817000  0.80600000  1.0
  C  C87  1  0.79346000  0.69814000  0.81473000  1.0
  C  C88  1  0.77720000  0.66564000  0.77237000  1.0
  C  C89  1  0.79799000  0.58449000  0.75460000  1.0
  C  C90  1  0.64166000  0.85957000  0.36136000  1.0
  C  C91  1  0.73523000  0.64694000  0.69675000  1.0
  C  C92  1  0.13973000  0.36295000  0.13492000  1.0
  C  C93  1  0.85543000  0.64191000  0.86599000  1.0
  C  C94  1  0.85607000  0.36869000  0.13270000  1.0
  C  C95  1  0.69381000  0.25184000  0.21455000  1.0
  C  C96  1  0.13982000  0.63700000  0.85628000  1.0
  C  C97  1  0.86735000  0.63584000  0.13742000  1.0
  C  C98  1  0.13426000  0.35545000  0.86878000  1.0
  C  C99  1  0.36205000  0.14428000  0.62358000  1.0
  C  C100  1  0.27608000  0.27606000  0.77533000  1.0
  C  C101  1  0.18741000  0.29533000  0.81591000  1.0
  C  C102  1  0.33143000  0.22139000  0.71897000  1.0
  C  C103  1  0.64673000  0.93984000  0.75424000  1.0
  C  C104  1  0.70382000  0.99815000  0.68281000  1.0
  C  C105  1  0.84717000  0.05734000  0.41808000  1.0
  C  C106  1  0.74427000  0.30779000  0.16100000  1.0
  C  C107  1  0.90215000  0.02456000  0.47526000  1.0
  C  C108  1  0.80058000  0.31067000  0.18981000  1.0
  C  C109  1  0.80307000  0.25447000  0.27408000  1.0
  C  C110  1  0.84792000  0.22117000  0.33968000  1.0
  N  N111  1  0.16416000  0.07252000  0.43853000  1.0
  O  O112  1  0.50237000  0.99805000  0.49596000  1.0
  O  O113  1  0.05616000  0.67653000  0.87185000  1.0
  O  O114  1  0.88395000  0.55269000  0.17610000  1.0
  O  O115  1  0.32413000  0.94259000  0.61113000  1.0
  O  O116  1  0.17545000  0.38253000  0.88403000  1.0
  O  O117  1  0.89519000  0.67510000  0.05468000  1.0
  O  O118  1  0.05000000  0.37549000  0.89409000  1.0
  O  O119  1  0.86536000  0.40330000  0.05081000  1.0
  O  O120  1  0.17902000  0.55407000  0.88382000  1.0
  O  O121  1  0.05606000  0.37983000  0.17449000  1.0
  O  O122  1  0.87086000  0.67953000  0.89669000  1.0
  O  O123  1  0.61253000  0.94895000  0.61579000  1.0
  O  O124  1  0.62789000  0.10751000  0.43928000  1.0
  O  O125  1  0.61023000  0.82339000  0.62363000  1.0
  O  O126  1  0.44731000  0.12171000  0.31847000  1.0
  O  O127  1  0.62273000  0.82070000  0.44459000  1.0
  O  O128  1  0.32328000  0.12350000  0.59868000  1.0
  O  O129  1  0.61656000  0.94264000  0.32182000  1.0
  O  O130  1  0.44566000  0.11957000  0.60605000  1.0
  O  O131  1  0.32558000  0.09904000  0.43824000  1.0
  O  O132  1  0.44829000  0.82053000  0.61617000  1.0
  O  O133  1  0.61370000  0.11953000  0.31790000  1.0
  O  O134  1  0.00012000  0.50072000  0.99750000  1.0
  O  O135  1  0.17912000  0.38997000  0.05195000  1.0
  O  O136  1  0.88893000  0.55992000  0.87434000  1.0
  O  O137  1  0.89068000  0.37830000  0.17120000  1.0
