# generated using pymatgen
data_AlH8C17Br2O7
_symmetry_space_group_name_H-M   'P 1'
_cell_length_a   6.65007000
_cell_length_b   23.24150000
_cell_length_c   26.36630000
_cell_angle_alpha   78.08000000
_cell_angle_beta   89.99610000
_cell_angle_gamma   89.99810000
_symmetry_Int_Tables_number   1
_chemical_formula_structural   AlH8C17Br2O7
_chemical_formula_sum   'Al4 H32 C68 Br8 O28'
_cell_volume   3987.24022951
_cell_formula_units_Z   4
loop_
 _symmetry_equiv_pos_site_id
 _symmetry_equiv_pos_as_xyz
  1  'x, y, z'
loop_
 _atom_site_type_symbol
 _atom_site_label
 _atom_site_symmetry_multiplicity
 _atom_site_fract_x
 _atom_site_fract_y
 _atom_site_fract_z
 _atom_site_occupancy
  Al  Al0  1  0.81702000  0.24895000  0.24780000  1.0
  Al  Al1  1  0.18301000  0.75105000  0.75220000  1.0
  Al  Al2  1  0.31702000  0.25105000  0.25220000  1.0
  Al  Al3  1  0.68302000  0.74896000  0.74779000  1.0
  H  H4  1  0.27381000  0.60388000  0.56205000  1.0
  H  H5  1  0.72614000  0.39605000  0.43797000  1.0
  H  H6  1  0.77382000  0.89614000  0.93791000  1.0
  H  H7  1  0.22615000  0.10390000  0.06208000  1.0
  H  H8  1  0.65732000  0.55447000  0.59820000  1.0
  H  H9  1  0.34262000  0.44550000  0.40184000  1.0
  H  H10  1  0.15732000  0.94556000  0.90179000  1.0
  H  H11  1  0.84265000  0.05446000  0.09819000  1.0
  H  H12  1  0.65076000  0.62243000  0.66012000  1.0
  H  H13  1  0.34924000  0.37756000  0.33990000  1.0
  H  H14  1  0.15076000  0.87761000  0.83986000  1.0
  H  H15  1  0.84925000  0.12241000  0.16012000  1.0
  H  H16  1  0.91540000  0.39423000  0.52249000  1.0
  H  H17  1  0.08446000  0.60574000  0.47753000  1.0
  H  H18  1  0.41550000  0.10577000  0.97754000  1.0
  H  H19  1  0.58441000  0.89425000  0.02245000  1.0
  H  H20  1  0.19073000  0.54272000  0.06293000  1.0
  H  H21  1  0.80930000  0.45730000  0.93707000  1.0
  H  H22  1  0.69073000  0.95728000  0.43706000  1.0
  H  H23  1  0.30930000  0.04272000  0.56293000  1.0
  H  H24  1  0.40429000  0.67022000  0.60158000  1.0
  H  H25  1  0.59575000  0.32971000  0.39844000  1.0
  H  H26  1  0.90433000  0.82983000  0.89834000  1.0
  H  H27  1  0.09568000  0.17021000  0.10164000  1.0
  H  H28  1  0.66018000  0.59350000  0.01350000  1.0
  H  H29  1  0.33985000  0.40652000  0.98650000  1.0
  H  H30  1  0.16016000  0.90652000  0.48650000  1.0
  H  H31  1  0.83986000  0.09348000  0.51350000  1.0
  H  H32  1  0.57752000  0.32014000  0.26228000  1.0
  H  H33  1  0.42253000  0.67986000  0.73772000  1.0
  H  H34  1  0.07755000  0.17988000  0.23769000  1.0
  H  H35  1  0.92250000  0.82013000  0.76230000  1.0
  C  C36  1  0.57047000  0.17200000  0.32694000  1.0
  C  C37  1  0.42957000  0.82800000  0.67306000  1.0
  C  C38  1  0.07050000  0.32800000  0.17307000  1.0
  C  C39  1  0.92953000  0.67200000  0.82693000  1.0
  C  C40  1  0.55961000  0.18791000  0.18656000  1.0
  C  C41  1  0.44042000  0.81211000  0.81342000  1.0
  C  C42  1  0.05957000  0.31207000  0.31345000  1.0
  C  C43  1  0.94047000  0.68792000  0.68655000  1.0
  C  C44  1  0.13256000  0.64570000  0.61853000  1.0
  C  C45  1  0.86745000  0.35426000  0.38148000  1.0
  C  C46  1  0.63257000  0.85434000  0.88141000  1.0
  C  C47  1  0.36744000  0.14569000  0.11857000  1.0
  C  C48  1  0.13513000  0.60801000  0.58330000  1.0
  C  C49  1  0.86484000  0.39194000  0.41672000  1.0
  C  C50  1  0.63514000  0.89202000  0.91666000  1.0
  C  C51  1  0.36485000  0.10801000  0.08333000  1.0
  C  C52  1  0.96723000  0.57455000  0.57583000  1.0
  C  C53  1  0.03270000  0.42541000  0.42420000  1.0
  C  C54  1  0.46724000  0.92547000  0.92415000  1.0
  C  C55  1  0.53273000  0.07455000  0.07583000  1.0
  C  C56  1  0.78994000  0.58008000  0.60353000  1.0
  C  C57  1  0.21001000  0.41989000  0.39650000  1.0
  C  C58  1  0.28995000  0.91994000  0.89646000  1.0
  C  C59  1  0.71003000  0.08007000  0.10353000  1.0
  C  C60  1  0.78618000  0.61792000  0.63795000  1.0
  C  C61  1  0.21380000  0.38206000  0.36207000  1.0
  C  C62  1  0.28618000  0.88211000  0.86203000  1.0
  C  C63  1  0.71382000  0.11791000  0.13795000  1.0
  C  C64  1  0.95495000  0.65082000  0.64685000  1.0
  C  C65  1  0.04507000  0.34916000  0.35316000  1.0
  C  C66  1  0.45492000  0.84922000  0.85311000  1.0
  C  C67  1  0.54508000  0.15081000  0.14687000  1.0
  C  C68  1  0.93113000  0.47522000  0.54946000  1.0
  C  C69  1  0.06872000  0.52474000  0.45056000  1.0
  C  C70  1  0.43118000  0.02478000  0.95055000  1.0
  C  C71  1  0.56877000  0.97524000  0.04944000  1.0
  C  C72  1  0.95033000  0.44099000  0.51218000  1.0
  C  C73  1  0.04953000  0.55897000  0.48784000  1.0
  C  C74  1  0.45041000  0.05900000  0.98783000  1.0
  C  C75  1  0.54953000  0.94102000  0.01215000  1.0
  C  C76  1  0.01956000  0.46457000  0.46181000  1.0
  C  C77  1  0.98031000  0.53539000  0.53821000  1.0
  C  C78  1  0.51963000  0.03541000  0.03820000  1.0
  C  C79  1  0.48033000  0.96461000  0.96178000  1.0
  C  C80  1  0.10556000  0.52422000  0.03471000  1.0
  C  C81  1  0.89447000  0.47580000  0.96529000  1.0
  C  C82  1  0.60556000  0.97579000  0.46529000  1.0
  C  C83  1  0.39447000  0.02421000  0.53471000  1.0
  C  C84  1  0.89006000  0.54363000  0.01485000  1.0
  C  C85  1  0.10997000  0.45639000  0.98515000  1.0
  C  C86  1  0.39005000  0.95638000  0.48515000  1.0
  C  C87  1  0.60997000  0.04362000  0.51485000  1.0
  C  C88  1  0.92445000  0.62682000  0.87366000  1.0
  C  C89  1  0.07557000  0.37318000  0.12634000  1.0
  C  C90  1  0.42448000  0.87319000  0.62634000  1.0
  C  C91  1  0.57555000  0.12682000  0.37366000  1.0
  C  C92  1  0.17382000  0.52328000  0.97837000  1.0
  C  C93  1  0.82621000  0.47674000  0.02163000  1.0
  C  C94  1  0.67381000  0.97672000  0.52162000  1.0
  C  C95  1  0.32622000  0.02327000  0.47837000  1.0
  C  C96  1  0.95782000  0.54273000  0.95640000  1.0
  C  C97  1  0.04221000  0.45728000  0.04360000  1.0
  C  C98  1  0.45780000  0.95728000  0.54360000  1.0
  C  C99  1  0.54222000  0.04272000  0.45640000  1.0
  C  C100  1  0.92582000  0.58704000  0.91185000  1.0
  C  C101  1  0.07420000  0.41297000  0.08815000  1.0
  C  C102  1  0.42581000  0.91297000  0.58815000  1.0
  C  C103  1  0.57421000  0.08703000  0.41185000  1.0
  Br  Br104  1  0.84928000  0.43603000  0.61708000  1.0
  Br  Br105  1  0.15060000  0.56394000  0.38294000  1.0
  Br  Br106  1  0.34932000  0.06401000  0.88294000  1.0
  Br  Br107  1  0.65063000  0.93603000  0.11705000  1.0
  Br  Br108  1  0.58981000  0.44071000  0.05584000  1.0
  Br  Br109  1  0.41020000  0.55932000  0.94417000  1.0
  Br  Br110  1  0.08984000  0.05932000  0.44417000  1.0
  Br  Br111  1  0.91018000  0.94068000  0.55583000  1.0
  O  O112  1  0.39644000  0.20207000  0.20570000  1.0
  O  O113  1  0.60360000  0.79794000  0.79428000  1.0
  O  O114  1  0.89639000  0.29791000  0.29432000  1.0
  O  O115  1  0.10365000  0.70209000  0.70568000  1.0
  O  O116  1  0.73919000  0.18737000  0.30571000  1.0
  O  O117  1  0.26085000  0.81263000  0.69428000  1.0
  O  O118  1  0.23923000  0.31262000  0.19427000  1.0
  O  O119  1  0.76080000  0.68739000  0.80573000  1.0
  O  O120  1  0.73537000  0.20157000  0.19963000  1.0
  O  O121  1  0.26467000  0.79843000  0.80037000  1.0
  O  O122  1  0.23533000  0.29843000  0.30037000  1.0
  O  O123  1  0.76471000  0.70157000  0.69964000  1.0
  O  O124  1  0.89692000  0.30904000  0.18860000  1.0
  O  O125  1  0.10312000  0.69095000  0.81140000  1.0
  O  O126  1  0.39689000  0.19097000  0.31142000  1.0
  O  O127  1  0.60315000  0.80903000  0.68858000  1.0
  O  O128  1  0.56858000  0.28533000  0.24752000  1.0
  O  O129  1  0.43146000  0.71467000  0.75248000  1.0
  O  O130  1  0.06858000  0.21467000  0.25248000  1.0
  O  O131  1  0.93146000  0.78533000  0.74751000  1.0
  O  O132  1  0.29885000  0.67752000  0.62523000  1.0
  O  O133  1  0.70119000  0.32244000  0.37478000  1.0
  O  O134  1  0.79891000  0.82255000  0.87468000  1.0
  O  O135  1  0.20113000  0.17749000  0.12530000  1.0
  O  O136  1  0.79071000  0.58792000  0.03121000  1.0
  O  O137  1  0.20932000  0.41209000  0.96880000  1.0
  O  O138  1  0.29070000  0.91209000  0.46880000  1.0
  O  O139  1  0.70932000  0.08791000  0.53119000  1.0
