# generated using pymatgen
data_HgH14C14I2(N2O)2
_symmetry_space_group_name_H-M   'P 1'
_cell_length_a   5.09567000
_cell_length_b   8.62500000
_cell_length_c   20.96590000
_cell_angle_alpha   99.32320000
_cell_angle_beta   90.00000000
_cell_angle_gamma   90.00000000
_symmetry_Int_Tables_number   1
_chemical_formula_structural   HgH14C14I2(N2O)2
_chemical_formula_sum   'Hg2 H28 C28 I4 N8 O4'
_cell_volume   909.28229799
_cell_formula_units_Z   2
loop_
 _symmetry_equiv_pos_site_id
 _symmetry_equiv_pos_as_xyz
  1  'x, y, z'
loop_
 _atom_site_type_symbol
 _atom_site_label
 _atom_site_symmetry_multiplicity
 _atom_site_fract_x
 _atom_site_fract_y
 _atom_site_fract_z
 _atom_site_occupancy
  Hg  Hg0  1  0.01423000  0.75000000  0.75000000  1.0
  Hg  Hg1  1  0.98577000  0.25000000  0.25000000  1.0
  H  H2  1  0.35883000  0.13033000  0.51955000  1.0
  H  H3  1  0.35883000  0.36967000  0.98045000  1.0
  H  H4  1  0.64117000  0.86967000  0.48045000  1.0
  H  H5  1  0.64117000  0.63033000  0.01955000  1.0
  H  H6  1  0.65780000  0.78184000  0.62420000  1.0
  H  H7  1  0.65780000  0.71816000  0.87580000  1.0
  H  H8  1  0.34220000  0.21816000  0.37580000  1.0
  H  H9  1  0.34220000  0.28184000  0.12420000  1.0
  H  H10  1  0.33435000  0.64564000  0.54583000  1.0
  H  H11  1  0.33435000  0.85437000  0.95417000  1.0
  H  H12  1  0.66565000  0.35436000  0.45417000  1.0
  H  H13  1  0.66565000  0.14564000  0.04583000  1.0
  H  H14  1  0.41677000  0.23784000  0.64111000  1.0
  H  H15  1  0.41677000  0.26216000  0.85889000  1.0
  H  H16  1  0.58323000  0.76216000  0.35889000  1.0
  H  H17  1  0.58323000  0.73784000  0.14111000  1.0
  H  H18  1  0.73215000  0.39472000  0.71667000  1.0
  H  H19  1  0.73215000  0.10528000  0.78333000  1.0
  H  H20  1  0.26785000  0.60528000  0.28333000  1.0
  H  H21  1  0.26785000  0.89471000  0.21667000  1.0
  H  H22  1  0.94749000  0.37112000  0.56187000  1.0
  H  H23  1  0.94749000  0.12888000  0.93813000  1.0
  H  H24  1  0.05251000  0.62888000  0.43813000  1.0
  H  H25  1  0.05251000  0.87112000  0.06187000  1.0
  H  H26  1  0.14989000  0.39986000  0.49620000  1.0
  H  H27  1  0.14989000  0.10014000  0.00380000  1.0
  H  H28  1  0.85011000  0.60014000  0.50380000  1.0
  H  H29  1  0.85011000  0.89986000  0.99620000  1.0
  C  C30  1  0.59728000  0.66134000  0.62633000  1.0
  C  C31  1  0.59728000  0.83866000  0.87367000  1.0
  C  C32  1  0.40272000  0.33866000  0.37367000  1.0
  C  C33  1  0.40272000  0.16134000  0.12633000  1.0
  C  C34  1  0.41712000  0.58371000  0.58259000  1.0
  C  C35  1  0.41712000  0.91629000  0.91741000  1.0
  C  C36  1  0.58288000  0.41629000  0.41741000  1.0
  C  C37  1  0.58288000  0.08371000  0.08259000  1.0
  C  C38  1  0.34663000  0.42893000  0.58688000  1.0
  C  C39  1  0.34663000  0.07107000  0.91313000  1.0
  C  C40  1  0.65337000  0.57107000  0.41312000  1.0
  C  C41  1  0.65337000  0.92893000  0.08687000  1.0
  C  C42  1  0.46216000  0.35847000  0.63551000  1.0
  C  C43  1  0.46216000  0.14154000  0.86449000  1.0
  C  C44  1  0.53784000  0.64153000  0.36449000  1.0
  C  C45  1  0.53784000  0.85846000  0.13551000  1.0
  C  C46  1  0.63913000  0.44482000  0.67769000  1.0
  C  C47  1  0.63913000  0.05518000  0.82231000  1.0
  C  C48  1  0.36087000  0.55518000  0.32231000  1.0
  C  C49  1  0.36087000  0.94482000  0.17769000  1.0
  C  C50  1  0.14476000  0.34806000  0.54085000  1.0
  C  C51  1  0.14476000  0.15195000  0.95916000  1.0
  C  C52  1  0.85524000  0.65195000  0.45916000  1.0
  C  C53  1  0.85524000  0.84806000  0.04084000  1.0
  C  C54  1  0.96521000  0.08717000  0.50949000  1.0
  C  C55  1  0.96521000  0.41283000  0.99051000  1.0
  C  C56  1  0.03479000  0.91283000  0.49051000  1.0
  C  C57  1  0.03479000  0.58717000  0.00949000  1.0
  I  I58  1  0.12363000  0.98236000  0.68126000  1.0
  I  I59  1  0.12363000  0.51764000  0.81874000  1.0
  I  I60  1  0.87637000  0.01764000  0.31874000  1.0
  I  I61  1  0.87637000  0.48236000  0.18126000  1.0
  N  N62  1  0.70665000  0.59311000  0.67297000  1.0
  N  N63  1  0.70664000  0.90689000  0.82703000  1.0
  N  N64  1  0.29336000  0.40689000  0.32703000  1.0
  N  N65  1  0.29335000  0.09311000  0.17297000  1.0
  N  N66  1  0.17471000  0.17929000  0.52525000  1.0
  N  N67  1  0.17471000  0.32071000  0.97475000  1.0
  N  N68  1  0.82529000  0.82071000  0.47475000  1.0
  N  N69  1  0.82529000  0.67929000  0.02525000  1.0
  O  O70  1  0.73435000  0.13491000  0.50997000  1.0
  O  O71  1  0.73435000  0.36509000  0.99003000  1.0
  O  O72  1  0.26565000  0.86509000  0.49003000  1.0
  O  O73  1  0.26565000  0.63491000  0.00997000  1.0
