# generated using pymatgen
data_AlH15(C11O6)3
_symmetry_space_group_name_H-M   'P 1'
_cell_length_a   4.22187000
_cell_length_b   16.13770000
_cell_length_c   16.13870000
_cell_angle_alpha   119.69500000
_cell_angle_beta   89.68190000
_cell_angle_gamma   89.67890000
_symmetry_Int_Tables_number   1
_chemical_formula_structural   AlH15(C11O6)3
_chemical_formula_sum   'Al1 H15 C33 O18'
_cell_volume   955.09255404
_cell_formula_units_Z   1
loop_
 _symmetry_equiv_pos_site_id
 _symmetry_equiv_pos_as_xyz
  1  'x, y, z'
loop_
 _atom_site_type_symbol
 _atom_site_label
 _atom_site_symmetry_multiplicity
 _atom_site_fract_x
 _atom_site_fract_y
 _atom_site_fract_z
 _atom_site_occupancy
  Al  Al0  1  0.99998000  0.49825000  0.50182000  1.0
  H  H1  1  0.49983000  0.07924000  0.92082000  1.0
  H  H2  1  0.44421000  0.34449000  0.91899000  1.0
  H  H3  1  0.55580000  0.08115000  0.65563000  1.0
  H  H4  1  0.68733000  0.94497000  0.84870000  1.0
  H  H5  1  0.38331000  0.94488000  0.59309000  1.0
  H  H6  1  0.31278000  0.15133000  0.05516000  1.0
  H  H7  1  0.61659000  0.40696000  0.05523000  1.0
  H  H8  1  0.73536000  0.39591000  0.83893000  1.0
  H  H9  1  0.26466000  0.16122000  0.60427000  1.0
  H  H10  1  0.06536000  0.68099000  0.48499000  1.0
  H  H11  1  0.02897000  0.68353000  0.68942000  1.0
  H  H12  1  0.97125000  0.31064000  0.31659000  1.0
  H  H13  1  0.93461000  0.51512000  0.31910000  1.0
  H  H14  1  0.34919000  0.57149000  0.80446000  1.0
  H  H15  1  0.65070000  0.19563000  0.42872000  1.0
  C  C16  1  0.47939000  0.42502000  0.34981000  1.0
  C  C17  1  0.50000000  0.42632000  0.57379000  1.0
  C  C18  1  0.52059000  0.65027000  0.57507000  1.0
  C  C19  1  0.48145000  0.21815000  0.93277000  1.0
  C  C20  1  0.49989000  0.11827000  0.88183000  1.0
  C  C21  1  0.51838000  0.06736000  0.78194000  1.0
  C  C22  1  0.52419000  0.11874000  0.73285000  1.0
  C  C23  1  0.50002000  0.21852000  0.78161000  1.0
  C  C24  1  0.47582000  0.26727000  0.88140000  1.0
  C  C25  1  0.61999000  0.80977000  0.72620000  1.0
  C  C26  1  0.61631000  0.90951000  0.77422000  1.0
  C  C27  1  0.52942000  0.96171000  0.72966000  1.0
  C  C28  1  0.45008000  0.90959000  0.63311000  1.0
  C  C29  1  0.44988000  0.81007000  0.58325000  1.0
  C  C30  1  0.53050000  0.75808000  0.62944000  1.0
  C  C31  1  0.38367000  0.22583000  0.09059000  1.0
  C  C32  1  0.38003000  0.27386000  0.19033000  1.0
  C  C33  1  0.46948000  0.37062000  0.24203000  1.0
  C  C34  1  0.55009000  0.41682000  0.19004000  1.0
  C  C35  1  0.54978000  0.36695000  0.09052000  1.0
  C  C36  1  0.47044000  0.27040000  0.03839000  1.0
  C  C37  1  0.62830000  0.36300000  0.76852000  1.0
  C  C38  1  0.62463000  0.41390000  0.71964000  1.0
  C  C39  1  0.49993000  0.37322000  0.62694000  1.0
  C  C40  1  0.37528000  0.28052000  0.58629000  1.0
  C  C41  1  0.37167000  0.23163000  0.63718000  1.0
  C  C42  1  0.50002000  0.27145000  0.72873000  1.0
  C  C43  1  0.38608000  0.76481000  0.47827000  1.0
  C  C44  1  0.71735000  0.76727000  0.78709000  1.0
  C  C45  1  0.28280000  0.21296000  0.23284000  1.0
  C  C46  1  0.61384000  0.52181000  0.23527000  1.0
  C  C47  1  0.76436000  0.51202000  0.77287000  1.0
  C  C48  1  0.23557000  0.22726000  0.48818000  1.0
  O  O49  1  0.28055000  0.60953000  0.58693000  1.0
  O  O50  1  0.24470000  0.48061000  0.39387000  1.0
  O  O51  1  0.26743000  0.41410000  0.51815000  1.0
  O  O52  1  0.75531000  0.60622000  0.51949000  1.0
  O  O53  1  0.73262000  0.48192000  0.58597000  1.0
  O  O54  1  0.71942000  0.41316000  0.39056000  1.0
  O  O55  1  0.20371000  0.68610000  0.43859000  1.0
  O  O56  1  0.50352000  0.79638000  0.43098000  1.0
  O  O57  1  0.92880000  0.69421000  0.74931000  1.0
  O  O58  1  0.61394000  0.79938000  0.86760000  1.0
  O  O59  1  0.07143000  0.25075000  0.30592000  1.0
  O  O60  1  0.38617000  0.13245000  0.20073000  1.0
  O  O61  1  0.79627000  0.56151000  0.31396000  1.0
  O  O62  1  0.49646000  0.56907000  0.20366000  1.0
  O  O63  1  0.58483000  0.58815000  0.81087000  1.0
  O  O64  1  0.05452000  0.51534000  0.78346000  1.0
  O  O65  1  0.41509000  0.18920000  0.41205000  1.0
  O  O66  1  0.94541000  0.21666000  0.48488000  1.0
