# generated using pymatgen
data_BiH8C10NO10
_symmetry_space_group_name_H-M   'P 1'
_cell_length_a   5.03946000
_cell_length_b   9.97236000
_cell_length_c   15.19989109
_cell_angle_alpha   89.99979633
_cell_angle_beta   98.40341960
_cell_angle_gamma   89.99940000
_symmetry_Int_Tables_number   1
_chemical_formula_structural   BiH8C10NO10
_chemical_formula_sum   'Bi2 H16 C20 N2 O20'
_cell_volume   755.67396813
_cell_formula_units_Z   2
loop_
 _symmetry_equiv_pos_site_id
 _symmetry_equiv_pos_as_xyz
  1  'x, y, z'
loop_
 _atom_site_type_symbol
 _atom_site_label
 _atom_site_symmetry_multiplicity
 _atom_site_fract_x
 _atom_site_fract_y
 _atom_site_fract_z
 _atom_site_occupancy
  Bi  Bi0  1  0.39176000  0.13853000  0.02374000  1.0
  Bi  Bi1  1  0.39172000  0.86146000  0.52374000  1.0
  H  H2  1  0.39663000  0.65185000  0.99313000  1.0
  H  H3  1  0.39663000  0.34816000  0.49313000  1.0
  H  H4  1  0.83494000  0.86426000  0.80199000  1.0
  H  H5  1  0.83493000  0.13574000  0.30199000  1.0
  H  H6  1  0.78667000  0.43454000  0.82151000  1.0
  H  H7  1  0.78666000  0.56547000  0.32151000  1.0
  H  H8  1  0.43822000  0.54305000  0.62412000  1.0
  H  H9  1  0.43822000  0.45695000  0.12412000  1.0
  H  H10  1  0.77885000  0.22852000  0.90437000  1.0
  H  H11  1  0.77882000  0.77148000  0.40437000  1.0
  H  H12  1  0.60808000  0.20516000  0.75824000  1.0
  H  H13  1  0.60807000  0.79485000  0.25824000  1.0
  H  H14  1  0.28700000  0.16645000  0.78915000  1.0
  H  H15  1  0.28699000  0.83355000  0.28915000  1.0
  H  H16  1  0.55099000  0.04439000  0.80398000  1.0
  H  H17  1  0.55097000  0.95561000  0.30398000  1.0
  C  C18  1  0.09556000  0.52985000  0.91421000  1.0
  C  C19  1  0.09557000  0.47015000  0.41422000  1.0
  C  C20  1  0.22397000  0.65088000  0.94087000  1.0
  C  C21  1  0.22397000  0.34912000  0.44087000  1.0
  C  C22  1  0.12937000  0.77127000  0.90117000  1.0
  C  C23  1  0.12935000  0.22873000  0.40117000  1.0
  C  C24  1  0.90966000  0.77084000  0.83341000  1.0
  C  C25  1  0.90964000  0.22917000  0.33341000  1.0
  C  C26  1  0.79088000  0.64920000  0.80332000  1.0
  C  C27  1  0.79086000  0.35080000  0.30332000  1.0
  C  C28  1  0.88145000  0.52874000  0.84440000  1.0
  C  C29  1  0.88143000  0.47127000  0.34440000  1.0
  C  C30  1  0.19542000  0.40355000  0.95912000  1.0
  C  C31  1  0.19539000  0.59645000  0.45911000  1.0
  C  C32  1  0.25802000  0.89956000  0.93440000  1.0
  C  C33  1  0.25801000  0.10044000  0.43441000  1.0
  C  C34  1  0.58195000  0.65099000  0.72346000  1.0
  C  C35  1  0.58195000  0.34902000  0.22345000  1.0
  C  C36  1  0.50355000  0.15159000  0.80605000  1.0
  C  C37  1  0.50354000  0.84842000  0.30605000  1.0
  N  N38  1  0.97351000  0.02489000  0.12329000  1.0
  N  N39  1  0.97347000  0.97511000  0.62329000  1.0
  O  O40  1  0.08533000  0.29091000  0.93377000  1.0
  O  O41  1  0.08532000  0.70908000  0.43377000  1.0
  O  O42  1  0.39520000  0.40650000  0.02089000  1.0
  O  O43  1  0.39519000  0.59350000  0.52088000  1.0
  O  O44  1  0.49385000  0.90179000  0.97678000  1.0
  O  O45  1  0.49384000  0.09820000  0.47679000  1.0
  O  O46  1  0.11561000  0.00782000  0.92205000  1.0
  O  O47  1  0.11558000  0.99219000  0.42205000  1.0
  O  O48  1  0.47535000  0.75603000  0.69262000  1.0
  O  O49  1  0.47535000  0.24397000  0.19262000  1.0
  O  O50  1  0.53155000  0.53018000  0.68688000  1.0
  O  O51  1  0.53153000  0.46982000  0.18688000  1.0
  O  O52  1  0.58421000  0.20575000  0.89413000  1.0
  O  O53  1  0.58419000  0.79425000  0.39413000  1.0
  O  O54  1  0.93956000  0.13590000  0.07621000  1.0
  O  O55  1  0.93952000  0.86409000  0.57621000  1.0
  O  O56  1  0.78817000  0.98179000  0.15998000  1.0
  O  O57  1  0.78813000  0.01820000  0.65998000  1.0
  O  O58  1  0.19903000  0.96784000  0.12740000  1.0
  O  O59  1  0.19898000  0.03215000  0.62740000  1.0
