# generated using pymatgen
data_ZnH14C10(NO2)2
_symmetry_space_group_name_H-M   'P 1'
_cell_length_a   7.30483000
_cell_length_b   9.81041000
_cell_length_c   16.65250000
_cell_angle_alpha   89.99990000
_cell_angle_beta   89.99980000
_cell_angle_gamma   87.61970000
_symmetry_Int_Tables_number   1
_chemical_formula_structural   ZnH14C10(NO2)2
_chemical_formula_sum   'Zn4 H56 C40 N8 O16'
_cell_volume   1192.34470990
_cell_formula_units_Z   4
loop_
 _symmetry_equiv_pos_site_id
 _symmetry_equiv_pos_as_xyz
  1  'x, y, z'
loop_
 _atom_site_type_symbol
 _atom_site_label
 _atom_site_symmetry_multiplicity
 _atom_site_fract_x
 _atom_site_fract_y
 _atom_site_fract_z
 _atom_site_occupancy
  Zn  Zn0  1  0.24224000  0.55217000  0.44518000  1.0
  Zn  Zn1  1  0.25776000  0.44783000  0.94517000  1.0
  Zn  Zn2  1  0.75776000  0.44783000  0.55483000  1.0
  Zn  Zn3  1  0.74224000  0.55217000  0.05483000  1.0
  H  H4  1  0.47025000  0.49456000  0.25182000  1.0
  H  H5  1  0.02976000  0.50545000  0.75182000  1.0
  H  H6  1  0.52975000  0.50544000  0.74818000  1.0
  H  H7  1  0.97024000  0.49455000  0.24818000  1.0
  H  H8  1  0.54207000  0.86984000  0.12334000  1.0
  H  H9  1  0.95793000  0.13017000  0.62334000  1.0
  H  H10  1  0.45792000  0.13016000  0.87666000  1.0
  H  H11  1  0.04208000  0.86983000  0.37666000  1.0
  H  H12  1  0.52711000  0.86823000  0.38343000  1.0
  H  H13  1  0.97289000  0.13177000  0.88343000  1.0
  H  H14  1  0.47290000  0.13177000  0.61657000  1.0
  H  H15  1  0.02710000  0.86823000  0.11657000  1.0
  H  H16  1  0.23400000  0.72567000  0.69887000  1.0
  H  H17  1  0.26600000  0.27434000  0.19886000  1.0
  H  H18  1  0.76600000  0.27434000  0.30113000  1.0
  H  H19  1  0.73399000  0.72566000  0.80114000  1.0
  H  H20  1  0.12088000  0.87562000  0.65845000  1.0
  H  H21  1  0.37911000  0.12438000  0.15845000  1.0
  H  H22  1  0.87911000  0.12438000  0.34155000  1.0
  H  H23  1  0.62089000  0.87562000  0.84155000  1.0
  H  H24  1  0.36116000  0.86036000  0.65841000  1.0
  H  H25  1  0.13884000  0.13964000  0.15840000  1.0
  H  H26  1  0.63884000  0.13964000  0.34160000  1.0
  H  H27  1  0.86116000  0.86036000  0.84160000  1.0
  H  H28  1  0.55479000  0.99451000  0.25393000  1.0
  H  H29  1  0.94522000  0.00549000  0.75393000  1.0
  H  H30  1  0.44521000  0.00549000  0.74607000  1.0
  H  H31  1  0.05479000  0.99451000  0.24607000  1.0
  H  H32  1  0.26521000  0.09125000  0.47858000  1.0
  H  H33  1  0.23479000  0.90875000  0.97858000  1.0
  H  H34  1  0.73478000  0.90875000  0.52142000  1.0
  H  H35  1  0.76521000  0.09125000  0.02142000  1.0
  H  H36  1  0.38647000  0.08452000  0.38544000  1.0
  H  H37  1  0.11353000  0.91548000  0.88544000  1.0
  H  H38  1  0.61352000  0.91548000  0.61457000  1.0
  H  H39  1  0.88647000  0.08452000  0.11457000  1.0
  H  H40  1  0.14618000  0.08559000  0.38548000  1.0
  H  H41  1  0.35381000  0.91441000  0.88548000  1.0
  H  H42  1  0.85381000  0.91442000  0.61452000  1.0
  H  H43  1  0.64618000  0.08559000  0.11452000  1.0
  H  H44  1  0.42361000  0.66033000  0.06233000  1.0
  H  H45  1  0.07639000  0.33967000  0.56233000  1.0
  H  H46  1  0.57639000  0.33966000  0.93767000  1.0
  H  H47  1  0.92361000  0.66033000  0.43767000  1.0
  H  H48  1  0.42637000  0.51510000  0.11083000  1.0
  H  H49  1  0.07363000  0.48490000  0.61083000  1.0
  H  H50  1  0.57363000  0.48489000  0.88917000  1.0
  H  H51  1  0.92638000  0.51510000  0.38917000  1.0
  H  H52  1  0.55572000  0.65180000  0.44373000  1.0
  H  H53  1  0.94428000  0.34821000  0.94373000  1.0
  H  H54  1  0.44428000  0.34821000  0.55627000  1.0
  H  H55  1  0.05572000  0.65180000  0.05627000  1.0
  H  H56  1  0.56401000  0.50842000  0.39418000  1.0
  H  H57  1  0.93599000  0.49158000  0.89418000  1.0
  H  H58  1  0.43599000  0.49158000  0.60582000  1.0
  H  H59  1  0.06401000  0.50841000  0.10582000  1.0
  C  C60  1  0.48820000  0.60436000  0.25208000  1.0
  C  C61  1  0.01180000  0.39564000  0.75207000  1.0
  C  C62  1  0.51180000  0.39563000  0.74792000  1.0
  C  C63  1  0.98820000  0.60436000  0.24793000  1.0
  C  C64  1  0.50189000  0.67630000  0.18027000  1.0
  C  C65  1  0.99812000  0.32370000  0.68027000  1.0
  C  C66  1  0.49811000  0.32370000  0.81973000  1.0
  C  C67  1  0.00189000  0.67630000  0.31974000  1.0
  C  C68  1  0.23574000  0.74311000  0.56761000  1.0
  C  C69  1  0.26425000  0.25690000  0.06760000  1.0
  C  C70  1  0.76426000  0.25690000  0.43240000  1.0
  C  C71  1  0.73575000  0.74310000  0.93240000  1.0
  C  C72  1  0.52659000  0.81677000  0.18032000  1.0
  C  C73  1  0.97341000  0.18323000  0.68032000  1.0
  C  C74  1  0.47341000  0.18323000  0.81968000  1.0
  C  C75  1  0.02660000  0.81677000  0.31969000  1.0
  C  C76  1  0.52085000  0.81525000  0.32596000  1.0
  C  C77  1  0.97915000  0.18475000  0.82596000  1.0
  C  C78  1  0.47915000  0.18475000  0.67404000  1.0
  C  C79  1  0.02085000  0.81525000  0.17405000  1.0
  C  C80  1  0.49912000  0.67454000  0.32471000  1.0
  C  C81  1  0.00088000  0.32546000  0.82471000  1.0
  C  C82  1  0.50088000  0.32546000  0.67529000  1.0
  C  C83  1  0.99912000  0.67454000  0.17530000  1.0
  C  C84  1  0.23708000  0.80235000  0.65129000  1.0
  C  C85  1  0.26292000  0.19766000  0.15129000  1.0
  C  C86  1  0.76292000  0.19765000  0.34871000  1.0
  C  C87  1  0.73708000  0.80234000  0.84871000  1.0
  C  C88  1  0.53492000  0.88506000  0.25344000  1.0
  C  C89  1  0.96508000  0.11494000  0.75344000  1.0
  C  C90  1  0.46509000  0.11494000  0.74655000  1.0
  C  C91  1  0.03492000  0.88505000  0.24656000  1.0
  C  C92  1  0.26434000  0.12681000  0.41632000  1.0
  C  C93  1  0.23566000  0.87319000  0.91632000  1.0
  C  C94  1  0.73566000  0.87319000  0.58368000  1.0
  C  C95  1  0.76434000  0.12681000  0.08368000  1.0
  C  C96  1  0.25682000  0.28021000  0.40845000  1.0
  C  C97  1  0.24318000  0.71978000  0.90845000  1.0
  C  C98  1  0.74318000  0.71978000  0.59155000  1.0
  C  C99  1  0.75681000  0.28022000  0.09155000  1.0
  N  N100  1  0.48982000  0.60012000  0.39888000  1.0
  N  N101  1  0.01019000  0.39988000  0.89888000  1.0
  N  N102  1  0.51018000  0.39988000  0.60112000  1.0
  N  N103  1  0.98981000  0.60012000  0.10112000  1.0
  N  N104  1  0.49552000  0.60431000  0.10530000  1.0
  N  N105  1  0.00448000  0.39569000  0.60530000  1.0
  N  N106  1  0.50448000  0.39569000  0.89470000  1.0
  N  N107  1  0.99553000  0.60431000  0.39470000  1.0
  O  O108  1  0.24198000  0.60896000  0.56277000  1.0
  O  O109  1  0.25802000  0.39105000  0.06277000  1.0
  O  O110  1  0.75802000  0.39105000  0.43723000  1.0
  O  O111  1  0.74198000  0.60895000  0.93723000  1.0
  O  O112  1  0.25435000  0.35023000  0.47584000  1.0
  O  O113  1  0.24565000  0.64977000  0.97584000  1.0
  O  O114  1  0.74565000  0.64977000  0.52416000  1.0
  O  O115  1  0.75435000  0.35023000  0.02416000  1.0
  O  O116  1  0.23069000  0.81679000  0.50670000  1.0
  O  O117  1  0.26930000  0.18322000  0.00670000  1.0
  O  O118  1  0.76931000  0.18321000  0.49330000  1.0
  O  O119  1  0.73069000  0.81678000  0.99330000  1.0
  O  O120  1  0.25311000  0.33805000  0.34174000  1.0
  O  O121  1  0.24690000  0.66195000  0.84174000  1.0
  O  O122  1  0.74689000  0.66196000  0.65826000  1.0
  O  O123  1  0.75309000  0.33805000  0.15826000  1.0
