# generated using pymatgen
data_Dy2Cu3P6H24C30(NO3)6
_symmetry_space_group_name_H-M   'P 1'
_cell_length_a   10.13610000
_cell_length_b   11.31620000
_cell_length_c   11.31650000
_cell_angle_alpha   111.48600000
_cell_angle_beta   107.37400000
_cell_angle_gamma   107.36900000
_symmetry_Int_Tables_number   1
_chemical_formula_structural   Dy2Cu3P6H24C30(NO3)6
_chemical_formula_sum   'Dy2 Cu3 P6 H24 C30 N6 O18'
_cell_volume   1023.92791119
_cell_formula_units_Z   1
loop_
 _symmetry_equiv_pos_site_id
 _symmetry_equiv_pos_as_xyz
  1  'x, y, z'
loop_
 _atom_site_type_symbol
 _atom_site_label
 _atom_site_symmetry_multiplicity
 _atom_site_fract_x
 _atom_site_fract_y
 _atom_site_fract_z
 _atom_site_occupancy
  Dy  Dy0  1  0.99999000  0.00000000  0.00000000  1.0
  Dy  Dy1  1  0.50000000  0.00000000  0.00000000  1.0
  Cu  Cu2  1  0.00000000  0.00000000  0.50000000  1.0
  Cu  Cu3  1  0.00000000  0.50000000  0.00000000  1.0
  Cu  Cu4  1  0.49999000  0.49999000  0.50000000  1.0
  P  P5  1  0.15827000  0.98542000  0.75303000  1.0
  P  P6  1  0.17280000  0.76759000  0.01450000  1.0
  P  P7  1  0.40517000  0.24690000  0.23235000  1.0
  P  P8  1  0.84173000  0.01458000  0.24698000  1.0
  P  P9  1  0.82720000  0.23241000  0.98550000  1.0
  P  P10  1  0.59482000  0.75309000  0.76764000  1.0
  H  H11  1  0.02118000  0.68433000  0.70914000  1.0
  H  H12  1  0.33684000  0.02483000  0.31558000  1.0
  H  H13  1  0.31190000  0.29078000  0.97514000  1.0
  H  H14  1  0.97882000  0.31567000  0.29086000  1.0
  H  H15  1  0.66317000  0.97518000  0.68443000  1.0
  H  H16  1  0.68810000  0.70922000  0.02485000  1.0
  H  H17  1  0.78316000  0.69522000  0.26721000  1.0
  H  H18  1  0.08795000  0.57201000  0.30472000  1.0
  H  H19  1  0.51592000  0.73267000  0.42799000  1.0
  H  H20  1  0.21684000  0.30478000  0.73279000  1.0
  H  H21  1  0.91205000  0.42799000  0.69527000  1.0
  H  H22  1  0.48407000  0.26732000  0.57201000  1.0
  H  H23  1  0.71501000  0.45390000  0.25425000  1.0
  H  H24  1  0.26110000  0.80034000  0.54596000  1.0
  H  H25  1  0.46087000  0.74569000  0.19975000  1.0
  H  H26  1  0.28498000  0.54610000  0.74576000  1.0
  H  H27  1  0.73890000  0.19966000  0.45404000  1.0
  H  H28  1  0.53913000  0.25431000  0.80026000  1.0
  H  H29  1  0.82574000  0.45078000  0.48052000  1.0
  H  H30  1  0.37492000  0.02970000  0.54912000  1.0
  H  H31  1  0.34526000  0.51950000  0.97031000  1.0
  H  H32  1  0.17426000  0.54922000  0.51948000  1.0
  H  H33  1  0.62509000  0.97030000  0.45089000  1.0
  H  H34  1  0.65474000  0.48051000  0.02969000  1.0
  C  C35  1  0.96694000  0.68084000  0.60822000  1.0
  C  C36  1  0.28611000  0.92738000  0.31906000  1.0
  C  C37  1  0.35860000  0.39170000  0.07260000  1.0
  C  C38  1  0.03307000  0.31915000  0.39178000  1.0
  C  C39  1  0.71390000  0.07263000  0.68095000  1.0
  C  C40  1  0.64140000  0.60830000  0.92740000  1.0
  C  C41  1  0.00587000  0.80825000  0.60459000  1.0
  C  C42  1  0.19765000  0.79632000  0.19165000  1.0
  C  C43  1  0.40119000  0.39530000  0.20362000  1.0
  C  C44  1  0.99413000  0.19174000  0.39542000  1.0
  C  C45  1  0.80236000  0.20368000  0.80835000  1.0
  C  C46  1  0.59880000  0.60470000  0.79637000  1.0
  C  C47  1  0.83293000  0.68441000  0.35993000  1.0
  C  C48  1  0.14856000  0.67551000  0.31548000  1.0
  C  C49  1  0.47307000  0.63997000  0.32450000  1.0
  C  C50  1  0.16707000  0.31559000  0.64008000  1.0
  C  C51  1  0.85144000  0.32450000  0.68451000  1.0
  C  C52  1  0.52693000  0.36002000  0.67550000  1.0
  C  C53  1  0.79479000  0.55348000  0.35498000  1.0
  C  C54  1  0.24133000  0.80149000  0.44641000  1.0
  C  C55  1  0.43994000  0.64496000  0.19855000  1.0
  C  C56  1  0.20520000  0.44653000  0.64502000  1.0
  C  C57  1  0.75867000  0.19851000  0.55359000  1.0
  C  C58  1  0.56007000  0.35504000  0.80145000  1.0
  C  C59  1  0.85957000  0.55228000  0.48190000  1.0
  C  C60  1  0.30729000  0.92962000  0.44760000  1.0
  C  C61  1  0.37769000  0.51804000  0.07039000  1.0
  C  C62  1  0.14043000  0.44772000  0.51810000  1.0
  C  C63  1  0.69271000  0.07038000  0.55240000  1.0
  C  C64  1  0.62231000  0.48196000  0.92961000  1.0
  N  N65  1  0.93550000  0.80816000  0.48248000  1.0
  N  N66  1  0.12739000  0.67430000  0.19175000  1.0
  N  N67  1  0.45302000  0.51741000  0.32568000  1.0
  N  N68  1  0.06449000  0.19184000  0.51752000  1.0
  N  N69  1  0.87261000  0.32571000  0.80825000  1.0
  N  N70  1  0.54697000  0.48258000  0.67431000  1.0
  O  O71  1  0.18235000  0.07333000  0.67668000  1.0
  O  O72  1  0.10901000  0.60333000  0.92659000  1.0
  O  O73  1  0.50562000  0.32325000  0.39660000  1.0
  O  O74  1  0.81764000  0.92666000  0.32332000  1.0
  O  O75  1  0.89100000  0.39667000  0.07341000  1.0
  O  O76  1  0.49437000  0.67674000  0.60338000  1.0
  O  O77  1  0.30116000  0.96735000  0.81535000  1.0
  O  O78  1  0.33372000  0.84803000  0.03254000  1.0
  O  O79  1  0.48569000  0.18456000  0.15192000  1.0
  O  O80  1  0.69884000  0.03265000  0.18465000  1.0
  O  O81  1  0.66628000  0.15197000  0.96745000  1.0
  O  O82  1  0.51430000  0.81543000  0.84807000  1.0
  O  O83  1  0.09583000  0.04139000  0.85680000  1.0
  O  O84  1  0.05436000  0.81538000  0.95858000  1.0
  O  O85  1  0.23895000  0.14313000  0.18454000  1.0
  O  O86  1  0.90416000  0.95861000  0.14320000  1.0
  O  O87  1  0.94564000  0.18462000  0.04142000  1.0
  O  O88  1  0.76103000  0.85686000  0.81545000  1.0
