# generated using pymatgen
data_DyCdH7C5SN2O11
_symmetry_space_group_name_H-M   'P 1'
_cell_length_a   8.58713000
_cell_length_b   10.49750000
_cell_length_c   13.79400000
_cell_angle_alpha   90.00000000
_cell_angle_beta   101.79200000
_cell_angle_gamma   89.99960000
_symmetry_Int_Tables_number   1
_chemical_formula_structural   DyCdH7C5SN2O11
_chemical_formula_sum   'Dy4 Cd4 H28 C20 S4 N8 O44'
_cell_volume   1217.19642038
_cell_formula_units_Z   4
loop_
 _symmetry_equiv_pos_site_id
 _symmetry_equiv_pos_as_xyz
  1  'x, y, z'
loop_
 _atom_site_type_symbol
 _atom_site_label
 _atom_site_symmetry_multiplicity
 _atom_site_fract_x
 _atom_site_fract_y
 _atom_site_fract_z
 _atom_site_occupancy
  Dy  Dy0  1  0.93291000  0.89496000  0.10866000  1.0
  Dy  Dy1  1  0.06709000  0.39496000  0.39134000  1.0
  Dy  Dy2  1  0.06709000  0.10504000  0.89134000  1.0
  Dy  Dy3  1  0.93291000  0.60504000  0.60866000  1.0
  Cd  Cd4  1  0.62405000  0.48250000  0.13399000  1.0
  Cd  Cd5  1  0.37595000  0.98250000  0.36601000  1.0
  Cd  Cd6  1  0.37595000  0.51750000  0.86601000  1.0
  Cd  Cd7  1  0.62405000  0.01750000  0.63399000  1.0
  H  H8  1  0.62723000  0.25842000  0.33789000  1.0
  H  H9  1  0.37277000  0.75841000  0.16211000  1.0
  H  H10  1  0.37277000  0.74159000  0.66211000  1.0
  H  H11  1  0.62723000  0.24159000  0.83789000  1.0
  H  H12  1  0.99645000  0.89849000  0.33356000  1.0
  H  H13  1  0.00354000  0.39849000  0.16643000  1.0
  H  H14  1  0.00354000  0.10151000  0.66644000  1.0
  H  H15  1  0.99645000  0.60151000  0.83356000  1.0
  H  H16  1  0.80873000  0.91327000  0.30096000  1.0
  H  H17  1  0.19127000  0.41328000  0.19904000  1.0
  H  H18  1  0.19127000  0.08672000  0.69904000  1.0
  H  H19  1  0.80873000  0.58673000  0.80096000  1.0
  H  H20  1  0.01100000  0.63431000  0.16752000  1.0
  H  H21  1  0.98900000  0.13432000  0.33248000  1.0
  H  H22  1  0.98900000  0.36568000  0.83248000  1.0
  H  H23  1  0.01100000  0.86568000  0.66752000  1.0
  H  H24  1  0.04992000  0.68895000  0.27424000  1.0
  H  H25  1  0.95008000  0.18895000  0.22577000  1.0
  H  H26  1  0.95008000  0.31105000  0.72577000  1.0
  H  H27  1  0.04992000  0.81105000  0.77423000  1.0
  H  H28  1  0.56121000  0.88547000  0.07141000  1.0
  H  H29  1  0.43879000  0.38547000  0.42859000  1.0
  H  H30  1  0.43879000  0.11453000  0.92859000  1.0
  H  H31  1  0.56121000  0.61453000  0.57141000  1.0
  H  H32  1  0.62682000  0.02639000  0.08224000  1.0
  H  H33  1  0.37317000  0.52639000  0.41776000  1.0
  H  H34  1  0.37318000  0.97361000  0.91776000  1.0
  H  H35  1  0.62682000  0.47361000  0.58224000  1.0
  C  C36  1  0.53157000  0.24126000  0.27449000  1.0
  C  C37  1  0.46843000  0.74126000  0.22551000  1.0
  C  C38  1  0.46843000  0.75874000  0.72551000  1.0
  C  C39  1  0.53157000  0.25874000  0.77449000  1.0
  C  C40  1  0.33247000  0.15189000  0.17556000  1.0
  C  C41  1  0.66753000  0.65189000  0.32444000  1.0
  C  C42  1  0.66754000  0.84812000  0.82444000  1.0
  C  C43  1  0.33246000  0.34811000  0.67556000  1.0
  C  C44  1  0.37694000  0.26114000  0.12916000  1.0
  C  C45  1  0.62306000  0.76113000  0.37084000  1.0
  C  C46  1  0.62306000  0.73886000  0.87084000  1.0
  C  C47  1  0.37694000  0.23886000  0.62916000  1.0
  C  C48  1  0.21247000  0.05403000  0.14456000  1.0
  C  C49  1  0.78754000  0.55402000  0.35544000  1.0
  C  C50  1  0.78754000  0.94597000  0.85545000  1.0
  C  C51  1  0.21246000  0.44598000  0.64456000  1.0
  C  C52  1  0.31657000  0.32314000  0.03250000  1.0
  C  C53  1  0.68343000  0.82314000  0.46750000  1.0
  C  C54  1  0.68344000  0.67687000  0.96750000  1.0
  C  C55  1  0.31657000  0.17686000  0.53250000  1.0
  S  S56  1  0.79914000  0.21909000  0.04404000  1.0
  S  S57  1  0.20086000  0.71909000  0.45596000  1.0
  S  S58  1  0.20087000  0.78091000  0.95596000  1.0
  S  S59  1  0.79914000  0.28091000  0.54404000  1.0
  N  N60  1  0.50275000  0.31524000  0.19333000  1.0
  N  N61  1  0.49725000  0.81524000  0.30667000  1.0
  N  N62  1  0.49725000  0.68476000  0.80667000  1.0
  N  N63  1  0.50275000  0.18476000  0.69333000  1.0
  N  N64  1  0.42957000  0.14289000  0.26783000  1.0
  N  N65  1  0.57043000  0.64289000  0.23217000  1.0
  N  N66  1  0.57044000  0.85712000  0.73217000  1.0
  N  N67  1  0.42957000  0.35711000  0.76783000  1.0
  O  O68  1  0.17911000  0.97699000  0.20964000  1.0
  O  O69  1  0.82089000  0.47699000  0.29036000  1.0
  O  O70  1  0.82090000  0.02301000  0.79037000  1.0
  O  O71  1  0.17910000  0.52301000  0.70964000  1.0
  O  O72  1  0.13835000  0.04235000  0.05482000  1.0
  O  O73  1  0.86165000  0.54235000  0.44518000  1.0
  O  O74  1  0.86165000  0.95766000  0.94519000  1.0
  O  O75  1  0.13834000  0.45765000  0.55481000  1.0
  O  O76  1  0.20892000  0.27379000  0.96748000  1.0
  O  O77  1  0.79108000  0.77379000  0.53252000  1.0
  O  O78  1  0.79109000  0.72621000  0.03252000  1.0
  O  O79  1  0.20891000  0.22621000  0.46748000  1.0
  O  O80  1  0.37974000  0.43096000  0.01921000  1.0
  O  O81  1  0.62025000  0.93096000  0.48079000  1.0
  O  O82  1  0.62025000  0.56903000  0.98079000  1.0
  O  O83  1  0.37975000  0.06904000  0.51921000  1.0
  O  O84  1  0.62869000  0.18595000  0.01447000  1.0
  O  O85  1  0.37130000  0.68594000  0.48552000  1.0
  O  O86  1  0.37131000  0.81405000  0.98553000  1.0
  O  O87  1  0.62869000  0.31405000  0.51447000  1.0
  O  O88  1  0.82253000  0.34600000  0.09450000  1.0
  O  O89  1  0.17747000  0.84600000  0.40550000  1.0
  O  O90  1  0.17747000  0.65399000  0.90551000  1.0
  O  O91  1  0.82253000  0.15399000  0.59449000  1.0
  O  O92  1  0.87862000  0.12171000  0.11860000  1.0
  O  O93  1  0.12138000  0.62171000  0.38140000  1.0
  O  O94  1  0.12138000  0.87829000  0.88140000  1.0
  O  O95  1  0.87862000  0.37829000  0.61860000  1.0
  O  O96  1  0.87627000  0.22203000  0.95735000  1.0
  O  O97  1  0.12373000  0.72203000  0.54265000  1.0
  O  O98  1  0.12374000  0.77797000  0.04265000  1.0
  O  O99  1  0.87626000  0.27797000  0.45735000  1.0
  O  O100  1  0.90914000  0.93890000  0.28421000  1.0
  O  O101  1  0.09086000  0.43890000  0.21579000  1.0
  O  O102  1  0.09086000  0.06109000  0.71579000  1.0
  O  O103  1  0.90914000  0.56110000  0.78421000  1.0
  O  O104  1  0.99813000  0.71121000  0.20480000  1.0
  O  O105  1  0.00186000  0.21120000  0.29520000  1.0
  O  O106  1  0.00186000  0.28880000  0.79520000  1.0
  O  O107  1  0.99814000  0.78880000  0.70480000  1.0
  O  O108  1  0.65072000  0.93804000  0.10505000  1.0
  O  O109  1  0.34928000  0.43804000  0.39495000  1.0
  O  O110  1  0.34928000  0.06196000  0.89495000  1.0
  O  O111  1  0.65072000  0.56196000  0.60505000  1.0
