# generated using pymatgen
data_GdH25C33(N3O7)3
_symmetry_space_group_name_H-M   'P 1'
_cell_length_a   13.21800000
_cell_length_b   19.40420000
_cell_length_c   19.40420000
_cell_angle_alpha   102.80600000
_cell_angle_beta   93.22900000
_cell_angle_gamma   93.22980000
_symmetry_Int_Tables_number   1
_chemical_formula_structural   GdH25C33(N3O7)3
_chemical_formula_sum   'Gd4 H100 C132 N36 O84'
_cell_volume   4833.25893318
_cell_formula_units_Z   4
loop_
 _symmetry_equiv_pos_site_id
 _symmetry_equiv_pos_as_xyz
  1  'x, y, z'
loop_
 _atom_site_type_symbol
 _atom_site_label
 _atom_site_symmetry_multiplicity
 _atom_site_fract_x
 _atom_site_fract_y
 _atom_site_fract_z
 _atom_site_occupancy
  Gd  Gd0  1  0.34865000  0.96876000  0.49024000  1.0
  Gd  Gd1  1  0.15135000  0.50976000  0.03125000  1.0
  Gd  Gd2  1  0.65135000  0.03124000  0.50976000  1.0
  Gd  Gd3  1  0.84865000  0.49024000  0.96876000  1.0
  H  H4  1  0.58847000  0.20973000  0.40048000  1.0
  H  H5  1  0.91153000  0.59951000  0.79027000  1.0
  H  H6  1  0.41154000  0.79027000  0.59952000  1.0
  H  H7  1  0.08847000  0.40048000  0.20973000  1.0
  H  H8  1  0.29157000  0.10470000  0.34147000  1.0
  H  H9  1  0.20843000  0.65853000  0.89531000  1.0
  H  H10  1  0.70843000  0.89530000  0.65852000  1.0
  H  H11  1  0.79157000  0.34147000  0.10469000  1.0
  H  H12  1  0.30019000  0.46088000  0.24575000  1.0
  H  H13  1  0.19980000  0.75427000  0.53913000  1.0
  H  H14  1  0.69981000  0.53913000  0.75426000  1.0
  H  H15  1  0.80020000  0.24574000  0.46087000  1.0
  H  H16  1  0.34483000  0.29750000  0.06168000  1.0
  H  H17  1  0.15517000  0.93833000  0.70250000  1.0
  H  H18  1  0.65517000  0.70250000  0.93833000  1.0
  H  H19  1  0.84483000  0.06167000  0.29750000  1.0
  H  H20  1  0.66615000  0.93991000  0.34304000  1.0
  H  H21  1  0.83383000  0.65695000  0.06009000  1.0
  H  H22  1  0.33385000  0.06009000  0.65696000  1.0
  H  H23  1  0.16618000  0.34305000  0.93991000  1.0
  H  H24  1  0.48066000  0.74998000  0.34518000  1.0
  H  H25  1  0.01933000  0.65483000  0.25002000  1.0
  H  H26  1  0.51933000  0.25002000  0.65482000  1.0
  H  H27  1  0.98067000  0.34517000  0.74998000  1.0
  H  H28  1  0.25760000  0.13252000  0.46659000  1.0
  H  H29  1  0.24240000  0.53340000  0.86749000  1.0
  H  H30  1  0.74240000  0.86748000  0.53340000  1.0
  H  H31  1  0.75760000  0.46659000  0.13252000  1.0
  H  H32  1  0.05918000  0.06570000  0.55984000  1.0
  H  H33  1  0.44082000  0.44016000  0.93431000  1.0
  H  H34  1  0.94082000  0.93431000  0.44016000  1.0
  H  H35  1  0.55919000  0.55983000  0.06569000  1.0
  H  H36  1  0.96954000  0.07108000  0.48870000  1.0
  H  H37  1  0.53046000  0.51130000  0.92892000  1.0
  H  H38  1  0.03046000  0.92892000  0.51130000  1.0
  H  H39  1  0.46954000  0.48870000  0.07108000  1.0
  H  H40  1  0.99265000  0.14441000  0.56246000  1.0
  H  H41  1  0.50735000  0.43754000  0.85559000  1.0
  H  H42  1  0.00735000  0.85560000  0.43754000  1.0
  H  H43  1  0.49265000  0.56246000  0.14440000  1.0
  H  H44  1  0.15687000  0.20535000  0.43764000  1.0
  H  H45  1  0.34312000  0.56236000  0.79466000  1.0
  H  H46  1  0.84312000  0.79466000  0.56236000  1.0
  H  H47  1  0.65687000  0.43764000  0.20535000  1.0
  H  H48  1  0.05431000  0.22849000  0.49224000  1.0
  H  H49  1  0.44569000  0.50776000  0.77151000  1.0
  H  H50  1  0.94569000  0.77151000  0.50776000  1.0
  H  H51  1  0.55431000  0.49224000  0.22849000  1.0
  H  H52  1  0.03314000  0.16337000  0.41046000  1.0
  H  H53  1  0.46686000  0.58954000  0.83663000  1.0
  H  H54  1  0.96686000  0.83663000  0.58954000  1.0
  H  H55  1  0.53314000  0.41046000  0.16337000  1.0
  H  H56  1  0.20724000  0.84633000  0.36671000  1.0
  H  H57  1  0.29276000  0.63330000  0.15368000  1.0
  H  H58  1  0.79276000  0.15367000  0.63330000  1.0
  H  H59  1  0.70724000  0.36670000  0.84633000  1.0
  H  H60  1  0.03713000  0.94858000  0.24381000  1.0
  H  H61  1  0.46285000  0.75620000  0.05142000  1.0
  H  H62  1  0.96286000  0.05142000  0.75619000  1.0
  H  H63  1  0.53714000  0.24380000  0.94858000  1.0
  H  H64  1  0.16686000  0.96029000  0.22440000  1.0
  H  H65  1  0.33313000  0.77561000  0.03971000  1.0
  H  H66  1  0.83314000  0.03971000  0.77560000  1.0
  H  H67  1  0.66686000  0.22439000  0.96029000  1.0
  H  H68  1  0.12790000  0.00161000  0.30972000  1.0
  H  H69  1  0.37209000  0.69029000  0.99839000  1.0
  H  H70  1  0.87210000  0.99839000  0.69028000  1.0
  H  H71  1  0.62790000  0.30971000  0.00161000  1.0
  H  H72  1  0.16085000  0.81999000  0.19745000  1.0
  H  H73  1  0.33917000  0.80257000  0.18001000  1.0
  H  H74  1  0.83916000  0.18001000  0.80256000  1.0
  H  H75  1  0.66084000  0.19744000  0.81999000  1.0
  H  H76  1  0.03588000  0.81756000  0.22550000  1.0
  H  H77  1  0.46413000  0.77449000  0.18245000  1.0
  H  H78  1  0.96412000  0.18244000  0.77450000  1.0
  H  H79  1  0.53588000  0.22550000  0.81755000  1.0
  H  H80  1  0.13459000  0.78160000  0.27126000  1.0
  H  H81  1  0.36540000  0.72874000  0.21840000  1.0
  H  H82  1  0.86540000  0.21840000  0.72874000  1.0
  H  H83  1  0.63461000  0.27126000  0.78160000  1.0
  H  H84  1  0.42457000  0.00427000  0.30151000  1.0
  H  H85  1  0.07544000  0.69849000  0.99574000  1.0
  H  H86  1  0.57544000  0.99572000  0.69848000  1.0
  H  H87  1  0.92457000  0.30152000  0.00426000  1.0
  H  H88  1  0.55499000  0.07299000  0.26793000  1.0
  H  H89  1  0.94501000  0.73207000  0.92702000  1.0
  H  H90  1  0.44502000  0.92701000  0.73207000  1.0
  H  H91  1  0.05499000  0.26793000  0.07298000  1.0
  H  H92  1  0.68806000  0.09082000  0.18499000  1.0
  H  H93  1  0.81193000  0.81500000  0.90919000  1.0
  H  H94  1  0.31196000  0.90919000  0.81501000  1.0
  H  H95  1  0.18808000  0.18500000  0.09080000  1.0
  H  H96  1  0.71502000  0.98970000  0.08363000  1.0
  H  H97  1  0.78497000  0.91636000  0.01031000  1.0
  H  H98  1  0.28500000  0.01030000  0.91637000  1.0
  H  H99  1  0.21504000  0.08364000  0.98968000  1.0
  H  H100  1  0.60872000  0.87545000  0.06910000  1.0
  H  H101  1  0.89129000  0.93090000  0.12456000  1.0
  H  H102  1  0.39130000  0.12456000  0.93089000  1.0
  H  H103  1  0.10872000  0.06910000  0.87544000  1.0
  C  C104  1  0.46360000  0.10092000  0.42327000  1.0
  C  C105  1  0.03640000  0.57673000  0.89908000  1.0
  C  C106  1  0.53639000  0.89908000  0.57673000  1.0
  C  C107  1  0.96361000  0.42327000  0.10092000  1.0
  C  C108  1  0.44282000  0.15111000  0.37574000  1.0
  C  C109  1  0.05718000  0.62426000  0.84889000  1.0
  C  C110  1  0.55719000  0.84889000  0.62426000  1.0
  C  C111  1  0.94282000  0.37574000  0.15111000  1.0
  C  C112  1  0.51577000  0.20373000  0.36982000  1.0
  C  C113  1  0.98423000  0.63018000  0.79627000  1.0
  C  C114  1  0.48423000  0.79627000  0.63018000  1.0
  C  C115  1  0.01577000  0.36982000  0.20373000  1.0
  C  C116  1  0.49523000  0.24862000  0.32492000  1.0
  C  C117  1  0.00477000  0.67508000  0.75138000  1.0
  C  C118  1  0.50477000  0.75138000  0.67508000  1.0
  C  C119  1  0.99523000  0.32492000  0.24862000  1.0
  C  C120  1  0.40243000  0.24442000  0.28422000  1.0
  C  C121  1  0.09757000  0.71578000  0.75558000  1.0
  C  C122  1  0.59757000  0.75558000  0.71578000  1.0
  C  C123  1  0.90243000  0.28422000  0.24442000  1.0
  C  C124  1  0.32949000  0.19156000  0.29339000  1.0
  C  C125  1  0.17051000  0.70662000  0.80844000  1.0
  C  C126  1  0.67051000  0.80844000  0.70661000  1.0
  C  C127  1  0.82949000  0.29338000  0.19156000  1.0
  C  C128  1  0.34933000  0.14554000  0.33732000  1.0
  C  C129  1  0.15067000  0.66269000  0.85446000  1.0
  C  C130  1  0.65067000  0.85446000  0.66268000  1.0
  C  C131  1  0.84933000  0.33731000  0.14554000  1.0
  C  C132  1  0.38071000  0.29437000  0.23758000  1.0
  C  C133  1  0.11928000  0.76242000  0.70563000  1.0
  C  C134  1  0.61928000  0.70563000  0.76242000  1.0
  C  C135  1  0.88071000  0.23758000  0.29437000  1.0
  C  C136  1  0.35178000  0.36322000  0.26496000  1.0
  C  C137  1  0.14822000  0.73504000  0.63678000  1.0
  C  C138  1  0.64822000  0.63678000  0.73504000  1.0
  C  C139  1  0.85178000  0.26496000  0.36322000  1.0
  C  C140  1  0.32112000  0.40780000  0.22193000  1.0
  C  C141  1  0.17887000  0.77807000  0.59220000  1.0
  C  C142  1  0.67887000  0.59219000  0.77807000  1.0
  C  C143  1  0.82112000  0.22193000  0.40780000  1.0
  C  C144  1  0.31424000  0.38348000  0.14852000  1.0
  C  C145  1  0.18576000  0.85148000  0.61652000  1.0
  C  C146  1  0.68576000  0.61652000  0.85148000  1.0
  C  C147  1  0.81424000  0.14852000  0.38348000  1.0
  C  C148  1  0.34753000  0.31707000  0.11896000  1.0
  C  C149  1  0.15247000  0.88104000  0.68294000  1.0
  C  C150  1  0.65247000  0.68294000  0.88104000  1.0
  C  C151  1  0.84752000  0.11896000  0.31706000  1.0
  C  C152  1  0.38343000  0.27506000  0.16317000  1.0
  C  C153  1  0.11657000  0.83684000  0.72495000  1.0
  C  C154  1  0.61657000  0.72494000  0.83683000  1.0
  C  C155  1  0.88342000  0.16317000  0.27505000  1.0
  C  C156  1  0.26814000  0.42817000  0.10284000  1.0
  C  C157  1  0.23185000  0.89716000  0.57184000  1.0
  C  C158  1  0.73185000  0.57184000  0.89715000  1.0
  C  C159  1  0.76814000  0.10285000  0.42816000  1.0
  C  C160  1  0.49306000  0.89314000  0.39549000  1.0
  C  C161  1  0.00693000  0.60452000  0.10686000  1.0
  C  C162  1  0.50694000  0.10686000  0.60451000  1.0
  C  C163  1  0.99308000  0.39548000  0.89314000  1.0
  C  C164  1  0.56559000  0.84974000  0.35075000  1.0
  C  C165  1  0.93439000  0.64925000  0.15026000  1.0
  C  C166  1  0.43441000  0.15026000  0.64925000  1.0
  C  C167  1  0.06561000  0.35075000  0.84975000  1.0
  C  C168  1  0.65144000  0.88249000  0.32974000  1.0
  C  C169  1  0.84854000  0.67026000  0.11751000  1.0
  C  C170  1  0.34856000  0.11751000  0.67026000  1.0
  C  C171  1  0.15146000  0.32975000  0.88249000  1.0
  C  C172  1  0.72172000  0.84067000  0.29294000  1.0
  C  C173  1  0.77827000  0.70706000  0.15932000  1.0
  C  C174  1  0.27828000  0.15932000  0.70706000  1.0
  C  C175  1  0.22174000  0.29295000  0.84068000  1.0
  C  C176  1  0.71192000  0.76629000  0.27571000  1.0
  C  C177  1  0.78806000  0.72428000  0.23371000  1.0
  C  C178  1  0.28808000  0.23371000  0.72429000  1.0
  C  C179  1  0.21194000  0.27571000  0.76629000  1.0
  C  C180  1  0.62123000  0.73605000  0.29469000  1.0
  C  C181  1  0.87876000  0.70531000  0.26394000  1.0
  C  C182  1  0.37877000  0.26394000  0.70531000  1.0
  C  C183  1  0.12124000  0.29469000  0.73606000  1.0
  C  C184  1  0.54906000  0.77615000  0.33120000  1.0
  C  C185  1  0.95093000  0.66880000  0.22385000  1.0
  C  C186  1  0.45094000  0.22385000  0.66880000  1.0
  C  C187  1  0.04907000  0.33120000  0.77615000  1.0
  C  C188  1  0.20309000  0.10633000  0.49522000  1.0
  C  C189  1  0.29691000  0.50478000  0.89367000  1.0
  C  C190  1  0.79691000  0.89367000  0.50477000  1.0
  C  C191  1  0.70309000  0.49522000  0.10633000  1.0
  C  C192  1  0.02806000  0.10084000  0.52831000  1.0
  C  C193  1  0.47194000  0.47169000  0.89916000  1.0
  C  C194  1  0.97194000  0.89916000  0.47169000  1.0
  C  C195  1  0.52806000  0.52831000  0.10084000  1.0
  C  C196  1  0.08717000  0.18479000  0.45637000  1.0
  C  C197  1  0.41282000  0.54363000  0.81521000  1.0
  C  C198  1  0.91282000  0.81521000  0.54363000  1.0
  C  C199  1  0.58717000  0.45637000  0.18479000  1.0
  C  C200  1  0.19190000  0.89746000  0.35385000  1.0
  C  C201  1  0.30810000  0.64616000  0.10255000  1.0
  C  C202  1  0.80810000  0.10254000  0.64615000  1.0
  C  C203  1  0.69190000  0.35384000  0.89745000  1.0
  C  C204  1  0.11609000  0.95468000  0.26609000  1.0
  C  C205  1  0.38390000  0.73391000  0.04533000  1.0
  C  C206  1  0.88391000  0.04532000  0.73391000  1.0
  C  C207  1  0.61609000  0.26609000  0.95467000  1.0
  C  C208  1  0.11647000  0.82370000  0.24404000  1.0
  C  C209  1  0.38354000  0.75597000  0.17630000  1.0
  C  C210  1  0.88354000  0.17630000  0.75596000  1.0
  C  C211  1  0.61647000  0.24403000  0.82370000  1.0
  C  C212  1  0.42215000  0.96165000  0.25222000  1.0
  C  C213  1  0.07786000  0.74779000  0.03837000  1.0
  C  C214  1  0.57787000  0.03835000  0.74777000  1.0
  C  C215  1  0.92213000  0.25221000  0.96166000  1.0
  C  C216  1  0.50880000  0.96697000  0.20777000  1.0
  C  C217  1  0.99121000  0.79224000  0.03303000  1.0
  C  C218  1  0.49122000  0.03302000  0.79223000  1.0
  C  C219  1  0.00880000  0.20776000  0.96697000  1.0
  C  C220  1  0.56858000  0.03107000  0.22244000  1.0
  C  C221  1  0.93141000  0.77755000  0.96893000  1.0
  C  C222  1  0.43143000  0.96892000  0.77756000  1.0
  C  C223  1  0.06860000  0.22244000  0.03107000  1.0
  C  C224  1  0.64330000  0.04046000  0.17682000  1.0
  C  C225  1  0.85670000  0.82317000  0.95955000  1.0
  C  C226  1  0.35672000  0.95955000  0.82318000  1.0
  C  C227  1  0.14330000  0.17683000  0.04045000  1.0
  C  C228  1  0.65750000  0.98441000  0.12051000  1.0
  C  C229  1  0.84250000  0.87948000  0.01560000  1.0
  C  C230  1  0.34252000  0.01560000  0.87949000  1.0
  C  C231  1  0.15752000  0.12052000  0.98440000  1.0
  C  C232  1  0.59709000  0.92079000  0.11200000  1.0
  C  C233  1  0.90291000  0.88800000  0.07922000  1.0
  C  C234  1  0.40293000  0.07922000  0.88800000  1.0
  C  C235  1  0.09709000  0.11199000  0.92079000  1.0
  N  N236  1  0.57444000  0.30461000  0.32401000  1.0
  N  N237  1  0.92555000  0.67598000  0.69539000  1.0
  N  N238  1  0.42556000  0.69539000  0.67598000  1.0
  N  N239  1  0.07444000  0.32401000  0.30461000  1.0
  N  N240  1  0.22721000  0.18226000  0.25681000  1.0
  N  N241  1  0.27278000  0.74319000  0.81774000  1.0
  N  N242  1  0.77279000  0.81774000  0.74318000  1.0
  N  N243  1  0.72721000  0.25681000  0.18225000  1.0
  N  N244  1  0.35414000  0.39199000  0.34247000  1.0
  N  N245  1  0.14586000  0.65754000  0.60801000  1.0
  N  N246  1  0.64585000  0.60800000  0.65754000  1.0
  N  N247  1  0.85413000  0.34246000  0.39199000  1.0
  N  N248  1  0.41959000  0.20612000  0.12891000  1.0
  N  N249  1  0.08040000  0.87109000  0.79388000  1.0
  N  N250  1  0.58041000  0.79388000  0.87109000  1.0
  N  N251  1  0.91960000  0.12891000  0.20612000  1.0
  N  N252  1  0.81244000  0.87959000  0.27605000  1.0
  N  N253  1  0.68754000  0.72394000  0.12041000  1.0
  N  N254  1  0.18756000  0.12041000  0.72395000  1.0
  N  N255  1  0.31246000  0.27606000  0.87959000  1.0
  N  N256  1  0.59995000  0.65875000  0.27588000  1.0
  N  N257  1  0.90004000  0.72413000  0.34124000  1.0
  N  N258  1  0.40005000  0.34125000  0.72412000  1.0
  N  N259  1  0.09996000  0.27587000  0.65876000  1.0
  N  N260  1  0.11025000  0.12963000  0.49373000  1.0
  N  N261  1  0.38975000  0.50627000  0.87037000  1.0
  N  N262  1  0.88975000  0.87037000  0.50627000  1.0
  N  N263  1  0.61025000  0.49373000  0.12963000  1.0
  N  N264  1  0.13879000  0.89228000  0.29257000  1.0
  N  N265  1  0.36120000  0.70744000  0.10773000  1.0
  N  N266  1  0.86121000  0.10772000  0.70743000  1.0
  N  N267  1  0.63880000  0.29256000  0.89228000  1.0
  N  N268  1  0.52276000  0.91186000  0.15373000  1.0
  N  N269  1  0.97723000  0.84626000  0.08815000  1.0
  N  N270  1  0.47725000  0.08815000  0.84626000  1.0
  N  N271  1  0.02276000  0.15373000  0.91185000  1.0
  O  O272  1  0.38898000  0.05896000  0.42912000  1.0
  O  O273  1  0.11102000  0.57088000  0.94104000  1.0
  O  O274  1  0.61102000  0.94104000  0.57088000  1.0
  O  O275  1  0.88898000  0.42912000  0.05896000  1.0
  O  O276  1  0.55229000  0.10529000  0.45235000  1.0
  O  O277  1  0.94771000  0.54765000  0.89471000  1.0
  O  O278  1  0.44771000  0.89471000  0.54765000  1.0
  O  O279  1  0.05229000  0.45235000  0.10530000  1.0
  O  O280  1  0.26849000  0.49466000  0.12768000  1.0
  O  O281  1  0.23151000  0.87231000  0.50535000  1.0
  O  O282  1  0.73152000  0.50535000  0.87231000  1.0
  O  O283  1  0.76849000  0.12769000  0.49465000  1.0
  O  O284  1  0.22690000  0.39745000  0.04212000  1.0
  O  O285  1  0.27310000  0.95788000  0.60255000  1.0
  O  O286  1  0.77311000  0.60255000  0.95788000  1.0
  O  O287  1  0.72690000  0.04212000  0.39745000  1.0
  O  O288  1  0.64020000  0.31858000  0.37393000  1.0
  O  O289  1  0.85979000  0.62607000  0.68143000  1.0
  O  O290  1  0.35979000  0.68143000  0.62607000  1.0
  O  O291  1  0.14020000  0.37392000  0.31857000  1.0
  O  O292  1  0.57104000  0.33471000  0.27375000  1.0
  O  O293  1  0.92895000  0.72624000  0.66528000  1.0
  O  O294  1  0.42895000  0.66528000  0.72624000  1.0
  O  O295  1  0.07104000  0.27375000  0.33472000  1.0
  O  O296  1  0.16790000  0.13437000  0.26695000  1.0
  O  O297  1  0.33209000  0.73307000  0.86564000  1.0
  O  O298  1  0.83209000  0.86563000  0.73305000  1.0
  O  O299  1  0.66791000  0.26694000  0.13436000  1.0
  O  O300  1  0.20510000  0.22306000  0.21791000  1.0
  O  O301  1  0.29489000  0.78209000  0.77693000  1.0
  O  O302  1  0.79490000  0.77694000  0.78209000  1.0
  O  O303  1  0.70510000  0.21791000  0.22307000  1.0
  O  O304  1  0.35279000  0.34916000  0.38144000  1.0
  O  O305  1  0.14721000  0.61857000  0.65084000  1.0
  O  O306  1  0.64721000  0.65084000  0.61857000  1.0
  O  O307  1  0.85279000  0.38143000  0.34915000  1.0
  O  O308  1  0.35806000  0.45700000  0.36320000  1.0
  O  O309  1  0.14194000  0.63681000  0.54300000  1.0
  O  O310  1  0.64194000  0.54300000  0.63680000  1.0
  O  O311  1  0.85805000  0.36319000  0.45699000  1.0
  O  O312  1  0.45198000  0.16785000  0.16758000  1.0
  O  O313  1  0.04801000  0.83242000  0.83215000  1.0
  O  O314  1  0.54802000  0.83215000  0.83242000  1.0
  O  O315  1  0.95198000  0.16757000  0.16785000  1.0
  O  O316  1  0.41536000  0.18999000  0.06334000  1.0
  O  O317  1  0.08463000  0.93666000  0.81002000  1.0
  O  O318  1  0.58464000  0.81001000  0.93666000  1.0
  O  O319  1  0.91537000  0.06334000  0.18998000  1.0
  O  O320  1  0.40258000  0.86959000  0.39650000  1.0
  O  O321  1  0.09740000  0.60351000  0.13041000  1.0
  O  O322  1  0.59742000  0.13041000  0.60350000  1.0
  O  O323  1  0.90260000  0.39649000  0.86960000  1.0
  O  O324  1  0.52729000  0.95410000  0.43266000  1.0
  O  O325  1  0.97271000  0.56734000  0.04590000  1.0
  O  O326  1  0.47272000  0.04590000  0.56734000  1.0
  O  O327  1  0.02729000  0.43266000  0.95410000  1.0
  O  O328  1  0.79869000  0.93067000  0.24910000  1.0
  O  O329  1  0.70127000  0.75090000  0.06933000  1.0
  O  O330  1  0.20131000  0.06933000  0.75091000  1.0
  O  O331  1  0.29872000  0.24910000  0.93067000  1.0
  O  O332  1  0.89649000  0.85986000  0.29214000  1.0
  O  O333  1  0.60349000  0.70785000  0.14015000  1.0
  O  O334  1  0.10351000  0.14014000  0.70786000  1.0
  O  O335  1  0.39651000  0.29215000  0.85985000  1.0
  O  O336  1  0.67257000  0.62144000  0.26193000  1.0
  O  O337  1  0.82742000  0.73808000  0.37856000  1.0
  O  O338  1  0.32743000  0.37856000  0.73807000  1.0
  O  O339  1  0.17258000  0.26192000  0.62144000  1.0
  O  O340  1  0.51051000  0.63539000  0.27495000  1.0
  O  O341  1  0.98948000  0.72506000  0.36460000  1.0
  O  O342  1  0.48949000  0.36460000  0.72505000  1.0
  O  O343  1  0.01052000  0.27494000  0.63540000  1.0
  O  O344  1  0.22952000  0.05874000  0.52568000  1.0
  O  O345  1  0.27048000  0.47432000  0.94127000  1.0
  O  O346  1  0.77047000  0.94127000  0.47432000  1.0
  O  O347  1  0.72953000  0.52568000  0.05874000  1.0
  O  O348  1  0.22300000  0.95534000  0.39551000  1.0
  O  O349  1  0.27700000  0.60450000  0.04467000  1.0
  O  O350  1  0.77700000  0.04466000  0.60449000  1.0
  O  O351  1  0.72300000  0.39550000  0.95533000  1.0
  O  O352  1  0.35075000  0.91680000  0.23781000  1.0
  O  O353  1  0.14925000  0.76220000  0.08321000  1.0
  O  O354  1  0.64926000  0.08320000  0.76217000  1.0
  O  O355  1  0.85073000  0.23779000  0.91681000  1.0
