# generated using pymatgen
data_AgH10C12N4Cl(OF)4
_symmetry_space_group_name_H-M   'P 1'
_cell_length_a   6.43596000
_cell_length_b   14.78800000
_cell_length_c   16.12830000
_cell_angle_alpha   90.00000000
_cell_angle_beta   90.00000000
_cell_angle_gamma   101.44900000
_symmetry_Int_Tables_number   1
_chemical_formula_structural   AgH10C12N4Cl(OF)4
_chemical_formula_sum   'Ag4 H40 C48 N16 Cl4 O16 F16'
_cell_volume   1504.46659103
_cell_formula_units_Z   4
loop_
 _symmetry_equiv_pos_site_id
 _symmetry_equiv_pos_as_xyz
  1  'x, y, z'
loop_
 _atom_site_type_symbol
 _atom_site_label
 _atom_site_symmetry_multiplicity
 _atom_site_fract_x
 _atom_site_fract_y
 _atom_site_fract_z
 _atom_site_occupancy
  Ag  Ag0  1  0.48711000  0.41731000  0.35790000  1.0
  Ag  Ag1  1  0.51290000  0.08269000  0.85790000  1.0
  Ag  Ag2  1  0.51290000  0.58269000  0.64210000  1.0
  Ag  Ag3  1  0.48711000  0.91732000  0.14210000  1.0
  H  H4  1  0.13392000  0.42907000  0.46069000  1.0
  H  H5  1  0.86608000  0.07094000  0.96069000  1.0
  H  H6  1  0.86609000  0.57093000  0.53931000  1.0
  H  H7  1  0.13392000  0.92906000  0.03931000  1.0
  H  H8  1  0.85828000  0.40205000  0.46496000  1.0
  H  H9  1  0.14172000  0.09795000  0.96497000  1.0
  H  H10  1  0.14172000  0.59794000  0.53503000  1.0
  H  H11  1  0.85828000  0.90206000  0.03504000  1.0
  H  H12  1  0.31103000  0.42583000  0.18823000  1.0
  H  H13  1  0.68897000  0.07418000  0.68824000  1.0
  H  H14  1  0.68898000  0.57417000  0.81177000  1.0
  H  H15  1  0.31103000  0.92582000  0.31177000  1.0
  H  H16  1  0.63119000  0.35747000  0.19920000  1.0
  H  H17  1  0.36880000  0.14252000  0.69921000  1.0
  H  H18  1  0.36881000  0.64253000  0.80079000  1.0
  H  H19  1  0.63119000  0.85748000  0.30080000  1.0
  H  H20  1  0.23973000  0.40700000  0.80302000  1.0
  H  H21  1  0.76026000  0.09300000  0.30302000  1.0
  H  H22  1  0.76026000  0.59300000  0.19697000  1.0
  H  H23  1  0.23974000  0.90701000  0.69698000  1.0
  H  H24  1  0.07186000  0.40533000  0.71509000  1.0
  H  H25  1  0.92813000  0.09467000  0.21509000  1.0
  H  H26  1  0.92813000  0.59467000  0.28490000  1.0
  H  H27  1  0.07187000  0.90533000  0.78491000  1.0
  H  H28  1  0.14386000  0.30184000  0.74889000  1.0
  H  H29  1  0.85614000  0.19816000  0.24890000  1.0
  H  H30  1  0.85613000  0.69816000  0.25110000  1.0
  H  H31  1  0.14387000  0.80184000  0.75111000  1.0
  H  H32  1  0.58920000  0.29531000  0.82475000  1.0
  H  H33  1  0.41079000  0.20469000  0.32476000  1.0
  H  H34  1  0.41080000  0.70469000  0.17525000  1.0
  H  H35  1  0.58921000  0.79531000  0.67525000  1.0
  H  H36  1  0.72620000  0.27750000  0.73198000  1.0
  H  H37  1  0.27380000  0.22249000  0.23199000  1.0
  H  H38  1  0.27379000  0.72249000  0.26802000  1.0
  H  H39  1  0.72621000  0.77750000  0.76802000  1.0
  H  H40  1  0.66397000  0.38678000  0.75159000  1.0
  H  H41  1  0.33602000  0.11322000  0.25160000  1.0
  H  H42  1  0.33601000  0.61322000  0.24841000  1.0
  H  H43  1  0.66398000  0.88678000  0.74841000  1.0
  C  C44  1  0.98577000  0.40690000  0.34775000  1.0
  C  C45  1  0.01423000  0.09310000  0.84775000  1.0
  C  C46  1  0.01424000  0.59310000  0.65226000  1.0
  C  C47  1  0.98577000  0.90690000  0.15225000  1.0
  C  C48  1  0.16046000  0.41216000  0.22117000  1.0
  C  C49  1  0.83954000  0.08784000  0.72117000  1.0
  C  C50  1  0.83953000  0.58784000  0.77882000  1.0
  C  C51  1  0.16046000  0.91216000  0.27883000  1.0
  C  C52  1  0.96939000  0.39049000  0.17737000  1.0
  C  C53  1  0.03060000  0.10951000  0.67738000  1.0
  C  C54  1  0.03061000  0.60951000  0.82262000  1.0
  C  C55  1  0.96939000  0.89049000  0.32263000  1.0
  C  C56  1  0.78735000  0.37802000  0.22704000  1.0
  C  C57  1  0.21264000  0.12198000  0.72704000  1.0
  C  C58  1  0.21265000  0.62198000  0.77296000  1.0
  C  C59  1  0.78735000  0.87802000  0.27296000  1.0
  C  C60  1  0.95834000  0.38131000  0.08698000  1.0
  C  C61  1  0.04166000  0.11869000  0.58698000  1.0
  C  C62  1  0.04166000  0.61869000  0.91302000  1.0
  C  C63  1  0.95835000  0.88130000  0.41302000  1.0
  C  C64  1  0.10500000  0.34374000  0.04051000  1.0
  C  C65  1  0.89500000  0.15626000  0.54052000  1.0
  C  C66  1  0.89500000  0.65626000  0.95948000  1.0
  C  C67  1  0.10500000  0.84374000  0.45949000  1.0
  C  C68  1  0.09269000  0.33396000  0.95504000  1.0
  C  C69  1  0.90731000  0.16604000  0.45505000  1.0
  C  C70  1  0.90731000  0.66604000  0.04495000  1.0
  C  C71  1  0.09270000  0.83396000  0.54495000  1.0
  C  C72  1  0.93087000  0.36152000  0.90789000  1.0
  C  C73  1  0.06912000  0.13847000  0.40790000  1.0
  C  C74  1  0.06912000  0.63847000  0.09210000  1.0
  C  C75  1  0.93088000  0.86152000  0.59211000  1.0
  C  C76  1  0.78423000  0.39973000  0.95484000  1.0
  C  C77  1  0.21577000  0.10027000  0.45484000  1.0
  C  C78  1  0.21577000  0.60027000  0.04516000  1.0
  C  C79  1  0.78423000  0.89973000  0.54516000  1.0
  C  C80  1  0.79745000  0.40847000  0.04017000  1.0
  C  C81  1  0.20254000  0.09153000  0.54018000  1.0
  C  C82  1  0.20254000  0.59152000  0.95982000  1.0
  C  C83  1  0.79746000  0.90847000  0.45983000  1.0
  C  C84  1  0.10302000  0.36661000  0.77044000  1.0
  C  C85  1  0.89698000  0.13338000  0.27045000  1.0
  C  C86  1  0.89698000  0.63339000  0.22955000  1.0
  C  C87  1  0.10302000  0.86662000  0.72956000  1.0
  C  C88  1  0.71301000  0.32736000  0.78135000  1.0
  C  C89  1  0.28698000  0.17264000  0.28135000  1.0
  C  C90  1  0.28698000  0.67264000  0.21865000  1.0
  C  C91  1  0.71302000  0.82736000  0.71865000  1.0
  N  N92  1  0.79278000  0.38950000  0.30940000  1.0
  N  N93  1  0.20721000  0.11050000  0.80941000  1.0
  N  N94  1  0.20722000  0.61051000  0.69059000  1.0
  N  N95  1  0.79279000  0.88950000  0.19060000  1.0
  N  N96  1  0.99306000  0.41377000  0.43003000  1.0
  N  N97  1  0.00694000  0.08623000  0.93004000  1.0
  N  N98  1  0.00695000  0.58623000  0.56995000  1.0
  N  N99  1  0.99306000  0.91377000  0.06997000  1.0
  N  N100  1  0.17109000  0.41711000  0.30417000  1.0
  N  N101  1  0.82891000  0.08290000  0.80418000  1.0
  N  N102  1  0.82892000  0.58290000  0.69582000  1.0
  N  N103  1  0.17109000  0.91711000  0.19583000  1.0
  N  N104  1  0.91629000  0.35206000  0.82337000  1.0
  N  N105  1  0.08370000  0.14794000  0.32338000  1.0
  N  N106  1  0.08370000  0.64794000  0.17662000  1.0
  N  N107  1  0.91630000  0.85206000  0.67662000  1.0
  Cl  Cl108  1  0.54816000  0.63888000  0.43772000  1.0
  Cl  Cl109  1  0.45185000  0.86113000  0.93772000  1.0
  Cl  Cl110  1  0.45184000  0.36113000  0.56228000  1.0
  Cl  Cl111  1  0.54816000  0.13888000  0.06228000  1.0
  O  O112  1  0.66954000  0.56358000  0.43200000  1.0
  O  O113  1  0.33049000  0.93643000  0.93202000  1.0
  O  O114  1  0.33046000  0.43642000  0.56799000  1.0
  O  O115  1  0.66953000  0.06358000  0.06800000  1.0
  O  O116  1  0.59889000  0.68570000  0.51763000  1.0
  O  O117  1  0.40112000  0.81430000  0.01763000  1.0
  O  O118  1  0.40111000  0.31431000  0.48237000  1.0
  O  O119  1  0.59889000  0.18570000  0.98237000  1.0
  O  O120  1  0.32152000  0.59883000  0.43392000  1.0
  O  O121  1  0.67849000  0.90116000  0.93393000  1.0
  O  O122  1  0.67848000  0.40117000  0.56608000  1.0
  O  O123  1  0.32151000  0.09884000  0.06608000  1.0
  O  O124  1  0.60799000  0.70317000  0.37037000  1.0
  O  O125  1  0.39201000  0.79684000  0.87037000  1.0
  O  O126  1  0.39201000  0.29683000  0.62963000  1.0
  O  O127  1  0.60799000  0.20317000  0.12963000  1.0
  F  F128  1  0.25900000  0.30966000  0.08042000  1.0
  F  F129  1  0.74099000  0.19034000  0.58042000  1.0
  F  F130  1  0.74099000  0.69034000  0.91958000  1.0
  F  F131  1  0.25901000  0.80966000  0.41958000  1.0
  F  F132  1  0.23454000  0.29119000  0.91659000  1.0
  F  F133  1  0.76547000  0.20881000  0.41659000  1.0
  F  F134  1  0.76546000  0.70881000  0.08341000  1.0
  F  F135  1  0.23454000  0.79119000  0.58341000  1.0
  F  F136  1  0.63096000  0.43424000  0.91487000  1.0
  F  F137  1  0.36903000  0.06576000  0.41488000  1.0
  F  F138  1  0.36903000  0.56576000  0.08513000  1.0
  F  F139  1  0.63096000  0.93424000  0.58513000  1.0
  F  F140  1  0.65417000  0.45066000  0.07857000  1.0
  F  F141  1  0.34584000  0.04934000  0.57857000  1.0
  F  F142  1  0.34583000  0.54933000  0.92143000  1.0
  F  F143  1  0.65417000  0.95066000  0.42143000  1.0
