# generated using pymatgen
data_ZnH12C12NO4
_symmetry_space_group_name_H-M   'P 1'
_cell_length_a   7.55427000
_cell_length_b   10.93350000
_cell_length_c   14.43250000
_cell_angle_alpha   83.26760000
_cell_angle_beta   89.96670000
_cell_angle_gamma   69.80700000
_symmetry_Int_Tables_number   1
_chemical_formula_structural   ZnH12C12NO4
_chemical_formula_sum   'Zn4 H48 C48 N4 O16'
_cell_volume   1110.04553473
_cell_formula_units_Z   4
loop_
 _symmetry_equiv_pos_site_id
 _symmetry_equiv_pos_as_xyz
  1  'x, y, z'
loop_
 _atom_site_type_symbol
 _atom_site_label
 _atom_site_symmetry_multiplicity
 _atom_site_fract_x
 _atom_site_fract_y
 _atom_site_fract_z
 _atom_site_occupancy
  Zn  Zn0  1  0.24982000  0.55218000  0.00650000  1.0
  Zn  Zn1  1  0.80194000  0.44781000  0.49342000  1.0
  Zn  Zn2  1  0.75018000  0.44782000  0.99350000  1.0
  Zn  Zn3  1  0.19807000  0.55219000  0.50658000  1.0
  H  H4  1  0.98855000  0.81852000  0.01191000  1.0
  H  H5  1  0.80697000  0.18139000  0.48800000  1.0
  H  H6  1  0.01145000  0.18148000  0.98809000  1.0
  H  H7  1  0.19303000  0.81861000  0.51200000  1.0
  H  H8  1  0.85355000  0.02875000  0.90524000  1.0
  H  H9  1  0.88271000  0.97103000  0.59466000  1.0
  H  H10  1  0.14645000  0.97125000  0.09476000  1.0
  H  H11  1  0.11729000  0.02897000  0.40535000  1.0
  H  H12  1  0.11628000  0.81063000  0.67922000  1.0
  H  H13  1  0.92713000  0.18923000  0.82058000  1.0
  H  H14  1  0.88371000  0.18938000  0.32077000  1.0
  H  H15  1  0.07287000  0.81077000  0.17942000  1.0
  H  H16  1  0.24071000  0.61382000  0.79468000  1.0
  H  H17  1  0.85384000  0.38625000  0.70520000  1.0
  H  H18  1  0.75929000  0.38618000  0.20532000  1.0
  H  H19  1  0.14616000  0.61375000  0.29480000  1.0
  H  H20  1  0.46459000  0.39368000  0.74098000  1.0
  H  H21  1  0.85765000  0.60642000  0.75898000  1.0
  H  H22  1  0.53541000  0.60633000  0.25902000  1.0
  H  H23  1  0.14235000  0.39357000  0.24102000  1.0
  H  H24  1  0.13243000  0.42759000  0.74418000  1.0
  H  H25  1  0.55959000  0.57230000  0.75581000  1.0
  H  H26  1  0.86757000  0.57241000  0.25583000  1.0
  H  H27  1  0.44041000  0.42770000  0.24419000  1.0
  H  H28  1  0.28113000  0.08210000  0.87283000  1.0
  H  H29  1  0.36269000  0.91784000  0.62719000  1.0
  H  H30  1  0.71888000  0.91790000  0.12717000  1.0
  H  H31  1  0.63731000  0.08216000  0.37281000  1.0
  H  H32  1  0.37727000  0.16688000  0.94603000  1.0
  H  H33  1  0.54382000  0.83320000  0.55397000  1.0
  H  H34  1  0.62273000  0.83312000  0.05397000  1.0
  H  H35  1  0.45618000  0.16680000  0.44603000  1.0
  H  H36  1  0.52633000  0.05510000  0.87624000  1.0
  H  H37  1  0.58080000  0.94499000  0.62378000  1.0
  H  H38  1  0.47367000  0.94490000  0.12376000  1.0
  H  H39  1  0.41921000  0.05501000  0.37622000  1.0
  H  H40  1  0.50266000  0.12731000  0.68973000  1.0
  H  H41  1  0.63006000  0.87261000  0.81013000  1.0
  H  H42  1  0.49734000  0.87269000  0.31028000  1.0
  H  H43  1  0.36994000  0.12739000  0.18987000  1.0
  H  H44  1  0.32606000  0.27845000  0.64586000  1.0
  H  H45  1  0.60427000  0.72156000  0.85412000  1.0
  H  H46  1  0.67394000  0.72155000  0.35414000  1.0
  H  H47  1  0.39573000  0.27844000  0.14588000  1.0
  H  H48  1  0.26100000  0.14326000  0.69335000  1.0
  H  H49  1  0.40420000  0.85685000  0.80677000  1.0
  H  H50  1  0.73900000  0.85674000  0.30665000  1.0
  H  H51  1  0.59580000  0.14315000  0.19323000  1.0
  C  C52  1  0.01253000  0.82250000  0.93749000  1.0
  C  C53  1  0.83525000  0.17737000  0.56237000  1.0
  C  C54  1  0.98747000  0.17750000  0.06251000  1.0
  C  C55  1  0.16475000  0.82263000  0.43763000  1.0
  C  C56  1  0.93992000  0.93895000  0.87792000  1.0
  C  C57  1  0.87935000  0.06085000  0.62191000  1.0
  C  C58  1  0.06008000  0.06105000  0.12208000  1.0
  C  C59  1  0.12065000  0.93915000  0.37810000  1.0
  C  C60  1  0.97829000  0.93877000  0.78259000  1.0
  C  C61  1  0.91735000  0.06109000  0.71722000  1.0
  C  C62  1  0.02171000  0.06123000  0.21741000  1.0
  C  C63  1  0.08265000  0.93891000  0.28279000  1.0
  C  C64  1  0.08335000  0.81883000  0.75205000  1.0
  C  C65  1  0.90252000  0.18104000  0.74776000  1.0
  C  C66  1  0.91665000  0.18117000  0.24795000  1.0
  C  C67  1  0.09748000  0.81896000  0.25224000  1.0
  C  C68  1  0.15281000  0.70691000  0.81645000  1.0
  C  C69  1  0.85958000  0.29303000  0.68340000  1.0
  C  C70  1  0.84719000  0.29309000  0.18355000  1.0
  C  C71  1  0.14043000  0.70697000  0.31660000  1.0
  C  C72  1  0.54615000  0.35337000  0.88735000  1.0
  C  C73  1  0.89917000  0.64678000  0.61255000  1.0
  C  C74  1  0.45385000  0.64663000  0.11265000  1.0
  C  C75  1  0.10083000  0.35321000  0.38744000  1.0
  C  C76  1  0.42509000  0.34948000  0.80604000  1.0
  C  C77  1  0.77415000  0.65059000  0.69390000  1.0
  C  C78  1  0.57491000  0.65052000  0.19396000  1.0
  C  C79  1  0.22585000  0.34941000  0.30610000  1.0
  C  C80  1  0.21485000  0.37635000  0.80799000  1.0
  C  C81  1  0.59082000  0.62360000  0.69201000  1.0
  C  C82  1  0.78515000  0.62365000  0.19202000  1.0
  C  C83  1  0.40918000  0.37640000  0.30799000  1.0
  C  C84  1  0.10765000  0.39803000  0.89457000  1.0
  C  C85  1  0.50543000  0.60192000  0.60543000  1.0
  C  C86  1  0.89235000  0.60197000  0.10543000  1.0
  C  C87  1  0.49457000  0.39808000  0.39457000  1.0
  C  C88  1  0.35602000  0.23816000  0.79727000  1.0
  C  C89  1  0.59371000  0.76183000  0.70269000  1.0
  C  C90  1  0.64398000  0.76184000  0.20273000  1.0
  C  C91  1  0.40629000  0.23817000  0.29731000  1.0
  C  C92  1  0.38614000  0.13038000  0.87804000  1.0
  C  C93  1  0.51600000  0.86965000  0.62198000  1.0
  C  C94  1  0.61386000  0.86962000  0.12196000  1.0
  C  C95  1  0.48400000  0.13035000  0.37802000  1.0
  C  C96  1  0.36057000  0.19494000  0.70120000  1.0
  C  C97  1  0.55536000  0.80507000  0.79877000  1.0
  C  C98  1  0.63942000  0.80506000  0.29880000  1.0
  C  C99  1  0.44464000  0.19493000  0.20122000  1.0
  N  N100  1  0.12060000  0.70871000  0.90799000  1.0
  N  N101  1  0.82909000  0.29124000  0.59190000  1.0
  N  N102  1  0.87940000  0.29129000  0.09201000  1.0
  N  N103  1  0.17091000  0.70876000  0.40810000  1.0
  O  O104  1  0.66890000  0.25191000  0.92611000  1.0
  O  O105  1  0.91972000  0.74837000  0.57346000  1.0
  O  O106  1  0.33110000  0.74809000  0.07389000  1.0
  O  O107  1  0.08028000  0.25163000  0.42654000  1.0
  O  O108  1  0.52492000  0.47115000  0.90907000  1.0
  O  O109  1  0.99629000  0.52892000  0.59115000  1.0
  O  O110  1  0.47508000  0.52885000  0.09093000  1.0
  O  O111  1  0.00371000  0.47108000  0.40885000  1.0
  O  O112  1  0.19059000  0.39639000  0.97239000  1.0
  O  O113  1  0.58693000  0.60345000  0.52761000  1.0
  O  O114  1  0.80941000  0.60362000  0.02761000  1.0
  O  O115  1  0.41307000  0.39655000  0.47239000  1.0
  O  O116  1  0.93285000  0.41311000  0.88567000  1.0
  O  O117  1  0.34554000  0.58708000  0.61435000  1.0
  O  O118  1  0.06715000  0.58689000  0.11433000  1.0
  O  O119  1  0.65446000  0.41292000  0.38565000  1.0
