# generated using pymatgen
data_Zn4H24C18N6O13
_symmetry_space_group_name_H-M   'P 1'
_cell_length_a   17.54410000
_cell_length_b   17.91880000
_cell_length_c   18.18890000
_cell_angle_alpha   62.43300000
_cell_angle_beta   61.92250000
_cell_angle_gamma   61.85840000
_symmetry_Int_Tables_number   1
_chemical_formula_structural   Zn4H24C18N6O13
_chemical_formula_sum   'Zn8 H48 C36 N12 O26'
_cell_volume   4230.24371806
_cell_formula_units_Z   2
loop_
 _symmetry_equiv_pos_site_id
 _symmetry_equiv_pos_as_xyz
  1  'x, y, z'
loop_
 _atom_site_type_symbol
 _atom_site_label
 _atom_site_symmetry_multiplicity
 _atom_site_fract_x
 _atom_site_fract_y
 _atom_site_fract_z
 _atom_site_occupancy
  Zn  Zn0  1  0.12944000  0.93511000  0.94624000  1.0
  Zn  Zn1  1  0.94768000  0.93669000  0.94459000  1.0
  Zn  Zn2  1  0.95699000  0.11264000  0.94369000  1.0
  Zn  Zn3  1  0.95167000  0.94436000  0.11707000  1.0
  Zn  Zn4  1  0.36112000  0.52128000  0.52872000  1.0
  Zn  Zn5  1  0.53052000  0.53117000  0.54019000  1.0
  Zn  Zn6  1  0.53822000  0.52545000  0.36112000  1.0
  Zn  Zn7  1  0.53859000  0.35145000  0.53304000  1.0
  H  H8  1  0.22470000  0.84035000  0.71873000  1.0
  H  H9  1  0.08350000  0.80974000  0.74916000  1.0
  H  H10  1  0.16095000  0.69986000  0.67612000  1.0
  H  H11  1  0.23151000  0.76824000  0.62793000  1.0
  H  H12  1  0.24687000  0.59125000  0.77611000  1.0
  H  H13  1  0.37225000  0.69283000  0.69626000  1.0
  H  H14  1  0.30923000  0.73484000  0.82248000  1.0
  H  H15  1  0.23657000  0.66889000  0.87338000  1.0
  H  H16  1  0.25115000  0.15643000  0.83599000  1.0
  H  H17  1  0.10534000  0.28198000  0.81310000  1.0
  H  H18  1  0.17835000  0.38657000  0.69576000  1.0
  H  H19  1  0.25520000  0.31021000  0.75760000  1.0
  H  H20  1  0.25636000  0.30525000  0.59114000  1.0
  H  H21  1  0.39084000  0.17805000  0.68152000  1.0
  H  H22  1  0.32547000  0.06754000  0.73602000  1.0
  H  H23  1  0.24557000  0.14120000  0.67813000  1.0
  H  H24  1  0.22843000  0.70133000  0.16238000  1.0
  H  H25  1  0.09212000  0.73609000  0.29358000  1.0
  H  H26  1  0.17253000  0.66731000  0.39586000  1.0
  H  H27  1  0.24038000  0.61346000  0.31265000  1.0
  H  H28  1  0.25933000  0.76969000  0.32206000  1.0
  H  H29  1  0.38159000  0.67839000  0.18905000  1.0
  H  H30  1  0.31784000  0.80254000  0.08600000  1.0
  H  H31  1  0.24905000  0.85990000  0.16560000  1.0
  H  H32  1  0.86209000  0.15696000  0.71225000  1.0
  H  H33  1  0.83591000  0.28894000  0.74934000  1.0
  H  H34  1  0.72242000  0.39395000  0.68092000  1.0
  H  H35  1  0.78886000  0.31072000  0.62625000  1.0
  H  H36  1  0.60848000  0.32013000  0.77777000  1.0
  H  H37  1  0.70521000  0.18430000  0.68883000  1.0
  H  H38  1  0.74987000  0.07904000  0.81067000  1.0
  H  H39  1  0.68569000  0.15896000  0.86815000  1.0
  H  H40  1  0.71386000  0.84183000  0.16011000  1.0
  H  H41  1  0.73934000  0.84138000  0.28741000  1.0
  H  H42  1  0.66755000  0.73353000  0.39771000  1.0
  H  H43  1  0.61919000  0.78328000  0.31151000  1.0
  H  H44  1  0.77734000  0.61033000  0.34190000  1.0
  H  H45  1  0.70244000  0.67844000  0.20076000  1.0
  H  H46  1  0.82951000  0.72172000  0.09738000  1.0
  H  H47  1  0.88072000  0.67570000  0.18012000  1.0
  H  H48  1  0.87318000  0.22422000  0.15735000  1.0
  H  H49  1  0.84167000  0.08981000  0.28611000  1.0
  H  H50  1  0.73278000  0.16702000  0.39049000  1.0
  H  H51  1  0.80304000  0.23474000  0.30936000  1.0
  H  H52  1  0.61926000  0.24927000  0.31613000  1.0
  H  H53  1  0.72226000  0.37158000  0.18509000  1.0
  H  H54  1  0.76045000  0.30828000  0.08024000  1.0
  H  H55  1  0.69187000  0.23915000  0.15805000  1.0
  C  C56  1  0.13048000  0.84487000  0.84394000  1.0
  C  C57  1  0.19136000  0.79343000  0.77840000  1.0
  C  C58  1  0.20062000  0.72158000  0.68981000  1.0
  C  C59  1  0.27883000  0.64023000  0.72049000  1.0
  C  C60  1  0.26869000  0.71259000  0.81064000  1.0
  C  C61  1  0.34222000  0.59827000  0.64770000  1.0
  C  C62  1  0.14924000  0.11222000  0.85462000  1.0
  C  C63  1  0.21223000  0.16796000  0.79554000  1.0
  C  C64  1  0.21934000  0.31646000  0.71718000  1.0
  C  C65  1  0.29237000  0.28716000  0.63597000  1.0
  C  C66  1  0.28325000  0.13710000  0.71497000  1.0
  C  C67  1  0.35533000  0.34229000  0.59137000  1.0
  C  C68  1  0.13586000  0.83023000  0.12711000  1.0
  C  C69  1  0.19847000  0.76290000  0.18137000  1.0
  C  C70  1  0.21090000  0.67819000  0.32570000  1.0
  C  C71  1  0.29030000  0.70996000  0.30116000  1.0
  C  C72  1  0.27861000  0.79430000  0.15562000  1.0
  C  C73  1  0.35297000  0.63995000  0.35461000  1.0
  C  C74  1  0.86557000  0.12032000  0.83921000  1.0
  C  C75  1  0.81406000  0.17546000  0.77334000  1.0
  C  C76  1  0.74257000  0.32291000  0.69034000  1.0
  C  C77  1  0.65695000  0.29817000  0.71965000  1.0
  C  C78  1  0.72913000  0.14954000  0.80332000  1.0
  C  C79  1  0.61185000  0.35130000  0.64871000  1.0
  C  C80  1  0.84041000  0.85669000  0.12451000  1.0
  C  C81  1  0.77546000  0.80274000  0.18186000  1.0
  C  C82  1  0.68353000  0.74345000  0.32842000  1.0
  C  C83  1  0.72085000  0.65219000  0.31417000  1.0
  C  C84  1  0.81546000  0.71181000  0.16616000  1.0
  C  C85  1  0.64694000  0.60825000  0.36664000  1.0
  C  C86  1  0.87055000  0.12987000  0.12075000  1.0
  C  C87  1  0.82218000  0.19302000  0.17494000  1.0
  C  C88  1  0.75376000  0.20485000  0.32074000  1.0
  C  C89  1  0.66986000  0.28087000  0.29641000  1.0
  C  C90  1  0.73883000  0.26934000  0.14943000  1.0
  C  C91  1  0.62564000  0.34277000  0.35137000  1.0
  N  N92  1  0.14193000  0.76139000  0.76024000  1.0
  N  N93  1  0.32862000  0.66150000  0.74945000  1.0
  N  N94  1  0.16110000  0.26115000  0.76396000  1.0
  N  N95  1  0.34221000  0.19206000  0.65699000  1.0
  N  N96  1  0.15122000  0.74760000  0.27477000  1.0
  N  N97  1  0.33945000  0.73425000  0.20762000  1.0
  N  N98  1  0.78451000  0.27017000  0.75915000  1.0
  N  N99  1  0.67569000  0.20309000  0.74382000  1.0
  N  N100  1  0.75399000  0.78563000  0.27451000  1.0
  N  N101  1  0.75561000  0.65770000  0.22221000  1.0
  N  N102  1  0.79160000  0.14675000  0.26803000  1.0
  N  N103  1  0.68939000  0.32858000  0.20304000  1.0
  O  O104  1  0.99546000  0.98215000  0.98834000  1.0
  O  O105  1  0.04437000  0.86345000  0.86805000  1.0
  O  O106  1  0.17288000  0.86619000  0.86810000  1.0
  O  O107  1  0.41990000  0.60987000  0.60451000  1.0
  O  O108  1  0.31013000  0.55653000  0.63430000  1.0
  O  O109  1  0.06403000  0.15388000  0.87940000  1.0
  O  O110  1  0.18771000  0.02801000  0.87555000  1.0
  O  O111  1  0.43467000  0.30428000  0.59900000  1.0
  O  O112  1  0.32037000  0.42468000  0.55350000  1.0
  O  O113  1  0.05032000  0.85598000  0.16686000  1.0
  O  O114  1  0.17616000  0.85468000  0.04468000  1.0
  O  O115  1  0.43483000  0.60105000  0.31446000  1.0
  O  O116  1  0.31572000  0.62487000  0.43734000  1.0
  O  O117  1  0.89206000  0.16101000  0.85978000  1.0
  O  O118  1  0.87860000  0.03700000  0.86734000  1.0
  O  O119  1  0.60974000  0.30857000  0.61018000  1.0
  O  O120  1  0.58181000  0.43539000  0.63272000  1.0
  O  O121  1  0.85933000  0.88740000  0.16225000  1.0
  O  O122  1  0.86956000  0.86715000  0.04263000  1.0
  O  O123  1  0.61400000  0.59815000  0.32403000  1.0
  O  O124  1  0.62276000  0.58771000  0.44985000  1.0
  O  O125  1  0.89615000  0.04675000  0.16086000  1.0
  O  O126  1  0.88293000  0.16646000  0.03873000  1.0
  O  O127  1  0.61189000  0.42574000  0.31199000  1.0
  O  O128  1  0.60686000  0.30394000  0.43383000  1.0
  O  O129  1  0.49508000  0.48173000  0.48943000  1.0
