# generated using pymatgen
data_Al2H21C30NO12
_symmetry_space_group_name_H-M   'P 1'
_cell_length_a   6.68088000
_cell_length_b   22.23930000
_cell_length_c   24.70820000
_cell_angle_alpha   96.29600000
_cell_angle_beta   89.99830000
_cell_angle_gamma   89.99910000
_symmetry_Int_Tables_number   1
_chemical_formula_structural   Al2H21C30NO12
_chemical_formula_sum   'Al4 H42 C60 N2 O24'
_cell_volume   3648.95546937
_cell_formula_units_Z   2
loop_
 _symmetry_equiv_pos_site_id
 _symmetry_equiv_pos_as_xyz
  1  'x, y, z'
loop_
 _atom_site_type_symbol
 _atom_site_label
 _atom_site_symmetry_multiplicity
 _atom_site_fract_x
 _atom_site_fract_y
 _atom_site_fract_z
 _atom_site_occupancy
  Al  Al0  1  0.13923000  0.49976000  0.49993000  1.0
  Al  Al1  1  0.63923000  0.50024000  0.50007000  1.0
  Al  Al2  1  0.65511000  0.00024000  0.00025000  1.0
  Al  Al3  1  0.15511000  0.99976000  0.99975000  1.0
  H  H4  1  0.22565000  0.80911000  0.18525000  1.0
  H  H5  1  0.72566000  0.19090000  0.81475000  1.0
  H  H6  1  0.22581000  0.88135000  0.11417000  1.0
  H  H7  1  0.72581000  0.11865000  0.88582000  1.0
  H  H8  1  0.58451000  0.88853000  0.11913000  1.0
  H  H9  1  0.08452000  0.11146000  0.88087000  1.0
  H  H10  1  0.58115000  0.81668000  0.19053000  1.0
  H  H11  1  0.08117000  0.18331000  0.80947000  1.0
  H  H12  1  0.21636000  0.68235000  0.30933000  1.0
  H  H13  1  0.71635000  0.31765000  0.69067000  1.0
  H  H14  1  0.21135000  0.61103000  0.38114000  1.0
  H  H15  1  0.71134000  0.38897000  0.61886000  1.0
  H  H16  1  0.56997000  0.61834000  0.38516000  1.0
  H  H17  1  0.06996000  0.38166000  0.61483000  1.0
  H  H18  1  0.57178000  0.69015000  0.31372000  1.0
  H  H19  1  0.07178000  0.30984000  0.68628000  1.0
  H  H20  1  0.64264000  0.75170000  0.67660000  1.0
  H  H21  1  0.14258000  0.24831000  0.32339000  1.0
  H  H22  1  0.67727000  0.83498000  0.74313000  1.0
  H  H23  1  0.17710000  0.16504000  0.25685000  1.0
  H  H24  1  0.20885000  0.79703000  0.77307000  1.0
  H  H25  1  0.70880000  0.20291000  0.22694000  1.0
  H  H26  1  0.05891000  0.84870000  0.74131000  1.0
  H  H27  1  0.55874000  0.15128000  0.25870000  1.0
  H  H28  1  0.00175000  0.77797000  0.66522000  1.0
  H  H29  1  0.50165000  0.22202000  0.33479000  1.0
  H  H30  1  0.19667000  0.73514000  0.69016000  1.0
  H  H31  1  0.69665000  0.26483000  0.30985000  1.0
  H  H32  1  0.79396000  0.71998000  0.83853000  1.0
  H  H33  1  0.29412000  0.28003000  0.16147000  1.0
  H  H34  1  0.05800000  0.72896000  0.83642000  1.0
  H  H35  1  0.55815000  0.27101000  0.16359000  1.0
  H  H36  1  0.82227000  0.64305000  0.76710000  1.0
  H  H37  1  0.32238000  0.35695000  0.23290000  1.0
  H  H38  1  0.56822000  0.78965000  0.78969000  1.0
  H  H39  1  0.06821000  0.21041000  0.21029000  1.0
  H  H40  1  0.57482000  0.70376000  0.72607000  1.0
  H  H41  1  0.07484000  0.29628000  0.27394000  1.0
  H  H42  1  0.38820000  0.57738000  0.52085000  1.0
  H  H43  1  0.88821000  0.42262000  0.47915000  1.0
  H  H44  1  0.40634000  0.92224000  0.98042000  1.0
  H  H45  1  0.90632000  0.07776000  0.01958000  1.0
  C  C46  1  0.38985000  0.42373000  0.42200000  1.0
  C  C47  1  0.88983000  0.57627000  0.57800000  1.0
  C  C48  1  0.38940000  0.43045000  0.56903000  1.0
  C  C49  1  0.88941000  0.56955000  0.43097000  1.0
  C  C50  1  0.08574000  0.82682000  0.17076000  1.0
  C  C51  1  0.58575000  0.17318000  0.82924000  1.0
  C  C52  1  0.08606000  0.86676000  0.13135000  1.0
  C  C53  1  0.58607000  0.13324000  0.86865000  1.0
  C  C54  1  0.90515000  0.88895000  0.11257000  1.0
  C  C55  1  0.40516000  0.11105000  0.88743000  1.0
  C  C56  1  0.72339000  0.87078000  0.13414000  1.0
  C  C57  1  0.22340000  0.12922000  0.86586000  1.0
  C  C58  1  0.72179000  0.83101000  0.17364000  1.0
  C  C59  1  0.22181000  0.16899000  0.82636000  1.0
  C  C60  1  0.90322000  0.80817000  0.19256000  1.0
  C  C61  1  0.40324000  0.19183000  0.80744000  1.0
  C  C62  1  0.90116000  0.76731000  0.23254000  1.0
  C  C63  1  0.40117000  0.23268000  0.76747000  1.0
  C  C64  1  0.89717000  0.73196000  0.26702000  1.0
  C  C65  1  0.39717000  0.26804000  0.73297000  1.0
  C  C66  1  0.07538000  0.66836000  0.32626000  1.0
  C  C67  1  0.57537000  0.33164000  0.67374000  1.0
  C  C68  1  0.07284000  0.62885000  0.36597000  1.0
  C  C69  1  0.57284000  0.37115000  0.63402000  1.0
  C  C70  1  0.89055000  0.61097000  0.38745000  1.0
  C  C71  1  0.39055000  0.38902000  0.61254000  1.0
  C  C72  1  0.71009000  0.63296000  0.36824000  1.0
  C  C73  1  0.21008000  0.36704000  0.63176000  1.0
  C  C74  1  0.71135000  0.67266000  0.32863000  1.0
  C  C75  1  0.21134000  0.32734000  0.67136000  1.0
  C  C76  1  0.89441000  0.69118000  0.30707000  1.0
  C  C77  1  0.39441000  0.30881000  0.69293000  1.0
  C  C78  1  0.69200000  0.79192000  0.76072000  1.0
  C  C79  1  0.19194000  0.20811000  0.23927000  1.0
  C  C80  1  0.06627000  0.80211000  0.75199000  1.0
  C  C81  1  0.56619000  0.19786000  0.24802000  1.0
  C  C82  1  0.05111000  0.75604000  0.70068000  1.0
  C  C83  1  0.55105000  0.24394000  0.29933000  1.0
  C  C84  1  0.89085000  0.62156000  0.62455000  1.0
  C  C85  1  0.39088000  0.37844000  0.37545000  1.0
  C  C86  1  0.89331000  0.79196000  0.79179000  1.0
  C  C87  1  0.39330000  0.20804000  0.20821000  1.0
  C  C88  1  0.68514000  0.73745000  0.71619000  1.0
  C  C89  1  0.18513000  0.26257000  0.28381000  1.0
  C  C90  1  0.89416000  0.70670000  0.70930000  1.0
  C  C91  1  0.39417000  0.29329000  0.29070000  1.0
  C  C92  1  0.93136000  0.67926000  0.76399000  1.0
  C  C93  1  0.43144000  0.32073000  0.23601000  1.0
  C  C94  1  0.92044000  0.72904000  0.81223000  1.0
  C  C95  1  0.42054000  0.27096000  0.18777000  1.0
  C  C96  1  0.89248000  0.65983000  0.66356000  1.0
  C  C97  1  0.39252000  0.34017000  0.33644000  1.0
  C  C98  1  0.89661000  0.83831000  0.83793000  1.0
  C  C99  1  0.39659000  0.16169000  0.16207000  1.0
  C  C100  1  0.90173000  0.87714000  0.87654000  1.0
  C  C101  1  0.40170000  0.12286000  0.12346000  1.0
  C  C102  1  0.40530000  0.06929000  0.93067000  1.0
  C  C103  1  0.90529000  0.93071000  0.06932000  1.0
  C  C104  1  0.40422000  0.07711000  0.07737000  1.0
  C  C105  1  0.90424000  0.92289000  0.92263000  1.0
  N  N106  1  0.13214000  0.64654000  0.76197000  1.0
  N  N107  1  0.63224000  0.35345000  0.23804000  1.0
  O  O108  1  0.55920000  0.44650000  0.55193000  1.0
  O  O109  1  0.05920000  0.55350000  0.44807000  1.0
  O  O110  1  0.21921000  0.44116000  0.44048000  1.0
  O  O111  1  0.71919000  0.55885000  0.55952000  1.0
  O  O112  1  0.21913000  0.44568000  0.55160000  1.0
  O  O113  1  0.71913000  0.55432000  0.44840000  1.0
  O  O114  1  0.05984000  0.55845000  0.55937000  1.0
  O  O115  1  0.55986000  0.44154000  0.44063000  1.0
  O  O116  1  0.38894000  0.53659000  0.50247000  1.0
  O  O117  1  0.88894000  0.46341000  0.49753000  1.0
  O  O118  1  0.23452000  0.05895000  0.05866000  1.0
  O  O119  1  0.73453000  0.94105000  0.94135000  1.0
  O  O120  1  0.57526000  0.05386000  0.94814000  1.0
  O  O121  1  0.07526000  0.94614000  0.05186000  1.0
  O  O122  1  0.57517000  0.05937000  0.05926000  1.0
  O  O123  1  0.07519000  0.94063000  0.94074000  1.0
  O  O124  1  0.73517000  0.94693000  0.05256000  1.0
  O  O125  1  0.23517000  0.05307000  0.94744000  1.0
  O  O126  1  0.40538000  0.96345000  0.99783000  1.0
  O  O127  1  0.90538000  0.03655000  0.00217000  1.0
  O  O128  1  0.28534000  0.67718000  0.77313000  1.0
  O  O129  1  0.12962000  0.59160000  0.74816000  1.0
  O  O130  1  0.78543000  0.32279000  0.22689000  1.0
  O  O131  1  0.62974000  0.40838000  0.25185000  1.0
