# generated using pymatgen
data_ZnH8C14O5
_symmetry_space_group_name_H-M   'P 1'
_cell_length_a   13.28909559
_cell_length_b   13.29010000
_cell_length_c   29.57100000
_cell_angle_alpha   90.01120000
_cell_angle_beta   90.00000000
_cell_angle_gamma   119.99750000
_symmetry_Int_Tables_number   1
_chemical_formula_structural   ZnH8C14O5
_chemical_formula_sum   'Zn12 H96 C168 O60'
_cell_volume   4523.04851434
_cell_formula_units_Z   12
loop_
 _symmetry_equiv_pos_site_id
 _symmetry_equiv_pos_as_xyz
  1  'x, y, z'
loop_
 _atom_site_type_symbol
 _atom_site_label
 _atom_site_symmetry_multiplicity
 _atom_site_fract_x
 _atom_site_fract_y
 _atom_site_fract_z
 _atom_site_occupancy
  Zn  Zn0  1  0.53595000  0.00207000  0.89232000  1.0
  Zn  Zn1  1  0.46620000  0.46410000  0.22563000  1.0
  Zn  Zn2  1  0.99796000  0.53401000  0.55895000  1.0
  Zn  Zn3  1  0.53388000  0.99793000  0.10768000  1.0
  Zn  Zn4  1  0.00210000  0.53590000  0.77437000  1.0
  Zn  Zn5  1  0.46396000  0.46599000  0.44105000  1.0
  Zn  Zn6  1  0.71772000  0.16606000  0.81558000  1.0
  Zn  Zn7  1  0.44825000  0.28220000  0.14897000  1.0
  Zn  Zn8  1  0.83407000  0.55175000  0.48231000  1.0
  Zn  Zn9  1  0.55166000  0.83394000  0.18442000  1.0
  Zn  Zn10  1  0.16605000  0.71780000  0.85103000  1.0
  Zn  Zn11  1  0.28232000  0.44825000  0.51769000  1.0
  H  H12  1  0.26129000  0.00908000  0.83891000  1.0
  H  H13  1  0.74770000  0.73847000  0.17229000  1.0
  H  H14  1  0.99091000  0.25230000  0.50562000  1.0
  H  H15  1  0.25221000  0.99092000  0.16109000  1.0
  H  H16  1  0.00923000  0.26153000  0.82771000  1.0
  H  H17  1  0.73861000  0.74770000  0.49438000  1.0
  H  H18  1  0.09849000  0.02322000  0.80238000  1.0
  H  H19  1  0.92460000  0.90132000  0.13578000  1.0
  H  H20  1  0.97676000  0.07532000  0.46911000  1.0
  H  H21  1  0.07527000  0.97678000  0.19762000  1.0
  H  H22  1  0.02328000  0.09868000  0.86422000  1.0
  H  H23  1  0.90144000  0.92468000  0.53089000  1.0
  H  H24  1  0.34811000  0.31595000  0.72421000  1.0
  H  H25  1  0.96796000  0.65190000  0.05755000  1.0
  H  H26  1  0.68400000  0.03211000  0.39089000  1.0
  H  H27  1  0.03216000  0.68405000  0.27579000  1.0
  H  H28  1  0.31606000  0.34810000  0.94245000  1.0
  H  H29  1  0.65189000  0.96789000  0.60911000  1.0
  H  H30  1  0.50831000  0.29601000  0.75830000  1.0
  H  H31  1  0.78773000  0.49158000  0.09157000  1.0
  H  H32  1  0.70392000  0.21230000  0.42496000  1.0
  H  H33  1  0.21230000  0.70399000  0.24170000  1.0
  H  H34  1  0.29615000  0.50842000  0.90843000  1.0
  H  H35  1  0.49162000  0.78770000  0.57504000  1.0
  H  H36  1  0.15496000  0.14031000  0.65898000  1.0
  H  H37  1  0.98553000  0.84525000  0.99240000  1.0
  H  H38  1  0.85964000  0.01454000  0.32575000  1.0
  H  H39  1  0.01465000  0.85969000  0.34102000  1.0
  H  H40  1  0.14028000  0.15475000  0.00760000  1.0
  H  H41  1  0.84510000  0.98546000  0.67425000  1.0
  H  H42  1  0.16780000  0.26722000  0.59405000  1.0
  H  H43  1  0.09954000  0.83233000  0.92748000  1.0
  H  H44  1  0.73277000  0.90054000  0.26082000  1.0
  H  H45  1  0.90059000  0.73280000  0.40595000  1.0
  H  H46  1  0.26721000  0.16767000  0.07252000  1.0
  H  H47  1  0.83223000  0.09946000  0.73918000  1.0
  H  H48  1  0.13992000  0.50202000  0.68684000  1.0
  H  H49  1  0.36218000  0.86005000  0.02023000  1.0
  H  H50  1  0.49789000  0.63782000  0.35353000  1.0
  H  H51  1  0.63790000  0.49797000  0.31316000  1.0
  H  H52  1  0.50213000  0.13995000  0.97977000  1.0
  H  H53  1  0.86007000  0.36218000  0.64647000  1.0
  H  H54  1  0.13252000  0.37793000  0.75175000  1.0
  H  H55  1  0.24553000  0.86750000  0.08517000  1.0
  H  H56  1  0.62195000  0.75452000  0.41848000  1.0
  H  H57  1  0.75459000  0.62207000  0.24825000  1.0
  H  H58  1  0.37803000  0.13250000  0.91483000  1.0
  H  H59  1  0.86743000  0.24548000  0.58152000  1.0
  H  H60  1  0.94914000  0.41172000  0.89748000  1.0
  H  H61  1  0.46258000  0.05109000  0.23081000  1.0
  H  H62  1  0.58836000  0.53752000  0.56416000  1.0
  H  H63  1  0.53742000  0.58828000  0.10252000  1.0
  H  H64  1  0.41149000  0.94891000  0.76919000  1.0
  H  H65  1  0.05084000  0.46248000  0.43584000  1.0
  H  H66  1  0.08600000  0.55856000  0.95365000  1.0
  H  H67  1  0.47270000  0.91425000  0.28696000  1.0
  H  H68  1  0.44147000  0.52748000  0.62033000  1.0
  H  H69  1  0.52744000  0.44144000  0.04635000  1.0
  H  H70  1  0.55845000  0.08575000  0.71304000  1.0
  H  H71  1  0.91399000  0.47252000  0.37967000  1.0
  H  H72  1  0.85081000  0.36099000  0.06121000  1.0
  H  H73  1  0.51025000  0.14927000  0.39460000  1.0
  H  H74  1  0.63894000  0.48969000  0.72790000  1.0
  H  H75  1  0.48982000  0.63901000  0.93879000  1.0
  H  H76  1  0.36098000  0.85072000  0.60540000  1.0
  H  H77  1  0.14925000  0.51031000  0.27210000  1.0
  H  H78  1  0.71412000  0.21640000  0.00499000  1.0
  H  H79  1  0.50226000  0.28602000  0.33839000  1.0
  H  H80  1  0.78356000  0.49763000  0.67167000  1.0
  H  H81  1  0.49772000  0.78360000  0.99501000  1.0
  H  H82  1  0.21624000  0.71398000  0.66161000  1.0
  H  H83  1  0.28593000  0.50237000  0.32833000  1.0
  H  H84  1  0.09657000  0.37343000  0.01978000  1.0
  H  H85  1  0.27669000  0.90349000  0.35309000  1.0
  H  H86  1  0.62672000  0.72330000  0.68642000  1.0
  H  H87  1  0.72314000  0.62657000  0.98022000  1.0
  H  H88  1  0.37320000  0.09651000  0.64691000  1.0
  H  H89  1  0.90342000  0.27670000  0.31358000  1.0
  H  H90  1  0.21031000  0.31231000  0.06781000  1.0
  H  H91  1  0.10193000  0.78973000  0.40119000  1.0
  H  H92  1  0.68783000  0.89808000  0.73450000  1.0
  H  H93  1  0.89800000  0.68769000  0.93219000  1.0
  H  H94  1  0.31220000  0.21027000  0.59881000  1.0
  H  H95  1  0.78975000  0.10192000  0.26550000  1.0
  H  H96  1  0.25679000  0.56730000  0.16765000  1.0
  H  H97  1  0.31069000  0.74334000  0.50091000  1.0
  H  H98  1  0.43278000  0.68951000  0.83427000  1.0
  H  H99  1  0.68949000  0.43270000  0.83235000  1.0
  H  H100  1  0.56735000  0.25666000  0.49909000  1.0
  H  H101  1  0.74327000  0.31049000  0.16573000  1.0
  H  H102  1  0.14490000  0.63176000  0.11915000  1.0
  H  H103  1  0.48693000  0.85522000  0.45236000  1.0
  H  H104  1  0.36834000  0.51329000  0.78571000  1.0
  H  H105  1  0.51314000  0.36825000  0.88085000  1.0
  H  H106  1  0.63171000  0.14479000  0.54764000  1.0
  H  H107  1  0.85505000  0.48671000  0.21429000  1.0
  C  C108  1  0.48970000  0.13972000  0.82096000  1.0
  C  C109  1  0.65000000  0.51010000  0.15427000  1.0
  C  C110  1  0.86020000  0.34995000  0.48770000  1.0
  C  C111  1  0.34998000  0.86028000  0.17904000  1.0
  C  C112  1  0.13990000  0.48990000  0.84573000  1.0
  C  C113  1  0.51025000  0.65005000  0.51230000  1.0
  C  C114  1  0.39468000  0.15262000  0.80120000  1.0
  C  C115  1  0.75796000  0.60513000  0.13454000  1.0
  C  C116  1  0.84730000  0.24206000  0.46791000  1.0
  C  C117  1  0.24206000  0.84737000  0.19880000  1.0
  C  C118  1  0.15283000  0.39487000  0.86546000  1.0
  C  C119  1  0.60524000  0.75794000  0.53209000  1.0
  C  C120  1  0.27898000  0.07588000  0.81382000  1.0
  C  C121  1  0.79687000  0.72082000  0.14720000  1.0
  C  C122  1  0.92409000  0.20314000  0.48053000  1.0
  C  C123  1  0.20309000  0.92411000  0.18618000  1.0
  C  C124  1  0.07605000  0.27918000  0.85280000  1.0
  C  C125  1  0.72095000  0.79686000  0.51947000  1.0
  C  C126  1  0.18880000  0.08343000  0.79367000  1.0
  C  C127  1  0.89461000  0.81105000  0.12708000  1.0
  C  C128  1  0.91654000  0.10541000  0.46040000  1.0
  C  C129  1  0.10537000  0.91656000  0.20633000  1.0
  C  C130  1  0.08356000  0.18895000  0.87292000  1.0
  C  C131  1  0.81113000  0.89459000  0.53960000  1.0
  C  C132  1  0.21445000  0.17029000  0.76143000  1.0
  C  C133  1  0.95588000  0.78546000  0.09484000  1.0
  C  C134  1  0.82965000  0.04415000  0.42817000  1.0
  C  C135  1  0.04415000  0.82970000  0.23857000  1.0
  C  C136  1  0.17042000  0.21454000  0.90516000  1.0
  C  C137  1  0.78550000  0.95585000  0.57183000  1.0
  C  C138  1  0.32926000  0.24779000  0.74866000  1.0
  C  C139  1  0.91863000  0.67067000  0.08204000  1.0
  C  C140  1  0.75214000  0.08146000  0.41537000  1.0
  C  C141  1  0.08147000  0.75221000  0.25134000  1.0
  C  C142  1  0.24796000  0.32933000  0.91796000  1.0
  C  C143  1  0.67068000  0.91854000  0.58463000  1.0
  C  C144  1  0.41859000  0.23757000  0.76830000  1.0
  C  C145  1  0.81904000  0.58129000  0.10162000  1.0
  C  C146  1  0.76238000  0.18103000  0.43499000  1.0
  C  C147  1  0.18102000  0.76243000  0.23170000  1.0
  C  C148  1  0.23775000  0.41871000  0.89838000  1.0
  C  C149  1  0.58135000  0.81897000  0.56501000  1.0
  C  C150  1  0.14288000  0.25308000  0.70835000  1.0
  C  C151  1  0.11028000  0.85715000  0.04178000  1.0
  C  C152  1  0.74674000  0.88980000  0.37511000  1.0
  C  C153  1  0.88980000  0.74692000  0.29165000  1.0
  C  C154  1  0.25313000  0.14285000  0.95822000  1.0
  C  C155  1  0.85694000  0.11021000  0.62489000  1.0
  C  C156  1  0.15551000  0.22167000  0.66459000  1.0
  C  C157  1  0.06630000  0.84463000  0.99802000  1.0
  C  C158  1  0.77819000  0.93382000  0.33135000  1.0
  C  C159  1  0.93384000  0.77833000  0.33541000  1.0
  C  C160  1  0.22167000  0.15537000  0.00198000  1.0
  C  C161  1  0.84437000  0.06618000  0.66865000  1.0
  C  C162  1  0.16267000  0.29243000  0.62863000  1.0
  C  C163  1  0.12986000  0.83741000  0.96205000  1.0
  C  C164  1  0.70743000  0.87026000  0.29538000  1.0
  C  C165  1  0.87024000  0.70757000  0.37137000  1.0
  C  C166  1  0.29245000  0.16259000  0.03795000  1.0
  C  C167  1  0.83717000  0.12974000  0.70462000  1.0
  C  C168  1  0.15570000  0.39291000  0.63645000  1.0
  C  C169  1  0.23725000  0.84426000  0.96986000  1.0
  C  C170  1  0.60690000  0.76285000  0.30318000  1.0
  C  C171  1  0.76279000  0.60709000  0.36355000  1.0
  C  C172  1  0.39300000  0.15575000  0.03014000  1.0
  C  C173  1  0.84405000  0.23715000  0.69682000  1.0
  C  C174  1  0.14730000  0.42503000  0.68090000  1.0
  C  C175  1  0.27779000  0.85265000  0.01431000  1.0
  C  C176  1  0.57477000  0.72230000  0.34763000  1.0
  C  C177  1  0.72228000  0.57498000  0.31910000  1.0
  C  C178  1  0.42514000  0.14735000  0.98569000  1.0
  C  C179  1  0.85247000  0.27770000  0.65237000  1.0
  C  C180  1  0.14226000  0.35578000  0.71712000  1.0
  C  C181  1  0.21360000  0.85774000  0.05055000  1.0
  C  C182  1  0.64402000  0.78649000  0.38386000  1.0
  C  C183  1  0.78648000  0.64422000  0.28287000  1.0
  C  C184  1  0.35586000  0.14226000  0.94945000  1.0
  C  C185  1  0.85753000  0.21351000  0.61614000  1.0
  C  C186  1  0.13729000  0.45301000  0.59760000  1.0
  C  C187  1  0.31579000  0.86273000  0.93100000  1.0
  C  C188  1  0.54693000  0.68427000  0.26433000  1.0
  C  C189  1  0.68428000  0.54699000  0.40240000  1.0
  C  C190  1  0.45306000  0.13727000  0.06900000  1.0
  C  C191  1  0.86266000  0.31573000  0.73567000  1.0
  C  C192  1  0.75109000  0.21502000  0.91432000  1.0
  C  C193  1  0.46382000  0.24907000  0.24776000  1.0
  C  C194  1  0.78511000  0.53611000  0.58105000  1.0
  C  C195  1  0.53608000  0.78499000  0.08568000  1.0
  C  C196  1  0.21475000  0.75093000  0.75224000  1.0
  C  C197  1  0.24900000  0.46389000  0.41895000  1.0
  C  C198  1  0.82515000  0.30536000  0.94786000  1.0
  C  C199  1  0.48013000  0.17499000  0.28126000  1.0
  C  C200  1  0.69469000  0.51983000  0.61456000  1.0
  C  C201  1  0.51979000  0.69464000  0.05215000  1.0
  C  C202  1  0.30514000  0.82501000  0.71874000  1.0
  C  C203  1  0.17486000  0.48017000  0.38544000  1.0
  C  C204  1  0.92823000  0.40287000  0.93334000  1.0
  C  C205  1  0.47463000  0.07198000  0.26668000  1.0
  C  C206  1  0.59721000  0.52547000  0.60002000  1.0
  C  C207  1  0.52536000  0.59713000  0.06666000  1.0
  C  C208  1  0.40265000  0.92802000  0.73331000  1.0
  C  C209  1  0.07175000  0.47454000  0.39998000  1.0
  C  C210  1  0.00397000  0.48428000  0.96435000  1.0
  C  C211  1  0.48036000  0.99626000  0.29767000  1.0
  C  C212  1  0.51579000  0.51977000  0.63102000  1.0
  C  C213  1  0.51969000  0.51572000  0.03565000  1.0
  C  C214  1  0.48410000  0.00374000  0.70233000  1.0
  C  C215  1  0.99602000  0.48023000  0.36898000  1.0
  C  C216  1  0.97514000  0.46610000  0.01007000  1.0
  C  C217  1  0.49098000  0.02503000  0.34340000  1.0
  C  C218  1  0.53392000  0.50904000  0.67674000  1.0
  C  C219  1  0.50904000  0.53391000  0.98993000  1.0
  C  C220  1  0.46595000  0.97497000  0.65660000  1.0
  C  C221  1  0.02488000  0.49096000  0.32326000  1.0
  C  C222  1  0.87059000  0.37204000  0.02515000  1.0
  C  C223  1  0.50147000  0.12954000  0.35853000  1.0
  C  C224  1  0.62793000  0.49848000  0.69184000  1.0
  C  C225  1  0.49855000  0.62796000  0.97485000  1.0
  C  C226  1  0.37192000  0.87045000  0.64147000  1.0
  C  C227  1  0.12945000  0.50153000  0.30816000  1.0
  C  C228  1  0.79513000  0.29146000  0.99386000  1.0
  C  C229  1  0.49629000  0.20498000  0.32728000  1.0
  C  C230  1  0.70852000  0.50362000  0.66057000  1.0
  C  C231  1  0.50367000  0.70853000  0.00614000  1.0
  C  C232  1  0.29131000  0.79502000  0.67272000  1.0
  C  C233  1  0.20490000  0.49638000  0.33943000  1.0
  C  C234  1  0.11343000  0.50521000  0.06722000  1.0
  C  C235  1  0.39176000  0.88666000  0.40048000  1.0
  C  C236  1  0.49483000  0.60834000  0.73383000  1.0
  C  C237  1  0.60822000  0.49479000  0.93278000  1.0
  C  C238  1  0.50510000  0.11334000  0.59952000  1.0
  C  C239  1  0.88649000  0.39166000  0.26617000  1.0
  C  C240  1  0.13107000  0.41509000  0.05227000  1.0
  C  C241  1  0.28395000  0.86902000  0.38559000  1.0
  C  C242  1  0.58501000  0.71610000  0.71890000  1.0
  C  C243  1  0.71598000  0.58491000  0.94773000  1.0
  C  C244  1  0.41492000  0.13097000  0.61441000  1.0
  C  C245  1  0.86892000  0.28391000  0.28110000  1.0
  C  C246  1  0.19394000  0.38066000  0.07921000  1.0
  C  C247  1  0.18670000  0.80615000  0.41255000  1.0
  C  C248  1  0.61945000  0.81338000  0.74587000  1.0
  C  C249  1  0.81328000  0.61934000  0.92079000  1.0
  C  C250  1  0.38055000  0.19385000  0.58745000  1.0
  C  C251  1  0.80607000  0.18662000  0.25413000  1.0
  C  C252  1  0.23817000  0.43375000  0.12113000  1.0
  C  C253  1  0.19568000  0.76195000  0.45446000  1.0
  C  C254  1  0.56635000  0.80447000  0.78779000  1.0
  C  C255  1  0.80442000  0.56625000  0.87887000  1.0
  C  C256  1  0.43373000  0.23805000  0.54554000  1.0
  C  C257  1  0.76188000  0.19553000  0.21221000  1.0
  C  C258  1  0.22084000  0.52492000  0.13536000  1.0
  C  C259  1  0.30421000  0.77928000  0.46863000  1.0
  C  C260  1  0.47514000  0.69599000  0.80199000  1.0
  C  C261  1  0.69592000  0.47508000  0.86464000  1.0
  C  C262  1  0.52493000  0.22072000  0.53137000  1.0
  C  C263  1  0.77915000  0.30401000  0.19801000  1.0
  C  C264  1  0.15933000  0.56141000  0.10849000  1.0
  C  C265  1  0.40212000  0.84076000  0.44174000  1.0
  C  C266  1  0.43864000  0.59807000  0.77509000  1.0
  C  C267  1  0.59792000  0.43859000  0.89151000  1.0
  C  C268  1  0.56136000  0.15924000  0.55826000  1.0
  C  C269  1  0.84057000  0.40194000  0.22491000  1.0
  C  C270  1  0.30601000  0.39663000  0.14918000  1.0
  C  C271  1  0.09081000  0.69410000  0.48255000  1.0
  C  C272  1  0.60348000  0.90944000  0.81585000  1.0
  C  C273  1  0.90938000  0.60337000  0.85082000  1.0
  C  C274  1  0.39671000  0.30590000  0.51745000  1.0
  C  C275  1  0.69404000  0.09056000  0.18415000  1.0
  O  O276  1  0.46641000  0.07705000  0.85635000  1.0
  O  O277  1  0.61071000  0.53338000  0.18969000  1.0
  O  O278  1  0.92284000  0.38926000  0.52311000  1.0
  O  O279  1  0.38936000  0.92294000  0.14365000  1.0
  O  O280  1  0.07733000  0.46662000  0.81031000  1.0
  O  O281  1  0.53358000  0.61074000  0.47689000  1.0
  O  O282  1  0.58828000  0.19093000  0.80070000  1.0
  O  O283  1  0.60254000  0.41158000  0.13396000  1.0
  O  O284  1  0.80908000  0.39740000  0.46743000  1.0
  O  O285  1  0.39735000  0.80907000  0.19931000  1.0
  O  O286  1  0.19096000  0.58843000  0.86604000  1.0
  O  O287  1  0.41168000  0.60261000  0.53257000  1.0
  O  O288  1  0.12182000  0.17636000  0.74402000  1.0
  O  O289  1  0.05454000  0.87812000  0.07746000  1.0
  O  O290  1  0.82349000  0.94541000  0.41079000  1.0
  O  O291  1  0.94546000  0.82364000  0.25598000  1.0
  O  O292  1  0.17642000  0.12188000  0.92254000  1.0
  O  O293  1  0.87808000  0.05459000  0.58921000  1.0
  O  O294  1  0.08936000  0.51372000  0.60674000  1.0
  O  O295  1  0.42442000  0.91067000  0.94014000  1.0
  O  O296  1  0.48635000  0.57564000  0.27346000  1.0
  O  O297  1  0.57564000  0.48628000  0.39326000  1.0
  O  O298  1  0.51375000  0.08933000  0.05986000  1.0
  O  O299  1  0.91071000  0.42436000  0.72654000  1.0
  O  O300  1  0.15824000  0.43603000  0.55709000  1.0
  O  O301  1  0.27786000  0.84182000  0.89050000  1.0
  O  O302  1  0.56393000  0.72213000  0.22382000  1.0
  O  O303  1  0.72221000  0.56397000  0.44291000  1.0
  O  O304  1  0.43604000  0.15818000  0.10950000  1.0
  O  O305  1  0.84180000  0.27787000  0.77618000  1.0
  O  O306  1  0.65745000  0.12770000  0.92864000  1.0
  O  O307  1  0.47008000  0.34268000  0.26210000  1.0
  O  O308  1  0.87245000  0.52984000  0.59540000  1.0
  O  O309  1  0.52975000  0.87230000  0.07136000  1.0
  O  O310  1  0.12740000  0.65732000  0.73790000  1.0
  O  O311  1  0.34262000  0.47017000  0.40460000  1.0
  O  O312  1  0.78864000  0.23107000  0.87369000  1.0
  O  O313  1  0.44243000  0.21158000  0.20712000  1.0
  O  O314  1  0.76905000  0.55754000  0.54043000  1.0
  O  O315  1  0.55757000  0.76893000  0.12631000  1.0
  O  O316  1  0.23086000  0.78843000  0.79288000  1.0
  O  O317  1  0.21151000  0.44246000  0.45957000  1.0
  O  O318  1  0.05286000  0.54420000  0.04174000  1.0
  O  O319  1  0.49127000  0.94719000  0.37500000  1.0
  O  O320  1  0.45582000  0.50874000  0.70837000  1.0
  O  O321  1  0.50866000  0.45580000  0.95826000  1.0
  O  O322  1  0.54408000  0.05281000  0.62500000  1.0
  O  O323  1  0.94708000  0.49126000  0.29163000  1.0
  O  O324  1  0.33146000  0.32371000  0.13176000  1.0
  O  O325  1  0.99240000  0.66861000  0.46518000  1.0
  O  O326  1  0.67631000  0.00780000  0.79841000  1.0
  O  O327  1  0.00775000  0.67629000  0.86824000  1.0
  O  O328  1  0.32379000  0.33139000  0.53482000  1.0
  O  O329  1  0.66851000  0.99220000  0.20159000  1.0
  O  O330  1  0.33528000  0.44049000  0.18875000  1.0
  O  O331  1  0.10554000  0.66487000  0.52210000  1.0
  O  O332  1  0.55975000  0.89487000  0.85543000  1.0
  O  O333  1  0.89479000  0.55950000  0.81125000  1.0
  O  O334  1  0.44067000  0.33513000  0.47789000  1.0
  O  O335  1  0.66488000  0.10513000  0.14457000  1.0
