# generated using pymatgen
data_NiH15C18(N4O3)2
_symmetry_space_group_name_H-M   'P 1'
_cell_length_a   14.80840000
_cell_length_b   16.40520000
_cell_length_c   19.72320000
_cell_angle_alpha   98.31910000
_cell_angle_beta   89.99980000
_cell_angle_gamma   89.99990000
_symmetry_Int_Tables_number   1
_chemical_formula_structural   NiH15C18(N4O3)2
_chemical_formula_sum   'Ni8 H120 C144 N64 O48'
_cell_volume   4741.03342428
_cell_formula_units_Z   8
loop_
 _symmetry_equiv_pos_site_id
 _symmetry_equiv_pos_as_xyz
  1  'x, y, z'
loop_
 _atom_site_type_symbol
 _atom_site_label
 _atom_site_symmetry_multiplicity
 _atom_site_fract_x
 _atom_site_fract_y
 _atom_site_fract_z
 _atom_site_occupancy
  Ni  Ni0  1  0.74307000  0.12032000  0.24455000  1.0
  Ni  Ni1  1  0.74463000  0.62436000  0.75898000  1.0
  Ni  Ni2  1  0.24307000  0.87967000  0.25545000  1.0
  Ni  Ni3  1  0.24463000  0.37564000  0.74102000  1.0
  Ni  Ni4  1  0.25693000  0.87968000  0.75546000  1.0
  Ni  Ni5  1  0.25537000  0.37565000  0.24102000  1.0
  Ni  Ni6  1  0.75693000  0.12032000  0.74455000  1.0
  Ni  Ni7  1  0.75537000  0.62436000  0.25898000  1.0
  H  H8  1  0.75471000  0.98797000  0.33632000  1.0
  H  H9  1  0.76857000  0.98415000  0.46262000  1.0
  H  H10  1  0.77710000  0.11798000  0.54249000  1.0
  H  H11  1  0.76563000  0.24372000  0.36533000  1.0
  H  H12  1  0.79626000  0.27227000  0.55708000  1.0
  H  H13  1  0.80491000  0.46905000  0.44850000  1.0
  H  H14  1  0.77611000  0.75599000  0.66907000  1.0
  H  H15  1  0.79026000  0.75896000  0.54282000  1.0
  H  H16  1  0.79574000  0.62455000  0.46324000  1.0
  H  H17  1  0.78626000  0.50023000  0.64150000  1.0
  H  H18  1  0.91441000  0.17692000  0.32157000  1.0
  H  H19  1  0.07984000  0.18236000  0.29776000  1.0
  H  H20  1  0.13662000  0.12633000  0.18055000  1.0
  H  H21  1  0.86062000  0.06049000  0.12471000  1.0
  H  H22  1  0.10360000  0.06596000  0.06084000  1.0
  H  H23  1  0.57288000  0.66881000  0.82614000  1.0
  H  H24  1  0.40719000  0.66813000  0.80043000  1.0
  H  H25  1  0.35409000  0.61857000  0.68109000  1.0
  H  H26  1  0.63096000  0.55876000  0.62793000  1.0
  H  H27  1  0.39120000  0.55803000  0.56097000  1.0
  H  H28  1  0.58429000  0.07201000  0.15427000  1.0
  H  H29  1  0.41543000  0.06705000  0.16395000  1.0
  H  H30  1  0.34212000  0.12120000  0.27597000  1.0
  H  H31  1  0.60752000  0.18508000  0.35578000  1.0
  H  H32  1  0.36295000  0.17811000  0.40351000  1.0
  H  H33  1  0.57450000  0.30272000  0.52502000  1.0
  H  H34  1  0.42757000  0.41936000  0.79801000  1.0
  H  H35  1  0.58861000  0.41017000  0.76013000  1.0
  H  H36  1  0.62321000  0.35775000  0.63729000  1.0
  H  H37  1  0.33667000  0.31770000  0.60521000  1.0
  H  H38  1  0.25471000  0.01203000  0.16368000  1.0
  H  H39  1  0.26858000  0.01585000  0.03738000  1.0
  H  H40  1  0.27711000  0.88203000  0.95751000  1.0
  H  H41  1  0.26563000  0.75628000  0.13467000  1.0
  H  H42  1  0.29627000  0.72773000  0.94291000  1.0
  H  H43  1  0.30491000  0.53095000  0.05149000  1.0
  H  H44  1  0.27611000  0.24401000  0.83093000  1.0
  H  H45  1  0.29026000  0.24104000  0.95719000  1.0
  H  H46  1  0.29574000  0.37545000  0.03676000  1.0
  H  H47  1  0.28626000  0.49977000  0.85850000  1.0
  H  H48  1  0.41441000  0.82308000  0.17844000  1.0
  H  H49  1  0.57984000  0.81763000  0.20225000  1.0
  H  H50  1  0.63662000  0.87367000  0.31945000  1.0
  H  H51  1  0.36062000  0.93951000  0.37530000  1.0
  H  H52  1  0.60360000  0.93404000  0.43916000  1.0
  H  H53  1  0.07289000  0.33119000  0.67386000  1.0
  H  H54  1  0.90719000  0.33187000  0.69956000  1.0
  H  H55  1  0.85409000  0.38143000  0.81890000  1.0
  H  H56  1  0.13095000  0.44124000  0.87207000  1.0
  H  H57  1  0.89119000  0.44197000  0.93902000  1.0
  H  H58  1  0.08429000  0.92799000  0.34573000  1.0
  H  H59  1  0.91544000  0.93296000  0.33605000  1.0
  H  H60  1  0.84212000  0.87879000  0.22403000  1.0
  H  H61  1  0.10752000  0.81491000  0.14422000  1.0
  H  H62  1  0.86295000  0.82188000  0.09649000  1.0
  H  H63  1  0.07451000  0.69728000  0.97498000  1.0
  H  H64  1  0.92756000  0.58063000  0.70199000  1.0
  H  H65  1  0.08860000  0.58983000  0.73986000  1.0
  H  H66  1  0.12321000  0.64225000  0.86271000  1.0
  H  H67  1  0.83667000  0.68231000  0.89479000  1.0
  H  H68  1  0.24529000  0.01203000  0.66369000  1.0
  H  H69  1  0.23143000  0.01585000  0.53739000  1.0
  H  H70  1  0.22290000  0.88203000  0.45751000  1.0
  H  H71  1  0.23437000  0.75628000  0.63467000  1.0
  H  H72  1  0.20373000  0.72773000  0.44292000  1.0
  H  H73  1  0.19509000  0.53094000  0.55150000  1.0
  H  H74  1  0.22390000  0.24401000  0.33093000  1.0
  H  H75  1  0.20975000  0.24104000  0.45718000  1.0
  H  H76  1  0.20427000  0.37545000  0.53676000  1.0
  H  H77  1  0.21373000  0.49977000  0.35849000  1.0
  H  H78  1  0.08559000  0.82308000  0.67843000  1.0
  H  H79  1  0.92016000  0.81763000  0.70225000  1.0
  H  H80  1  0.86338000  0.87368000  0.81945000  1.0
  H  H81  1  0.13938000  0.93951000  0.87530000  1.0
  H  H82  1  0.89640000  0.93405000  0.93916000  1.0
  H  H83  1  0.42712000  0.33119000  0.17386000  1.0
  H  H84  1  0.59281000  0.33187000  0.19956000  1.0
  H  H85  1  0.64591000  0.38143000  0.31890000  1.0
  H  H86  1  0.36904000  0.44124000  0.37206000  1.0
  H  H87  1  0.60881000  0.44197000  0.43902000  1.0
  H  H88  1  0.41571000  0.92800000  0.84573000  1.0
  H  H89  1  0.58456000  0.93296000  0.83605000  1.0
  H  H90  1  0.65788000  0.87879000  0.72403000  1.0
  H  H91  1  0.39248000  0.81491000  0.64422000  1.0
  H  H92  1  0.63705000  0.82188000  0.59650000  1.0
  H  H93  1  0.42549000  0.69728000  0.47498000  1.0
  H  H94  1  0.57244000  0.58064000  0.20199000  1.0
  H  H95  1  0.41140000  0.58983000  0.23986000  1.0
  H  H96  1  0.37679000  0.64225000  0.36271000  1.0
  H  H97  1  0.66333000  0.68231000  0.39479000  1.0
  H  H98  1  0.74529000  0.98797000  0.83632000  1.0
  H  H99  1  0.73142000  0.98415000  0.96262000  1.0
  H  H100  1  0.72289000  0.11798000  0.04249000  1.0
  H  H101  1  0.73437000  0.24372000  0.86533000  1.0
  H  H102  1  0.70372000  0.27227000  0.05708000  1.0
  H  H103  1  0.69509000  0.46906000  0.94850000  1.0
  H  H104  1  0.72390000  0.75599000  0.16907000  1.0
  H  H105  1  0.70975000  0.75897000  0.04282000  1.0
  H  H106  1  0.70427000  0.62455000  0.96324000  1.0
  H  H107  1  0.71373000  0.50023000  0.14150000  1.0
  H  H108  1  0.58560000  0.17692000  0.82157000  1.0
  H  H109  1  0.42016000  0.18237000  0.79775000  1.0
  H  H110  1  0.36338000  0.12633000  0.68055000  1.0
  H  H111  1  0.63938000  0.06049000  0.62471000  1.0
  H  H112  1  0.39640000  0.06596000  0.56084000  1.0
  H  H113  1  0.92712000  0.66881000  0.32614000  1.0
  H  H114  1  0.09281000  0.66812000  0.30043000  1.0
  H  H115  1  0.14590000  0.61857000  0.18109000  1.0
  H  H116  1  0.86904000  0.55876000  0.12793000  1.0
  H  H117  1  0.10880000  0.55802000  0.06097000  1.0
  H  H118  1  0.91572000  0.07201000  0.65427000  1.0
  H  H119  1  0.08457000  0.06705000  0.66395000  1.0
  H  H120  1  0.15788000  0.12122000  0.77596000  1.0
  H  H121  1  0.89248000  0.18509000  0.85578000  1.0
  H  H122  1  0.13705000  0.17812000  0.90351000  1.0
  H  H123  1  0.92550000  0.30272000  0.02502000  1.0
  H  H124  1  0.07244000  0.41937000  0.29801000  1.0
  H  H125  1  0.91140000  0.41017000  0.26014000  1.0
  H  H126  1  0.87679000  0.35775000  0.13729000  1.0
  H  H127  1  0.16333000  0.31771000  0.10521000  1.0
  C  C128  1  0.76002000  0.04428000  0.37280000  1.0
  C  C129  1  0.76721000  0.04294000  0.44308000  1.0
  C  C130  1  0.77251000  0.11711000  0.48729000  1.0
  C  C131  1  0.77034000  0.19139000  0.45974000  1.0
  C  C132  1  0.76512000  0.18724000  0.38843000  1.0
  C  C133  1  0.77463000  0.27075000  0.50380000  1.0
  C  C134  1  0.78558000  0.47242000  0.50255000  1.0
  C  C135  1  0.78214000  0.69942000  0.63294000  1.0
  C  C136  1  0.78914000  0.70031000  0.56257000  1.0
  C  C137  1  0.79250000  0.62586000  0.51861000  1.0
  C  C138  1  0.78927000  0.55185000  0.54655000  1.0
  C  C139  1  0.78648000  0.55647000  0.61803000  1.0
  C  C140  1  0.94156000  0.15189000  0.27158000  1.0
  C  C141  1  0.03341000  0.15559000  0.25784000  1.0
  C  C142  1  0.06483000  0.12381000  0.19283000  1.0
  C  C143  1  0.00270000  0.08824000  0.14340000  1.0
  C  C144  1  0.91105000  0.08666000  0.16188000  1.0
  C  C145  1  0.03322000  0.05477000  0.07470000  1.0
  C  C146  1  0.54666000  0.64511000  0.77545000  1.0
  C  C147  1  0.45506000  0.64562000  0.76029000  1.0
  C  C148  1  0.42562000  0.61637000  0.69411000  1.0
  C  C149  1  0.48954000  0.58384000  0.64502000  1.0
  C  C150  1  0.58059000  0.58431000  0.66520000  1.0
  C  C151  1  0.46221000  0.55064000  0.57532000  1.0
  C  C152  1  0.54956000  0.09555000  0.20183000  1.0
  C  C153  1  0.45608000  0.09264000  0.20791000  1.0
  C  C154  1  0.41527000  0.12333000  0.27014000  1.0
  C  C155  1  0.47027000  0.15790000  0.32474000  1.0
  C  C156  1  0.56398000  0.15870000  0.31387000  1.0
  C  C157  1  0.43359000  0.19118000  0.39190000  1.0
  C  C158  1  0.50394000  0.29760000  0.54138000  1.0
  C  C159  1  0.44536000  0.39490000  0.74545000  1.0
  C  C160  1  0.53477000  0.39084000  0.72389000  1.0
  C  C161  1  0.55375000  0.36023000  0.65593000  1.0
  C  C162  1  0.48250000  0.33191000  0.61175000  1.0
  C  C163  1  0.39408000  0.33792000  0.63797000  1.0
  C  C164  1  0.26002000  0.95571000  0.12720000  1.0
  C  C165  1  0.26721000  0.95706000  0.05692000  1.0
  C  C166  1  0.27251000  0.88290000  0.01271000  1.0
  C  C167  1  0.27034000  0.80861000  0.04025000  1.0
  C  C168  1  0.26512000  0.81276000  0.11157000  1.0
  C  C169  1  0.27464000  0.72925000  0.99619000  1.0
  C  C170  1  0.28558000  0.52758000  0.99745000  1.0
  C  C171  1  0.28214000  0.30058000  0.86706000  1.0
  C  C172  1  0.28913000  0.29969000  0.93743000  1.0
  C  C173  1  0.29249000  0.37415000  0.98139000  1.0
  C  C174  1  0.28927000  0.44815000  0.95345000  1.0
  C  C175  1  0.28648000  0.44353000  0.88197000  1.0
  C  C176  1  0.44156000  0.84811000  0.22843000  1.0
  C  C177  1  0.53341000  0.84440000  0.24217000  1.0
  C  C178  1  0.56483000  0.87618000  0.30717000  1.0
  C  C179  1  0.50271000  0.91176000  0.35660000  1.0
  C  C180  1  0.41105000  0.91334000  0.33813000  1.0
  C  C181  1  0.53323000  0.94523000  0.42530000  1.0
  C  C182  1  0.04666000  0.35489000  0.72454000  1.0
  C  C183  1  0.95506000  0.35438000  0.73971000  1.0
  C  C184  1  0.92562000  0.38363000  0.80588000  1.0
  C  C185  1  0.98953000  0.41616000  0.85498000  1.0
  C  C186  1  0.08059000  0.41569000  0.83480000  1.0
  C  C187  1  0.96220000  0.44936000  0.92467000  1.0
  C  C188  1  0.04956000  0.90445000  0.29817000  1.0
  C  C189  1  0.95608000  0.90736000  0.29209000  1.0
  C  C190  1  0.91528000  0.87666000  0.22986000  1.0
  C  C191  1  0.97027000  0.84209000  0.17526000  1.0
  C  C192  1  0.06399000  0.84130000  0.18613000  1.0
  C  C193  1  0.93359000  0.80882000  0.10810000  1.0
  C  C194  1  0.00395000  0.70240000  0.95862000  1.0
  C  C195  1  0.94536000  0.60510000  0.75455000  1.0
  C  C196  1  0.03476000  0.60916000  0.77610000  1.0
  C  C197  1  0.05375000  0.63976000  0.84407000  1.0
  C  C198  1  0.98250000  0.66809000  0.88824000  1.0
  C  C199  1  0.89408000  0.66208000  0.86203000  1.0
  C  C200  1  0.23998000  0.95572000  0.62720000  1.0
  C  C201  1  0.23279000  0.95706000  0.55692000  1.0
  C  C202  1  0.22749000  0.88290000  0.51272000  1.0
  C  C203  1  0.22966000  0.80861000  0.54026000  1.0
  C  C204  1  0.23488000  0.81276000  0.61157000  1.0
  C  C205  1  0.22537000  0.72925000  0.49620000  1.0
  C  C206  1  0.21441000  0.52758000  0.49745000  1.0
  C  C207  1  0.21786000  0.30058000  0.36706000  1.0
  C  C208  1  0.21088000  0.29969000  0.43743000  1.0
  C  C209  1  0.20751000  0.37415000  0.48139000  1.0
  C  C210  1  0.21072000  0.44815000  0.45345000  1.0
  C  C211  1  0.21351000  0.44353000  0.38197000  1.0
  C  C212  1  0.05844000  0.84811000  0.72842000  1.0
  C  C213  1  0.96659000  0.84441000  0.74216000  1.0
  C  C214  1  0.93517000  0.87619000  0.80717000  1.0
  C  C215  1  0.99729000  0.91176000  0.85660000  1.0
  C  C216  1  0.08895000  0.91334000  0.83812000  1.0
  C  C217  1  0.96677000  0.94524000  0.92530000  1.0
  C  C218  1  0.45334000  0.35489000  0.22455000  1.0
  C  C219  1  0.54494000  0.35438000  0.23971000  1.0
  C  C220  1  0.57438000  0.38363000  0.30588000  1.0
  C  C221  1  0.51046000  0.41616000  0.35498000  1.0
  C  C222  1  0.41941000  0.41569000  0.33480000  1.0
  C  C223  1  0.53779000  0.44936000  0.42468000  1.0
  C  C224  1  0.45044000  0.90445000  0.79817000  1.0
  C  C225  1  0.54392000  0.90737000  0.79209000  1.0
  C  C226  1  0.58473000  0.87666000  0.72986000  1.0
  C  C227  1  0.52973000  0.84210000  0.67526000  1.0
  C  C228  1  0.43602000  0.84130000  0.68613000  1.0
  C  C229  1  0.56641000  0.80882000  0.60810000  1.0
  C  C230  1  0.49605000  0.70240000  0.45862000  1.0
  C  C231  1  0.55464000  0.60511000  0.25455000  1.0
  C  C232  1  0.46524000  0.60916000  0.27611000  1.0
  C  C233  1  0.44625000  0.63977000  0.34407000  1.0
  C  C234  1  0.51750000  0.66809000  0.38824000  1.0
  C  C235  1  0.60592000  0.66209000  0.36203000  1.0
  C  C236  1  0.73998000  0.04428000  0.87280000  1.0
  C  C237  1  0.73279000  0.04294000  0.94308000  1.0
  C  C238  1  0.72749000  0.11711000  0.98729000  1.0
  C  C239  1  0.72966000  0.19139000  0.95975000  1.0
  C  C240  1  0.73488000  0.18724000  0.88843000  1.0
  C  C241  1  0.72536000  0.27075000  0.00380000  1.0
  C  C242  1  0.71441000  0.47242000  0.00255000  1.0
  C  C243  1  0.71786000  0.69943000  0.13294000  1.0
  C  C244  1  0.71087000  0.70031000  0.06257000  1.0
  C  C245  1  0.70751000  0.62586000  0.01861000  1.0
  C  C246  1  0.71072000  0.55185000  0.04655000  1.0
  C  C247  1  0.71351000  0.55647000  0.11803000  1.0
  C  C248  1  0.55844000  0.15189000  0.77158000  1.0
  C  C249  1  0.46659000  0.15560000  0.75784000  1.0
  C  C250  1  0.43517000  0.12381000  0.69283000  1.0
  C  C251  1  0.49730000  0.08824000  0.64341000  1.0
  C  C252  1  0.58895000  0.08666000  0.66188000  1.0
  C  C253  1  0.46678000  0.05476000  0.57470000  1.0
  C  C254  1  0.95334000  0.64510000  0.27545000  1.0
  C  C255  1  0.04493000  0.64562000  0.26029000  1.0
  C  C256  1  0.07437000  0.61637000  0.19411000  1.0
  C  C257  1  0.01046000  0.58384000  0.14502000  1.0
  C  C258  1  0.91941000  0.58431000  0.16520000  1.0
  C  C259  1  0.03779000  0.55063000  0.07532000  1.0
  C  C260  1  0.95044000  0.09555000  0.70183000  1.0
  C  C261  1  0.04392000  0.09265000  0.70791000  1.0
  C  C262  1  0.08473000  0.12334000  0.77014000  1.0
  C  C263  1  0.02973000  0.15791000  0.82474000  1.0
  C  C264  1  0.93602000  0.15870000  0.81387000  1.0
  C  C265  1  0.06641000  0.19118000  0.89190000  1.0
  C  C266  1  0.99606000  0.29760000  0.04138000  1.0
  C  C267  1  0.05464000  0.39490000  0.24545000  1.0
  C  C268  1  0.96523000  0.39085000  0.22389000  1.0
  C  C269  1  0.94625000  0.36024000  0.15593000  1.0
  C  C270  1  0.01750000  0.33191000  0.11176000  1.0
  C  C271  1  0.10593000  0.33793000  0.13797000  1.0
  N  N272  1  0.75952000  0.11553000  0.34604000  1.0
  N  N273  1  0.75213000  0.33766000  0.48038000  1.0
  N  N274  1  0.75734000  0.40793000  0.52702000  1.0
  N  N275  1  0.78131000  0.62848000  0.66014000  1.0
  N  N276  1  0.88115000  0.11791000  0.22443000  1.0
  N  N277  1  0.97917000  0.01300000  0.03119000  1.0
  N  N278  1  0.60903000  0.61540000  0.72812000  1.0
  N  N279  1  0.51955000  0.51361000  0.53165000  1.0
  N  N280  1  0.60313000  0.12752000  0.25464000  1.0
  N  N281  1  0.48577000  0.23418000  0.43601000  1.0
  N  N282  1  0.44514000  0.26106000  0.49870000  1.0
  N  N283  1  0.37596000  0.36923000  0.70327000  1.0
  N  N284  1  0.73959000  0.25245000  0.19078000  1.0
  N  N285  1  0.72049000  0.96077000  0.15496000  1.0
  N  N286  1  0.71966000  0.49478000  0.81348000  1.0
  N  N287  1  0.71553000  0.78294000  0.84878000  1.0
  N  N288  1  0.25953000  0.88446000  0.15396000  1.0
  N  N289  1  0.25212000  0.66234000  0.01962000  1.0
  N  N290  1  0.25733000  0.59207000  0.97297000  1.0
  N  N291  1  0.28131000  0.37152000  0.83986000  1.0
  N  N292  1  0.38115000  0.88209000  0.27557000  1.0
  N  N293  1  0.47917000  0.98701000  0.46881000  1.0
  N  N294  1  0.10902000  0.38460000  0.77188000  1.0
  N  N295  1  0.01954000  0.48638000  0.96834000  1.0
  N  N296  1  0.10313000  0.87247000  0.24536000  1.0
  N  N297  1  0.98577000  0.76581000  0.06399000  1.0
  N  N298  1  0.94514000  0.73893000  0.00130000  1.0
  N  N299  1  0.87596000  0.63078000  0.79673000  1.0
  N  N300  1  0.23959000  0.74755000  0.30922000  1.0
  N  N301  1  0.22048000  0.03922000  0.34504000  1.0
  N  N302  1  0.21966000  0.50523000  0.68653000  1.0
  N  N303  1  0.21554000  0.21706000  0.65122000  1.0
  N  N304  1  0.24048000  0.88446000  0.65396000  1.0
  N  N305  1  0.24787000  0.66234000  0.51962000  1.0
  N  N306  1  0.24266000  0.59207000  0.47298000  1.0
  N  N307  1  0.21869000  0.37152000  0.33986000  1.0
  N  N308  1  0.11885000  0.88209000  0.77557000  1.0
  N  N309  1  0.02083000  0.98701000  0.96881000  1.0
  N  N310  1  0.39097000  0.38460000  0.27188000  1.0
  N  N311  1  0.48045000  0.48638000  0.46835000  1.0
  N  N312  1  0.39687000  0.87247000  0.74536000  1.0
  N  N313  1  0.51423000  0.76581000  0.56399000  1.0
  N  N314  1  0.55486000  0.73893000  0.50130000  1.0
  N  N315  1  0.62404000  0.63078000  0.29673000  1.0
  N  N316  1  0.26041000  0.74755000  0.80922000  1.0
  N  N317  1  0.27952000  0.03922000  0.84504000  1.0
  N  N318  1  0.28034000  0.50523000  0.18652000  1.0
  N  N319  1  0.28446000  0.21706000  0.15122000  1.0
  N  N320  1  0.74048000  0.11554000  0.84604000  1.0
  N  N321  1  0.74787000  0.33766000  0.98038000  1.0
  N  N322  1  0.74265000  0.40793000  0.02703000  1.0
  N  N323  1  0.71869000  0.62848000  0.16014000  1.0
  N  N324  1  0.61885000  0.11791000  0.72443000  1.0
  N  N325  1  0.52083000  0.01299000  0.53120000  1.0
  N  N326  1  0.89097000  0.61539000  0.22812000  1.0
  N  N327  1  0.98044000  0.51361000  0.03165000  1.0
  N  N328  1  0.89687000  0.12753000  0.75464000  1.0
  N  N329  1  0.01423000  0.23419000  0.93601000  1.0
  N  N330  1  0.05487000  0.26108000  0.99870000  1.0
  N  N331  1  0.12405000  0.36923000  0.20327000  1.0
  N  N332  1  0.76041000  0.25245000  0.69078000  1.0
  N  N333  1  0.77951000  0.96078000  0.65496000  1.0
  N  N334  1  0.78034000  0.49478000  0.31348000  1.0
  N  N335  1  0.78447000  0.78294000  0.34877000  1.0
  O  O336  1  0.72899000  0.18175000  0.15399000  1.0
  O  O337  1  0.75121000  0.25120000  0.25521000  1.0
  O  O338  1  0.73774000  0.31765000  0.16617000  1.0
  O  O339  1  0.73366000  0.99482000  0.21840000  1.0
  O  O340  1  0.71235000  0.00515000  0.10878000  1.0
  O  O341  1  0.71708000  0.88381000  0.14347000  1.0
  O  O342  1  0.75008000  0.49364000  0.75229000  1.0
  O  O343  1  0.70477000  0.56663000  0.84716000  1.0
  O  O344  1  0.70494000  0.43058000  0.83786000  1.0
  O  O345  1  0.73575000  0.75019000  0.78603000  1.0
  O  O346  1  0.68387000  0.73890000  0.88976000  1.0
  O  O347  1  0.72943000  0.85855000  0.86491000  1.0
  O  O348  1  0.22899000  0.81824000  0.34601000  1.0
  O  O349  1  0.25122000  0.74879000  0.24479000  1.0
  O  O350  1  0.23774000  0.68235000  0.33383000  1.0
  O  O351  1  0.23366000  0.00517000  0.28161000  1.0
  O  O352  1  0.21234000  0.99484000  0.39122000  1.0
  O  O353  1  0.21707000  0.11618000  0.35653000  1.0
  O  O354  1  0.25007000  0.50636000  0.74772000  1.0
  O  O355  1  0.20478000  0.43337000  0.65284000  1.0
  O  O356  1  0.20495000  0.56943000  0.66214000  1.0
  O  O357  1  0.23576000  0.24981000  0.71397000  1.0
  O  O358  1  0.18389000  0.26110000  0.61023000  1.0
  O  O359  1  0.22944000  0.14145000  0.63509000  1.0
  O  O360  1  0.27101000  0.81824000  0.84601000  1.0
  O  O361  1  0.24879000  0.74879000  0.74479000  1.0
  O  O362  1  0.26226000  0.68235000  0.83383000  1.0
  O  O363  1  0.26634000  0.00517000  0.78161000  1.0
  O  O364  1  0.28767000  0.99484000  0.89123000  1.0
  O  O365  1  0.28293000  0.11618000  0.85653000  1.0
  O  O366  1  0.24993000  0.50636000  0.24771000  1.0
  O  O367  1  0.29523000  0.43338000  0.15284000  1.0
  O  O368  1  0.29505000  0.56943000  0.16214000  1.0
  O  O369  1  0.26425000  0.24981000  0.21397000  1.0
  O  O370  1  0.31612000  0.26109000  0.11024000  1.0
  O  O371  1  0.27056000  0.14145000  0.13509000  1.0
  O  O372  1  0.77101000  0.18175000  0.65399000  1.0
  O  O373  1  0.74878000  0.25120000  0.75521000  1.0
  O  O374  1  0.76226000  0.31765000  0.66617000  1.0
  O  O375  1  0.76634000  0.99483000  0.71840000  1.0
  O  O376  1  0.78765000  0.00516000  0.60878000  1.0
  O  O377  1  0.78293000  0.88381000  0.64347000  1.0
  O  O378  1  0.74992000  0.49365000  0.25229000  1.0
  O  O379  1  0.79522000  0.56663000  0.34716000  1.0
  O  O380  1  0.79505000  0.43058000  0.33786000  1.0
  O  O381  1  0.76425000  0.75019000  0.28602000  1.0
  O  O382  1  0.81612000  0.73890000  0.38976000  1.0
  O  O383  1  0.77056000  0.85855000  0.36491000  1.0
