# generated using pymatgen
data_SnH9C9N(OF)2
_symmetry_space_group_name_H-M   'P 1'
_cell_length_a   7.82308000
_cell_length_b   7.91100000
_cell_length_c   17.10760000
_cell_angle_alpha   90.59230000
_cell_angle_beta   90.09750000
_cell_angle_gamma   89.94290000
_symmetry_Int_Tables_number   1
_chemical_formula_structural   SnH9C9N(OF)2
_chemical_formula_sum   'Sn4 H36 C36 N4 O8 F8'
_cell_volume   1058.70313786
_cell_formula_units_Z   4
loop_
 _symmetry_equiv_pos_site_id
 _symmetry_equiv_pos_as_xyz
  1  'x, y, z'
loop_
 _atom_site_type_symbol
 _atom_site_label
 _atom_site_symmetry_multiplicity
 _atom_site_fract_x
 _atom_site_fract_y
 _atom_site_fract_z
 _atom_site_occupancy
  Sn  Sn0  1  0.03589000  0.25097000  0.77948000  1.0
  Sn  Sn1  1  0.96411000  0.74903000  0.22052000  1.0
  Sn  Sn2  1  0.53554000  0.25016000  0.71867000  1.0
  Sn  Sn3  1  0.46445000  0.74982000  0.28133000  1.0
  H  H4  1  0.10758000  0.25551000  0.33301000  1.0
  H  H5  1  0.89248000  0.74443000  0.66699000  1.0
  H  H6  1  0.60270000  0.25100000  0.43429000  1.0
  H  H7  1  0.39733000  0.74907000  0.56569000  1.0
  H  H8  1  0.73493000  0.24925000  0.56676000  1.0
  H  H9  1  0.26508000  0.75085000  0.43323000  1.0
  H  H10  1  0.20901000  0.52949000  0.82113000  1.0
  H  H11  1  0.79095000  0.47052000  0.17889000  1.0
  H  H12  1  0.04684000  0.48802000  0.89275000  1.0
  H  H13  1  0.95312000  0.51197000  0.10726000  1.0
  H  H14  1  0.98939000  0.58356000  0.80201000  1.0
  H  H15  1  0.01057000  0.41643000  0.19800000  1.0
  H  H16  1  0.97272000  0.92294000  0.80322000  1.0
  H  H17  1  0.02724000  0.07706000  0.19677000  1.0
  H  H18  1  0.05584000  0.01521000  0.89132000  1.0
  H  H19  1  0.94418000  0.98474000  0.10866000  1.0
  H  H20  1  0.19844000  0.96254000  0.81243000  1.0
  H  H21  1  0.80153000  0.03743000  0.18754000  1.0
  H  H22  1  0.50867000  0.58713000  0.70307000  1.0
  H  H23  1  0.49134000  0.41286000  0.29697000  1.0
  H  H24  1  0.51417000  0.48645000  0.60881000  1.0
  H  H25  1  0.48583000  0.51360000  0.39122000  1.0
  H  H26  1  0.70902000  0.51458000  0.66352000  1.0
  H  H27  1  0.29098000  0.48543000  0.33651000  1.0
  H  H28  1  0.52028000  0.91154000  0.70373000  1.0
  H  H29  1  0.47972000  0.08845000  0.29622000  1.0
  H  H30  1  0.71412000  0.98891000  0.66058000  1.0
  H  H31  1  0.28589000  0.01112000  0.33939000  1.0
  H  H32  1  0.51394000  0.00802000  0.60937000  1.0
  H  H33  1  0.48608000  0.99204000  0.39061000  1.0
  H  H34  1  0.61514000  0.24599000  0.16452000  1.0
  H  H35  1  0.38486000  0.75406000  0.83548000  1.0
  H  H36  1  0.10765000  0.25248000  0.06523000  1.0
  H  H37  1  0.89233000  0.74751000  0.93478000  1.0
  H  H38  1  0.23719000  0.25336000  0.93213000  1.0
  H  H39  1  0.76278000  0.74658000  0.06787000  1.0
  C  C40  1  0.09488000  0.25363000  0.45912000  1.0
  C  C41  1  0.90515000  0.74635000  0.54089000  1.0
  C  C42  1  0.02530000  0.25441000  0.38418000  1.0
  C  C43  1  0.97476000  0.74556000  0.61582000  1.0
  C  C44  1  0.84836000  0.25343000  0.37730000  1.0
  C  C45  1  0.15168000  0.74657000  0.62269000  1.0
  C  C46  1  0.74079000  0.25163000  0.44162000  1.0
  C  C47  1  0.25925000  0.74842000  0.55837000  1.0
  C  C48  1  0.81586000  0.25074000  0.51532000  1.0
  C  C49  1  0.18416000  0.74932000  0.48467000  1.0
  C  C50  1  0.99393000  0.25167000  0.52700000  1.0
  C  C51  1  0.00609000  0.74835000  0.47300000  1.0
  C  C52  1  0.06013000  0.25069000  0.60792000  1.0
  C  C53  1  0.93987000  0.74934000  0.39209000  1.0
  C  C54  1  0.07572000  0.49418000  0.83028000  1.0
  C  C55  1  0.92424000  0.50581000  0.16973000  1.0
  C  C56  1  0.07047000  0.00676000  0.82781000  1.0
  C  C57  1  0.92951000  0.99321000  0.17218000  1.0
  C  C58  1  0.57174000  0.49080000  0.66711000  1.0
  C  C59  1  0.42826000  0.50922000  0.33291000  1.0
  C  C60  1  0.57646000  0.00837000  0.66666667  1.0
  C  C61  1  0.42354000  0.99165000  0.33333333  1.0
  C  C62  1  0.56130000  0.25117000  0.88999000  1.0
  C  C63  1  0.43868000  0.74878000  0.11001000  1.0
  C  C64  1  0.49688000  0.25027000  0.97109000  1.0
  C  C65  1  0.50310000  0.74969000  0.02891000  1.0
  C  C66  1  0.59944000  0.24795000  0.03863000  1.0
  C  C67  1  0.40053000  0.75204000  0.96138000  1.0
  C  C68  1  0.53153000  0.24779000  0.11372000  1.0
  C  C69  1  0.46845000  0.75223000  0.88628000  1.0
  C  C70  1  0.35492000  0.24979000  0.12124000  1.0
  C  C71  1  0.64507000  0.75023000  0.87876000  1.0
  C  C72  1  0.24560000  0.25145000  0.05739000  1.0
  C  C73  1  0.75438000  0.74854000  0.94262000  1.0
  C  C74  1  0.31908000  0.25177000  0.98342000  1.0
  C  C75  1  0.68090000  0.74819000  0.01659000  1.0
  N  N76  1  0.22499000  0.24846000  0.62051000  1.0
  N  N77  1  0.77501000  0.75155000  0.37949000  1.0
  N  N78  1  0.72601000  0.25334000  0.87722000  1.0
  N  N79  1  0.27396000  0.74662000  0.12279000  1.0
  O  O80  1  0.94254000  0.25191000  0.66441000  1.0
  O  O81  1  0.05745000  0.74813000  0.33559000  1.0
  O  O82  1  0.25909000  0.24751000  0.70196000  1.0
  O  O83  1  0.74091000  0.75250000  0.29804000  1.0
  O  O84  1  0.44279000  0.25019000  0.83369000  1.0
  O  O85  1  0.55721000  0.74976000  0.16631000  1.0
  O  O86  1  0.75933000  0.25479000  0.79581000  1.0
  O  O87  1  0.24066000  0.74518000  0.20420000  1.0
  F  F88  1  0.26812000  0.25482000  0.46429000  1.0
  F  F89  1  0.73191000  0.74510000  0.53572000  1.0
  F  F90  1  0.77897000  0.25419000  0.30377000  1.0
  F  F91  1  0.22111000  0.74579000  0.69621000  1.0
  F  F92  1  0.77267000  0.24553000  0.03303000  1.0
  F  F93  1  0.22732000  0.75447000  0.96697000  1.0
  F  F94  1  0.28783000  0.24998000  0.19521000  1.0
  F  F95  1  0.71217000  0.75008000  0.80480000  1.0
