# generated using pymatgen
data_ZnH19C17N3O4
_symmetry_space_group_name_H-M   'P 1'
_cell_length_a   9.30224000
_cell_length_b   9.30223000
_cell_length_c   11.15140000
_cell_angle_alpha   82.39640000
_cell_angle_beta   82.39630000
_cell_angle_gamma   65.99000000
_symmetry_Int_Tables_number   1
_chemical_formula_structural   ZnH19C17N3O4
_chemical_formula_sum   'Zn2 H38 C34 N6 O8'
_cell_volume   870.41693970
_cell_formula_units_Z   2
loop_
 _symmetry_equiv_pos_site_id
 _symmetry_equiv_pos_as_xyz
  1  'x, y, z'
loop_
 _atom_site_type_symbol
 _atom_site_label
 _atom_site_symmetry_multiplicity
 _atom_site_fract_x
 _atom_site_fract_y
 _atom_site_fract_z
 _atom_site_occupancy
  Zn  Zn0  1  0.16406000  0.21694000  0.25288000  1.0
  Zn  Zn1  1  0.78306000  0.83594000  0.74712000  1.0
  H  H2  1  0.76730000  0.49371000  0.77473000  1.0
  H  H3  1  0.50629000  0.23270000  0.22527000  1.0
  H  H4  1  0.13939000  0.03118000  0.48583000  1.0
  H  H5  1  0.96882000  0.86061000  0.51417000  1.0
  H  H6  1  0.02657000  0.07724000  0.69449000  1.0
  H  H7  1  0.92276000  0.97343000  0.30551000  1.0
  H  H8  1  0.80609000  0.57633000  0.57586000  1.0
  H  H9  1  0.42367000  0.19391000  0.42414000  1.0
  H  H10  1  0.93357000  0.50662000  0.36789000  1.0
  H  H11  1  0.49338000  0.06642000  0.63211000  1.0
  H  H12  1  0.23828000  0.06007000  0.02160000  1.0
  H  H13  1  0.93993000  0.76172000  0.97840000  1.0
  H  H14  1  0.13569000  0.11758000  0.82401000  1.0
  H  H15  1  0.88242000  0.86431000  0.17599000  1.0
  H  H16  1  0.72302000  0.49682000  0.97561000  1.0
  H  H17  1  0.50318000  0.27698000  0.02439000  1.0
  H  H18  1  0.84804000  0.42215000  0.17048000  1.0
  H  H19  1  0.57785000  0.15196000  0.82952000  1.0
  H  H20  1  0.37164000  0.57455000  0.08921000  1.0
  H  H21  1  0.42545000  0.62836000  0.91079000  1.0
  H  H22  1  0.20151000  0.73154000  0.14830000  1.0
  H  H23  1  0.26846000  0.79849000  0.85170000  1.0
  H  H24  1  0.47479000  0.48928000  0.28866000  1.0
  H  H25  1  0.51072000  0.52521000  0.71134000  1.0
  H  H26  1  0.29695000  0.62047000  0.36061000  1.0
  H  H27  1  0.37953000  0.70305000  0.63939000  1.0
  H  H28  1  0.64058000  0.61500000  0.13636000  1.0
  H  H29  1  0.38500000  0.35942000  0.86365000  1.0
  H  H30  1  0.59868000  0.81834000  0.13973000  1.0
  H  H31  1  0.18166000  0.40132000  0.86027000  1.0
  H  H32  1  0.47545000  0.76166000  0.06600000  1.0
  H  H33  1  0.23834000  0.52456000  0.93400000  1.0
  H  H34  1  0.47705000  0.71182000  0.45891000  1.0
  H  H35  1  0.28818000  0.52295000  0.54109000  1.0
  H  H36  1  0.60329000  0.78799000  0.36268000  1.0
  H  H37  1  0.21201000  0.39671000  0.63732000  1.0
  H  H38  1  0.64078000  0.58294000  0.37097000  1.0
  H  H39  1  0.41706000  0.35922000  0.62903000  1.0
  C  C40  1  0.06879000  0.15115000  0.50999000  1.0
  C  C41  1  0.84885000  0.93121000  0.49001000  1.0
  C  C42  1  0.00595000  0.17907000  0.62852000  1.0
  C  C43  1  0.82093000  0.99405000  0.37148000  1.0
  C  C44  1  0.91321000  0.33504000  0.65653000  1.0
  C  C45  1  0.66496000  0.08679000  0.34347000  1.0
  C  C46  1  0.88072000  0.45420000  0.55938000  1.0
  C  C47  1  0.54580000  0.11928000  0.44062000  1.0
  C  C48  1  0.94954000  0.41640000  0.44396000  1.0
  C  C49  1  0.58360000  0.05046000  0.55604000  1.0
  C  C50  1  0.12201000  0.15399000  0.00944000  1.0
  C  C51  1  0.84601000  0.87799000  0.99056000  1.0
  C  C52  1  0.06176000  0.18681000  0.89701000  1.0
  C  C53  1  0.81319000  0.93824000  0.10299000  1.0
  C  C54  1  0.91625000  0.31578000  0.88048000  1.0
  C  C55  1  0.68422000  0.08375000  0.11952000  1.0
  C  C56  1  0.83562000  0.39634000  0.98380000  1.0
  C  C57  1  0.60366000  0.16438000  0.01620000  1.0
  C  C58  1  0.90484000  0.35573000  0.09184000  1.0
  C  C59  1  0.64427000  0.09516000  0.90816000  1.0
  C  C60  1  0.20224000  0.50131000  0.19581000  1.0
  C  C61  1  0.49869000  0.79776000  0.80419000  1.0
  C  C62  1  0.28785000  0.61131000  0.16982000  1.0
  C  C63  1  0.38869000  0.71215000  0.83018000  1.0
  C  C64  1  0.37727000  0.60615000  0.27725000  1.0
  C  C65  1  0.39385000  0.62274000  0.72275000  1.0
  C  C66  1  0.44505000  0.73334000  0.26518000  1.0
  C  C67  1  0.26666000  0.55495000  0.73482000  1.0
  C  C68  1  0.31138000  0.89787000  0.27476000  1.0
  C  C69  1  0.10213000  0.68862000  0.72524000  1.0
  C  C70  1  0.54537000  0.73228000  0.14445000  1.0
  C  C71  1  0.26772000  0.45463000  0.85555000  1.0
  C  C72  1  0.54765000  0.70285000  0.37093000  1.0
  C  C73  1  0.29715000  0.45235000  0.62907000  1.0
  N  N74  1  0.04531000  0.26693000  0.41831000  1.0
  N  N75  1  0.73307000  0.95469000  0.58169000  1.0
  N  N76  1  0.84992000  0.37818000  0.77199000  1.0
  N  N77  1  0.62182000  0.15008000  0.22801000  1.0
  N  N78  1  0.04824000  0.23757000  0.10583000  1.0
  N  N79  1  0.76244000  0.95176000  0.89417000  1.0
  O  O80  1  0.29168000  0.35225000  0.22093000  1.0
  O  O81  1  0.64775000  0.70831000  0.77907000  1.0
  O  O82  1  0.05575000  0.55170000  0.19395000  1.0
  O  O83  1  0.44830000  0.94425000  0.80605000  1.0
  O  O84  1  0.17205000  0.91468000  0.30899000  1.0
  O  O85  1  0.08532000  0.82795000  0.69101000  1.0
  O  O86  1  0.35386000  0.01572000  0.24735000  1.0
  O  O87  1  0.98428000  0.64614000  0.75266000  1.0
