# generated using pymatgen
data_ErCrH4C6NO6
_symmetry_space_group_name_H-M   'P 1'
_cell_length_a   6.59274000
_cell_length_b   6.98395000
_cell_length_c   18.98190000
_cell_angle_alpha   89.99990000
_cell_angle_beta   89.99990000
_cell_angle_gamma   89.99990000
_symmetry_Int_Tables_number   1
_chemical_formula_structural   ErCrH4C6NO6
_chemical_formula_sum   'Er4 Cr4 H16 C24 N4 O24'
_cell_volume   873.99057900
_cell_formula_units_Z   4
loop_
 _symmetry_equiv_pos_site_id
 _symmetry_equiv_pos_as_xyz
  1  'x, y, z'
loop_
 _atom_site_type_symbol
 _atom_site_label
 _atom_site_symmetry_multiplicity
 _atom_site_fract_x
 _atom_site_fract_y
 _atom_site_fract_z
 _atom_site_occupancy
  Er  Er0  1  0.38380000  0.85789000  0.22415000  1.0
  Er  Er1  1  0.11621000  0.14211000  0.72415000  1.0
  Er  Er2  1  0.61622000  0.35789000  0.27585000  1.0
  Er  Er3  1  0.88378000  0.64211000  0.77585000  1.0
  Cr  Cr4  1  0.83062000  0.87789000  0.27968000  1.0
  Cr  Cr5  1  0.66938000  0.12212000  0.77969000  1.0
  Cr  Cr6  1  0.16939000  0.37788000  0.22031000  1.0
  Cr  Cr7  1  0.33061000  0.62213000  0.72032000  1.0
  H  H8  1  0.40811000  0.16609000  0.95437000  1.0
  H  H9  1  0.09190000  0.83390000  0.45437000  1.0
  H  H10  1  0.59189000  0.66609000  0.54563000  1.0
  H  H11  1  0.90810000  0.33390000  0.04562000  1.0
  H  H12  1  0.48449000  0.13759000  0.08381000  1.0
  H  H13  1  0.01551000  0.86241000  0.58381000  1.0
  H  H14  1  0.51551000  0.63759000  0.41619000  1.0
  H  H15  1  0.98449000  0.36241000  0.91619000  1.0
  H  H16  1  0.88632000  0.80717000  0.98932000  1.0
  H  H17  1  0.61368000  0.19282000  0.48932000  1.0
  H  H18  1  0.11368000  0.30717000  0.51068000  1.0
  H  H19  1  0.38632000  0.69282000  0.01068000  1.0
  H  H20  1  0.97912000  0.79742000  0.11729000  1.0
  H  H21  1  0.52088000  0.20258000  0.61729000  1.0
  H  H22  1  0.02088000  0.29742000  0.38271000  1.0
  H  H23  1  0.47912000  0.70258000  0.88271000  1.0
  C  C24  1  0.10578000  0.96437000  0.88417000  1.0
  C  C25  1  0.39423000  0.03563000  0.38417000  1.0
  C  C26  1  0.89422000  0.46436000  0.61583000  1.0
  C  C27  1  0.60578000  0.53563000  0.11583000  1.0
  C  C28  1  0.14408000  0.98283000  0.96185000  1.0
  C  C29  1  0.35592000  0.01716000  0.46185000  1.0
  C  C30  1  0.85592000  0.48284000  0.53815000  1.0
  C  C31  1  0.64408000  0.51716000  0.03815000  1.0
  C  C32  1  0.30890000  0.08478000  0.98916000  1.0
  C  C33  1  0.19111000  0.91522000  0.48916000  1.0
  C  C34  1  0.69111000  0.58478000  0.51084000  1.0
  C  C35  1  0.80889000  0.41522000  0.01084000  1.0
  C  C36  1  0.35204000  0.06751000  0.06082000  1.0
  C  C37  1  0.14796000  0.93248000  0.56082000  1.0
  C  C38  1  0.64796000  0.56752000  0.43918000  1.0
  C  C39  1  0.85203000  0.43248000  0.93918000  1.0
  C  C40  1  0.01897000  0.88307000  0.00858000  1.0
  C  C41  1  0.48103000  0.11693000  0.50858000  1.0
  C  C42  1  0.98103000  0.38307000  0.49141000  1.0
  C  C43  1  0.51897000  0.61692000  0.99141000  1.0
  C  C44  1  0.07035000  0.87702000  0.07951000  1.0
  C  C45  1  0.42965000  0.12298000  0.57951000  1.0
  C  C46  1  0.92966000  0.37702000  0.42049000  1.0
  C  C47  1  0.57034000  0.62298000  0.92049000  1.0
  N  N48  1  0.23883000  0.96086000  0.10509000  1.0
  N  N49  1  0.26118000  0.03914000  0.60509000  1.0
  N  N50  1  0.76118000  0.46086000  0.39490000  1.0
  N  N51  1  0.73882000  0.53914000  0.89491000  1.0
  O  O52  1  0.03821000  0.80224000  0.86441000  1.0
  O  O53  1  0.46179000  0.19776000  0.36441000  1.0
  O  O54  1  0.96178000  0.30223000  0.63559000  1.0
  O  O55  1  0.53823000  0.69777000  0.13559000  1.0
  O  O56  1  0.14284000  0.10559000  0.84437000  1.0
  O  O57  1  0.35716000  0.89440000  0.34437000  1.0
  O  O58  1  0.85715000  0.60560000  0.65563000  1.0
  O  O59  1  0.64285000  0.39441000  0.15563000  1.0
  O  O60  1  0.68597000  0.68247000  0.27530000  1.0
  O  O61  1  0.81403000  0.31754000  0.77530000  1.0
  O  O62  1  0.31404000  0.18247000  0.22470000  1.0
  O  O63  1  0.18595000  0.81754000  0.72470000  1.0
  O  O64  1  0.67829000  0.04385000  0.24042000  1.0
  O  O65  1  0.82171000  0.95616000  0.74043000  1.0
  O  O66  1  0.32172000  0.54384000  0.25957000  1.0
  O  O67  1  0.17828000  0.45616000  0.75958000  1.0
  O  O68  1  0.04429000  0.84675000  0.23599000  1.0
  O  O69  1  0.45571000  0.15326000  0.73599000  1.0
  O  O70  1  0.95572000  0.34675000  0.26401000  1.0
  O  O71  1  0.54428000  0.65326000  0.76401000  1.0
  O  O72  1  0.87446000  0.93720000  0.35974000  1.0
  O  O73  1  0.62554000  0.06281000  0.85974000  1.0
  O  O74  1  0.12555000  0.43720000  0.14026000  1.0
  O  O75  1  0.37445000  0.56281000  0.64026000  1.0
