# generated using pymatgen
data_BaH8C12(NO3)2
_symmetry_space_group_name_H-M   'P 1'
_cell_length_a   5.56052000
_cell_length_b   8.34379000
_cell_length_c   13.82705226
_cell_angle_alpha   80.80166531
_cell_angle_beta   78.47121929
_cell_angle_gamma   89.95970000
_symmetry_Int_Tables_number   1
_chemical_formula_structural   BaH8C12(NO3)2
_chemical_formula_sum   'Ba2 H16 C24 N4 O12'
_cell_volume   620.16760691
_cell_formula_units_Z   2
loop_
 _symmetry_equiv_pos_site_id
 _symmetry_equiv_pos_as_xyz
  1  'x, y, z'
loop_
 _atom_site_type_symbol
 _atom_site_label
 _atom_site_symmetry_multiplicity
 _atom_site_fract_x
 _atom_site_fract_y
 _atom_site_fract_z
 _atom_site_occupancy
  Ba  Ba0  1  0.85771000  0.25025000  0.99996000  1.0
  Ba  Ba1  1  0.14227000  0.74975000  0.00004000  1.0
  H  H2  1  0.64163000  0.74751000  0.65100000  1.0
  H  H3  1  0.29296000  0.75250000  0.34897000  1.0
  H  H4  1  0.35838000  0.25249000  0.34899000  1.0
  H  H5  1  0.70704000  0.24751000  0.65104000  1.0
  H  H6  1  0.94575000  0.66997000  0.50855000  1.0
  H  H7  1  0.45508000  0.82946000  0.49159000  1.0
  H  H8  1  0.05430000  0.33003000  0.49145000  1.0
  H  H9  1  0.54495000  0.17053000  0.50842000  1.0
  H  H10  1  0.32401000  0.52797000  0.54325000  1.0
  H  H11  1  0.86759000  0.97138000  0.45717000  1.0
  H  H12  1  0.67603000  0.47203000  0.45675000  1.0
  H  H13  1  0.13244000  0.02861000  0.54282000  1.0
  H  H14  1  0.39534000  0.46542000  0.71573000  1.0
  H  H15  1  0.11030000  0.03447000  0.28472000  1.0
  H  H16  1  0.60466000  0.53458000  0.28428000  1.0
  H  H17  1  0.88970000  0.96553000  0.71526000  1.0
  C  C18  1  0.05567000  0.55833000  0.78599000  1.0
  C  C19  1  0.84107000  0.94166000  0.21422000  1.0
  C  C20  1  0.94432000  0.44166000  0.21401000  1.0
  C  C21  1  0.15891000  0.05834000  0.78578000  1.0
  C  C22  1  0.84124000  0.64228000  0.76234000  1.0
  C  C23  1  0.60333000  0.85771000  0.23774000  1.0
  C  C24  1  0.15876000  0.35772000  0.23766000  1.0
  C  C25  1  0.39666000  0.14229000  0.76226000  1.0
  C  C26  1  0.80695000  0.68399000  0.66286000  1.0
  C  C27  1  0.46992000  0.81599000  0.33721000  1.0
  C  C28  1  0.19307000  0.31601000  0.33714000  1.0
  C  C29  1  0.53009000  0.18401000  0.66279000  1.0
  C  C30  1  0.97597000  0.64172000  0.58471000  1.0
  C  C31  1  0.56103000  0.85805000  0.41544000  1.0
  C  C32  1  0.02405000  0.35828000  0.41530000  1.0
  C  C33  1  0.43900000  0.14195000  0.58455000  1.0
  C  C34  1  0.18880000  0.56126000  0.60494000  1.0
  C  C35  1  0.79390000  0.93838000  0.39536000  1.0
  C  C36  1  0.81123000  0.43874000  0.39507000  1.0
  C  C37  1  0.20613000  0.06161000  0.60463000  1.0
  C  C38  1  0.22910000  0.52451000  0.70084000  1.0
  C  C39  1  0.92939000  0.97547000  0.29948000  1.0
  C  C40  1  0.77090000  0.47549000  0.29917000  1.0
  C  C41  1  0.07061000  0.02453000  0.70051000  1.0
  N  N42  1  0.65714000  0.68754000  0.83814000  1.0
  N  N43  1  0.49536000  0.81200000  0.16191000  1.0
  N  N44  1  0.34285000  0.31247000  0.16186000  1.0
  N  N45  1  0.50462000  0.18800000  0.83809000  1.0
  O  O46  1  0.09724000  0.51575000  0.87509000  1.0
  O  O47  1  0.97132000  0.98444000  0.12519000  1.0
  O  O48  1  0.90274000  0.48425000  0.12492000  1.0
  O  O49  1  0.02864000  0.01556000  0.87481000  1.0
  O  O50  1  0.64911000  0.63091000  0.92934000  1.0
  O  O51  1  0.57911000  0.86745000  0.07063000  1.0
  O  O52  1  0.35088000  0.36910000  0.07066000  1.0
  O  O53  1  0.42087000  0.13254000  0.92937000  1.0
  O  O54  1  0.49778000  0.78591000  0.81414000  1.0
  O  O55  1  0.31167000  0.71414000  0.18598000  1.0
  O  O56  1  0.50221000  0.21408000  0.18584000  1.0
  O  O57  1  0.68828000  0.28587000  0.81403000  1.0
