# generated using pymatgen
data_ZnH10C15SN3O4
_symmetry_space_group_name_H-M   'P 1'
_cell_length_a   8.43994000
_cell_length_b   9.46806000
_cell_length_c   10.13900000
_cell_angle_alpha   63.05190000
_cell_angle_beta   72.19020000
_cell_angle_gamma   67.11800000
_symmetry_Int_Tables_number   1
_chemical_formula_structural   ZnH10C15SN3O4
_chemical_formula_sum   'Zn2 H20 C30 S2 N6 O8'
_cell_volume   657.05463482
_cell_formula_units_Z   2
loop_
 _symmetry_equiv_pos_site_id
 _symmetry_equiv_pos_as_xyz
  1  'x, y, z'
loop_
 _atom_site_type_symbol
 _atom_site_label
 _atom_site_symmetry_multiplicity
 _atom_site_fract_x
 _atom_site_fract_y
 _atom_site_fract_z
 _atom_site_occupancy
  Zn  Zn0  1  0.90164000  0.63523000  0.64130000  1.0
  Zn  Zn1  1  0.09836000  0.36477000  0.35870000  1.0
  H  H2  1  0.69568000  0.57307000  0.47373000  1.0
  H  H3  1  0.30432000  0.42693000  0.52627000  1.0
  H  H4  1  0.39343000  0.70109000  0.39902000  1.0
  H  H5  1  0.60657000  0.29891000  0.60098000  1.0
  H  H6  1  0.17476000  0.90583000  0.50413000  1.0
  H  H7  1  0.82524000  0.09417000  0.49587000  1.0
  H  H8  1  0.25488000  0.97713000  0.67925000  1.0
  H  H9  1  0.74512000  0.02287000  0.32075000  1.0
  H  H10  1  0.33722000  0.98086000  0.85710000  1.0
  H  H11  1  0.66278000  0.01914000  0.14290000  1.0
  H  H12  1  0.80182000  0.90424000  0.01221000  1.0
  H  H13  1  0.19818000  0.09576000  0.98779000  1.0
  H  H14  1  0.06625000  0.78350000  0.00673000  1.0
  H  H15  1  0.93375000  0.21650000  0.99326000  1.0
  H  H16  1  0.36204000  0.58897000  0.02379000  1.0
  H  H17  1  0.63796000  0.41103000  0.97621000  1.0
  H  H18  1  0.47923000  0.40086000  0.87494000  1.0
  H  H19  1  0.52077000  0.59914000  0.12506000  1.0
  H  H20  1  0.27945000  0.41428000  0.73063000  1.0
  H  H21  1  0.72055000  0.58572000  0.26937000  1.0
  C  C22  1  0.59375000  0.66470000  0.51381000  1.0
  C  C23  1  0.40625000  0.33530000  0.48619000  1.0
  C  C24  1  0.42788000  0.73446000  0.47424000  1.0
  C  C25  1  0.57212000  0.26554000  0.52576000  1.0
  C  C26  1  0.30535000  0.84949000  0.53320000  1.0
  C  C27  1  0.69465000  0.15051000  0.46680000  1.0
  C  C28  1  0.35059000  0.88973000  0.63018000  1.0
  C  C29  1  0.64941000  0.11027000  0.36982000  1.0
  C  C30  1  0.52011000  0.81464000  0.66368000  1.0
  C  C31  1  0.47989000  0.18536000  0.33632000  1.0
  C  C32  1  0.58333000  0.84786000  0.76501000  1.0
  C  C33  1  0.41667000  0.15214000  0.23499000  1.0
  C  C34  1  0.47719000  0.93365000  0.85747000  1.0
  C  C35  1  0.52281000  0.06635000  0.14253000  1.0
  C  C36  1  0.55385000  0.95634000  0.94899000  1.0
  C  C37  1  0.44615000  0.04366000  0.05101000  1.0
  C  C38  1  0.73511000  0.89085000  0.94404000  1.0
  C  C39  1  0.26489000  0.10915000  0.05596000  1.0
  C  C40  1  0.83131000  0.79965000  0.85438000  1.0
  C  C41  1  0.16869000  0.20035000  0.14562000  1.0
  C  C42  1  0.01641000  0.70115000  0.85942000  1.0
  C  C43  1  0.98359000  0.29885000  0.14058000  1.0
  C  C44  1  0.11697000  0.70070000  0.94633000  1.0
  C  C45  1  0.88303000  0.29930000  0.05367000  1.0
  C  C46  1  0.28487000  0.59123000  0.95409000  1.0
  C  C47  1  0.71513000  0.40877000  0.04591000  1.0
  C  C48  1  0.34831000  0.48728000  0.87491000  1.0
  C  C49  1  0.65169000  0.51272000  0.12508000  1.0
  C  C50  1  0.23918000  0.49612000  0.79076000  1.0
  C  C51  1  0.76082000  0.50389000  0.20924000  1.0
  S  S52  1  0.94572000  0.25536000  0.70231000  1.0
  S  S53  1  0.05428000  0.74464000  0.29769000  1.0
  N  N54  1  0.63952000  0.70524000  0.60449000  1.0
  N  N55  1  0.36048000  0.29475000  0.39551000  1.0
  N  N56  1  0.75528000  0.78294000  0.76624000  1.0
  N  N57  1  0.24472000  0.21706000  0.23376000  1.0
  N  N58  1  0.07793000  0.60045000  0.78260000  1.0
  N  N59  1  0.92207000  0.39955000  0.21740000  1.0
  O  O60  1  0.75829000  0.29083000  0.76042000  1.0
  O  O61  1  0.24171000  0.70917000  0.23958000  1.0
  O  O62  1  0.00986000  0.39918000  0.66909000  1.0
  O  O63  1  0.99014000  0.60082000  0.33091000  1.0
  O  O64  1  0.05162000  0.10519000  0.80690000  1.0
  O  O65  1  0.94838000  0.89481000  0.19310000  1.0
  O  O66  1  0.02137000  0.76479000  0.44557000  1.0
  O  O67  1  0.97863000  0.23521000  0.55443000  1.0
