# generated using pymatgen
data_GdH18C18(NO2)4
_symmetry_space_group_name_H-M   'P 1'
_cell_length_a   9.91555000
_cell_length_b   10.31820000
_cell_length_c   11.00400000
_cell_angle_alpha   77.74430000
_cell_angle_beta   76.65640000
_cell_angle_gamma   65.87730000
_symmetry_Int_Tables_number   1
_chemical_formula_structural   GdH18C18(NO2)4
_chemical_formula_sum   'Gd2 H36 C36 N8 O16'
_cell_volume   990.91279927
_cell_formula_units_Z   2
loop_
 _symmetry_equiv_pos_site_id
 _symmetry_equiv_pos_as_xyz
  1  'x, y, z'
loop_
 _atom_site_type_symbol
 _atom_site_label
 _atom_site_symmetry_multiplicity
 _atom_site_fract_x
 _atom_site_fract_y
 _atom_site_fract_z
 _atom_site_occupancy
  Gd  Gd0  1  0.05595000  0.77298000  0.17628000  1.0
  Gd  Gd1  1  0.94404000  0.22702000  0.82372000  1.0
  H  H2  1  0.33724000  0.15079000  0.84056000  1.0
  H  H3  1  0.66276000  0.84921000  0.15944000  1.0
  H  H4  1  0.39371000  0.87283000  0.19113000  1.0
  H  H5  1  0.60629000  0.12717000  0.80887000  1.0
  H  H6  1  0.56580000  0.58981000  0.27521000  1.0
  H  H7  1  0.43419000  0.41019000  0.72479000  1.0
  H  H8  1  0.24513000  0.49559000  0.58027000  1.0
  H  H9  1  0.75487000  0.50441000  0.41973000  1.0
  H  H10  1  0.70389000  0.08332000  0.49641000  1.0
  H  H11  1  0.29611000  0.91668000  0.50359000  1.0
  H  H12  1  0.55258000  0.79798000  0.38423000  1.0
  H  H13  1  0.44741000  0.20202000  0.61577000  1.0
  H  H14  1  0.53500000  0.86049000  0.73381000  1.0
  H  H15  1  0.46500000  0.13951000  0.26619000  1.0
  H  H16  1  0.58039000  0.69415000  0.68075000  1.0
  H  H17  1  0.41961000  0.30585000  0.31925000  1.0
  H  H18  1  0.67182000  0.56847000  0.87067000  1.0
  H  H19  1  0.32818000  0.43153000  0.12933000  1.0
  H  H20  1  0.63683000  0.73503000  0.91878000  1.0
  H  H21  1  0.36317000  0.26497000  0.08122000  1.0
  H  H22  1  0.98132000  0.25680000  0.45010000  1.0
  H  H23  1  0.01868000  0.74321000  0.54991000  1.0
  H  H24  1  0.15732000  0.18656000  0.34960000  1.0
  H  H25  1  0.84268000  0.81344000  0.65040000  1.0
  H  H26  1  0.00469000  0.14951000  0.22772000  1.0
  H  H27  1  0.99532000  0.85049000  0.77229000  1.0
  H  H28  1  0.84145000  0.29425000  0.28357000  1.0
  H  H29  1  0.15856000  0.70574000  0.71643000  1.0
  H  H30  1  0.44765000  0.63338000  0.06388000  1.0
  H  H31  1  0.55235000  0.36662000  0.93612000  1.0
  H  H32  1  0.28455000  0.85422000  0.74727000  1.0
  H  H33  1  0.71545000  0.14578000  0.25273000  1.0
  H  H34  1  0.07915000  0.46346000  0.36331000  1.0
  H  H35  1  0.92085000  0.53655000  0.63669000  1.0
  H  H36  1  0.96649000  0.38019000  0.06227000  1.0
  H  H37  1  0.03351000  0.61981000  0.93773000  1.0
  C  C38  1  0.35132000  0.01346000  0.01810000  1.0
  C  C39  1  0.64867000  0.98655000  0.98190000  1.0
  C  C40  1  0.40997000  0.08483000  0.90930000  1.0
  C  C41  1  0.59003000  0.91517000  0.09069000  1.0
  C  C42  1  0.44168000  0.92877000  0.10868000  1.0
  C  C43  1  0.55832000  0.07123000  0.89132000  1.0
  C  C44  1  0.19366000  0.02359000  0.03474000  1.0
  C  C45  1  0.80634000  0.97641000  0.96526000  1.0
  C  C46  1  0.39381000  0.54936000  0.41930000  1.0
  C  C47  1  0.60619000  0.45064000  0.58070000  1.0
  C  C48  1  0.53814000  0.54977000  0.37377000  1.0
  C  C49  1  0.46186000  0.45023000  0.62622000  1.0
  C  C50  1  0.35617000  0.49872000  0.54610000  1.0
  C  C51  1  0.64383000  0.50128000  0.45390000  1.0
  C  C52  1  0.27985000  0.60654000  0.33340000  1.0
  C  C53  1  0.72015000  0.39346000  0.66666667  1.0
  C  C54  1  0.64328000  0.93363000  0.43305000  1.0
  C  C55  1  0.35672000  0.06637000  0.56695000  1.0
  C  C56  1  0.61395000  0.04730000  0.49888000  1.0
  C  C57  1  0.38605000  0.95270000  0.50112000  1.0
  C  C58  1  0.52844000  0.88671000  0.43500000  1.0
  C  C59  1  0.47156000  0.11330000  0.56500000  1.0
  C  C60  1  0.79336000  0.86838000  0.35471000  1.0
  C  C61  1  0.20664000  0.13162000  0.64529000  1.0
  C  C62  1  0.32965000  0.72801000  0.91631000  1.0
  C  C63  1  0.67035000  0.27199000  0.08369000  1.0
  C  C64  1  0.52355000  0.75629000  0.76010000  1.0
  C  C65  1  0.47645000  0.24371000  0.23990000  1.0
  C  C66  1  0.58696000  0.67571000  0.88339000  1.0
  C  C67  1  0.41304000  0.32429000  0.11661000  1.0
  C  C68  1  0.04194000  0.26758000  0.35428000  1.0
  C  C69  1  0.95806000  0.73242000  0.64572000  1.0
  C  C70  1  0.96356000  0.25754000  0.25300000  1.0
  C  C71  1  0.03644000  0.74246000  0.74700000  1.0
  C  C72  1  0.03109000  0.45437000  0.19214000  1.0
  C  C73  1  0.96891000  0.54563000  0.80786000  1.0
  N  N74  1  0.45491000  0.66650000  0.96934000  1.0
  N  N75  1  0.54509000  0.33350000  0.03066000  1.0
  N  N76  1  0.36587000  0.77366000  0.79167000  1.0
  N  N77  1  0.63413000  0.22634000  0.20833000  1.0
  N  N78  1  0.04330000  0.41181000  0.31589000  1.0
  N  N79  1  0.95670000  0.58819000  0.68412000  1.0
  N  N80  1  0.00015000  0.35837000  0.14804000  1.0
  N  N81  1  0.99985000  0.64163000  0.85196000  1.0
  O  O82  1  0.14464000  0.95511000  0.13320000  1.0
  O  O83  1  0.85536000  0.04489000  0.86680000  1.0
  O  O84  1  0.11823000  0.09889000  0.94858000  1.0
  O  O85  1  0.88176000  0.90111000  0.05142000  1.0
  O  O86  1  0.14382000  0.62011000  0.37612000  1.0
  O  O87  1  0.85618000  0.37990000  0.62388000  1.0
  O  O88  1  0.31817000  0.64623000  0.21687000  1.0
  O  O89  1  0.68182000  0.35377000  0.78313000  1.0
  O  O90  1  0.82984000  0.74858000  0.31656000  1.0
  O  O91  1  0.17017000  0.25142000  0.68344000  1.0
  O  O92  1  0.87988000  0.93907000  0.32303000  1.0
  O  O93  1  0.12012000  0.06093000  0.67697000  1.0
  O  O94  1  0.19935000  0.73977000  0.97103000  1.0
  O  O95  1  0.80066000  0.26023000  0.02897000  1.0
  O  O96  1  0.04909000  0.56526000  0.12679000  1.0
  O  O97  1  0.95090000  0.43474000  0.87321000  1.0
