# generated using pymatgen
data_Co3H36C52(N5O9)2
_symmetry_space_group_name_H-M   'P 1'
_cell_length_a   10.03890000
_cell_length_b   11.14970000
_cell_length_c   14.04780000
_cell_angle_alpha   88.65520000
_cell_angle_beta   84.76810000
_cell_angle_gamma   69.48930000
_symmetry_Int_Tables_number   1
_chemical_formula_structural   Co3H36C52(N5O9)2
_chemical_formula_sum   'Co3 H36 C52 N10 O18'
_cell_volume   1466.50591468
_cell_formula_units_Z   1
loop_
 _symmetry_equiv_pos_site_id
 _symmetry_equiv_pos_as_xyz
  1  'x, y, z'
loop_
 _atom_site_type_symbol
 _atom_site_label
 _atom_site_symmetry_multiplicity
 _atom_site_fract_x
 _atom_site_fract_y
 _atom_site_fract_z
 _atom_site_occupancy
  Co  Co0  1  0.82565000  0.06276000  0.41869000  1.0
  Co  Co1  1  0.17435000  0.93724000  0.58130000  1.0
  Co  Co2  1  0.00000000  0.50000000  0.00000000  1.0
  H  H3  1  0.61325000  0.97021000  0.58134000  1.0
  H  H4  1  0.51733000  0.72489000  0.79701000  1.0
  H  H5  1  0.93627000  0.75302000  0.76335000  1.0
  H  H6  1  0.08791000  0.21263000  0.99937000  1.0
  H  H7  1  0.26473000  0.02122000  0.90942000  1.0
  H  H8  1  0.43762000  0.05726000  0.78352000  1.0
  H  H9  1  0.23151000  0.46458000  0.83555000  1.0
  H  H10  1  0.59653000  0.17994000  0.56672000  1.0
  H  H11  1  0.84736000  0.32966000  0.39344000  1.0
  H  H12  1  0.57337000  0.56654000  0.62530000  1.0
  H  H13  1  0.06666000  0.52552000  0.26835000  1.0
  H  H14  1  0.16180000  0.68964000  0.19795000  1.0
  H  H15  1  0.05526000  0.91653000  0.26202000  1.0
  H  H16  1  0.77915000  0.81929000  0.45988000  1.0
  H  H17  1  0.52235000  0.19612000  0.70205000  1.0
  H  H18  1  0.91784000  0.47464000  0.38252000  1.0
  H  H19  1  0.76935000  0.47803000  0.96732000  1.0
  H  H20  1  0.86232000  0.32890000  0.99091000  1.0
  H  H21  1  0.38676000  0.02979000  0.41865000  1.0
  H  H22  1  0.48267000  0.27512000  0.20299000  1.0
  H  H23  1  0.06373000  0.24698000  0.23665000  1.0
  H  H24  1  0.91208000  0.78738000  0.00063000  1.0
  H  H25  1  0.73526000  0.97879000  0.09059000  1.0
  H  H26  1  0.56238000  0.94274000  0.21649000  1.0
  H  H27  1  0.76849000  0.53543000  0.16445000  1.0
  H  H28  1  0.40348000  0.82004000  0.43327000  1.0
  H  H29  1  0.15265000  0.67034000  0.60656000  1.0
  H  H30  1  0.42662000  0.43345000  0.37470000  1.0
  H  H31  1  0.93334000  0.47449000  0.73166000  1.0
  H  H32  1  0.83818000  0.31037000  0.80205000  1.0
  H  H33  1  0.94473000  0.08347000  0.73798000  1.0
  H  H34  1  0.22085000  0.18072000  0.54013000  1.0
  H  H35  1  0.47765000  0.80386000  0.29795000  1.0
  H  H36  1  0.08216000  0.52537000  0.61750000  1.0
  H  H37  1  0.23065000  0.52197000  0.03268000  1.0
  H  H38  1  0.13768000  0.67110000  0.00909000  1.0
  C  C39  1  0.89028000  0.92238000  0.61726000  1.0
  C  C40  1  0.78544000  0.87090000  0.66884000  1.0
  C  C41  1  0.64626000  0.90689000  0.64179000  1.0
  C  C42  1  0.54939000  0.85590000  0.68884000  1.0
  C  C43  1  0.40368000  0.89246000  0.65557000  1.0
  C  C44  1  0.59185000  0.76686000  0.76195000  1.0
  C  C45  1  0.73205000  0.72881000  0.78808000  1.0
  C  C46  1  0.78149000  0.62865000  0.86309000  1.0
  C  C47  1  0.82777000  0.78193000  0.74221000  1.0
  C  C48  1  0.16076000  0.22372000  0.94023000  1.0
  C  C49  1  0.26103000  0.11808000  0.89221000  1.0
  C  C50  1  0.35679000  0.13818000  0.82161000  1.0
  C  C51  1  0.34892000  0.26379000  0.79978000  1.0
  C  C52  1  0.24199000  0.36562000  0.84955000  1.0
  C  C53  1  0.45892000  0.39137000  0.69095000  1.0
  C  C54  1  0.57427000  0.37346000  0.61109000  1.0
  C  C55  1  0.63169000  0.26167000  0.55562000  1.0
  C  C56  1  0.77161000  0.34731000  0.45680000  1.0
  C  C57  1  0.71887000  0.46363000  0.50709000  1.0
  C  C58  1  0.61873000  0.47626000  0.58577000  1.0
  C  C59  1  0.75397000  0.58011000  0.47842000  1.0
  C  C60  1  0.91760000  0.65853000  0.37173000  1.0
  C  C61  1  0.02593000  0.62323000  0.29637000  1.0
  C  C62  1  0.07735000  0.71540000  0.25636000  1.0
  C  C63  1  0.01970000  0.84051000  0.29160000  1.0
  C  C64  1  0.86493000  0.78664000  0.40332000  1.0
  C  C65  1  0.10972000  0.07761000  0.38273000  1.0
  C  C66  1  0.21456000  0.12909000  0.33116000  1.0
  C  C67  1  0.35375000  0.09311000  0.35820000  1.0
  C  C68  1  0.45062000  0.14410000  0.31116000  1.0
  C  C69  1  0.59633000  0.10754000  0.34442000  1.0
  C  C70  1  0.40816000  0.23314000  0.23805000  1.0
  C  C71  1  0.26795000  0.27119000  0.21192000  1.0
  C  C72  1  0.21851000  0.37136000  0.13691000  1.0
  C  C73  1  0.17222000  0.21807000  0.25779000  1.0
  C  C74  1  0.83923000  0.77629000  0.05978000  1.0
  C  C75  1  0.73897000  0.88192000  0.10780000  1.0
  C  C76  1  0.64320000  0.86182000  0.17839000  1.0
  C  C77  1  0.65108000  0.73621000  0.20022000  1.0
  C  C78  1  0.75801000  0.63439000  0.15045000  1.0
  C  C79  1  0.54108000  0.60862000  0.30904000  1.0
  C  C80  1  0.42573000  0.62652000  0.38891000  1.0
  C  C81  1  0.36832000  0.73831000  0.44438000  1.0
  C  C82  1  0.22839000  0.65270000  0.54320000  1.0
  C  C83  1  0.28113000  0.53637000  0.49291000  1.0
  C  C84  1  0.38127000  0.52374000  0.41423000  1.0
  C  C85  1  0.24604000  0.41988000  0.52158000  1.0
  C  C86  1  0.08240000  0.34147000  0.62828000  1.0
  C  C87  1  0.97406000  0.37677000  0.70363000  1.0
  C  C88  1  0.92265000  0.28460000  0.74364000  1.0
  C  C89  1  0.98031000  0.15949000  0.70839000  1.0
  C  C90  1  0.13507000  0.21335000  0.59669000  1.0
  N  N91  1  0.15103000  0.34452000  0.91870000  1.0
  N  N92  1  0.44932000  0.27941000  0.72924000  1.0
  N  N93  1  0.73007000  0.24799000  0.48129000  1.0
  N  N94  1  0.86784000  0.56362000  0.41129000  1.0
  N  N95  1  0.91586000  0.87484000  0.36382000  1.0
  N  N96  1  0.84897000  0.65549000  0.08131000  1.0
  N  N97  1  0.55067000  0.72058000  0.27076000  1.0
  N  N98  1  0.26994000  0.75201000  0.51871000  1.0
  N  N99  1  0.13216000  0.43639000  0.58871000  1.0
  N  N100  1  0.08414000  0.12515000  0.63618000  1.0
  O  O101  1  0.84890000  0.00529000  0.55247000  1.0
  O  O102  1  0.84079000  0.41640000  0.01223000  1.0
  O  O103  1  0.01748000  0.88113000  0.64264000  1.0
  O  O104  1  0.91192000  0.59852000  0.88190000  1.0
  O  O105  1  0.69365000  0.57868000  0.90085000  1.0
  O  O106  1  0.37908000  0.95378000  0.57681000  1.0
  O  O107  1  0.30584000  0.86220000  0.70256000  1.0
  O  O108  1  0.68108000  0.68555000  0.51403000  1.0
  O  O109  1  0.37823000  0.49902000  0.71777000  1.0
  O  O110  1  0.15111000  0.99470000  0.44753000  1.0
  O  O111  1  0.15921000  0.58361000  0.98777000  1.0
  O  O112  1  0.98252000  0.11887000  0.35734000  1.0
  O  O113  1  0.08808000  0.40148000  0.11810000  1.0
  O  O114  1  0.30636000  0.42132000  0.09915000  1.0
  O  O115  1  0.62092000  0.04622000  0.42318000  1.0
  O  O116  1  0.69417000  0.13781000  0.29743000  1.0
  O  O117  1  0.31891000  0.31444000  0.48597000  1.0
  O  O118  1  0.62177000  0.50097000  0.28222000  1.0
