# generated using pymatgen
data_GdH21(C9O2)3
_symmetry_space_group_name_H-M   'P 1'
_cell_length_a   7.57583000
_cell_length_b   13.28880000
_cell_length_c   13.28880000
_cell_angle_alpha   116.46900000
_cell_angle_beta   100.95600000
_cell_angle_gamma   100.95600000
_symmetry_Int_Tables_number   1
_chemical_formula_structural   GdH21(C9O2)3
_chemical_formula_sum   'Gd2 H42 C54 O12'
_cell_volume   1116.82846562
_cell_formula_units_Z   2
loop_
 _symmetry_equiv_pos_site_id
 _symmetry_equiv_pos_as_xyz
  1  'x, y, z'
loop_
 _atom_site_type_symbol
 _atom_site_label
 _atom_site_symmetry_multiplicity
 _atom_site_fract_x
 _atom_site_fract_y
 _atom_site_fract_z
 _atom_site_occupancy
  Gd  Gd0  1  0.66507000  0.00008000  0.00008000  1.0
  Gd  Gd1  1  0.16507000  0.00008000  0.00008000  1.0
  H  H2  1  0.26783000  0.82692000  0.17470000  1.0
  H  H3  1  0.44106000  0.34781000  0.17310000  1.0
  H  H4  1  0.09339000  0.82536000  0.65233000  1.0
  H  H5  1  0.59339000  0.65233000  0.82536000  1.0
  H  H6  1  0.76784000  0.17470000  0.82692000  1.0
  H  H7  1  0.94106000  0.17309000  0.34781000  1.0
  H  H8  1  0.46389000  0.65475000  0.03327000  1.0
  H  H9  1  0.80929000  0.37851000  0.34529000  1.0
  H  H10  1  0.43084000  0.96669000  0.62140000  1.0
  H  H11  1  0.93084000  0.62140000  0.96669000  1.0
  H  H12  1  0.96389000  0.03327000  0.65476000  1.0
  H  H13  1  0.30928000  0.34529000  0.37851000  1.0
  H  H14  1  0.34200000  0.45527000  0.98161000  1.0
  H  H15  1  0.88686000  0.52637000  0.54485000  1.0
  H  H16  1  0.36051000  0.01840000  0.47368000  1.0
  H  H17  1  0.86051000  0.47368000  0.01840000  1.0
  H  H18  1  0.84200000  0.98161000  0.45528000  1.0
  H  H19  1  0.38686000  0.54485000  0.52637000  1.0
  H  H20  1  0.17409000  0.30036000  0.01576000  1.0
  H  H21  1  0.87386000  0.71546000  0.69965000  1.0
  H  H22  1  0.15847000  0.98435000  0.28468000  1.0
  H  H23  1  0.65847000  0.28468000  0.98435000  1.0
  H  H24  1  0.67409000  0.01576000  0.30036000  1.0
  H  H25  1  0.37386000  0.69965000  0.71546000  1.0
  H  H26  1  0.01689000  0.35242000  0.17252000  1.0
  H  H27  1  0.66445000  0.82004000  0.64741000  1.0
  H  H28  1  0.84451000  0.82753000  0.17994000  1.0
  H  H29  1  0.34451000  0.17994000  0.82753000  1.0
  H  H30  1  0.51689000  0.17252000  0.35242000  1.0
  H  H31  1  0.16445000  0.64742000  0.82004000  1.0
  H  H32  1  0.03114000  0.56300000  0.29537000  1.0
  H  H33  1  0.46821000  0.73223000  0.43680000  1.0
  H  H34  1  0.73600000  0.70456000  0.26761000  1.0
  H  H35  1  0.23600000  0.26761000  0.70456000  1.0
  H  H36  1  0.53114000  0.29537000  0.56300000  1.0
  H  H37  1  0.96821000  0.43680000  0.73223000  1.0
  H  H38  1  0.19614000  0.71754000  0.26037000  1.0
  H  H39  1  0.47885000  0.54276000  0.28237000  1.0
  H  H40  1  0.93601000  0.73946000  0.45708000  1.0
  H  H41  1  0.43601000  0.45708000  0.73946000  1.0
  H  H42  1  0.69614000  0.26037000  0.71754000  1.0
  H  H43  1  0.97884000  0.28237000  0.54276000  1.0
  C  C44  1  0.45932000  0.86782000  0.08486000  1.0
  C  C45  1  0.59168000  0.21708000  0.13221000  1.0
  C  C46  1  0.37474000  0.91523000  0.78301000  1.0
  C  C47  1  0.87474000  0.78301000  0.91523000  1.0
  C  C48  1  0.95933000  0.08486000  0.86782000  1.0
  C  C49  1  0.09168000  0.13221000  0.21709000  1.0
  C  C50  1  0.36000000  0.79261000  0.12346000  1.0
  C  C51  1  0.56759000  0.33088000  0.20740000  1.0
  C  C52  1  0.23676000  0.87654000  0.66917000  1.0
  C  C53  1  0.73676000  0.66917000  0.87654000  1.0
  C  C54  1  0.86000000  0.12346000  0.79261000  1.0
  C  C55  1  0.06759000  0.20740000  0.33088000  1.0
  C  C56  1  0.37551000  0.68355000  0.09017000  1.0
  C  C57  1  0.69211000  0.40662000  0.31648000  1.0
  C  C58  1  0.28556000  0.90977000  0.59335000  1.0
  C  C59  1  0.78557000  0.59335000  0.90977000  1.0
  C  C60  1  0.87551000  0.09017000  0.68355000  1.0
  C  C61  1  0.19212000  0.31648000  0.40662000  1.0
  C  C62  1  0.27962000  0.59727000  0.11722000  1.0
  C  C63  1  0.68241000  0.51993000  0.40274000  1.0
  C  C64  1  0.16250000  0.88269000  0.48001000  1.0
  C  C65  1  0.66250000  0.48001000  0.88269000  1.0
  C  C66  1  0.77962000  0.11722000  0.59727000  1.0
  C  C67  1  0.18241000  0.40274000  0.51993000  1.0
  C  C68  1  0.27326000  0.47864000  0.05015000  1.0
  C  C69  1  0.79483000  0.57158000  0.52139000  1.0
  C  C70  1  0.22326000  0.94979000  0.42845000  1.0
  C  C71  1  0.72326000  0.42845000  0.94979000  1.0
  C  C72  1  0.77326000  0.05015000  0.47864000  1.0
  C  C73  1  0.29483000  0.52139000  0.57158000  1.0
  C  C74  1  0.17845000  0.39152000  0.06943000  1.0
  C  C75  1  0.78705000  0.67794000  0.60849000  1.0
  C  C76  1  0.10912000  0.93063000  0.32213000  1.0
  C  C77  1  0.60912000  0.32213000  0.93063000  1.0
  C  C78  1  0.67845000  0.06943000  0.39152000  1.0
  C  C79  1  0.28705000  0.60849000  0.67794000  1.0
  C  C80  1  0.09063000  0.42088000  0.15757000  1.0
  C  C81  1  0.66984000  0.73665000  0.57904000  1.0
  C  C82  1  0.93321000  0.84246000  0.26334000  1.0
  C  C83  1  0.43321000  0.26334000  0.84246000  1.0
  C  C84  1  0.59063000  0.15757000  0.42088000  1.0
  C  C85  1  0.16984000  0.57904000  0.73666000  1.0
  C  C86  1  0.09832000  0.53887000  0.22599000  1.0
  C  C87  1  0.55950000  0.68705000  0.46105000  1.0
  C  C88  1  0.87250000  0.77397000  0.31286000  1.0
  C  C89  1  0.37250000  0.31286000  0.77397000  1.0
  C  C90  1  0.59833000  0.22599000  0.53887000  1.0
  C  C91  1  0.05950000  0.46105000  0.68705000  1.0
  C  C92  1  0.19085000  0.62616000  0.20608000  1.0
  C  C93  1  0.56478000  0.57989000  0.37381000  1.0
  C  C94  1  0.98489000  0.79381000  0.42002000  1.0
  C  C95  1  0.48489000  0.42002000  0.79381000  1.0
  C  C96  1  0.69085000  0.20608000  0.62615000  1.0
  C  C97  1  0.06478000  0.37381000  0.57989000  1.0
  O  O98  1  0.42475000  0.96607000  0.10451000  1.0
  O  O99  1  0.45880000  0.13845000  0.03399000  1.0
  O  O100  1  0.32050000  0.89568000  0.86168000  1.0
  O  O101  1  0.82050000  0.86168000  0.89568000  1.0
  O  O102  1  0.92476000  0.10451000  0.96607000  1.0
  O  O103  1  0.95880000  0.03399000  0.13845000  1.0
  O  O104  1  0.58215000  0.83940000  0.03316000  1.0
  O  O105  1  0.74306000  0.19390000  0.16057000  1.0
  O  O106  1  0.54929000  0.96685000  0.80625000  1.0
  O  O107  1  0.04929000  0.80625000  0.96685000  1.0
  O  O108  1  0.08215000  0.03316000  0.83940000  1.0
  O  O109  1  0.24306000  0.16057000  0.19390000  1.0
