# generated using pymatgen
data_MgH6C12N2O3
_symmetry_space_group_name_H-M   'P 1'
_cell_length_a   6.94921000
_cell_length_b   35.74210000
_cell_length_c   35.73960000
_cell_angle_alpha   119.58700000
_cell_angle_beta   93.71510000
_cell_angle_gamma   93.71920000
_symmetry_Int_Tables_number   1
_chemical_formula_structural   MgH6C12N2O3
_chemical_formula_sum   'Mg6 H36 C72 N12 O18'
_cell_volume   7655.12547082
_cell_formula_units_Z   6
loop_
 _symmetry_equiv_pos_site_id
 _symmetry_equiv_pos_as_xyz
  1  'x, y, z'
loop_
 _atom_site_type_symbol
 _atom_site_label
 _atom_site_symmetry_multiplicity
 _atom_site_fract_x
 _atom_site_fract_y
 _atom_site_fract_z
 _atom_site_occupancy
  Mg  Mg0  1  0.85344000  0.69344000  0.32873000  1.0
  Mg  Mg1  1  0.52473000  0.67127000  0.36473000  1.0
  Mg  Mg2  1  0.15996000  0.63529000  0.30656000  1.0
  Mg  Mg3  1  0.14656000  0.30656000  0.67127000  1.0
  Mg  Mg4  1  0.47527000  0.32873000  0.63527000  1.0
  Mg  Mg5  1  0.84004000  0.36471000  0.69344000  1.0
  H  H6  1  0.62214000  0.42008000  0.81561000  1.0
  H  H7  1  0.08603000  0.43841000  0.87243000  1.0
  H  H8  1  0.90390000  0.39195000  0.79919000  1.0
  H  H9  1  0.95477000  0.42699000  0.91751000  1.0
  H  H10  1  0.26032000  0.43843000  0.96446000  1.0
  H  H11  1  0.46492000  0.48131000  0.03553000  1.0
  H  H12  1  0.80651000  0.18439000  0.60446000  1.0
  H  H13  1  0.21352000  0.12756000  0.56598000  1.0
  H  H14  1  0.10466000  0.20081000  0.59278000  1.0
  H  H15  1  0.03723000  0.08249000  0.50949000  1.0
  H  H16  1  0.29587000  0.03554000  0.47397000  1.0
  H  H17  1  0.42942000  0.96448000  0.44578000  1.0
  H  H18  1  0.20210000  0.39554000  0.57992000  1.0
  H  H19  1  0.64763000  0.43402000  0.56159000  1.0
  H  H20  1  0.51195000  0.40723000  0.60803000  1.0
  H  H21  1  0.52780000  0.49051000  0.57300000  1.0
  H  H22  1  0.82190000  0.52604000  0.56157000  1.0
  H  H23  1  0.98362000  0.55421000  0.51869000  1.0
  H  H24  1  0.37786000  0.57992000  0.18439000  1.0
  H  H25  1  0.91397000  0.56159000  0.12757000  1.0
  H  H26  1  0.09610000  0.60805000  0.20081000  1.0
  H  H27  1  0.04523000  0.57301000  0.08249000  1.0
  H  H28  1  0.73968000  0.56157000  0.03554000  1.0
  H  H29  1  0.53508000  0.51869000  0.96447000  1.0
  H  H30  1  0.19349000  0.81561000  0.39554000  1.0
  H  H31  1  0.78648000  0.87244000  0.43402000  1.0
  H  H32  1  0.89534000  0.79919000  0.40722000  1.0
  H  H33  1  0.96277000  0.91751000  0.49051000  1.0
  H  H34  1  0.70413000  0.96446000  0.52603000  1.0
  H  H35  1  0.57058000  0.03552000  0.55422000  1.0
  H  H36  1  0.79790000  0.60446000  0.42008000  1.0
  H  H37  1  0.35237000  0.56598000  0.43841000  1.0
  H  H38  1  0.48805000  0.59277000  0.39197000  1.0
  H  H39  1  0.47220000  0.50949000  0.42700000  1.0
  H  H40  1  0.17810000  0.47396000  0.43843000  1.0
  H  H41  1  0.01638000  0.44579000  0.48131000  1.0
  C  C42  1  0.47909000  0.37626000  0.73342000  1.0
  C  C43  1  0.36522000  0.38881000  0.77046000  1.0
  C  C44  1  0.46517000  0.41299000  0.81208000  1.0
  C  C45  1  0.36742000  0.42939000  0.84900000  1.0
  C  C46  1  0.16297000  0.42342000  0.84379000  1.0
  C  C47  1  0.06158000  0.39802000  0.80312000  1.0
  C  C48  1  0.15773000  0.37881000  0.76538000  1.0
  C  C49  1  0.73688000  0.47068000  0.93676000  1.0
  C  C50  1  0.91182000  0.45688000  0.94349000  1.0
  C  C51  1  0.03134000  0.48057000  0.98312000  1.0
  C  C52  1  0.21255000  0.46752000  0.99064000  1.0
  C  C53  1  0.32622000  0.49106000  0.02959000  1.0
  C  C54  1  0.74564000  0.26656000  0.64284000  1.0
  C  C55  1  0.59471000  0.22952000  0.61836000  1.0
  C  C56  1  0.65305000  0.18790000  0.60090000  1.0
  C  C57  1  0.51833000  0.15098000  0.58037000  1.0
  C  C58  1  0.31910000  0.15621000  0.57962000  1.0
  C  C59  1  0.25841000  0.19687000  0.59491000  1.0
  C  C60  1  0.39232000  0.23461000  0.61344000  1.0
  C  C61  1  0.80002000  0.06323000  0.53392000  1.0
  C  C62  1  0.96828000  0.05651000  0.51340000  1.0
  C  C63  1  0.04820000  0.01689000  0.49746000  1.0
  C  C64  1  0.22192000  0.00938000  0.47690000  1.0
  C  C65  1  0.29669000  0.97043000  0.46148000  1.0
  C  C66  1  0.10276000  0.35718000  0.62374000  1.0
  C  C67  1  0.97639000  0.38165000  0.61117000  1.0
  C  C68  1  0.05222000  0.39911000  0.58701000  1.0
  C  C69  1  0.93806000  0.41963000  0.57061000  1.0
  C  C70  1  0.73960000  0.42039000  0.57659000  1.0
  C  C71  1  0.66355000  0.40509000  0.60196000  1.0
  C  C72  1  0.77887000  0.38655000  0.62115000  1.0
  C  C73  1  0.26615000  0.46610000  0.52933000  1.0
  C  C74  1  0.45494000  0.48661000  0.54312000  1.0
  C  C75  1  0.55076000  0.50255000  0.51943000  1.0
  C  C76  1  0.74504000  0.52310000  0.53247000  1.0
  C  C77  1  0.83521000  0.53850000  0.50892000  1.0
  C  C78  1  0.52091000  0.62374000  0.26658000  1.0
  C  C79  1  0.63478000  0.61119000  0.22954000  1.0
  C  C80  1  0.53483000  0.58701000  0.18792000  1.0
  C  C81  1  0.63258000  0.57061000  0.15100000  1.0
  C  C82  1  0.83703000  0.57658000  0.15621000  1.0
  C  C83  1  0.93842000  0.60198000  0.19688000  1.0
  C  C84  1  0.84227000  0.62119000  0.23462000  1.0
  C  C85  1  0.26312000  0.52932000  0.06324000  1.0
  C  C86  1  0.08818000  0.54312000  0.05651000  1.0
  C  C87  1  0.96866000  0.51943000  0.01688000  1.0
  C  C88  1  0.78745000  0.53248000  0.00936000  1.0
  C  C89  1  0.67378000  0.50894000  0.97041000  1.0
  C  C90  1  0.25436000  0.73344000  0.35716000  1.0
  C  C91  1  0.40529000  0.77048000  0.38164000  1.0
  C  C92  1  0.34695000  0.81210000  0.39910000  1.0
  C  C93  1  0.48167000  0.84902000  0.41963000  1.0
  C  C94  1  0.68090000  0.84379000  0.42038000  1.0
  C  C95  1  0.74160000  0.80313000  0.40509000  1.0
  C  C96  1  0.60768000  0.76539000  0.38656000  1.0
  C  C97  1  0.19998000  0.93677000  0.46608000  1.0
  C  C98  1  0.03172000  0.94349000  0.48660000  1.0
  C  C99  1  0.95180000  0.98311000  0.50254000  1.0
  C  C100  1  0.77808000  0.99062000  0.52310000  1.0
  C  C101  1  0.70331000  0.02957000  0.53852000  1.0
  C  C102  1  0.89724000  0.64282000  0.37626000  1.0
  C  C103  1  0.02361000  0.61835000  0.38883000  1.0
  C  C104  1  0.94778000  0.60089000  0.41299000  1.0
  C  C105  1  0.06194000  0.58037000  0.42939000  1.0
  C  C106  1  0.26040000  0.57961000  0.42341000  1.0
  C  C107  1  0.33645000  0.59491000  0.39804000  1.0
  C  C108  1  0.22112000  0.61345000  0.37885000  1.0
  C  C109  1  0.73385000  0.53390000  0.47067000  1.0
  C  C110  1  0.54506000  0.51339000  0.45688000  1.0
  C  C111  1  0.44923000  0.49745000  0.48057000  1.0
  C  C112  1  0.25496000  0.47690000  0.46753000  1.0
  C  C113  1  0.16479000  0.46150000  0.49108000  1.0
  N  N114  1  0.46088000  0.45299000  0.89153000  1.0
  N  N115  1  0.63512000  0.44524000  0.89519000  1.0
  N  N116  1  0.56924000  0.10846000  0.56145000  1.0
  N  N117  1  0.73985000  0.10480000  0.55005000  1.0
  N  N118  1  0.00787000  0.43855000  0.54701000  1.0
  N  N119  1  0.18987000  0.44996000  0.55476000  1.0
  N  N120  1  0.53912000  0.54701000  0.10847000  1.0
  N  N121  1  0.36488000  0.55476000  0.10481000  1.0
  N  N122  1  0.43076000  0.89154000  0.43855000  1.0
  N  N123  1  0.26015000  0.89520000  0.44995000  1.0
  N  N124  1  0.99213000  0.56145000  0.45299000  1.0
  N  N125  1  0.81013000  0.55004000  0.44524000  1.0
  O  O126  1  0.34311000  0.60919000  0.26109000  1.0
  O  O127  1  0.60725000  0.64996000  0.30501000  1.0
  O  O128  1  0.94762000  0.64683000  0.27291000  1.0
  O  O129  1  0.08206000  0.73893000  0.34811000  1.0
  O  O130  1  0.30220000  0.69502000  0.34498000  1.0
  O  O131  1  0.67467000  0.72709000  0.37391000  1.0
  O  O132  1  0.73403000  0.65188000  0.39081000  1.0
  O  O133  1  0.95731000  0.65502000  0.35003000  1.0
  O  O134  1  0.30075000  0.62611000  0.35320000  1.0
  O  O135  1  0.65689000  0.39081000  0.73891000  1.0
  O  O136  1  0.39275000  0.35004000  0.69499000  1.0
  O  O137  1  0.05238000  0.35317000  0.72709000  1.0
  O  O138  1  0.91794000  0.26107000  0.65189000  1.0
  O  O139  1  0.69780000  0.30498000  0.65502000  1.0
  O  O140  1  0.32533000  0.27291000  0.62609000  1.0
  O  O141  1  0.26597000  0.34812000  0.60919000  1.0
  O  O142  1  0.04269000  0.34498000  0.64997000  1.0
  O  O143  1  0.69925000  0.37389000  0.64680000  1.0
