# generated using pymatgen
data_Na2H12C10S2O13
_symmetry_space_group_name_H-M   'P 1'
_cell_length_a   6.49998000
_cell_length_b   11.02730000
_cell_length_c   12.56440000
_cell_angle_alpha   70.28700000
_cell_angle_beta   75.02800000
_cell_angle_gamma   89.98710000
_symmetry_Int_Tables_number   1
_chemical_formula_structural   Na2H12C10S2O13
_chemical_formula_sum   'Na4 H24 C20 S4 O26'
_cell_volume   815.27178886
_cell_formula_units_Z   2
loop_
 _symmetry_equiv_pos_site_id
 _symmetry_equiv_pos_as_xyz
  1  'x, y, z'
loop_
 _atom_site_type_symbol
 _atom_site_label
 _atom_site_symmetry_multiplicity
 _atom_site_fract_x
 _atom_site_fract_y
 _atom_site_fract_z
 _atom_site_occupancy
  Na  Na0  1  0.77957000  0.58627000  0.97152000  1.0
  Na  Na1  1  0.75096000  0.91369000  0.02846000  1.0
  Na  Na2  1  0.22044000  0.41373000  0.02847000  1.0
  Na  Na3  1  0.24904000  0.08631000  0.97154000  1.0
  H  H4  1  0.77045000  0.35644000  0.16530000  1.0
  H  H5  1  0.93530000  0.14358000  0.83479000  1.0
  H  H6  1  0.22955000  0.64355000  0.83470000  1.0
  H  H7  1  0.06471000  0.85642000  0.16521000  1.0
  H  H8  1  0.83500000  0.45899000  0.21526000  1.0
  H  H9  1  0.04981000  0.04102000  0.78480000  1.0
  H  H10  1  0.16500000  0.54101000  0.78474000  1.0
  H  H11  1  0.95019000  0.95897000  0.21520000  1.0
  H  H12  1  0.10148000  0.78253000  0.93217000  1.0
  H  H13  1  0.03401000  0.71748000  0.06771000  1.0
  H  H14  1  0.89852000  0.21747000  0.06783000  1.0
  H  H15  1  0.96599000  0.28252000  0.93229000  1.0
  H  H16  1  0.68442000  0.68102000  0.71898000  1.0
  H  H17  1  0.40339000  0.81913000  0.28096000  1.0
  H  H18  1  0.31558000  0.31899000  0.28102000  1.0
  H  H19  1  0.59660000  0.18086000  0.71905000  1.0
  H  H20  1  0.75151000  0.78332000  0.47970000  1.0
  H  H21  1  0.23076000  0.71680000  0.52012000  1.0
  H  H22  1  0.24848000  0.21669000  0.52030000  1.0
  H  H23  1  0.76924000  0.28320000  0.47989000  1.0
  H  H24  1  0.77894000  0.66977000  0.31105000  1.0
  H  H25  1  0.08988000  0.83013000  0.68876000  1.0
  H  H26  1  0.22106000  0.33025000  0.68895000  1.0
  H  H27  1  0.91011000  0.16987000  0.31124000  1.0
  C  C28  1  0.68751000  0.49716000  0.68700000  1.0
  C  C29  1  0.37490000  0.00297000  0.31301000  1.0
  C  C30  1  0.31250000  0.50284000  0.31300000  1.0
  C  C31  1  0.62509000  0.99703000  0.68699000  1.0
  C  C32  1  0.74188000  0.57792000  0.49551000  1.0
  C  C33  1  0.23763000  0.92215000  0.50445000  1.0
  C  C34  1  0.25812000  0.42209000  0.50449000  1.0
  C  C35  1  0.76236000  0.07785000  0.49556000  1.0
  C  C36  1  0.73251000  0.68148000  0.53459000  1.0
  C  C37  1  0.26703000  0.81863000  0.46529000  1.0
  C  C38  1  0.26749000  0.31852000  0.46541000  1.0
  C  C39  1  0.73296000  0.18137000  0.53471000  1.0
  C  C40  1  0.69820000  0.62922000  0.65821000  1.0
  C  C41  1  0.35641000  0.87091000  0.34171000  1.0
  C  C42  1  0.30180000  0.37078000  0.34178000  1.0
  C  C43  1  0.64358000  0.12909000  0.65830000  1.0
  C  C44  1  0.77097000  0.57414000  0.37967000  1.0
  C  C45  1  0.15068000  0.92581000  0.62030000  1.0
  C  C46  1  0.22903000  0.42587000  0.62033000  1.0
  C  C47  1  0.84932000  0.07419000  0.37970000  1.0
  S  S48  1  0.64164000  0.37012000  0.82416000  1.0
  S  S49  1  0.46633000  0.12994000  0.17585000  1.0
  S  S50  1  0.35836000  0.62989000  0.17583000  1.0
  S  S51  1  0.53366000  0.87006000  0.82415000  1.0
  O  O52  1  0.84053000  0.30543000  0.81710000  1.0
  O  O53  1  0.65813000  0.19451000  0.18300000  1.0
  O  O54  1  0.15948000  0.69457000  0.18289000  1.0
  O  O55  1  0.34187000  0.80549000  0.81700000  1.0
  O  O56  1  0.60220000  0.43587000  0.91012000  1.0
  O  O57  1  0.51289000  0.06418000  0.08990000  1.0
  O  O58  1  0.39781000  0.56413000  0.08987000  1.0
  O  O59  1  0.48710000  0.93581000  0.91011000  1.0
  O  O60  1  0.45813000  0.28748000  0.83271000  1.0
  O  O61  1  0.29137000  0.21262000  0.16724000  1.0
  O  O62  1  0.54188000  0.71253000  0.16728000  1.0
  O  O63  1  0.70863000  0.78737000  0.83276000  1.0
  O  O64  1  0.86366000  0.43620000  0.14318000  1.0
  O  O65  1  0.00635000  0.06376000  0.85691000  1.0
  O  O66  1  0.13635000  0.56379000  0.85682000  1.0
  O  O67  1  0.99365000  0.93623000  0.14310000  1.0
  O  O68  1  0.97409000  0.74992000  0.99998000  1.0
  O  O69  1  0.02590000  0.25008000  0.00002000  1.0
  O  O70  1  0.71504000  0.46301000  0.58994000  1.0
  O  O71  1  0.30551000  0.03709000  0.41008000  1.0
  O  O72  1  0.28496000  0.53700000  0.41005000  1.0
  O  O73  1  0.69449000  0.96291000  0.58992000  1.0
  O  O74  1  0.78473000  0.47360000  0.35532000  1.0
  O  O75  1  0.13989000  0.02630000  0.64474000  1.0
  O  O76  1  0.21529000  0.52641000  0.64466000  1.0
  O  O77  1  0.86011000  0.97370000  0.35526000  1.0
