# generated using pymatgen
data_CuH12C14(N4Cl)2
_symmetry_space_group_name_H-M   'P 1'
_cell_length_a   8.83137000
_cell_length_b   9.61520000
_cell_length_c   10.22910000
_cell_angle_alpha   91.80440000
_cell_angle_beta   105.32300000
_cell_angle_gamma   100.78500000
_symmetry_Int_Tables_number   1
_chemical_formula_structural   CuH12C14(N4Cl)2
_chemical_formula_sum   'Cu2 H24 C28 N16 Cl4'
_cell_volume   819.92433727
_cell_formula_units_Z   2
loop_
 _symmetry_equiv_pos_site_id
 _symmetry_equiv_pos_as_xyz
  1  'x, y, z'
loop_
 _atom_site_type_symbol
 _atom_site_label
 _atom_site_symmetry_multiplicity
 _atom_site_fract_x
 _atom_site_fract_y
 _atom_site_fract_z
 _atom_site_occupancy
  Cu  Cu0  1  0.68096000  0.62674000  0.13233000  1.0
  Cu  Cu1  1  0.31903000  0.37326000  0.86767000  1.0
  H  H2  1  0.58683000  0.30230000  0.14547000  1.0
  H  H3  1  0.41317000  0.69770000  0.85453000  1.0
  H  H4  1  0.73369000  0.09813000  0.16671000  1.0
  H  H5  1  0.26631000  0.90187000  0.83329000  1.0
  H  H6  1  0.02855000  0.15171000  0.19798000  1.0
  H  H7  1  0.97145000  0.84829000  0.80202000  1.0
  H  H8  1  0.16751000  0.40463000  0.19033000  1.0
  H  H9  1  0.83249000  0.59538000  0.80968000  1.0
  H  H10  1  0.27963000  0.68657000  0.18206000  1.0
  H  H11  1  0.72036000  0.31343000  0.81795000  1.0
  H  H12  1  0.19308000  0.04211000  0.07338000  1.0
  H  H13  1  0.80692000  0.95789000  0.92662000  1.0
  H  H14  1  0.34751000  0.94227000  0.10749000  1.0
  H  H15  1  0.65248000  0.05773000  0.89250000  1.0
  H  H16  1  0.56715000  0.07039000  0.28132000  1.0
  H  H17  1  0.43284000  0.92961000  0.71868000  1.0
  H  H18  1  0.67314000  0.22213000  0.50388000  1.0
  H  H19  1  0.32687000  0.77786000  0.49611000  1.0
  H  H20  1  0.47666000  0.27668000  0.62718000  1.0
  H  H21  1  0.52334000  0.72332000  0.37282000  1.0
  H  H22  1  0.02956000  0.14883000  0.47213000  1.0
  H  H23  1  0.97045000  0.85117000  0.52787000  1.0
  H  H24  1  0.15073000  0.10776000  0.62955000  1.0
  H  H25  1  0.84928000  0.89223000  0.37045000  1.0
  C  C26  1  0.71482000  0.31861000  0.15553000  1.0
  C  C27  1  0.28517000  0.68139000  0.84447000  1.0
  C  C28  1  0.79749000  0.20742000  0.16949000  1.0
  C  C29  1  0.20251000  0.79258000  0.83051000  1.0
  C  C30  1  0.96182000  0.23713000  0.18334000  1.0
  C  C31  1  0.03818000  0.76287000  0.81667000  1.0
  C  C32  1  0.03926000  0.37679000  0.18098000  1.0
  C  C33  1  0.96073000  0.62321000  0.81902000  1.0
  C  C34  1  0.94841000  0.48245000  0.16423000  1.0
  C  C35  1  0.05159000  0.51755000  0.83577000  1.0
  C  C36  1  0.01148000  0.63092000  0.15445000  1.0
  C  C37  1  0.98851000  0.36909000  0.84556000  1.0
  C  C38  1  0.16166000  0.71277000  0.16557000  1.0
  C  C39  1  0.83834000  0.28723000  0.83443000  1.0
  C  C40  1  0.25256000  0.97358000  0.14544000  1.0
  C  C41  1  0.74744000  0.02642000  0.85456000  1.0
  C  C42  1  0.32197000  0.05017000  0.28634000  1.0
  C  C43  1  0.67803000  0.94984000  0.71366000  1.0
  C  C44  1  0.48710000  0.09870000  0.33759000  1.0
  C  C45  1  0.51290000  0.90130000  0.66240000  1.0
  C  C46  1  0.54504000  0.18126000  0.46158000  1.0
  C  C47  1  0.45497000  0.81874000  0.53842000  1.0
  C  C48  1  0.43704000  0.21099000  0.53080000  1.0
  C  C49  1  0.56297000  0.78901000  0.46920000  1.0
  C  C50  1  0.27387000  0.15307000  0.47417000  1.0
  C  C51  1  0.72613000  0.84693000  0.52582000  1.0
  C  C52  1  0.14915000  0.17599000  0.54518000  1.0
  C  C53  1  0.85086000  0.82401000  0.45482000  1.0
  N  N54  1  0.78865000  0.45313000  0.15301000  1.0
  N  N55  1  0.21135000  0.54687000  0.84700000  1.0
  N  N56  1  0.90414000  0.71900000  0.12541000  1.0
  N  N57  1  0.09586000  0.28100000  0.87459000  1.0
  N  N58  1  0.97716000  0.84934000  0.11811000  1.0
  N  N59  1  0.02283000  0.15066000  0.88188000  1.0
  N  N60  1  0.13372000  0.84507000  0.14243000  1.0
  N  N61  1  0.86628000  0.15493000  0.85757000  1.0
  N  N62  1  0.21741000  0.07460000  0.35423000  1.0
  N  N63  1  0.78260000  0.92540000  0.64577000  1.0
  N  N64  1  0.17859000  0.32115000  0.60988000  1.0
  N  N65  1  0.82142000  0.67884000  0.39013000  1.0
  N  N66  1  0.17850000  0.42130000  0.53819000  1.0
  N  N67  1  0.82151000  0.57869000  0.46181000  1.0
  N  N68  1  0.18262000  0.52603000  0.48661000  1.0
  N  N69  1  0.81740000  0.47397000  0.51339000  1.0
  Cl  Cl70  1  0.59323000  0.83326000  0.11166000  1.0
  Cl  Cl71  1  0.40677000  0.16675000  0.88834000  1.0
  Cl  Cl72  1  0.44980000  0.50405000  0.16590000  1.0
  Cl  Cl73  1  0.55019000  0.49595000  0.83409000  1.0
