# generated using pymatgen
data_NiH8C10(SN5)2
_symmetry_space_group_name_H-M   'P 1'
_cell_length_a   3.74913000
_cell_length_b   9.57080403
_cell_length_c   10.92087286
_cell_angle_alpha   108.77020689
_cell_angle_beta   91.66175941
_cell_angle_gamma   100.41778329
_symmetry_Int_Tables_number   1
_chemical_formula_structural   NiH8C10(SN5)2
_chemical_formula_sum   'Ni1 H8 C10 S2 N10'
_cell_volume   363.30515455
_cell_formula_units_Z   1
loop_
 _symmetry_equiv_pos_site_id
 _symmetry_equiv_pos_as_xyz
  1  'x, y, z'
loop_
 _atom_site_type_symbol
 _atom_site_label
 _atom_site_symmetry_multiplicity
 _atom_site_fract_x
 _atom_site_fract_y
 _atom_site_fract_z
 _atom_site_occupancy
  Ni  Ni0  1  0.99999000  0.00000000  0.50000000  1.0
  H  H1  1  0.34146000  0.40053000  0.18345000  1.0
  H  H2  1  0.65858000  0.59948000  0.81655000  1.0
  H  H3  1  0.11536000  0.50318000  0.10958000  1.0
  H  H4  1  0.88467000  0.49683000  0.89042000  1.0
  H  H5  1  0.33213000  0.76039000  0.63542000  1.0
  H  H6  1  0.66787000  0.23961000  0.36457000  1.0
  H  H7  1  0.48475000  0.87317000  0.88722000  1.0
  H  H8  1  0.51525000  0.12682000  0.11277000  1.0
  C  C9  1  0.18015000  0.29439000  0.99126000  1.0
  C  C10  1  0.81985000  0.70560000  0.00874000  1.0
  C  C11  1  0.27077000  0.06424000  0.87188000  1.0
  C  C12  1  0.72922000  0.93576000  0.12812000  1.0
  C  C13  1  0.13915000  0.08642000  0.76161000  1.0
  C  C14  1  0.86082000  0.91357000  0.23839000  1.0
  C  C15  1  0.03634000  0.22067000  0.76750000  1.0
  C  C16  1  0.96364000  0.77932000  0.23250000  1.0
  C  C17  1  0.28153000  0.86835000  0.69552000  1.0
  C  C18  1  0.71847000  0.13165000  0.30447000  1.0
  S  S19  1  0.91501000  0.23121000  0.61821000  1.0
  S  S20  1  0.08497000  0.76879000  0.38180000  1.0
  N  N21  1  0.05195000  0.32472000  0.88548000  1.0
  N  N22  1  0.94806000  0.67529000  0.11453000  1.0
  N  N23  1  0.18207000  0.40177000  0.10762000  1.0
  N  N24  1  0.81797000  0.59824000  0.89238000  1.0
  N  N25  1  0.29917000  0.16754000  0.99115000  1.0
  N  N26  1  0.70084000  0.83246000  0.00885000  1.0
  N  N27  1  0.14707000  0.96596000  0.65246000  1.0
  N  N28  1  0.85291000  0.03404000  0.34754000  1.0
  N  N29  1  0.35884000  0.92350000  0.82823000  1.0
  N  N30  1  0.64115000  0.07650000  0.17177000  1.0
