# generated using pymatgen
data_Cd3H10C10N15Cl
_symmetry_space_group_name_H-M   'P 1'
_cell_length_a   10.46800000
_cell_length_b   13.36860000
_cell_length_c   17.54370000
_cell_angle_alpha   89.99990000
_cell_angle_beta   107.36200000
_cell_angle_gamma   90.00000000
_symmetry_Int_Tables_number   1
_chemical_formula_structural   Cd3H10C10N15Cl
_chemical_formula_sum   'Cd12 H40 C40 N60 Cl4'
_cell_volume   2343.25073534
_cell_formula_units_Z   4
loop_
 _symmetry_equiv_pos_site_id
 _symmetry_equiv_pos_as_xyz
  1  'x, y, z'
loop_
 _atom_site_type_symbol
 _atom_site_label
 _atom_site_symmetry_multiplicity
 _atom_site_fract_x
 _atom_site_fract_y
 _atom_site_fract_z
 _atom_site_occupancy
  Cd  Cd0  1  0.56944000  0.52371000  0.13871000  1.0
  Cd  Cd1  1  0.64159000  0.75463000  0.28342000  1.0
  Cd  Cd2  1  0.68407000  0.01501000  0.36828000  1.0
  Cd  Cd3  1  0.73499000  0.27296000  0.46964000  1.0
  Cd  Cd4  1  0.43056000  0.02371000  0.86129000  1.0
  Cd  Cd5  1  0.35841000  0.25463000  0.71658000  1.0
  Cd  Cd6  1  0.31592000  0.51501000  0.63172000  1.0
  Cd  Cd7  1  0.26501000  0.77296000  0.53036000  1.0
  Cd  Cd8  1  0.10460000  0.24515000  0.20909000  1.0
  Cd  Cd9  1  0.89539000  0.74515000  0.79091000  1.0
  Cd  Cd10  1  0.01497000  0.78626000  0.03001000  1.0
  Cd  Cd11  1  0.98503000  0.28626000  0.96999000  1.0
  H  H12  1  0.78637000  0.61473000  0.03063000  1.0
  H  H13  1  0.91093000  0.82740000  0.21396000  1.0
  H  H14  1  0.40517000  0.68225000  0.39110000  1.0
  H  H15  1  0.45369000  0.97559000  0.48047000  1.0
  H  H16  1  0.99763000  0.33681000  0.37505000  1.0
  H  H17  1  0.89775000  0.06626000  0.24867000  1.0
  H  H18  1  0.38932000  0.40136000  0.23101000  1.0
  H  H19  1  0.30135000  0.39022000  0.98152000  1.0
  H  H20  1  0.21363000  0.11473000  0.96937000  1.0
  H  H21  1  0.08907000  0.32740000  0.78604000  1.0
  H  H22  1  0.59483000  0.18225000  0.60890000  1.0
  H  H23  1  0.54631000  0.47559000  0.51953000  1.0
  H  H24  1  0.00237000  0.83681000  0.62495000  1.0
  H  H25  1  0.10224000  0.56626000  0.75133000  1.0
  H  H26  1  0.61068000  0.90136000  0.76899000  1.0
  H  H27  1  0.69866000  0.89022000  0.01848000  1.0
  H  H28  1  0.75568000  0.11458000  0.96944000  1.0
  H  H29  1  0.69702000  0.32734000  0.78617000  1.0
  H  H30  1  0.01470000  0.18232000  0.60890000  1.0
  H  H31  1  0.97325000  0.47570000  0.51966000  1.0
  H  H32  1  0.62216000  0.83684000  0.62498000  1.0
  H  H33  1  0.64915000  0.56624000  0.75127000  1.0
  H  H34  1  0.15846000  0.90119000  0.76902000  1.0
  H  H35  1  0.31945000  0.89043000  0.01854000  1.0
  H  H36  1  0.24432000  0.61458000  0.03056000  1.0
  H  H37  1  0.30298000  0.82734000  0.21383000  1.0
  H  H38  1  0.98530000  0.68232000  0.39110000  1.0
  H  H39  1  0.02675000  0.97570000  0.48034000  1.0
  H  H40  1  0.37784000  0.33685000  0.37502000  1.0
  H  H41  1  0.35085000  0.06625000  0.24873000  1.0
  H  H42  1  0.84155000  0.40119000  0.23098000  1.0
  H  H43  1  0.68055000  0.39043000  0.98146000  1.0
  H  H44  1  0.64404000  0.34499000  0.28757000  1.0
  H  H45  1  0.72830000  0.57646000  0.45638000  1.0
  H  H46  1  0.35596000  0.84499000  0.71243000  1.0
  H  H47  1  0.27170000  0.07646000  0.54362000  1.0
  H  H48  1  0.97440000  0.01566000  0.94859000  1.0
  H  H49  1  0.09871000  0.98046000  0.19726000  1.0
  H  H50  1  0.02560000  0.51566000  0.05141000  1.0
  H  H51  1  0.90129000  0.48046000  0.80274000  1.0
  C  C52  1  0.79598000  0.65875000  0.08394000  1.0
  C  C53  1  0.85967000  0.76623000  0.17658000  1.0
  C  C54  1  0.43763000  0.75943000  0.40259000  1.0
  C  C55  1  0.46119000  0.90788000  0.44795000  1.0
  C  C56  1  0.95159000  0.26555000  0.35266000  1.0
  C  C57  1  0.90243000  0.12846000  0.28919000  1.0
  C  C58  1  0.34026000  0.38697000  0.16827000  1.0
  C  C59  1  0.29593000  0.38150000  0.04207000  1.0
  C  C60  1  0.20402000  0.15875000  0.91606000  1.0
  C  C61  1  0.14033000  0.26623000  0.82342000  1.0
  C  C62  1  0.56238000  0.25943000  0.59741000  1.0
  C  C63  1  0.53881000  0.40788000  0.55205000  1.0
  C  C64  1  0.04841000  0.76555000  0.64734000  1.0
  C  C65  1  0.09757000  0.62846000  0.71081000  1.0
  C  C66  1  0.65974000  0.88697000  0.83173000  1.0
  C  C67  1  0.70407000  0.88150000  0.95793000  1.0
  C  C68  1  0.71202000  0.15866000  0.91615000  1.0
  C  C69  1  0.68305000  0.26616000  0.82353000  1.0
  C  C70  1  0.03553000  0.25954000  0.59744000  1.0
  C  C71  1  0.01340000  0.40801000  0.55217000  1.0
  C  C72  1  0.59856000  0.76557000  0.64735000  1.0
  C  C73  1  0.61317000  0.62842000  0.71075000  1.0
  C  C74  1  0.17204000  0.88688000  0.83176000  1.0
  C  C75  1  0.25352000  0.88165000  0.95798000  1.0
  C  C76  1  0.28798000  0.65866000  0.08385000  1.0
  C  C77  1  0.31695000  0.76616000  0.17647000  1.0
  C  C78  1  0.96447000  0.75954000  0.40256000  1.0
  C  C79  1  0.98659000  0.90801000  0.44783000  1.0
  C  C80  1  0.40144000  0.26557000  0.35265000  1.0
  C  C81  1  0.38683000  0.12842000  0.28925000  1.0
  C  C82  1  0.82795000  0.38688000  0.16824000  1.0
  C  C83  1  0.74648000  0.38165000  0.04201000  1.0
  C  C84  1  0.65792000  0.41833000  0.31544000  1.0
  C  C85  1  0.70044000  0.53505000  0.40053000  1.0
  C  C86  1  0.34208000  0.91833000  0.68456000  1.0
  C  C87  1  0.29956000  0.03506000  0.59948000  1.0
  C  C88  1  0.00623000  0.03096000  0.01229000  1.0
  C  C89  1  0.06893000  0.01274000  0.13770000  1.0
  C  C90  1  0.99377000  0.53096000  0.98771000  1.0
  C  C91  1  0.93107000  0.51274000  0.86230000  1.0
  N  N92  1  0.71898000  0.64649000  0.13137000  1.0
  N  N93  1  0.75985000  0.71562000  0.19124000  1.0
  N  N94  1  0.88640000  0.73299000  0.10988000  1.0
  N  N95  1  0.52617000  0.80386000  0.37259000  1.0
  N  N96  1  0.54124000  0.89949000  0.40181000  1.0
  N  N97  1  0.39358000  0.82203000  0.45001000  1.0
  N  N98  1  0.85495000  0.22343000  0.37698000  1.0
  N  N99  1  0.82418000  0.13511000  0.33638000  1.0
  N  N100  1  0.98502000  0.20867000  0.29727000  1.0
  N  N101  1  0.22326000  0.34015000  0.14109000  1.0
  N  N102  1  0.19432000  0.33668000  0.05965000  1.0
  N  N103  1  0.39018000  0.41430000  0.10852000  1.0
  N  N104  1  0.28102000  0.14649000  0.86863000  1.0
  N  N105  1  0.24015000  0.21562000  0.80876000  1.0
  N  N106  1  0.11360000  0.23299000  0.89012000  1.0
  N  N107  1  0.47383000  0.30386000  0.62741000  1.0
  N  N108  1  0.45877000  0.39949000  0.59819000  1.0
  N  N109  1  0.60643000  0.32203000  0.54999000  1.0
  N  N110  1  0.14505000  0.72344000  0.62302000  1.0
  N  N111  1  0.17582000  0.63511000  0.66361000  1.0
  N  N112  1  0.01498000  0.70867000  0.70272000  1.0
  N  N113  1  0.77674000  0.84015000  0.85891000  1.0
  N  N114  1  0.80568000  0.83668000  0.94035000  1.0
  N  N115  1  0.60982000  0.91430000  0.89148000  1.0
  N  N116  1  0.58760000  0.14641000  0.86872000  1.0
  N  N117  1  0.56857000  0.21556000  0.80887000  1.0
  N  N118  1  0.77649000  0.23292000  0.89023000  1.0
  N  N119  1  0.15402000  0.30405000  0.62741000  1.0
  N  N120  1  0.13966000  0.39969000  0.59823000  1.0
  N  N121  1  0.94390000  0.32208000  0.55009000  1.0
  N  N122  1  0.47767000  0.72338000  0.62304000  1.0
  N  N123  1  0.48768000  0.63500000  0.66359000  1.0
  N  N124  1  0.68753000  0.70870000  0.70269000  1.0
  N  N125  1  0.08212000  0.84008000  0.85886000  1.0
  N  N126  1  0.13437000  0.83673000  0.94031000  1.0
  N  N127  1  0.28154000  0.91435000  0.89159000  1.0
  N  N128  1  0.41240000  0.64641000  0.13129000  1.0
  N  N129  1  0.43143000  0.71556000  0.19114000  1.0
  N  N130  1  0.22351000  0.73292000  0.10978000  1.0
  N  N131  1  0.84598000  0.80405000  0.37259000  1.0
  N  N132  1  0.86034000  0.89969000  0.40177000  1.0
  N  N133  1  0.05610000  0.82208000  0.44991000  1.0
  N  N134  1  0.52233000  0.22338000  0.37696000  1.0
  N  N135  1  0.51232000  0.13500000  0.33641000  1.0
  N  N136  1  0.31246000  0.20870000  0.29731000  1.0
  N  N137  1  0.91787000  0.34007000  0.14114000  1.0
  N  N138  1  0.86563000  0.33673000  0.05969000  1.0
  N  N139  1  0.71846000  0.41435000  0.10841000  1.0
  N  N140  1  0.63719000  0.50383000  0.27415000  1.0
  N  N141  1  0.66468000  0.58000000  0.32915000  1.0
  N  N142  1  0.69779000  0.43360000  0.39512000  1.0
  N  N143  1  0.36281000  0.00383000  0.72585000  1.0
  N  N144  1  0.33532000  0.08000000  0.67085000  1.0
  N  N145  1  0.30221000  0.93360000  0.60488000  1.0
  N  N146  1  0.06211000  0.11136000  0.12402000  1.0
  N  N147  1  0.02134000  0.12331000  0.04251000  1.0
  N  N148  1  0.03479000  0.95907000  0.06943000  1.0
  N  N149  1  0.93789000  0.61136000  0.87598000  1.0
  N  N150  1  0.97866000  0.62331000  0.95749000  1.0
  N  N151  1  0.96521000  0.45907000  0.93057000  1.0
  Cl  Cl152  1  0.60968000  0.94141000  0.21949000  1.0
  Cl  Cl153  1  0.76098000  0.08489000  0.52179000  1.0
  Cl  Cl154  1  0.39032000  0.44141000  0.78051000  1.0
  Cl  Cl155  1  0.23902000  0.58489000  0.47821000  1.0
