# generated using pymatgen
data_Mn2H31C39(N2O5)2
_symmetry_space_group_name_H-M   'P 1'
_cell_length_a   10.17770000
_cell_length_b   17.78610000
_cell_length_c   19.89320000
_cell_angle_alpha   90.00010000
_cell_angle_beta   90.00010000
_cell_angle_gamma   79.78600000
_symmetry_Int_Tables_number   1
_chemical_formula_structural   Mn2H31C39(N2O5)2
_chemical_formula_sum   'Mn8 H124 C156 N16 O40'
_cell_volume   3544.02959287
_cell_formula_units_Z   4
loop_
 _symmetry_equiv_pos_site_id
 _symmetry_equiv_pos_as_xyz
  1  'x, y, z'
loop_
 _atom_site_type_symbol
 _atom_site_label
 _atom_site_symmetry_multiplicity
 _atom_site_fract_x
 _atom_site_fract_y
 _atom_site_fract_z
 _atom_site_occupancy
  Mn  Mn0  1  0.57540000  0.94385000  0.44598000  1.0
  Mn  Mn1  1  0.92460000  0.05615000  0.94599000  1.0
  Mn  Mn2  1  0.42461000  0.05615000  0.55402000  1.0
  Mn  Mn3  1  0.07538000  0.94385000  0.05402000  1.0
  Mn  Mn4  1  0.65846000  0.54774000  0.44772000  1.0
  Mn  Mn5  1  0.84153000  0.45226000  0.94772000  1.0
  Mn  Mn6  1  0.34152000  0.45226000  0.55228000  1.0
  Mn  Mn7  1  0.15847000  0.54774000  0.05228000  1.0
  H  H8  1  0.77256000  0.63758000  0.54183000  1.0
  H  H9  1  0.72742000  0.36242000  0.04183000  1.0
  H  H10  1  0.22742000  0.36242000  0.45817000  1.0
  H  H11  1  0.27256000  0.63759000  0.95817000  1.0
  H  H12  1  0.86141000  0.61930000  0.47618000  1.0
  H  H13  1  0.63858000  0.38069000  0.97618000  1.0
  H  H14  1  0.13858000  0.38070000  0.52382000  1.0
  H  H15  1  0.36141000  0.61930000  0.02381000  1.0
  H  H16  1  0.84166000  0.44184000  0.53614000  1.0
  H  H17  1  0.65833000  0.55816000  0.03614000  1.0
  H  H18  1  0.15833000  0.55817000  0.46386000  1.0
  H  H19  1  0.34166000  0.44183000  0.96386000  1.0
  H  H20  1  0.68826000  0.42677000  0.53584000  1.0
  H  H21  1  0.81173000  0.57323000  0.03584000  1.0
  H  H22  1  0.31173000  0.57323000  0.46416000  1.0
  H  H23  1  0.18825000  0.42677000  0.96416000  1.0
  H  H24  1  0.72299000  0.12242000  0.32706000  1.0
  H  H25  1  0.77701000  0.87758000  0.82706000  1.0
  H  H26  1  0.27702000  0.87758000  0.67294000  1.0
  H  H27  1  0.22297000  0.12242000  0.17296000  1.0
  H  H28  1  0.94387000  0.27967000  0.20020000  1.0
  H  H29  1  0.55613000  0.72034000  0.70019000  1.0
  H  H30  1  0.05613000  0.72033000  0.79980000  1.0
  H  H31  1  0.44388000  0.27967000  0.29979000  1.0
  H  H32  1  0.90415000  0.33159000  0.27473000  1.0
  H  H33  1  0.59582000  0.66842000  0.77471000  1.0
  H  H34  1  0.09585000  0.66842000  0.72527000  1.0
  H  H35  1  0.40415000  0.33159000  0.22527000  1.0
  H  H36  1  0.63718000  0.27647000  0.16781000  1.0
  H  H37  1  0.86282000  0.72354000  0.66781000  1.0
  H  H38  1  0.36282000  0.72354000  0.83219000  1.0
  H  H39  1  0.13719000  0.27647000  0.33218000  1.0
  H  H40  1  0.46337000  0.37389000  0.11151000  1.0
  H  H41  1  0.03664000  0.62611000  0.61151000  1.0
  H  H42  1  0.53663000  0.62611000  0.88850000  1.0
  H  H43  1  0.96337000  0.37390000  0.38848000  1.0
  H  H44  1  0.69092000  0.54865000  0.15938000  1.0
  H  H45  1  0.80908000  0.45135000  0.65938000  1.0
  H  H46  1  0.30909000  0.45135000  0.84062000  1.0
  H  H47  1  0.19092000  0.54866000  0.34062000  1.0
  H  H48  1  0.85830000  0.45317000  0.21914000  1.0
  H  H49  1  0.64169000  0.54684000  0.71914000  1.0
  H  H50  1  0.14171000  0.54683000  0.78086000  1.0
  H  H51  1  0.35831000  0.45318000  0.28086000  1.0
  H  H52  1  0.91330000  0.16575000  0.18766000  1.0
  H  H53  1  0.58670000  0.83426000  0.68766000  1.0
  H  H54  1  0.08672000  0.83425000  0.81234000  1.0
  H  H55  1  0.41330000  0.16575000  0.31234000  1.0
  H  H56  1  0.80082000  0.12293000  0.23394000  1.0
  H  H57  1  0.69917000  0.87707000  0.73394000  1.0
  H  H58  1  0.19918000  0.87707000  0.76607000  1.0
  H  H59  1  0.30081000  0.12294000  0.26606000  1.0
  H  H60  1  0.05321000  0.03290000  0.21334000  1.0
  H  H61  1  0.44678000  0.96711000  0.71334000  1.0
  H  H62  1  0.94678000  0.96710000  0.78666000  1.0
  H  H63  1  0.55320000  0.03291000  0.28666000  1.0
  H  H64  1  0.24081000  0.96887000  0.28675000  1.0
  H  H65  1  0.25917000  0.03114000  0.78674000  1.0
  H  H66  1  0.75919000  0.03114000  0.71326000  1.0
  H  H67  1  0.74080000  0.96887000  0.21326000  1.0
  H  H68  1  0.13297000  0.14233000  0.43622000  1.0
  H  H69  1  0.36701000  0.85768000  0.93622000  1.0
  H  H70  1  0.86703000  0.85767000  0.56379000  1.0
  H  H71  1  0.63297000  0.14233000  0.06378000  1.0
  H  H72  1  0.94930000  0.20749000  0.36328000  1.0
  H  H73  1  0.55069000  0.79253000  0.86327000  1.0
  H  H74  1  0.05070000  0.79252000  0.63673000  1.0
  H  H75  1  0.44930000  0.20749000  0.13673000  1.0
  H  H76  1  0.70300000  0.36872000  0.32285000  1.0
  H  H77  1  0.79699000  0.63128000  0.82285000  1.0
  H  H78  1  0.29699000  0.63128000  0.67715000  1.0
  H  H79  1  0.20299000  0.36873000  0.17716000  1.0
  H  H80  1  0.49139000  0.26534000  0.47319000  1.0
  H  H81  1  0.00859000  0.73466000  0.97320000  1.0
  H  H82  1  0.50860000  0.73466000  0.52681000  1.0
  H  H83  1  0.99139000  0.26534000  0.02681000  1.0
  H  H84  1  0.78814000  0.78999000  0.45292000  1.0
  H  H85  1  0.71187000  0.21001000  0.95292000  1.0
  H  H86  1  0.21188000  0.21000000  0.54709000  1.0
  H  H87  1  0.28813000  0.78999000  0.04708000  1.0
  H  H88  1  0.91805000  0.69955000  0.37254000  1.0
  H  H89  1  0.58196000  0.30044000  0.87253000  1.0
  H  H90  1  0.08196000  0.30044000  0.62747000  1.0
  H  H91  1  0.41805000  0.69955000  0.12746000  1.0
  H  H92  1  0.69179000  0.82659000  0.21165000  1.0
  H  H93  1  0.80822000  0.17339000  0.71165000  1.0
  H  H94  1  0.30825000  0.17342000  0.78836000  1.0
  H  H95  1  0.19179000  0.82659000  0.28835000  1.0
  H  H96  1  0.57213000  0.91267000  0.29985000  1.0
  H  H97  1  0.92788000  0.08732000  0.79986000  1.0
  H  H98  1  0.42789000  0.08733000  0.70015000  1.0
  H  H99  1  0.07213000  0.91267000  0.20015000  1.0
  H  H100  1  0.89726000  0.80269000  0.16102000  1.0
  H  H101  1  0.60274000  0.19729000  0.66102000  1.0
  H  H102  1  0.10274000  0.19730000  0.83898000  1.0
  H  H103  1  0.39726000  0.80270000  0.33898000  1.0
  H  H104  1  0.03831000  0.72057000  0.07804000  1.0
  H  H105  1  0.46168000  0.27942000  0.57804000  1.0
  H  H106  1  0.96168000  0.27943000  0.92196000  1.0
  H  H107  1  0.53831000  0.72057000  0.42196000  1.0
  H  H108  1  0.07031000  0.53058000  0.20094000  1.0
  H  H109  1  0.42971000  0.46941000  0.70094000  1.0
  H  H110  1  0.92969000  0.46942000  0.79905000  1.0
  H  H111  1  0.57032000  0.53058000  0.29905000  1.0
  H  H112  1  0.92780000  0.60390000  0.28963000  1.0
  H  H113  1  0.57223000  0.39609000  0.78962000  1.0
  H  H114  1  0.07222000  0.39610000  0.71037000  1.0
  H  H115  1  0.42780000  0.60390000  0.21037000  1.0
  H  H116  1  0.94083000  0.89758000  0.32525000  1.0
  H  H117  1  0.55919000  0.10242000  0.82525000  1.0
  H  H118  1  0.05920000  0.10242000  0.67474000  1.0
  H  H119  1  0.44084000  0.89758000  0.17475000  1.0
  H  H120  1  0.86393000  0.00515000  0.40166000  1.0
  H  H121  1  0.63609000  0.99484000  0.90167000  1.0
  H  H122  1  0.13610000  0.99485000  0.59832000  1.0
  H  H123  1  0.36393000  0.00515000  0.09833000  1.0
  H  H124  1  0.18024000  0.90654000  0.53739000  1.0
  H  H125  1  0.31976000  0.09345000  0.03739000  1.0
  H  H126  1  0.81974000  0.09345000  0.46260000  1.0
  H  H127  1  0.68025000  0.90654000  0.96260000  1.0
  H  H128  1  0.24307000  0.80275000  0.45529000  1.0
  H  H129  1  0.25693000  0.19724000  0.95530000  1.0
  H  H130  1  0.75691000  0.19724000  0.54470000  1.0
  H  H131  1  0.74309000  0.80275000  0.04470000  1.0
  C  C132  1  0.57002000  0.11797000  0.43603000  1.0
  C  C133  1  0.92997000  0.88203000  0.93603000  1.0
  C  C134  1  0.42998000  0.88203000  0.56398000  1.0
  C  C135  1  0.07000000  0.11797000  0.06398000  1.0
  C  C136  1  0.60342000  0.18746000  0.40198000  1.0
  C  C137  1  0.89657000  0.81254000  0.90198000  1.0
  C  C138  1  0.39658000  0.81255000  0.59802000  1.0
  C  C139  1  0.10339000  0.18746000  0.09803000  1.0
  C  C140  1  0.68647000  0.17974000  0.34563000  1.0
  C  C141  1  0.81353000  0.82026000  0.84563000  1.0
  C  C142  1  0.31353000  0.82026000  0.65437000  1.0
  C  C143  1  0.18644000  0.17975000  0.15438000  1.0
  C  C144  1  0.72447000  0.24429000  0.31486000  1.0
  C  C145  1  0.77553000  0.75571000  0.81486000  1.0
  C  C146  1  0.27554000  0.75571000  0.68514000  1.0
  C  C147  1  0.22445000  0.24430000  0.18514000  1.0
  C  C148  1  0.86071000  0.30149000  0.23416000  1.0
  C  C149  1  0.63928000  0.69851000  0.73415000  1.0
  C  C150  1  0.13928000  0.69851000  0.76584000  1.0
  C  C151  1  0.36072000  0.30150000  0.26584000  1.0
  C  C152  1  0.75865000  0.35860000  0.19690000  1.0
  C  C153  1  0.74136000  0.64140000  0.69691000  1.0
  C  C154  1  0.24134000  0.64139000  0.80310000  1.0
  C  C155  1  0.25867000  0.35861000  0.30310000  1.0
  C  C156  1  0.64847000  0.33628000  0.16556000  1.0
  C  C157  1  0.85153000  0.66373000  0.66556000  1.0
  C  C158  1  0.35153000  0.66372000  0.83444000  1.0
  C  C159  1  0.14847000  0.33628000  0.33444000  1.0
  C  C160  1  0.55161000  0.39029000  0.13436000  1.0
  C  C161  1  0.94839000  0.60971000  0.63436000  1.0
  C  C162  1  0.44839000  0.60971000  0.86565000  1.0
  C  C163  1  0.05161000  0.39030000  0.36564000  1.0
  C  C164  1  0.56655000  0.46711000  0.13174000  1.0
  C  C165  1  0.93345000  0.53289000  0.63175000  1.0
  C  C166  1  0.43345000  0.53289000  0.86826000  1.0
  C  C167  1  0.06655000  0.46712000  0.36825000  1.0
  C  C168  1  0.46141000  0.52444000  0.09848000  1.0
  C  C169  1  0.03859000  0.47556000  0.59848000  1.0
  C  C170  1  0.53858000  0.47555000  0.90152000  1.0
  C  C171  1  0.96141000  0.52445000  0.40151000  1.0
  C  C172  1  0.67909000  0.48898000  0.16117000  1.0
  C  C173  1  0.82091000  0.51102000  0.66117000  1.0
  C  C174  1  0.32091000  0.51102000  0.83883000  1.0
  C  C175  1  0.17910000  0.48898000  0.33883000  1.0
  C  C176  1  0.77314000  0.43538000  0.19437000  1.0
  C  C177  1  0.72686000  0.56462000  0.69437000  1.0
  C  C178  1  0.22686000  0.56462000  0.80563000  1.0
  C  C179  1  0.27315000  0.43538000  0.30563000  1.0
  C  C180  1  0.87481000  0.16081000  0.23873000  1.0
  C  C181  1  0.62519000  0.83920000  0.73873000  1.0
  C  C182  1  0.12519000  0.83919000  0.76127000  1.0
  C  C183  1  0.37480000  0.16081000  0.26127000  1.0
  C  C184  1  0.98780000  0.12362000  0.28385000  1.0
  C  C185  1  0.51219000  0.87639000  0.78385000  1.0
  C  C186  1  0.01220000  0.87639000  0.71615000  1.0
  C  C187  1  0.48780000  0.12362000  0.21615000  1.0
  C  C188  1  0.07018000  0.05588000  0.26285000  1.0
  C  C189  1  0.42981000  0.94412000  0.76285000  1.0
  C  C190  1  0.92982000  0.94412000  0.73715000  1.0
  C  C191  1  0.57016000  0.05589000  0.23715000  1.0
  C  C192  1  0.17490000  0.02066000  0.30323000  1.0
  C  C193  1  0.32510000  0.97935000  0.80322000  1.0
  C  C194  1  0.82512000  0.97935000  0.69678000  1.0
  C  C195  1  0.67487000  0.02066000  0.19678000  1.0
  C  C196  1  0.19740000  0.05161000  0.36613000  1.0
  C  C197  1  0.30259000  0.94840000  0.86613000  1.0
  C  C198  1  0.80260000  0.94840000  0.63387000  1.0
  C  C199  1  0.69738000  0.05161000  0.13387000  1.0
  C  C200  1  0.30911000  0.01540000  0.41018000  1.0
  C  C201  1  0.19087000  0.98461000  0.91017000  1.0
  C  C202  1  0.69092000  0.98461000  0.58982000  1.0
  C  C203  1  0.80908000  0.01540000  0.08983000  1.0
  C  C204  1  0.11500000  0.11889000  0.38720000  1.0
  C  C205  1  0.38498000  0.88112000  0.88720000  1.0
  C  C206  1  0.88500000  0.88111000  0.61280000  1.0
  C  C207  1  0.61500000  0.11889000  0.11280000  1.0
  C  C208  1  0.01217000  0.15496000  0.34617000  1.0
  C  C209  1  0.48781000  0.84505000  0.84617000  1.0
  C  C210  1  0.98782000  0.84504000  0.65383000  1.0
  C  C211  1  0.51217000  0.15496000  0.15383000  1.0
  C  C212  1  0.67627000  0.31678000  0.34339000  1.0
  C  C213  1  0.82372000  0.68322000  0.84339000  1.0
  C  C214  1  0.32372000  0.68322000  0.65660000  1.0
  C  C215  1  0.17628000  0.31678000  0.15661000  1.0
  C  C216  1  0.59346000  0.32387000  0.40007000  1.0
  C  C217  1  0.90653000  0.67612000  0.90007000  1.0
  C  C218  1  0.40653000  0.67613000  0.59993000  1.0
  C  C219  1  0.09345000  0.32388000  0.09993000  1.0
  C  C220  1  0.55118000  0.40058000  0.43240000  1.0
  C  C221  1  0.94880000  0.59942000  0.93241000  1.0
  C  C222  1  0.44881000  0.59942000  0.56759000  1.0
  C  C223  1  0.05118000  0.40058000  0.06759000  1.0
  C  C224  1  0.55573000  0.25957000  0.42930000  1.0
  C  C225  1  0.94425000  0.74043000  0.92931000  1.0
  C  C226  1  0.44426000  0.74044000  0.57069000  1.0
  C  C227  1  0.05572000  0.25957000  0.07070000  1.0
  C  C228  1  0.77105000  0.79700000  0.39901000  1.0
  C  C229  1  0.72898000  0.20300000  0.89901000  1.0
  C  C230  1  0.22897000  0.20299000  0.60100000  1.0
  C  C231  1  0.27104000  0.79700000  0.10099000  1.0
  C  C232  1  0.84270000  0.74603000  0.35359000  1.0
  C  C233  1  0.65730000  0.25396000  0.85358000  1.0
  C  C234  1  0.15732000  0.25397000  0.64642000  1.0
  C  C235  1  0.34270000  0.74603000  0.14641000  1.0
  C  C236  1  0.82035000  0.75765000  0.28447000  1.0
  C  C237  1  0.67967000  0.24233000  0.78447000  1.0
  C  C238  1  0.17968000  0.24234000  0.71554000  1.0
  C  C239  1  0.32035000  0.75766000  0.21553000  1.0
  C  C240  1  0.71968000  0.81817000  0.26461000  1.0
  C  C241  1  0.78034000  0.18181000  0.76461000  1.0
  C  C242  1  0.28035000  0.18183000  0.73540000  1.0
  C  C243  1  0.21968000  0.81817000  0.23539000  1.0
  C  C244  1  0.65201000  0.86577000  0.31329000  1.0
  C  C245  1  0.84800000  0.13422000  0.81329000  1.0
  C  C246  1  0.34801000  0.13423000  0.68672000  1.0
  C  C247  1  0.15201000  0.86577000  0.18671000  1.0
  C  C248  1  0.90116000  0.71021000  0.23334000  1.0
  C  C249  1  0.59887000  0.28978000  0.73333000  1.0
  C  C250  1  0.09886000  0.28979000  0.76666000  1.0
  C  C251  1  0.40116000  0.71021000  0.26666000  1.0
  C  C252  1  0.93243000  0.74247000  0.17218000  1.0
  C  C253  1  0.56759000  0.25752000  0.67218000  1.0
  C  C254  1  0.06758000  0.25753000  0.82782000  1.0
  C  C255  1  0.43243000  0.74247000  0.32782000  1.0
  C  C256  1  0.01202000  0.69701000  0.12573000  1.0
  C  C257  1  0.48798000  0.30298000  0.62573000  1.0
  C  C258  1  0.98797000  0.30299000  0.87427000  1.0
  C  C259  1  0.51203000  0.69701000  0.37427000  1.0
  C  C260  1  0.03063000  0.59123000  0.19474000  1.0
  C  C261  1  0.46940000  0.40876000  0.69474000  1.0
  C  C262  1  0.96938000  0.40877000  0.80526000  1.0
  C  C263  1  0.53063000  0.59123000  0.30526000  1.0
  C  C264  1  0.95185000  0.63255000  0.24402000  1.0
  C  C265  1  0.54817000  0.36744000  0.74402000  1.0
  C  C266  1  0.04815000  0.36745000  0.75598000  1.0
  C  C267  1  0.45185000  0.63255000  0.25598000  1.0
  C  C268  1  0.99212000  0.90116000  0.37315000  1.0
  C  C269  1  0.50790000  0.09884000  0.87315000  1.0
  C  C270  1  0.00790000  0.09884000  0.62684000  1.0
  C  C271  1  0.49212000  0.90116000  0.12685000  1.0
  C  C272  1  0.94916000  0.96215000  0.41624000  1.0
  C  C273  1  0.55085000  0.03784000  0.91624000  1.0
  C  C274  1  0.05086000  0.03785000  0.58375000  1.0
  C  C275  1  0.44916000  0.96215000  0.08376000  1.0
  C  C276  1  0.01784000  0.96728000  0.47682000  1.0
  C  C277  1  0.48218000  0.03271000  0.97683000  1.0
  C  C278  1  0.98218000  0.03271000  0.52316000  1.0
  C  C279  1  0.51784000  0.96728000  0.02317000  1.0
  C  C280  1  0.12365000  0.90735000  0.49101000  1.0
  C  C281  1  0.37636000  0.09263000  0.99102000  1.0
  C  C282  1  0.87634000  0.09263000  0.50898000  1.0
  C  C283  1  0.62366000  0.90736000  0.00898000  1.0
  C  C284  1  0.15895000  0.84859000  0.44473000  1.0
  C  C285  1  0.34106000  0.15140000  0.94474000  1.0
  C  C286  1  0.84105000  0.15140000  0.55526000  1.0
  C  C287  1  0.65897000  0.84859000  0.05527000  1.0
  N  N288  1  0.80904000  0.23611000  0.25988000  1.0
  N  N289  1  0.69095000  0.76389000  0.75988000  1.0
  N  N290  1  0.19096000  0.76389000  0.74012000  1.0
  N  N291  1  0.30904000  0.23612000  0.24012000  1.0
  N  N292  1  0.67907000  0.85726000  0.37960000  1.0
  N  N293  1  0.82094000  0.14274000  0.87960000  1.0
  N  N294  1  0.32095000  0.14274000  0.62041000  1.0
  N  N295  1  0.17906000  0.85726000  0.12040000  1.0
  N  N296  1  0.06090000  0.62253000  0.13636000  1.0
  N  N297  1  0.43911000  0.37746000  0.63636000  1.0
  N  N298  1  0.93910000  0.37747000  0.86364000  1.0
  N  N299  1  0.56090000  0.62253000  0.36363000  1.0
  N  N300  1  0.09586000  0.84491000  0.38582000  1.0
  N  N301  1  0.40415000  0.15509000  0.88582000  1.0
  N  N302  1  0.90414000  0.15508000  0.61418000  1.0
  N  N303  1  0.59587000  0.84491000  0.11418000  1.0
  O  O304  1  0.60641000  0.05291000  0.40799000  1.0
  O  O305  1  0.89360000  0.94709000  0.90799000  1.0
  O  O306  1  0.39361000  0.94709000  0.59202000  1.0
  O  O307  1  0.10637000  0.05291000  0.09203000  1.0
  O  O308  1  0.50883000  0.12915000  0.49193000  1.0
  O  O309  1  0.99116000  0.87086000  0.99194000  1.0
  O  O310  1  0.49117000  0.87086000  0.50807000  1.0
  O  O311  1  0.00882000  0.12915000  0.00808000  1.0
  O  O312  1  0.34091000  0.51783000  0.10880000  1.0
  O  O313  1  0.15908000  0.48216000  0.60881000  1.0
  O  O314  1  0.65908000  0.48216000  0.89119000  1.0
  O  O315  1  0.84091000  0.51783000  0.39119000  1.0
  O  O316  1  0.49868000  0.57693000  0.06244000  1.0
  O  O317  1  0.00130000  0.42308000  0.56244000  1.0
  O  O318  1  0.50130000  0.42307000  0.93756000  1.0
  O  O319  1  0.99868000  0.57693000  0.43756000  1.0
  O  O320  1  0.30844000  0.03933000  0.47071000  1.0
  O  O321  1  0.19155000  0.96067000  0.97072000  1.0
  O  O322  1  0.69157000  0.96066000  0.52929000  1.0
  O  O323  1  0.80842000  0.03933000  0.02929000  1.0
  O  O324  1  0.39942000  0.96400000  0.38516000  1.0
  O  O325  1  0.10058000  0.03601000  0.88516000  1.0
  O  O326  1  0.60059000  0.03600000  0.61484000  1.0
  O  O327  1  0.89940000  0.96399000  0.11484000  1.0
  O  O328  1  0.57036000  0.45974000  0.40077000  1.0
  O  O329  1  0.92961000  0.54026000  0.90078000  1.0
  O  O330  1  0.42962000  0.54026000  0.59922000  1.0
  O  O331  1  0.07037000  0.45974000  0.09923000  1.0
  O  O332  1  0.76727000  0.63752000  0.49286000  1.0
  O  O333  1  0.73272000  0.36247000  0.99286000  1.0
  O  O334  1  0.23272000  0.36248000  0.50714000  1.0
  O  O335  1  0.26727000  0.63752000  0.00714000  1.0
  O  O336  1  0.74870000  0.45886000  0.51842000  1.0
  O  O337  1  0.75129000  0.54113000  0.01842000  1.0
  O  O338  1  0.25129000  0.54114000  0.48158000  1.0
  O  O339  1  0.24870000  0.45886000  0.98158000  1.0
  O  O340  1  0.50390000  0.40108000  0.49215000  1.0
  O  O341  1  0.99607000  0.59892000  0.99215000  1.0
  O  O342  1  0.49608000  0.59892000  0.50785000  1.0
  O  O343  1  0.00392000  0.40107000  0.00785000  1.0
