# generated using pymatgen
data_KH10C11SNO5
_symmetry_space_group_name_H-M   'P 1'
_cell_length_a   7.82309000
_cell_length_b   8.08166000
_cell_length_c   11.25440000
_cell_angle_alpha   96.79720000
_cell_angle_beta   105.23900000
_cell_angle_gamma   114.66300000
_symmetry_Int_Tables_number   1
_chemical_formula_structural   KH10C11SNO5
_chemical_formula_sum   'K2 H20 C22 S2 N2 O10'
_cell_volume   602.42900551
_cell_formula_units_Z   2
loop_
 _symmetry_equiv_pos_site_id
 _symmetry_equiv_pos_as_xyz
  1  'x, y, z'
loop_
 _atom_site_type_symbol
 _atom_site_label
 _atom_site_symmetry_multiplicity
 _atom_site_fract_x
 _atom_site_fract_y
 _atom_site_fract_z
 _atom_site_occupancy
  K  K0  1  0.47447000  0.24678000  0.50614000  1.0
  K  K1  1  0.52553000  0.75323000  0.49386000  1.0
  H  H2  1  0.25832000  0.52923000  0.10756000  1.0
  H  H3  1  0.74168000  0.47076000  0.89244000  1.0
  H  H4  1  0.54564000  0.84508000  0.17982000  1.0
  H  H5  1  0.45435000  0.15492000  0.82018000  1.0
  H  H6  1  0.70012000  0.98875000  0.02620000  1.0
  H  H7  1  0.29988000  0.01125000  0.97380000  1.0
  H  H8  1  0.56911000  0.80384000  0.79898000  1.0
  H  H9  1  0.43089000  0.19616000  0.20102000  1.0
  H  H10  1  0.85103000  0.22163000  0.25972000  1.0
  H  H11  1  0.14897000  0.77837000  0.74028000  1.0
  H  H12  1  0.89017000  0.01775000  0.25992000  1.0
  H  H13  1  0.10982000  0.98225000  0.74008000  1.0
  H  H14  1  0.07740000  0.23027000  0.24409000  1.0
  H  H15  1  0.92260000  0.76972000  0.75591000  1.0
  H  H16  1  0.12666000  0.21719000  0.03246000  1.0
  H  H17  1  0.87334000  0.78280000  0.96754000  1.0
  H  H18  1  0.88886000  0.07150000  0.91045000  1.0
  H  H19  1  0.11114000  0.92849000  0.08955000  1.0
  H  H20  1  0.93327000  0.28757000  0.00694000  1.0
  H  H21  1  0.06673000  0.71243000  0.99306000  1.0
  C  C22  1  0.24513000  0.48758000  0.91046000  1.0
  C  C23  1  0.75487000  0.51241000  0.08955000  1.0
  C  C24  1  0.32540000  0.58756000  0.03924000  1.0
  C  C25  1  0.67459000  0.41244000  0.96075000  1.0
  C  C26  1  0.48929000  0.76638000  0.08039000  1.0
  C  C27  1  0.51071000  0.23362000  0.91961000  1.0
  C  C28  1  0.57637000  0.84627000  0.99421000  1.0
  C  C29  1  0.42363000  0.15373000  0.00580000  1.0
  C  C30  1  0.50192000  0.74481000  0.86748000  1.0
  C  C31  1  0.49809000  0.25519000  0.13253000  1.0
  C  C32  1  0.33620000  0.56414000  0.82328000  1.0
  C  C33  1  0.66381000  0.43586000  0.17672000  1.0
  C  C34  1  0.26756000  0.45687000  0.68838000  1.0
  C  C35  1  0.73244000  0.54313000  0.31162000  1.0
  C  C36  1  0.06651000  0.30540000  0.63236000  1.0
  C  C37  1  0.93349000  0.69461000  0.36764000  1.0
  C  C38  1  0.95528000  0.21559000  0.49773000  1.0
  C  C39  1  0.04472000  0.78440000  0.50226000  1.0
  C  C40  1  0.96298000  0.17227000  0.28759000  1.0
  C  C41  1  0.03702000  0.82773000  0.71241000  1.0
  C  C42  1  0.00114000  0.21692000  0.96052000  1.0
  C  C43  1  0.99886000  0.78308000  0.03947000  1.0
  S  S44  1  0.91020000  0.25234000  0.72251000  1.0
  S  S45  1  0.08980000  0.74767000  0.27749000  1.0
  N  N46  1  0.07797000  0.30841000  0.86822000  1.0
  N  N47  1  0.92203000  0.69158000  0.13178000  1.0
  O  O48  1  0.38855000  0.50633000  0.62808000  1.0
  O  O49  1  0.61146000  0.49367000  0.37192000  1.0
  O  O50  1  0.76897000  0.12248000  0.45098000  1.0
  O  O51  1  0.23103000  0.87753000  0.54902000  1.0
  O  O52  1  0.07148000  0.24301000  0.42343000  1.0
  O  O53  1  0.92852000  0.75699000  0.57657000  1.0
  O  O54  1  0.77749000  0.05166000  0.69587000  1.0
  O  O55  1  0.22251000  0.94834000  0.30412000  1.0
  O  O56  1  0.81199000  0.37167000  0.71948000  1.0
  O  O57  1  0.18802000  0.62834000  0.28053000  1.0
