# generated using pymatgen
data_AlH3C8NO5F3
_symmetry_space_group_name_H-M   'P 1'
_cell_length_a   6.66941000
_cell_length_b   8.77407000
_cell_length_c   11.10670354
_cell_angle_alpha   86.51768441
_cell_angle_beta   74.28392622
_cell_angle_gamma   76.24350000
_symmetry_Int_Tables_number   1
_chemical_formula_structural   AlH3C8NO5F3
_chemical_formula_sum   'Al2 H6 C16 N2 O10 F6'
_cell_volume   607.69192540
_cell_formula_units_Z   2
loop_
 _symmetry_equiv_pos_site_id
 _symmetry_equiv_pos_as_xyz
  1  'x, y, z'
loop_
 _atom_site_type_symbol
 _atom_site_label
 _atom_site_symmetry_multiplicity
 _atom_site_fract_x
 _atom_site_fract_y
 _atom_site_fract_z
 _atom_site_occupancy
  Al  Al0  1  0.01812000  0.47991000  0.49560000  1.0
  Al  Al1  1  0.51680000  0.48102000  0.49769000  1.0
  H  H2  1  0.86492000  0.34708000  0.36853000  1.0
  H  H3  1  0.16628000  0.60127000  0.63114000  1.0
  H  H4  1  0.73729000  0.11321000  0.54792000  1.0
  H  H5  1  0.88886000  0.92452000  0.55615000  1.0
  H  H6  1  0.28486000  0.84665000  0.46966000  1.0
  H  H7  1  0.13729000  0.03464000  0.45393000  1.0
  C  C8  1  0.35666000  0.50234000  0.27104000  1.0
  C  C9  1  0.36170000  0.19742000  0.50244000  1.0
  C  C10  1  0.67653000  0.47855000  0.72338000  1.0
  C  C11  1  0.67121000  0.76422000  0.49610000  1.0
  C  C12  1  0.61454000  0.93665000  0.50694000  1.0
  C  C13  1  0.41328000  0.02454000  0.50048000  1.0
  C  C14  1  0.42592000  0.51403000  0.13015000  1.0
  C  C15  1  0.53072000  0.63159000  0.06640000  1.0
  C  C16  1  0.40468000  0.39764000  0.06011000  1.0
  C  C17  1  0.53762000  0.76368000  0.13107000  1.0
  C  C18  1  0.64921000  0.87375000  0.07410000  1.0
  C  C19  1  0.60097000  0.49656000  0.86417000  1.0
  C  C20  1  0.48878000  0.39045000  0.92903000  1.0
  C  C21  1  0.62666000  0.62045000  0.93295000  1.0
  C  C22  1  0.73540000  0.73840000  0.87752000  1.0
  C  C23  1  0.75188000  0.85936000  0.94555000  1.0
  N  N24  1  0.77884000  0.99937000  0.51986000  1.0
  N  N25  1  0.24618000  0.96223000  0.49260000  1.0
  O  O26  1  0.15936000  0.51389000  0.32170000  1.0
  O  O27  1  0.49998000  0.26799000  0.51941000  1.0
  O  O28  1  0.52671000  0.49451000  0.67001000  1.0
  O  O29  1  0.85834000  0.69333000  0.50472000  1.0
  O  O30  1  0.87551000  0.44850000  0.67150000  1.0
  O  O31  1  0.53134000  0.69423000  0.48077000  1.0
  O  O32  1  0.50687000  0.47545000  0.32482000  1.0
  O  O33  1  0.18075000  0.26749000  0.48355000  1.0
  O  O34  1  0.81268000  0.41149000  0.44342000  1.0
  O  O35  1  0.22073000  0.54891000  0.55052000  1.0
  F  F36  1  0.46101000  0.27118000  0.86860000  1.0
  F  F37  1  0.30890000  0.28233000  0.11539000  1.0
  F  F38  1  0.82641000  0.73940000  0.75279000  1.0
  F  F39  1  0.85971000  0.96708000  0.88904000  1.0
  F  F40  1  0.65596000  0.99664000  0.13844000  1.0
  F  F41  1  0.42497000  0.78873000  0.25166000  1.0
