# generated using pymatgen
data_Cu2HCIN4
_symmetry_space_group_name_H-M   'P 1'
_cell_length_a   5.95651000
_cell_length_b   6.87383000
_cell_length_c   12.95450000
_cell_angle_alpha   90.00160000
_cell_angle_beta   90.00060000
_cell_angle_gamma   89.99990000
_symmetry_Int_Tables_number   1
_chemical_formula_structural   Cu2HCIN4
_chemical_formula_sum   'Cu8 H4 C4 I4 N16'
_cell_volume   530.40952881
_cell_formula_units_Z   4
loop_
 _symmetry_equiv_pos_site_id
 _symmetry_equiv_pos_as_xyz
  1  'x, y, z'
loop_
 _atom_site_type_symbol
 _atom_site_label
 _atom_site_symmetry_multiplicity
 _atom_site_fract_x
 _atom_site_fract_y
 _atom_site_fract_z
 _atom_site_occupancy
  Cu  Cu0  1  0.71162000  0.00001000  0.00000000  1.0
  Cu  Cu1  1  0.28838000  0.50001000  0.50000000  1.0
  Cu  Cu2  1  0.28839000  0.00000000  0.00000000  1.0
  Cu  Cu3  1  0.71161000  0.50001000  0.50000000  1.0
  Cu  Cu4  1  0.50001000  0.44207000  0.87776000  1.0
  Cu  Cu5  1  0.50000000  0.55792000  0.12223000  1.0
  Cu  Cu6  1  0.49999000  0.05791000  0.37776000  1.0
  Cu  Cu7  1  0.49999000  0.94210000  0.62225000  1.0
  H  H8  1  0.00001000  0.62191000  0.83079000  1.0
  H  H9  1  0.00000000  0.37807000  0.16920000  1.0
  H  H10  1  0.99999000  0.87805000  0.33079000  1.0
  H  H11  1  0.99999000  0.12195000  0.66923000  1.0
  C  C12  1  0.00002000  0.47988000  0.86714000  1.0
  C  C13  1  0.00000000  0.52011000  0.13285000  1.0
  C  C14  1  0.99999000  0.02010000  0.36713000  1.0
  C  C15  1  0.00000000  0.97992000  0.63287000  1.0
  I  I16  1  0.50000000  0.83348000  0.84424000  1.0
  I  I17  1  0.50001000  0.16652000  0.15577000  1.0
  I  I18  1  0.49999000  0.66650000  0.34423000  1.0
  I  I19  1  0.50000000  0.33352000  0.65577000  1.0
  N  N20  1  0.88927000  0.21388000  0.93712000  1.0
  N  N21  1  0.88925000  0.78611000  0.06288000  1.0
  N  N22  1  0.11073000  0.28612000  0.43713000  1.0
  N  N23  1  0.11073000  0.71390000  0.56288000  1.0
  N  N24  1  0.11074000  0.78611000  0.06288000  1.0
  N  N25  1  0.11075000  0.21388000  0.93712000  1.0
  N  N26  1  0.88925000  0.71390000  0.56288000  1.0
  N  N27  1  0.88924000  0.28611000  0.43713000  1.0
  N  N28  1  0.81507000  0.38034000  0.89363000  1.0
  N  N29  1  0.81507000  0.61965000  0.10636000  1.0
  N  N30  1  0.18493000  0.11965000  0.39363000  1.0
  N  N31  1  0.18494000  0.88036000  0.60638000  1.0
  N  N32  1  0.18495000  0.61963000  0.10637000  1.0
  N  N33  1  0.18496000  0.38034000  0.89363000  1.0
  N  N34  1  0.81504000  0.88036000  0.60638000  1.0
  N  N35  1  0.81507000  0.11966000  0.39363000  1.0
