# generated using pymatgen
data_CoH4C6(N3O2)2
_symmetry_space_group_name_H-M   'P 1'
_cell_length_a   6.00498000
_cell_length_b   6.00512000
_cell_length_c   14.15510000
_cell_angle_alpha   102.16700000
_cell_angle_beta   102.16800000
_cell_angle_gamma   90.03980000
_symmetry_Int_Tables_number   1
_chemical_formula_structural   CoH4C6(N3O2)2
_chemical_formula_sum   'Co2 H8 C12 N12 O8'
_cell_volume   487.22181415
_cell_formula_units_Z   2
loop_
 _symmetry_equiv_pos_site_id
 _symmetry_equiv_pos_as_xyz
  1  'x, y, z'
loop_
 _atom_site_type_symbol
 _atom_site_label
 _atom_site_symmetry_multiplicity
 _atom_site_fract_x
 _atom_site_fract_y
 _atom_site_fract_z
 _atom_site_occupancy
  Co  Co0  1  0.12498000  0.87502000  0.75000000  1.0
  Co  Co1  1  0.87501000  0.12499000  0.25000000  1.0
  H  H2  1  0.23532000  0.71776000  0.97128000  1.0
  H  H3  1  0.25277000  0.23493000  0.47131000  1.0
  H  H4  1  0.23493000  0.25276000  0.97132000  1.0
  H  H5  1  0.71775000  0.23531000  0.47127000  1.0
  H  H6  1  0.76468000  0.28225000  0.02872000  1.0
  H  H7  1  0.28224000  0.76469000  0.52872000  1.0
  H  H8  1  0.76507000  0.74725000  0.02868000  1.0
  H  H9  1  0.74722000  0.76507000  0.52868000  1.0
  C  C10  1  0.13006000  0.38022000  0.76019000  1.0
  C  C11  1  0.38022000  0.13005000  0.26019000  1.0
  C  C12  1  0.86994000  0.61978000  0.23981000  1.0
  C  C13  1  0.61978000  0.86995000  0.73980000  1.0
  C  C14  1  0.20446000  0.57154000  0.90956000  1.0
  C  C15  1  0.33778000  0.20449000  0.40962000  1.0
  C  C16  1  0.20450000  0.33779000  0.90963000  1.0
  C  C17  1  0.57153000  0.20445000  0.40955000  1.0
  C  C18  1  0.79554000  0.42848000  0.09045000  1.0
  C  C19  1  0.42846000  0.79554000  0.59045000  1.0
  C  C20  1  0.79550000  0.66222000  0.09038000  1.0
  C  C21  1  0.66222000  0.79551000  0.59038000  1.0
  N  N22  1  0.07843000  0.32866000  0.65680000  1.0
  N  N23  1  0.32868000  0.07844000  0.15680000  1.0
  N  N24  1  0.92157000  0.67133000  0.34321000  1.0
  N  N25  1  0.67133000  0.92156000  0.84320000  1.0
  N  N26  1  0.15708000  0.59689000  0.81419000  1.0
  N  N27  1  0.21741000  0.15693000  0.31428000  1.0
  N  N28  1  0.15692000  0.21742000  0.81428000  1.0
  N  N29  1  0.59689000  0.15708000  0.31419000  1.0
  N  N30  1  0.84292000  0.40311000  0.18581000  1.0
  N  N31  1  0.40310000  0.84292000  0.68581000  1.0
  N  N32  1  0.84308000  0.78259000  0.18572000  1.0
  N  N33  1  0.78259000  0.84307000  0.68572000  1.0
  O  O34  1  0.05632000  0.12291000  0.61244000  1.0
  O  O35  1  0.49010000  0.05595000  0.11231000  1.0
  O  O36  1  0.05595000  0.49009000  0.61231000  1.0
  O  O37  1  0.12292000  0.05631000  0.11243000  1.0
  O  O38  1  0.94369000  0.87708000  0.38757000  1.0
  O  O39  1  0.87709000  0.94367000  0.88756000  1.0
  O  O40  1  0.94404000  0.50990000  0.38769000  1.0
  O  O41  1  0.50990000  0.94405000  0.88769000  1.0
