# generated using pymatgen
data_KVH15C12(SO4)2
_symmetry_space_group_name_H-M   'P 1'
_cell_length_a   9.31230000
_cell_length_b   10.68160000
_cell_length_c   10.76880000
_cell_angle_alpha   117.26300000
_cell_angle_beta   94.93600000
_cell_angle_gamma   110.37900000
_symmetry_Int_Tables_number   1
_chemical_formula_structural   KVH15C12(SO4)2
_chemical_formula_sum   'K2 V2 H30 C24 S4 O16'
_cell_volume   852.94755902
_cell_formula_units_Z   2
loop_
 _symmetry_equiv_pos_site_id
 _symmetry_equiv_pos_as_xyz
  1  'x, y, z'
loop_
 _atom_site_type_symbol
 _atom_site_label
 _atom_site_symmetry_multiplicity
 _atom_site_fract_x
 _atom_site_fract_y
 _atom_site_fract_z
 _atom_site_occupancy
  K  K0  1  0.24198000  0.49761000  0.45285000  1.0
  K  K1  1  0.75809000  0.50239000  0.54715000  1.0
  V  V2  1  0.98881000  0.05723000  0.16059000  1.0
  V  V3  1  0.01121000  0.94281000  0.83941000  1.0
  H  H4  1  0.56945000  0.11561000  0.34894000  1.0
  H  H5  1  0.43054000  0.88437000  0.65106000  1.0
  H  H6  1  0.61949000  0.89996000  0.15927000  1.0
  H  H7  1  0.38050000  0.10000000  0.84072000  1.0
  H  H8  1  0.42878000  0.72599000  0.90753000  1.0
  H  H9  1  0.57119000  0.27398000  0.09247000  1.0
  H  H10  1  0.24617000  0.01646000  0.60549000  1.0
  H  H11  1  0.75383000  0.98355000  0.39450000  1.0
  H  H12  1  0.20246000  0.06947000  0.47477000  1.0
  H  H13  1  0.79755000  0.93052000  0.52521000  1.0
  H  H14  1  0.38882000  0.06023000  0.51000000  1.0
  H  H15  1  0.61118000  0.93975000  0.48999000  1.0
  H  H16  1  0.98515000  0.79829000  0.49807000  1.0
  H  H17  1  0.01486000  0.20170000  0.50194000  1.0
  H  H18  1  0.91014000  0.62865000  0.31624000  1.0
  H  H19  1  0.08986000  0.37135000  0.68377000  1.0
  H  H20  1  0.91853000  0.81088000  0.34222000  1.0
  H  H21  1  0.08148000  0.18913000  0.65780000  1.0
  H  H22  1  0.54670000  0.66460000  0.16492000  1.0
  H  H23  1  0.45329000  0.33540000  0.83508000  1.0
  H  H24  1  0.43304000  0.67140000  0.29496000  1.0
  H  H25  1  0.56696000  0.32861000  0.70503000  1.0
  H  H26  1  0.57963000  0.59564000  0.28424000  1.0
  H  H27  1  0.42036000  0.40436000  0.71575000  1.0
  H  H28  1  0.17174000  0.54066000  0.11419000  1.0
  H  H29  1  0.82826000  0.45936000  0.88583000  1.0
  H  H30  1  0.25643000  0.52614000  0.96627000  1.0
  H  H31  1  0.74355000  0.47387000  0.03374000  1.0
  H  H32  1  0.09654000  0.35498000  0.94333000  1.0
  H  H33  1  0.90343000  0.64504000  0.05669000  1.0
  C  C34  1  0.24308000  0.95574000  0.06327000  1.0
  C  C35  1  0.75692000  0.04425000  0.93673000  1.0
  C  C36  1  0.35040000  0.05661000  0.20620000  1.0
  C  C37  1  0.64959000  0.94337000  0.79380000  1.0
  C  C38  1  0.48556000  0.03489000  0.23892000  1.0
  C  C39  1  0.51443000  0.96510000  0.76107000  1.0
  C  C40  1  0.51292000  0.91469000  0.13377000  1.0
  C  C41  1  0.48707000  0.08529000  0.86622000  1.0
  C  C42  1  0.40699000  0.81727000  0.99305000  1.0
  C  C43  1  0.59301000  0.18272000  0.00694000  1.0
  C  C44  1  0.27188000  0.83634000  0.95445000  1.0
  C  C45  1  0.72812000  0.16366000  0.04555000  1.0
  C  C46  1  0.32928000  0.18862000  0.32452000  1.0
  C  C47  1  0.67073000  0.81139000  0.67547000  1.0
  C  C48  1  0.16879000  0.73090000  0.79864000  1.0
  C  C49  1  0.83120000  0.26911000  0.20137000  1.0
  C  C50  1  0.26173000  0.00964000  0.50310000  1.0
  C  C51  1  0.73828000  0.99036000  0.49689000  1.0
  C  C52  1  0.97565000  0.75682000  0.38246000  1.0
  C  C53  1  0.02436000  0.24318000  0.61755000  1.0
  C  C54  1  0.49062000  0.60738000  0.22223000  1.0
  C  C55  1  0.50937000  0.39263000  0.77776000  1.0
  C  C56  1  0.20208000  0.46503000  0.02108000  1.0
  C  C57  1  0.79790000  0.53499000  0.97893000  1.0
  S  S58  1  0.17233000  0.80731000  0.35805000  1.0
  S  S59  1  0.82767000  0.19269000  0.64196000  1.0
  S  S60  1  0.34135000  0.41148000  0.08801000  1.0
  S  S61  1  0.65864000  0.58852000  0.91198000  1.0
  O  O62  1  0.11260000  0.97547000  0.02925000  1.0
  O  O63  1  0.88740000  0.02454000  0.97075000  1.0
  O  O64  1  0.18384000  0.17903000  0.32231000  1.0
  O  O65  1  0.81616000  0.82098000  0.67769000  1.0
  O  O66  1  0.44651000  0.30285000  0.42805000  1.0
  O  O67  1  0.55350000  0.69714000  0.57194000  1.0
  O  O68  1  0.06693000  0.76769000  0.74712000  1.0
  O  O69  1  0.93307000  0.23232000  0.25288000  1.0
  O  O70  1  0.18233000  0.60945000  0.71776000  1.0
  O  O71  1  0.81767000  0.39055000  0.28223000  1.0
  O  O72  1  0.87858000  0.92222000  0.18711000  1.0
  O  O73  1  0.12144000  0.07782000  0.81289000  1.0
  O  O74  1  0.24953000  0.72800000  0.40776000  1.0
  O  O75  1  0.75047000  0.27200000  0.59225000  1.0
  O  O76  1  0.26282000  0.34145000  0.17245000  1.0
  O  O77  1  0.73719000  0.65854000  0.82754000  1.0
