# generated using pymatgen
data_ZnH14C19N2O7
_symmetry_space_group_name_H-M   'P 1'
_cell_length_a   9.54226000
_cell_length_b   13.84020000
_cell_length_c   16.84152329
_cell_angle_alpha   87.84355713
_cell_angle_beta   73.57040655
_cell_angle_gamma   89.98680000
_symmetry_Int_Tables_number   1
_chemical_formula_structural   ZnH14C19N2O7
_chemical_formula_sum   'Zn4 H56 C76 N8 O28'
_cell_volume   2131.75049375
_cell_formula_units_Z   4
loop_
 _symmetry_equiv_pos_site_id
 _symmetry_equiv_pos_as_xyz
  1  'x, y, z'
loop_
 _atom_site_type_symbol
 _atom_site_label
 _atom_site_symmetry_multiplicity
 _atom_site_fract_x
 _atom_site_fract_y
 _atom_site_fract_z
 _atom_site_occupancy
  Zn  Zn0  1  0.55695000  0.37251000  0.48822000  1.0
  Zn  Zn1  1  0.04543000  0.12742000  0.51157000  1.0
  Zn  Zn2  1  0.44305000  0.62749000  0.51178000  1.0
  Zn  Zn3  1  0.95457000  0.87258000  0.48843000  1.0
  H  H4  1  0.30162000  0.34374000  0.63779000  1.0
  H  H5  1  0.93907000  0.15625000  0.36215000  1.0
  H  H6  1  0.69838000  0.65626000  0.36221000  1.0
  H  H7  1  0.06093000  0.84375000  0.63784000  1.0
  H  H8  1  0.26100000  0.27402000  0.78114000  1.0
  H  H9  1  0.04124000  0.22612000  0.21881000  1.0
  H  H10  1  0.73900000  0.72598000  0.21886000  1.0
  H  H11  1  0.95876000  0.77389000  0.78119000  1.0
  H  H12  1  0.24505000  0.15281000  0.86684000  1.0
  H  H13  1  0.11123000  0.34757000  0.13285000  1.0
  H  H14  1  0.75495000  0.84719000  0.13316000  1.0
  H  H15  1  0.88877000  0.65244000  0.86715000  1.0
  H  H16  1  0.22094000  0.08222000  0.00815000  1.0
  H  H17  1  0.22877000  0.41828000  0.99162000  1.0
  H  H18  1  0.77905000  0.91778000  0.99186000  1.0
  H  H19  1  0.77124000  0.58172000  0.00838000  1.0
  H  H20  1  0.65127000  0.14483000  0.99221000  1.0
  H  H21  1  0.64278000  0.35501000  0.00798000  1.0
  H  H22  1  0.34873000  0.85517000  0.00779000  1.0
  H  H23  1  0.35723000  0.64499000  0.99202000  1.0
  H  H24  1  0.69497000  0.22286000  0.85090000  1.0
  H  H25  1  0.54485000  0.27700000  0.14920000  1.0
  H  H26  1  0.30503000  0.77714000  0.14910000  1.0
  H  H27  1  0.45516000  0.72300000  0.85080000  1.0
  H  H28  1  0.72750000  0.22366000  0.71921000  1.0
  H  H29  1  0.44621000  0.27631000  0.28049000  1.0
  H  H30  1  0.27249000  0.77634000  0.28080000  1.0
  H  H31  1  0.55379000  0.72369000  0.71951000  1.0
  H  H32  1  0.74864000  0.30015000  0.58186000  1.0
  H  H33  1  0.33049000  0.19980000  0.41785000  1.0
  H  H34  1  0.25136000  0.69985000  0.41814000  1.0
  H  H35  1  0.66950000  0.80019000  0.58215000  1.0
  H  H36  1  0.40533000  0.50757000  0.30417000  1.0
  H  H37  1  0.71013000  0.99224000  0.69563000  1.0
  H  H38  1  0.59467000  0.49243000  0.69583000  1.0
  H  H39  1  0.28987000  0.00776000  0.30437000  1.0
  H  H40  1  0.00802000  0.50239000  0.23096000  1.0
  H  H41  1  0.23976000  0.99754000  0.76877000  1.0
  H  H42  1  0.99198000  0.49760000  0.76904000  1.0
  H  H43  1  0.76024000  0.00246000  0.23123000  1.0
  H  H44  1  0.00812000  0.39476000  0.47387000  1.0
  H  H45  1  0.48243000  0.10517000  0.52590000  1.0
  H  H46  1  0.99188000  0.60524000  0.52613000  1.0
  H  H47  1  0.51757000  0.89482000  0.47410000  1.0
  H  H48  1  0.48276000  0.57754000  0.09601000  1.0
  H  H49  1  0.57881000  0.92224000  0.90400000  1.0
  H  H50  1  0.51725000  0.42246000  0.90399000  1.0
  H  H51  1  0.42119000  0.07777000  0.09600000  1.0
  H  H52  1  0.64605000  0.20341000  0.43942000  1.0
  H  H53  1  0.08562000  0.29658000  0.56044000  1.0
  H  H54  1  0.35396000  0.79659000  0.56057000  1.0
  H  H55  1  0.91438000  0.70342000  0.43956000  1.0
  H  H56  1  0.66571000  0.28559000  0.36728000  1.0
  H  H57  1  0.03344000  0.21433000  0.63253000  1.0
  H  H58  1  0.33430000  0.71441000  0.63271000  1.0
  H  H59  1  0.96656000  0.78567000  0.36747000  1.0
  C  C60  1  0.39181000  0.31713000  0.65998000  1.0
  C  C61  1  0.05141000  0.18285000  0.33989000  1.0
  C  C62  1  0.60818000  0.68287000  0.34002000  1.0
  C  C63  1  0.94859000  0.81716000  0.66011000  1.0
  C  C64  1  0.37120000  0.27725000  0.73922000  1.0
  C  C65  1  0.10971000  0.22281000  0.26067000  1.0
  C  C66  1  0.62880000  0.72274000  0.26078000  1.0
  C  C67  1  0.89028000  0.77720000  0.73933000  1.0
  C  C68  1  0.49116000  0.24134000  0.76337000  1.0
  C  C69  1  0.25378000  0.25870000  0.23646000  1.0
  C  C70  1  0.50883000  0.75866000  0.23663000  1.0
  C  C71  1  0.74622000  0.74131000  0.76354000  1.0
  C  C72  1  0.47258000  0.19557000  0.84630000  1.0
  C  C73  1  0.31803000  0.30454000  0.15358000  1.0
  C  C74  1  0.52741000  0.80442000  0.15370000  1.0
  C  C75  1  0.68197000  0.69546000  0.84643000  1.0
  C  C76  1  0.33786000  0.15500000  0.89236000  1.0
  C  C77  1  0.22954000  0.34527000  0.10742000  1.0
  C  C78  1  0.66213000  0.84500000  0.10764000  1.0
  C  C79  1  0.77046000  0.65473000  0.89258000  1.0
  C  C80  1  0.32413000  0.11452000  0.97098000  1.0
  C  C81  1  0.29463000  0.38580000  0.02884000  1.0
  C  C82  1  0.67587000  0.88548000  0.02902000  1.0
  C  C83  1  0.70538000  0.61420000  0.97116000  1.0
  C  C84  1  0.56538000  0.14870000  0.96099000  1.0
  C  C85  1  0.52567000  0.35128000  0.03907000  1.0
  C  C86  1  0.43462000  0.85130000  0.03901000  1.0
  C  C87  1  0.47434000  0.64873000  0.96093000  1.0
  C  C88  1  0.58853000  0.19088000  0.88213000  1.0
  C  C89  1  0.46978000  0.30912000  0.11789000  1.0
  C  C90  1  0.41146000  0.80912000  0.11787000  1.0
  C  C91  1  0.53022000  0.69088000  0.88211000  1.0
  C  C92  1  0.62932000  0.25052000  0.70553000  1.0
  C  C93  1  0.33437000  0.24944000  0.29422000  1.0
  C  C94  1  0.37068000  0.74948000  0.29447000  1.0
  C  C95  1  0.66563000  0.75056000  0.70578000  1.0
  C  C96  1  0.64245000  0.29243000  0.62770000  1.0
  C  C97  1  0.26994000  0.20753000  0.37206000  1.0
  C  C98  1  0.35755000  0.70756000  0.37230000  1.0
  C  C99  1  0.73006000  0.79247000  0.62794000  1.0
  C  C100  1  0.29794000  0.41813000  0.45577000  1.0
  C  C101  1  0.75403000  0.08179000  0.54399000  1.0
  C  C102  1  0.70206000  0.58187000  0.54423000  1.0
  C  C103  1  0.24597000  0.91820000  0.45601000  1.0
  C  C104  1  0.28900000  0.55896000  0.17724000  1.0
  C  C105  1  0.46676000  0.94086000  0.82252000  1.0
  C  C106  1  0.71101000  0.44104000  0.82275000  1.0
  C  C107  1  0.53324000  0.05914000  0.17748000  1.0
  C  C108  1  0.83838000  0.40752000  0.37320000  1.0
  C  C109  1  0.21218000  0.09243000  0.62651000  1.0
  C  C110  1  0.16162000  0.59248000  0.62680000  1.0
  C  C111  1  0.78782000  0.90757000  0.37349000  1.0
  C  C112  1  0.21529000  0.44992000  0.39628000  1.0
  C  C113  1  0.61207000  0.04993000  0.60349000  1.0
  C  C114  1  0.78471000  0.55009000  0.60372000  1.0
  C  C115  1  0.38793000  0.95006000  0.39651000  1.0
  C  C116  1  0.28853000  0.49296000  0.31911000  1.0
  C  C117  1  0.60828000  0.00687000  0.68066000  1.0
  C  C118  1  0.71147000  0.50704000  0.68089000  1.0
  C  C119  1  0.39172000  0.99313000  0.31934000  1.0
  C  C120  1  0.21291000  0.51438000  0.26058000  1.0
  C  C121  1  0.47418000  0.98544000  0.73915000  1.0
  C  C122  1  0.78709000  0.48562000  0.73942000  1.0
  C  C123  1  0.52583000  0.01456000  0.26085000  1.0
  C  C124  1  0.06486000  0.48902000  0.27800000  1.0
  C  C125  1  0.34355000  0.01089000  0.72173000  1.0
  C  C126  1  0.93514000  0.51098000  0.72200000  1.0
  C  C127  1  0.65645000  0.98911000  0.27827000  1.0
  C  C128  1  0.99216000  0.44484000  0.35445000  1.0
  C  C129  1  0.34720000  0.05507000  0.64527000  1.0
  C  C130  1  0.00785000  0.55516000  0.64554000  1.0
  C  C131  1  0.65280000  0.94493000  0.35473000  1.0
  C  C132  1  0.06653000  0.42803000  0.41413000  1.0
  C  C133  1  0.48118000  0.07185000  0.58562000  1.0
  C  C134  1  0.93347000  0.57197000  0.58587000  1.0
  C  C135  1  0.51882000  0.92815000  0.41438000  1.0
  N  N136  1  0.52522000  0.32364000  0.60477000  1.0
  N  N137  1  0.12983000  0.17632000  0.39504000  1.0
  N  N138  1  0.47478000  0.67636000  0.39523000  1.0
  N  N139  1  0.87017000  0.82367000  0.60496000  1.0
  N  N140  1  0.43522000  0.11209000  0.00522000  1.0
  N  N141  1  0.43994000  0.38807000  0.99473000  1.0
  N  N142  1  0.56478000  0.88791000  0.99478000  1.0
  N  N143  1  0.56007000  0.61193000  0.00527000  1.0
  O  O144  1  0.43200000  0.44928000  0.43785000  1.0
  O  O145  1  0.87025000  0.05060000  0.56185000  1.0
  O  O146  1  0.56800000  0.55072000  0.56215000  1.0
  O  O147  1  0.12975000  0.94940000  0.43815000  1.0
  O  O148  1  0.24229000  0.36027000  0.51590000  1.0
  O  O149  1  0.75830000  0.13978000  0.48396000  1.0
  O  O150  1  0.75771000  0.63973000  0.48410000  1.0
  O  O151  1  0.24170000  0.86022000  0.51604000  1.0
  O  O152  1  0.22168000  0.59666000  0.13137000  1.0
  O  O153  1  0.35348000  0.90328000  0.86830000  1.0
  O  O154  1  0.77833000  0.40334000  0.86862000  1.0
  O  O155  1  0.64652000  0.09672000  0.13170000  1.0
  O  O156  1  0.43382000  0.55233000  0.15779000  1.0
  O  O157  1  0.59199000  0.94739000  0.84214000  1.0
  O  O158  1  0.56618000  0.44767000  0.84221000  1.0
  O  O159  1  0.40801000  0.05262000  0.15786000  1.0
  O  O160  1  0.79534000  0.37011000  0.31705000  1.0
  O  O161  1  0.11304000  0.12982000  0.68266000  1.0
  O  O162  1  0.20465000  0.62989000  0.68295000  1.0
  O  O163  1  0.88696000  0.87018000  0.31734000  1.0
  O  O164  1  0.76348000  0.41356000  0.44977000  1.0
  O  O165  1  0.21375000  0.08646000  0.54993000  1.0
  O  O166  1  0.23652000  0.58644000  0.55023000  1.0
  O  O167  1  0.78625000  0.91354000  0.45007000  1.0
  O  O168  1  0.59037000  0.25072000  0.41379000  1.0
  O  O169  1  0.00446000  0.24921000  0.58604000  1.0
  O  O170  1  0.40963000  0.74928000  0.58621000  1.0
  O  O171  1  0.99554000  0.75079000  0.41396000  1.0
