# generated using pymatgen
data_CuH14C20SN4Cl
_symmetry_space_group_name_H-M   'P 1'
_cell_length_a   9.44181000
_cell_length_b   10.23240000
_cell_length_c   11.87290000
_cell_angle_alpha   86.28050000
_cell_angle_beta   67.54180000
_cell_angle_gamma   69.28990000
_symmetry_Int_Tables_number   1
_chemical_formula_structural   CuH14C20SN4Cl
_chemical_formula_sum   'Cu2 H28 C40 S2 N8 Cl2'
_cell_volume   988.29639707
_cell_formula_units_Z   2
loop_
 _symmetry_equiv_pos_site_id
 _symmetry_equiv_pos_as_xyz
  1  'x, y, z'
loop_
 _atom_site_type_symbol
 _atom_site_label
 _atom_site_symmetry_multiplicity
 _atom_site_fract_x
 _atom_site_fract_y
 _atom_site_fract_z
 _atom_site_occupancy
  Cu  Cu0  1  0.26197000  0.02873000  0.23126000  1.0
  Cu  Cu1  1  0.73803000  0.97127000  0.76874000  1.0
  H  H2  1  0.70919000  0.86287000  0.42184000  1.0
  H  H3  1  0.29080000  0.13713000  0.57816000  1.0
  H  H4  1  0.79783000  0.70970000  0.48129000  1.0
  H  H5  1  0.20217000  0.29029000  0.51871000  1.0
  H  H6  1  0.38431000  0.83375000  0.45832000  1.0
  H  H7  1  0.61568000  0.16625000  0.54169000  1.0
  H  H8  1  0.63376000  0.76124000  0.28285000  1.0
  H  H9  1  0.36625000  0.23876000  0.71714000  1.0
  H  H10  1  0.12073000  0.20360000  0.05273000  1.0
  H  H11  1  0.87927000  0.79639000  0.94727000  1.0
  H  H12  1  0.93837000  0.62658000  0.59542000  1.0
  H  H13  1  0.06163000  0.37341000  0.40458000  1.0
  H  H14  1  0.37142000  0.65884000  0.61686000  1.0
  H  H15  1  0.62857000  0.34117000  0.38315000  1.0
  H  H16  1  0.71426000  0.62711000  0.09383000  1.0
  H  H17  1  0.28574000  0.37289000  0.90616000  1.0
  H  H18  1  0.67517000  0.12558000  0.11939000  1.0
  H  H19  1  0.32483000  0.87442000  0.88061000  1.0
  H  H20  1  0.73410000  0.96673000  0.27213000  1.0
  H  H21  1  0.26589000  0.03327000  0.72787000  1.0
  H  H22  1  0.87005000  0.24923000  0.00454000  1.0
  H  H23  1  0.12995000  0.75077000  0.99546000  1.0
  H  H24  1  0.13521000  0.60037000  0.25564000  1.0
  H  H25  1  0.86479000  0.39963000  0.74436000  1.0
  H  H26  1  0.21902000  0.46796000  0.06393000  1.0
  H  H27  1  0.78098000  0.53204000  0.93607000  1.0
  H  H28  1  0.15079000  0.56038000  0.68467000  1.0
  H  H29  1  0.84921000  0.43961000  0.31533000  1.0
  C  C30  1  0.44888000  0.17765000  0.03011000  1.0
  C  C31  1  0.55113000  0.82233000  0.96989000  1.0
  C  C32  1  0.01481000  0.91192000  0.33234000  1.0
  C  C33  1  0.98519000  0.08808000  0.66766000  1.0
  C  C34  1  0.17155000  0.82436000  0.43577000  1.0
  C  C35  1  0.82845000  0.17565000  0.56423000  1.0
  C  C36  1  0.87797000  0.69039000  0.28430000  1.0
  C  C37  1  0.12204000  0.30960000  0.71569000  1.0
  C  C38  1  0.82408000  0.77344000  0.40323000  1.0
  C  C39  1  0.17592000  0.22656000  0.59677000  1.0
  C  C40  1  0.96112000  0.99843000  0.24382000  1.0
  C  C41  1  0.03887000  0.00157000  0.75619000  1.0
  C  C42  1  0.97474000  0.53704000  0.05994000  1.0
  C  C43  1  0.02526000  0.46296000  0.94005000  1.0
  C  C44  1  0.29085000  0.78629000  0.48665000  1.0
  C  C45  1  0.70914000  0.21372000  0.51335000  1.0
  C  C46  1  0.04704000  0.76496000  0.47400000  1.0
  C  C47  1  0.95296000  0.23504000  0.52600000  1.0
  C  C48  1  0.76221000  0.69489000  0.23642000  1.0
  C  C49  1  0.23780000  0.30511000  0.76358000  1.0
  C  C50  1  0.03176000  0.15343000  0.09886000  1.0
  C  C51  1  0.96824000  0.84657000  0.90114000  1.0
  C  C52  1  0.03632000  0.66939000  0.56378000  1.0
  C  C53  1  0.96367000  0.33062000  0.43622000  1.0
  C  C54  1  0.28118000  0.68994000  0.57485000  1.0
  C  C55  1  0.71881000  0.31007000  0.42516000  1.0
  C  C56  1  0.80967000  0.61888000  0.12696000  1.0
  C  C57  1  0.19034000  0.38112000  0.87304000  1.0
  C  C58  1  0.78562000  0.10909000  0.13613000  1.0
  C  C59  1  0.21438000  0.89091000  0.86388000  1.0
  C  C60  1  0.82003000  0.01789000  0.22235000  1.0
  C  C61  1  0.17997000  0.98211000  0.77765000  1.0
  C  C62  1  0.89269000  0.17786000  0.07300000  1.0
  C  C63  1  0.10731000  0.82214000  0.92700000  1.0
  C  C64  1  0.04208000  0.60631000  0.22045000  1.0
  C  C65  1  0.95793000  0.39369000  0.77955000  1.0
  C  C66  1  0.08967000  0.53083000  0.11058000  1.0
  C  C67  1  0.91033000  0.46917000  0.88941000  1.0
  C  C68  1  0.15566000  0.63316000  0.61348000  1.0
  C  C69  1  0.84434000  0.36684000  0.38652000  1.0
  S  S70  1  0.57575000  0.23448000  0.92333000  1.0
  S  S71  1  0.42426000  0.76552000  0.07667000  1.0
  N  N72  1  0.14674000  0.91573000  0.34815000  1.0
  N  N73  1  0.85325000  0.08428000  0.65186000  1.0
  N  N74  1  0.95027000  0.82228000  0.40694000  1.0
  N  N75  1  0.04973000  0.17772000  0.59307000  1.0
  N  N76  1  0.35074000  0.13930000  0.10687000  1.0
  N  N77  1  0.64927000  0.86069000  0.89312000  1.0
  N  N78  1  0.06459000  0.06637000  0.18182000  1.0
  N  N79  1  0.93541000  0.93363000  0.81818000  1.0
  Cl  Cl80  1  0.42087000  0.03887000  0.33090000  1.0
  Cl  Cl81  1  0.57913000  0.96113000  0.66910000  1.0
