# generated using pymatgen
data_ZnH13C18IN4O
_symmetry_space_group_name_H-M   'P 1'
_cell_length_a   8.67125000
_cell_length_b   12.83580000
_cell_length_c   17.24060000
_cell_angle_alpha   90.00000000
_cell_angle_beta   90.00010000
_cell_angle_gamma   90.00000000
_symmetry_Int_Tables_number   1
_chemical_formula_structural   ZnH13C18IN4O
_chemical_formula_sum   'Zn4 H52 C72 I4 N16 O4'
_cell_volume   1918.92068759
_cell_formula_units_Z   4
loop_
 _symmetry_equiv_pos_site_id
 _symmetry_equiv_pos_as_xyz
  1  'x, y, z'
loop_
 _atom_site_type_symbol
 _atom_site_label
 _atom_site_symmetry_multiplicity
 _atom_site_fract_x
 _atom_site_fract_y
 _atom_site_fract_z
 _atom_site_occupancy
  Zn  Zn0  1  0.87180000  0.12503000  0.23992000  1.0
  Zn  Zn1  1  0.62820000  0.87497000  0.73992000  1.0
  Zn  Zn2  1  0.37180000  0.37497000  0.76008000  1.0
  Zn  Zn3  1  0.12820000  0.62503000  0.26008000  1.0
  H  H4  1  0.39484000  0.60342000  0.15372000  1.0
  H  H5  1  0.10516000  0.39658000  0.65372000  1.0
  H  H6  1  0.89484000  0.89658000  0.84628000  1.0
  H  H7  1  0.60516000  0.10342000  0.34628000  1.0
  H  H8  1  0.23849000  0.42748000  0.33929000  1.0
  H  H9  1  0.26151000  0.57252000  0.83930000  1.0
  H  H10  1  0.73849000  0.07252000  0.66071000  1.0
  H  H11  1  0.76150000  0.92748000  0.16071000  1.0
  H  H12  1  0.05652000  0.91083000  0.20974000  1.0
  H  H13  1  0.44348000  0.08917000  0.70974000  1.0
  H  H14  1  0.55652000  0.58917000  0.79026000  1.0
  H  H15  1  0.94348000  0.41083000  0.29026000  1.0
  H  H16  1  0.19891000  0.83087000  0.09954000  1.0
  H  H17  1  0.30109000  0.16913000  0.59954000  1.0
  H  H18  1  0.69892000  0.66913000  0.90046000  1.0
  H  H19  1  0.80109000  0.33087000  0.40046000  1.0
  H  H20  1  0.22055000  0.93336000  0.97428000  1.0
  H  H21  1  0.27946000  0.06664000  0.47428000  1.0
  H  H22  1  0.72055000  0.56664000  0.02572000  1.0
  H  H23  1  0.77946000  0.43336000  0.52572000  1.0
  H  H24  1  0.09268000  0.10766000  0.96590000  1.0
  H  H25  1  0.40732000  0.89234000  0.46590000  1.0
  H  H26  1  0.59268000  0.39234000  0.03410000  1.0
  H  H27  1  0.90732000  0.60766000  0.53410000  1.0
  H  H28  1  0.78493000  0.13749000  0.94162000  1.0
  H  H29  1  0.71507000  0.86251000  0.44162000  1.0
  H  H30  1  0.28493000  0.36252000  0.05838000  1.0
  H  H31  1  0.21507000  0.63749000  0.55838000  1.0
  H  H32  1  0.77050000  0.24288000  0.82043000  1.0
  H  H33  1  0.72950000  0.75712000  0.32042000  1.0
  H  H34  1  0.27050000  0.25712000  0.17958000  1.0
  H  H35  1  0.22950000  0.74288000  0.67958000  1.0
  H  H36  1  0.88897000  0.41807000  0.81570000  1.0
  H  H37  1  0.61103000  0.58193000  0.31570000  1.0
  H  H38  1  0.38897000  0.08193000  0.18430000  1.0
  H  H39  1  0.11103000  0.91807000  0.68430000  1.0
  H  H40  1  0.00993000  0.49336000  0.93474000  1.0
  H  H41  1  0.49008000  0.50664000  0.43474000  1.0
  H  H42  1  0.50992000  0.00664000  0.06526000  1.0
  H  H43  1  0.99008000  0.99336000  0.56526000  1.0
  H  H44  1  0.00900000  0.39332000  0.05764000  1.0
  H  H45  1  0.49100000  0.60668000  0.55764000  1.0
  H  H46  1  0.50900000  0.10669000  0.94236000  1.0
  H  H47  1  0.99100000  0.89332000  0.44236000  1.0
  H  H48  1  0.46271000  0.30569000  0.32953000  1.0
  H  H49  1  0.03729000  0.69431000  0.82953000  1.0
  H  H50  1  0.96271000  0.19431000  0.67047000  1.0
  H  H51  1  0.53729000  0.80569000  0.17047000  1.0
  H  H52  1  0.62791000  0.48868000  0.13765000  1.0
  H  H53  1  0.87209000  0.51132000  0.63765000  1.0
  H  H54  1  0.12791000  0.01132000  0.86235000  1.0
  H  H55  1  0.37209000  0.98868000  0.36235000  1.0
  C  C56  1  0.41369000  0.53557000  0.19045000  1.0
  C  C57  1  0.08631000  0.46443000  0.69045000  1.0
  C  C58  1  0.91369000  0.96443000  0.80955000  1.0
  C  C59  1  0.58631000  0.03557000  0.30955000  1.0
  C  C60  1  0.32647000  0.43823000  0.29497000  1.0
  C  C61  1  0.17353000  0.56177000  0.79497000  1.0
  C  C62  1  0.82647000  0.06177000  0.70503000  1.0
  C  C63  1  0.67353000  0.93822000  0.20503000  1.0
  C  C64  1  0.68518000  0.30813000  0.22105000  1.0
  C  C65  1  0.81482000  0.69187000  0.72105000  1.0
  C  C66  1  0.18518000  0.19187000  0.77895000  1.0
  C  C67  1  0.31481000  0.80813000  0.27895000  1.0
  C  C68  1  0.91004000  0.19569000  0.07915000  1.0
  C  C69  1  0.58996000  0.80431000  0.57915000  1.0
  C  C70  1  0.41004000  0.30431000  0.92085000  1.0
  C  C71  1  0.08996000  0.69569000  0.42085000  1.0
  C  C72  1  0.99628000  0.09669000  0.08117000  1.0
  C  C73  1  0.50373000  0.90331000  0.58117000  1.0
  C  C74  1  0.49627000  0.40331000  0.91883000  1.0
  C  C75  1  0.00372000  0.59669000  0.41883000  1.0
  C  C76  1  0.06388000  0.95048000  0.15385000  1.0
  C  C77  1  0.43613000  0.04952000  0.65385000  1.0
  C  C78  1  0.56387000  0.54952000  0.84615000  1.0
  C  C79  1  0.93612000  0.45048000  0.34615000  1.0
  C  C80  1  0.14404000  0.90641000  0.09188000  1.0
  C  C81  1  0.35596000  0.09359000  0.59188000  1.0
  C  C82  1  0.64404000  0.59359000  0.90812000  1.0
  C  C83  1  0.85597000  0.40641000  0.40812000  1.0
  C  C84  1  0.15322000  0.96306000  0.02305000  1.0
  C  C85  1  0.34678000  0.03694000  0.52305000  1.0
  C  C86  1  0.65322000  0.53694000  0.97695000  1.0
  C  C87  1  0.84679000  0.46306000  0.47695000  1.0
  C  C88  1  0.08039000  0.05962000  0.01760000  1.0
  C  C89  1  0.41961000  0.94038000  0.51760000  1.0
  C  C90  1  0.58039000  0.44038000  0.98240000  1.0
  C  C91  1  0.91962000  0.55962000  0.48240000  1.0
  C  C92  1  0.90103000  0.25756000  0.00703000  1.0
  C  C93  1  0.59897000  0.74244000  0.50703000  1.0
  C  C94  1  0.40103000  0.24244000  0.99297000  1.0
  C  C95  1  0.09897000  0.75756000  0.49297000  1.0
  C  C96  1  0.83387000  0.21567000  0.93991000  1.0
  C  C97  1  0.66613000  0.78433000  0.43991000  1.0
  C  C98  1  0.33387000  0.28433000  0.06009000  1.0
  C  C99  1  0.16613000  0.71567000  0.56009000  1.0
  C  C100  1  0.82731000  0.27418000  0.87180000  1.0
  C  C101  1  0.67269000  0.72582000  0.37180000  1.0
  C  C102  1  0.32731000  0.22582000  0.12820000  1.0
  C  C103  1  0.17269000  0.77418000  0.62820000  1.0
  C  C104  1  0.89371000  0.37313000  0.86922000  1.0
  C  C105  1  0.60629000  0.62687000  0.36922000  1.0
  C  C106  1  0.39371000  0.12687000  0.13078000  1.0
  C  C107  1  0.10629000  0.87313000  0.63078000  1.0
  C  C108  1  0.96126000  0.41507000  0.93588000  1.0
  C  C109  1  0.53874000  0.58493000  0.43588000  1.0
  C  C110  1  0.46126000  0.08493000  0.06413000  1.0
  C  C111  1  0.03874000  0.91507000  0.56412000  1.0
  C  C112  1  0.96206000  0.35877000  0.00492000  1.0
  C  C113  1  0.53794000  0.64123000  0.50492000  1.0
  C  C114  1  0.46206000  0.14123000  0.99508000  1.0
  C  C115  1  0.03795000  0.85877000  0.49508000  1.0
  C  C116  1  0.56024000  0.38619000  0.23093000  1.0
  C  C117  1  0.93976000  0.61381000  0.73093000  1.0
  C  C118  1  0.06024000  0.11381000  0.76907000  1.0
  C  C119  1  0.43975000  0.88619000  0.26907000  1.0
  C  C120  1  0.45132000  0.37108000  0.28975000  1.0
  C  C121  1  0.04868000  0.62892000  0.78975000  1.0
  C  C122  1  0.95132000  0.12892000  0.71025000  1.0
  C  C123  1  0.54868000  0.87108000  0.21025000  1.0
  C  C124  1  0.54165000  0.47180000  0.18152000  1.0
  C  C125  1  0.95835000  0.52820000  0.68152000  1.0
  C  C126  1  0.04165000  0.02820000  0.81848000  1.0
  C  C127  1  0.45835000  0.97180000  0.31848000  1.0
  I  I128  1  0.07655000  0.14040000  0.34740000  1.0
  I  I129  1  0.42345000  0.85960000  0.84740000  1.0
  I  I130  1  0.57655000  0.35960000  0.65260000  1.0
  I  I131  1  0.92345000  0.64040000  0.15260000  1.0
  N  N132  1  0.74865000  0.30490000  0.14949000  1.0
  N  N133  1  0.75136000  0.69510000  0.64949000  1.0
  N  N134  1  0.24865000  0.19510000  0.85051000  1.0
  N  N135  1  0.25135000  0.80490000  0.35051000  1.0
  N  N136  1  0.30630000  0.51879000  0.24585000  1.0
  N  N137  1  0.19370000  0.48121000  0.74585000  1.0
  N  N138  1  0.80630000  0.98121000  0.75415000  1.0
  N  N139  1  0.69370000  0.01879000  0.25415000  1.0
  N  N140  1  0.84380000  0.22187000  0.14444000  1.0
  N  N141  1  0.65620000  0.77813000  0.64444000  1.0
  N  N142  1  0.34380000  0.27813000  0.85556000  1.0
  N  N143  1  0.15620000  0.72187000  0.35556000  1.0
  N  N144  1  0.99102000  0.04205000  0.14857000  1.0
  N  N145  1  0.50898000  0.95795000  0.64857000  1.0
  N  N146  1  0.49102000  0.45795000  0.85143000  1.0
  N  N147  1  0.00898000  0.54205000  0.35143000  1.0
  O  O148  1  0.71492000  0.24770000  0.27789000  1.0
  O  O149  1  0.78509000  0.75230000  0.77789000  1.0
  O  O150  1  0.21491000  0.25230000  0.72211000  1.0
  O  O151  1  0.28508000  0.74771000  0.22211000  1.0
