# generated using pymatgen
data_Al2H31C36N2O10F
_symmetry_space_group_name_H-M   'P 1'
_cell_length_a   6.76108000
_cell_length_b   23.39160000
_cell_length_c   26.10240000
_cell_angle_alpha   78.12150000
_cell_angle_beta   88.77210000
_cell_angle_gamma   88.99460000
_symmetry_Int_Tables_number   1
_chemical_formula_structural   Al2H31C36N2O10F
_chemical_formula_sum   'Al4 H62 C72 N4 O20 F2'
_cell_volume   4038.46836941
_cell_formula_units_Z   2
loop_
 _symmetry_equiv_pos_site_id
 _symmetry_equiv_pos_as_xyz
  1  'x, y, z'
loop_
 _atom_site_type_symbol
 _atom_site_label
 _atom_site_symmetry_multiplicity
 _atom_site_fract_x
 _atom_site_fract_y
 _atom_site_fract_z
 _atom_site_occupancy
  Al  Al0  1  0.88288000  0.49942000  0.49931000  1.0
  Al  Al1  1  0.38292000  0.49857000  0.49820000  1.0
  Al  Al2  1  0.30137000  0.99800000  0.99888000  1.0
  Al  Al3  1  0.80196000  0.00183000  0.00062000  1.0
  H  H4  1  0.35574000  0.20267000  0.13725000  1.0
  H  H5  1  0.87663000  0.81516000  0.83641000  1.0
  H  H6  1  0.75258000  0.09283000  0.12094000  1.0
  H  H7  1  0.26136000  0.90070000  0.89175000  1.0
  H  H8  1  0.94250000  0.15726000  0.26629000  1.0
  H  H9  1  0.30496000  0.81826000  0.75189000  1.0
  H  H10  1  0.24635000  0.35328000  0.22289000  1.0
  H  H11  1  0.84262000  0.67114000  0.75245000  1.0
  H  H12  1  0.21673000  0.29573000  0.15366000  1.0
  H  H13  1  0.82870000  0.72883000  0.82121000  1.0
  H  H14  1  0.42700000  0.34766000  0.30726000  1.0
  H  H15  1  0.90278000  0.68550000  0.65765000  1.0
  H  H16  1  0.44218000  0.41025000  0.37392000  1.0
  H  H17  1  0.92049000  0.62024000  0.59300000  1.0
  H  H18  1  0.83153000  0.37533000  0.41498000  1.0
  H  H19  1  0.29770000  0.58880000  0.61420000  1.0
  H  H20  1  0.81639000  0.31050000  0.35052000  1.0
  H  H21  1  0.27806000  0.65263000  0.67978000  1.0
  H  H22  1  0.33381000  0.23956000  0.67552000  1.0
  H  H23  1  0.83090000  0.75979000  0.32150000  1.0
  H  H24  1  0.24062000  0.15857000  0.74063000  1.0
  H  H25  1  0.73359000  0.84077000  0.25709000  1.0
  H  H26  1  0.77018000  0.22478000  0.77969000  1.0
  H  H27  1  0.27168000  0.77463000  0.22145000  1.0
  H  H28  1  0.86183000  0.16654000  0.75197000  1.0
  H  H29  1  0.35588000  0.83285000  0.24853000  1.0
  H  H30  1  0.95521000  0.22930000  0.67292000  1.0
  H  H31  1  0.45135000  0.77005000  0.32688000  1.0
  H  H32  1  0.79865000  0.28139000  0.69404000  1.0
  H  H33  1  0.30109000  0.71800000  0.30688000  1.0
  H  H34  1  0.25154000  0.26829000  0.82526000  1.0
  H  H35  1  0.75969000  0.73113000  0.17221000  1.0
  H  H36  1  0.99362000  0.27261000  0.83653000  1.0
  H  H37  1  0.50267000  0.72688000  0.16290000  1.0
  H  H38  1  0.20216000  0.35042000  0.75740000  1.0
  H  H39  1  0.71475000  0.64898000  0.24042000  1.0
  H  H40  1  0.39692000  0.18774000  0.78183000  1.0
  H  H41  1  0.89505000  0.81158000  0.21472000  1.0
  H  H42  1  0.42504000  0.27761000  0.72170000  1.0
  H  H43  1  0.92884000  0.72172000  0.27468000  1.0
  H  H44  1  0.94426000  0.33975000  0.75715000  1.0
  H  H45  1  0.45576000  0.65976000  0.24262000  1.0
  H  H46  1  0.40393000  0.09533000  0.05592000  1.0
  H  H47  1  0.66653000  0.16144000  0.03516000  1.0
  H  H48  1  0.55832000  0.20876000  0.07293000  1.0
  H  H49  1  0.44887000  0.20320000  0.01267000  1.0
  H  H50  1  0.94040000  0.91378000  0.92057000  1.0
  H  H51  1  0.12597000  0.83558000  0.97131000  1.0
  H  H52  1  0.96757000  0.78556000  0.94960000  1.0
  H  H53  1  0.86907000  0.83233000  0.99014000  1.0
  H  H54  1  0.59474000  0.14136000  0.17815000  1.0
  H  H55  1  0.50344000  0.22834000  0.20466000  1.0
  H  H56  1  0.61089000  0.25042000  0.14042000  1.0
  H  H57  1  0.74925000  0.25311000  0.19668000  1.0
  H  H58  1  0.09965000  0.83506000  0.86519000  1.0
  H  H59  1  0.17152000  0.73457000  0.81849000  1.0
  H  H60  1  0.04896000  0.73829000  0.87893000  1.0
  H  H61  1  0.31033000  0.72859000  0.87635000  1.0
  H  H62  1  0.63559000  0.42401000  0.52439000  1.0
  H  H63  1  0.13222000  0.57452000  0.47454000  1.0
  H  H64  1  0.54699000  0.07097000  0.96730000  1.0
  H  H65  1  0.04773000  0.92685000  0.02863000  1.0
  C  C66  1  0.55008000  0.92182000  0.07602000  1.0
  C  C67  1  0.05699000  0.07770000  0.92299000  1.0
  C  C68  1  0.63951000  0.57479000  0.42068000  1.0
  C  C69  1  0.12719000  0.42359000  0.57701000  1.0
  C  C70  1  0.61788000  0.56310000  0.56015000  1.0
  C  C71  1  0.14355000  0.43443000  0.43773000  1.0
  C  C72  1  0.23289000  0.13741000  0.10064000  1.0
  C  C73  1  0.75195000  0.86786000  0.88742000  1.0
  C  C74  1  0.22330000  0.17850000  0.13325000  1.0
  C  C75  1  0.74094000  0.83093000  0.85184000  1.0
  C  C76  1  0.05869000  0.18637000  0.16414000  1.0
  C  C77  1  0.56354000  0.81503000  0.83237000  1.0
  C  C78  1  0.88134000  0.15642000  0.15868000  1.0
  C  C79  1  0.38654000  0.83691000  0.85163000  1.0
  C  C80  1  0.88710000  0.11598000  0.12622000  1.0
  C  C81  1  0.39787000  0.88100000  0.88046000  1.0
  C  C82  1  0.05810000  0.10460000  0.09805000  1.0
  C  C83  1  0.57582000  0.89634000  0.89966000  1.0
  C  C84  1  0.01163000  0.19989000  0.25597000  1.0
  C  C85  1  0.42425000  0.78611000  0.75306000  1.0
  C  C86  1  0.02694000  0.23340000  0.29362000  1.0
  C  C87  1  0.43342000  0.75211000  0.71545000  1.0
  C  C88  1  0.11039000  0.28923000  0.28371000  1.0
  C  C89  1  0.58201000  0.71005000  0.71309000  1.0
  C  C90  1  0.18166000  0.30989000  0.23235000  1.0
  C  C91  1  0.72579000  0.70399000  0.75208000  1.0
  C  C92  1  0.16525000  0.27751000  0.19345000  1.0
  C  C93  1  0.71820000  0.73677000  0.79083000  1.0
  C  C94  1  0.07852000  0.22211000  0.20448000  1.0
  C  C95  1  0.56745000  0.77866000  0.79232000  1.0
  C  C96  1  0.29602000  0.35379000  0.33081000  1.0
  C  C97  1  0.77049000  0.66348000  0.64887000  1.0
  C  C98  1  0.30547000  0.38866000  0.36795000  1.0
  C  C99  1  0.78094000  0.62752000  0.61252000  1.0
  C  C100  1  0.13758000  0.39653000  0.39829000  1.0
  C  C101  1  0.61000000  0.60075000  0.59978000  1.0
  C  C102  1  0.96140000  0.36842000  0.39143000  1.0
  C  C103  1  0.42903000  0.61025000  0.62419000  1.0
  C  C104  1  0.95360000  0.33250000  0.35525000  1.0
  C  C105  1  0.41882000  0.64607000  0.66055000  1.0
  C  C106  1  0.12044000  0.32505000  0.32401000  1.0
  C  C107  1  0.58937000  0.67331000  0.67345000  1.0
  C  C108  1  0.26651000  0.19746000  0.75697000  1.0
  C  C109  1  0.76418000  0.80188000  0.24053000  1.0
  C  C110  1  0.89583000  0.21052000  0.75770000  1.0
  C  C111  1  0.39471000  0.78887000  0.24253000  1.0
  C  C112  1  0.92905000  0.25310000  0.70468000  1.0
  C  C113  1  0.42932000  0.74626000  0.29530000  1.0
  C  C114  1  0.12769000  0.37782000  0.62338000  1.0
  C  C115  1  0.63748000  0.62112000  0.37471000  1.0
  C  C116  1  0.08388000  0.20771000  0.79115000  1.0
  C  C117  1  0.58433000  0.79172000  0.20766000  1.0
  C  C118  1  0.29948000  0.25203000  0.71309000  1.0
  C  C119  1  0.80013000  0.74731000  0.28417000  1.0
  C  C120  1  0.11146000  0.29155000  0.70775000  1.0
  C  C121  1  0.61571000  0.70781000  0.29084000  1.0
  C  C122  1  0.08867000  0.31729000  0.75786000  1.0
  C  C123  1  0.59810000  0.68216000  0.24083000  1.0
  C  C124  1  0.10694000  0.26773000  0.80689000  1.0
  C  C125  1  0.61406000  0.73171000  0.19169000  1.0
  C  C126  1  0.12340000  0.33841000  0.66183000  1.0
  C  C127  1  0.63055000  0.66081000  0.33653000  1.0
  C  C128  1  0.06967000  0.16183000  0.83767000  1.0
  C  C129  1  0.56796000  0.83765000  0.16124000  1.0
  C  C130  1  0.06020000  0.12349000  0.87688000  1.0
  C  C131  1  0.55564000  0.87596000  0.12209000  1.0
  C  C132  1  0.56678000  0.93751000  0.93608000  1.0
  C  C133  1  0.04572000  0.06286000  0.06295000  1.0
  C  C134  1  0.52496000  0.17829000  0.04759000  1.0
  C  C135  1  0.97601000  0.82952000  0.95806000  1.0
  C  C136  1  0.63945000  0.22759000  0.18128000  1.0
  C  C137  1  0.18278000  0.75094000  0.85495000  1.0
  N  N138  1  0.40915000  0.12923000  0.07495000  1.0
  N  N139  1  0.93785000  0.87385000  0.91029000  1.0
  N  N140  1  0.70624000  0.16711000  0.18547000  1.0
  N  N141  1  0.20262000  0.81430000  0.84551000  1.0
  O  O142  1  0.45287000  0.54471000  0.54767000  1.0
  O  O143  1  0.97777000  0.44523000  0.45825000  1.0
  O  O144  1  0.80800000  0.55425000  0.43672000  1.0
  O  O145  1  0.29438000  0.43770000  0.55501000  1.0
  O  O146  1  0.78777000  0.55293000  0.54133000  1.0
  O  O147  1  0.31202000  0.45243000  0.44825000  1.0
  O  O148  1  0.95863000  0.44516000  0.56207000  1.0
  O  O149  1  0.47123000  0.55916000  0.44125000  1.0
  O  O150  1  0.21057000  0.04578000  0.04528000  1.0
  O  O151  1  0.72965000  0.95736000  0.94901000  1.0
  O  O152  1  0.63515000  0.46340000  0.50345000  1.0
  O  O153  1  0.13167000  0.53448000  0.49401000  1.0
  O  O154  1  0.38076000  0.93974000  0.05845000  1.0
  O  O155  1  0.88848000  0.06265000  0.94385000  1.0
  O  O156  1  0.54779000  0.03683000  0.99576000  1.0
  O  O157  1  0.05087000  0.96323000  0.00278000  1.0
  O  O158  1  0.71735000  0.94036000  0.05652000  1.0
  O  O159  1  0.22447000  0.05623000  0.93920000  1.0
  O  O160  1  0.39561000  0.94957000  0.95311000  1.0
  O  O161  1  0.87552000  0.04712000  0.05063000  1.0
  F  F162  1  0.95907000  0.20994000  0.34305000  1.0
  F  F163  1  0.29012000  0.76143000  0.67820000  1.0
