# generated using pymatgen
data_CdH10C12N2O5
_symmetry_space_group_name_H-M   'P 1'
_cell_length_a   12.53580000
_cell_length_b   15.31820000
_cell_length_c   18.69240000
_cell_angle_alpha   89.99980000
_cell_angle_beta   90.00000000
_cell_angle_gamma   89.99980000
_symmetry_Int_Tables_number   1
_chemical_formula_structural   CdH10C12N2O5
_chemical_formula_sum   'Cd8 H80 C96 N16 O40'
_cell_volume   3589.42477535
_cell_formula_units_Z   8
loop_
 _symmetry_equiv_pos_site_id
 _symmetry_equiv_pos_as_xyz
  1  'x, y, z'
loop_
 _atom_site_type_symbol
 _atom_site_label
 _atom_site_symmetry_multiplicity
 _atom_site_fract_x
 _atom_site_fract_y
 _atom_site_fract_z
 _atom_site_occupancy
  Cd  Cd0  1  0.20097000  0.22397000  0.31326000  1.0
  Cd  Cd1  1  0.70097000  0.27603000  0.68674000  1.0
  Cd  Cd2  1  0.79903000  0.72397000  0.18673000  1.0
  Cd  Cd3  1  0.29903000  0.77603000  0.81326000  1.0
  Cd  Cd4  1  0.79903000  0.77603000  0.68673000  1.0
  Cd  Cd5  1  0.29903000  0.72397000  0.31326000  1.0
  Cd  Cd6  1  0.20097000  0.27603000  0.81326000  1.0
  Cd  Cd7  1  0.70097000  0.22397000  0.18674000  1.0
  H  H8  1  0.41814000  0.39866000  0.48835000  1.0
  H  H9  1  0.91815000  0.10134000  0.51165000  1.0
  H  H10  1  0.58185000  0.89865000  0.01165000  1.0
  H  H11  1  0.08186000  0.60135000  0.98835000  1.0
  H  H12  1  0.58185000  0.60134000  0.51165000  1.0
  H  H13  1  0.08186000  0.89865000  0.48835000  1.0
  H  H14  1  0.41815000  0.10135000  0.98835000  1.0
  H  H15  1  0.91815000  0.39865000  0.01166000  1.0
  H  H16  1  0.55117000  0.40580000  0.58967000  1.0
  H  H17  1  0.05118000  0.09420000  0.41033000  1.0
  H  H18  1  0.44882000  0.90580000  0.91033000  1.0
  H  H19  1  0.94882000  0.59420000  0.08967000  1.0
  H  H20  1  0.44882000  0.59420000  0.41033000  1.0
  H  H21  1  0.94883000  0.90580000  0.58967000  1.0
  H  H22  1  0.55117000  0.09420000  0.08967000  1.0
  H  H23  1  0.05117000  0.40580000  0.91033000  1.0
  H  H24  1  0.63067000  0.14576000  0.56453000  1.0
  H  H25  1  0.13068000  0.35424000  0.43548000  1.0
  H  H26  1  0.36932000  0.64576000  0.93547000  1.0
  H  H27  1  0.86933000  0.85424000  0.06453000  1.0
  H  H28  1  0.36933000  0.85424000  0.43547000  1.0
  H  H29  1  0.86933000  0.64576000  0.56452000  1.0
  H  H30  1  0.63067000  0.35424000  0.06453000  1.0
  H  H31  1  0.13068000  0.14576000  0.93547000  1.0
  H  H32  1  0.49799000  0.12733000  0.46404000  1.0
  H  H33  1  0.99799000  0.37267000  0.53597000  1.0
  H  H34  1  0.50200000  0.62732000  0.03597000  1.0
  H  H35  1  0.00201000  0.87268000  0.96404000  1.0
  H  H36  1  0.50201000  0.87267000  0.53597000  1.0
  H  H37  1  0.00201000  0.62733000  0.46403000  1.0
  H  H38  1  0.49800000  0.37268000  0.96403000  1.0
  H  H39  1  0.99799000  0.12732000  0.03597000  1.0
  H  H40  1  0.22143000  0.42858000  0.33908000  1.0
  H  H41  1  0.72142000  0.07143000  0.66092000  1.0
  H  H42  1  0.77857000  0.92858000  0.16091000  1.0
  H  H43  1  0.27858000  0.57141000  0.83909000  1.0
  H  H44  1  0.77857000  0.57142000  0.66092000  1.0
  H  H45  1  0.27857000  0.92858000  0.33908000  1.0
  H  H46  1  0.22142000  0.07142000  0.83908000  1.0
  H  H47  1  0.72143000  0.42858000  0.16092000  1.0
  H  H48  1  0.11761000  0.56603000  0.32050000  1.0
  H  H49  1  0.61761000  0.93397000  0.67950000  1.0
  H  H50  1  0.88240000  0.06604000  0.17949000  1.0
  H  H51  1  0.38240000  0.43396000  0.82050000  1.0
  H  H52  1  0.88239000  0.43396000  0.67949000  1.0
  H  H53  1  0.38239000  0.06604000  0.32050000  1.0
  H  H54  1  0.11761000  0.93396000  0.82050000  1.0
  H  H55  1  0.61761000  0.56604000  0.17950000  1.0
  H  H56  1  0.91322000  0.42037000  0.17661000  1.0
  H  H57  1  0.41322000  0.07963000  0.82340000  1.0
  H  H58  1  0.08678000  0.92037000  0.32339000  1.0
  H  H59  1  0.58678000  0.57963000  0.67661000  1.0
  H  H60  1  0.08677000  0.57963000  0.82339000  1.0
  H  H61  1  0.58678000  0.92037000  0.17661000  1.0
  H  H62  1  0.91322000  0.07963000  0.67661000  1.0
  H  H63  1  0.41323000  0.42037000  0.32339000  1.0
  H  H64  1  0.02377000  0.28924000  0.20315000  1.0
  H  H65  1  0.52377000  0.21077000  0.79686000  1.0
  H  H66  1  0.97621000  0.78924000  0.29686000  1.0
  H  H67  1  0.47623000  0.71076000  0.70315000  1.0
  H  H68  1  0.97621000  0.71076000  0.79686000  1.0
  H  H69  1  0.47622000  0.78924000  0.20314000  1.0
  H  H70  1  0.02377000  0.21076000  0.70315000  1.0
  H  H71  1  0.52378000  0.28924000  0.29685000  1.0
  H  H72  1  0.27634000  0.12930000  0.20693000  1.0
  H  H73  1  0.77634000  0.37069000  0.79307000  1.0
  H  H74  1  0.72366000  0.62931000  0.29307000  1.0
  H  H75  1  0.22365000  0.87069000  0.70693000  1.0
  H  H76  1  0.72366000  0.87069000  0.79307000  1.0
  H  H77  1  0.22365000  0.62931000  0.20692000  1.0
  H  H78  1  0.27635000  0.37070000  0.70693000  1.0
  H  H79  1  0.77634000  0.12931000  0.29307000  1.0
  H  H80  1  0.38347000  0.17820000  0.22322000  1.0
  H  H81  1  0.88348000  0.32180000  0.77678000  1.0
  H  H82  1  0.61653000  0.67820000  0.27678000  1.0
  H  H83  1  0.11652000  0.82180000  0.72322000  1.0
  H  H84  1  0.61653000  0.82180000  0.77678000  1.0
  H  H85  1  0.11652000  0.67820000  0.22322000  1.0
  H  H86  1  0.38348000  0.32180000  0.72322000  1.0
  H  H87  1  0.88347000  0.17820000  0.27678000  1.0
  C  C88  1  0.36504000  0.25324000  0.41146000  1.0
  C  C89  1  0.86504000  0.24676000  0.58855000  1.0
  C  C90  1  0.63496000  0.75324000  0.08854000  1.0
  C  C91  1  0.13497000  0.74676000  0.91146000  1.0
  C  C92  1  0.63496000  0.74675000  0.58854000  1.0
  C  C93  1  0.13496000  0.75325000  0.41145000  1.0
  C  C94  1  0.36504000  0.24676000  0.91146000  1.0
  C  C95  1  0.86504000  0.25324000  0.08855000  1.0
  C  C96  1  0.44767000  0.26181000  0.46955000  1.0
  C  C97  1  0.94768000  0.23818000  0.53046000  1.0
  C  C98  1  0.55232000  0.76181000  0.03046000  1.0
  C  C99  1  0.05233000  0.73819000  0.96955000  1.0
  C  C100  1  0.55232000  0.73819000  0.53046000  1.0
  C  C101  1  0.05232000  0.76182000  0.46954000  1.0
  C  C102  1  0.44768000  0.23819000  0.96954000  1.0
  C  C103  1  0.94768000  0.26181000  0.03046000  1.0
  C  C104  1  0.46386000  0.34148000  0.50448000  1.0
  C  C105  1  0.96388000  0.15852000  0.49553000  1.0
  C  C106  1  0.53613000  0.84147000  0.99552000  1.0
  C  C107  1  0.03614000  0.65853000  0.00448000  1.0
  C  C108  1  0.53613000  0.65852000  0.49552000  1.0
  C  C109  1  0.03614000  0.84148000  0.50448000  1.0
  C  C110  1  0.46387000  0.15853000  0.00447000  1.0
  C  C111  1  0.96387000  0.34147000  0.99553000  1.0
  C  C112  1  0.53692000  0.34536000  0.56037000  1.0
  C  C113  1  0.03694000  0.15464000  0.43963000  1.0
  C  C114  1  0.46307000  0.84536000  0.93963000  1.0
  C  C115  1  0.96307000  0.65464000  0.06037000  1.0
  C  C116  1  0.46307000  0.65464000  0.43963000  1.0
  C  C117  1  0.96307000  0.84536000  0.56037000  1.0
  C  C118  1  0.53693000  0.15464000  0.06037000  1.0
  C  C119  1  0.03693000  0.34536000  0.93963000  1.0
  C  C120  1  0.58079000  0.19973000  0.54660000  1.0
  C  C121  1  0.08080000  0.30027000  0.45341000  1.0
  C  C122  1  0.41920000  0.69973000  0.95340000  1.0
  C  C123  1  0.91921000  0.80027000  0.04660000  1.0
  C  C124  1  0.41921000  0.80027000  0.45340000  1.0
  C  C125  1  0.91921000  0.69973000  0.54659000  1.0
  C  C126  1  0.58079000  0.30027000  0.04660000  1.0
  C  C127  1  0.08079000  0.19973000  0.95340000  1.0
  C  C128  1  0.50852000  0.18991000  0.49077000  1.0
  C  C129  1  0.00853000  0.31009000  0.50924000  1.0
  C  C130  1  0.49148000  0.68990000  0.00923000  1.0
  C  C131  1  0.99148000  0.81010000  0.99077000  1.0
  C  C132  1  0.49148000  0.81010000  0.50923000  1.0
  C  C133  1  0.99148000  0.68991000  0.49076000  1.0
  C  C134  1  0.50853000  0.31010000  0.99077000  1.0
  C  C135  1  0.00852000  0.18990000  0.00923000  1.0
  C  C136  1  0.15252000  0.42992000  0.30364000  1.0
  C  C137  1  0.65252000  0.07008000  0.69637000  1.0
  C  C138  1  0.84748000  0.92993000  0.19636000  1.0
  C  C139  1  0.34749000  0.57007000  0.80364000  1.0
  C  C140  1  0.84747000  0.57007000  0.69636000  1.0
  C  C141  1  0.34747000  0.92993000  0.30363000  1.0
  C  C142  1  0.15252000  0.07007000  0.80364000  1.0
  C  C143  1  0.65253000  0.42993000  0.19636000  1.0
  C  C144  1  0.09504000  0.50645000  0.29246000  1.0
  C  C145  1  0.59504000  0.99355000  0.70755000  1.0
  C  C146  1  0.90496000  0.00645000  0.20754000  1.0
  C  C147  1  0.40496000  0.49354000  0.79246000  1.0
  C  C148  1  0.90495000  0.49354000  0.70754000  1.0
  C  C149  1  0.40495000  0.00645000  0.29245000  1.0
  C  C150  1  0.09504000  0.99354000  0.79246000  1.0
  C  C151  1  0.59505000  0.50646000  0.20754000  1.0
  C  C152  1  0.00710000  0.50454000  0.24642000  1.0
  C  C153  1  0.50710000  0.99546000  0.75359000  1.0
  C  C154  1  0.99290000  0.00454000  0.25358000  1.0
  C  C155  1  0.49290000  0.49546000  0.74641000  1.0
  C  C156  1  0.99290000  0.49546000  0.75358000  1.0
  C  C157  1  0.49289000  0.00454000  0.24641000  1.0
  C  C158  1  0.00710000  0.99546000  0.74641000  1.0
  C  C159  1  0.50711000  0.50454000  0.25359000  1.0
  C  C160  1  0.98094000  0.42574000  0.21285000  1.0
  C  C161  1  0.48094000  0.07426000  0.78716000  1.0
  C  C162  1  0.01906000  0.92574000  0.28716000  1.0
  C  C163  1  0.51906000  0.57426000  0.71284000  1.0
  C  C164  1  0.01905000  0.57426000  0.78716000  1.0
  C  C165  1  0.51905000  0.92574000  0.21284000  1.0
  C  C166  1  0.98094000  0.07426000  0.71284000  1.0
  C  C167  1  0.48095000  0.42574000  0.28716000  1.0
  C  C168  1  0.04261000  0.35229000  0.22689000  1.0
  C  C169  1  0.54261000  0.14771000  0.77312000  1.0
  C  C170  1  0.95738000  0.85229000  0.27312000  1.0
  C  C171  1  0.45739000  0.64771000  0.72689000  1.0
  C  C172  1  0.95738000  0.64770000  0.77312000  1.0
  C  C173  1  0.45738000  0.85229000  0.22688000  1.0
  C  C174  1  0.04261000  0.14771000  0.72688000  1.0
  C  C175  1  0.54262000  0.35230000  0.27311000  1.0
  C  C176  1  0.94252000  0.58563000  0.23255000  1.0
  C  C177  1  0.44252000  0.91437000  0.76745000  1.0
  C  C178  1  0.05748000  0.08563000  0.26745000  1.0
  C  C179  1  0.55748000  0.41437000  0.73255000  1.0
  C  C180  1  0.05748000  0.41437000  0.76745000  1.0
  C  C181  1  0.55747000  0.08563000  0.23255000  1.0
  C  C182  1  0.94252000  0.91437000  0.73255000  1.0
  C  C183  1  0.44253000  0.58563000  0.26745000  1.0
  N  N184  1  0.59375000  0.27565000  0.58167000  1.0
  N  N185  1  0.09376000  0.22436000  0.41834000  1.0
  N  N186  1  0.40624000  0.77564000  0.91834000  1.0
  N  N187  1  0.90624000  0.72435000  0.08166000  1.0
  N  N188  1  0.40624000  0.72436000  0.41834000  1.0
  N  N189  1  0.90625000  0.77564000  0.58166000  1.0
  N  N190  1  0.59376000  0.22435000  0.08166000  1.0
  N  N191  1  0.09376000  0.27564000  0.91834000  1.0
  N  N192  1  0.12647000  0.35375000  0.27206000  1.0
  N  N193  1  0.62647000  0.14625000  0.72795000  1.0
  N  N194  1  0.87352000  0.85376000  0.22794000  1.0
  N  N195  1  0.37354000  0.64624000  0.77206000  1.0
  N  N196  1  0.87352000  0.64624000  0.72795000  1.0
  N  N197  1  0.37353000  0.85375000  0.27205000  1.0
  N  N198  1  0.12647000  0.14624000  0.77205000  1.0
  N  N199  1  0.62648000  0.35376000  0.22794000  1.0
  O  O200  1  0.34430000  0.17698000  0.38821000  1.0
  O  O201  1  0.84430000  0.32302000  0.61179000  1.0
  O  O202  1  0.65570000  0.67698000  0.11179000  1.0
  O  O203  1  0.15571000  0.82302000  0.88821000  1.0
  O  O204  1  0.65570000  0.82302000  0.61179000  1.0
  O  O205  1  0.15570000  0.67698000  0.38820000  1.0
  O  O206  1  0.34430000  0.32303000  0.88821000  1.0
  O  O207  1  0.84429000  0.17697000  0.11179000  1.0
  O  O208  1  0.31892000  0.32212000  0.38946000  1.0
  O  O209  1  0.81891000  0.17788000  0.61055000  1.0
  O  O210  1  0.68109000  0.82212000  0.11054000  1.0
  O  O211  1  0.18109000  0.67788000  0.88946000  1.0
  O  O212  1  0.68109000  0.67788000  0.61054000  1.0
  O  O213  1  0.18108000  0.82212000  0.38945000  1.0
  O  O214  1  0.31891000  0.17789000  0.88945000  1.0
  O  O215  1  0.81893000  0.32211000  0.11055000  1.0
  O  O216  1  0.98750000  0.65968000  0.23853000  1.0
  O  O217  1  0.48750000  0.84032000  0.76147000  1.0
  O  O218  1  0.01250000  0.15968000  0.26147000  1.0
  O  O219  1  0.51250000  0.34032000  0.73852000  1.0
  O  O220  1  0.01250000  0.34032000  0.76147000  1.0
  O  O221  1  0.51249000  0.15968000  0.23852000  1.0
  O  O222  1  0.98750000  0.84032000  0.73853000  1.0
  O  O223  1  0.48750000  0.65968000  0.26148000  1.0
  O  O224  1  0.84534000  0.57612000  0.21392000  1.0
  O  O225  1  0.34534000  0.92388000  0.78609000  1.0
  O  O226  1  0.15466000  0.07612000  0.28608000  1.0
  O  O227  1  0.65466000  0.42387000  0.71391000  1.0
  O  O228  1  0.15465000  0.42388000  0.78608000  1.0
  O  O229  1  0.65465000  0.07613000  0.21392000  1.0
  O  O230  1  0.84534000  0.92387000  0.71392000  1.0
  O  O231  1  0.34535000  0.57613000  0.28608000  1.0
  O  O232  1  0.30608000  0.18801000  0.21106000  1.0
  O  O233  1  0.80609000  0.31198000  0.78894000  1.0
  O  O234  1  0.69392000  0.68802000  0.28893000  1.0
  O  O235  1  0.19391000  0.81198000  0.71106000  1.0
  O  O236  1  0.69392000  0.81198000  0.78893000  1.0
  O  O237  1  0.19391000  0.68802000  0.21106000  1.0
  O  O238  1  0.30609000  0.31199000  0.71106000  1.0
  O  O239  1  0.80608000  0.18802000  0.28893000  1.0
