# generated using pymatgen
data_ZnH18C22(N2O)6
_symmetry_space_group_name_H-M   'P 1'
_cell_length_a   8.49244000
_cell_length_b   10.96110000
_cell_length_c   14.29780000
_cell_angle_alpha   82.32740000
_cell_angle_beta   79.42270000
_cell_angle_gamma   88.59330000
_symmetry_Int_Tables_number   1
_chemical_formula_structural   ZnH18C22(N2O)6
_chemical_formula_sum   'Zn2 H36 C44 N24 O12'
_cell_volume   1296.60378688
_cell_formula_units_Z   2
loop_
 _symmetry_equiv_pos_site_id
 _symmetry_equiv_pos_as_xyz
  1  'x, y, z'
loop_
 _atom_site_type_symbol
 _atom_site_label
 _atom_site_symmetry_multiplicity
 _atom_site_fract_x
 _atom_site_fract_y
 _atom_site_fract_z
 _atom_site_occupancy
  Zn  Zn0  1  0.67196000  0.99042000  0.73440000  1.0
  Zn  Zn1  1  0.32804000  0.00957000  0.26560000  1.0
  H  H2  1  0.79628000  0.01761000  0.54112000  1.0
  H  H3  1  0.20372000  0.98238000  0.45888000  1.0
  H  H4  1  0.85828000  0.88299000  0.58116000  1.0
  H  H5  1  0.14173000  0.11701000  0.41884000  1.0
  H  H6  1  0.50166000  0.96118000  0.91786000  1.0
  H  H7  1  0.49835000  0.03882000  0.08215000  1.0
  H  H8  1  0.49943000  0.10703000  0.88316000  1.0
  H  H9  1  0.50057000  0.89296000  0.11684000  1.0
  H  H10  1  0.08611000  0.57956000  0.47270000  1.0
  H  H11  1  0.91390000  0.42045000  0.52729000  1.0
  H  H12  1  0.21619000  0.37299000  0.48999000  1.0
  H  H13  1  0.78381000  0.62702000  0.51001000  1.0
  H  H14  1  0.47732000  0.49775000  0.69197000  1.0
  H  H15  1  0.52267000  0.50225000  0.30804000  1.0
  H  H16  1  0.44946000  0.02772000  0.56292000  1.0
  H  H17  1  0.55053000  0.97228000  0.43708000  1.0
  H  H18  1  0.54199000  0.30015000  0.72503000  1.0
  H  H19  1  0.45802000  0.69985000  0.27497000  1.0
  H  H20  1  0.60742000  0.75292000  0.62818000  1.0
  H  H21  1  0.39258000  0.24707000  0.37182000  1.0
  H  H22  1  0.26952000  0.93027000  0.81928000  1.0
  H  H23  1  0.73048000  0.06972000  0.18072000  1.0
  H  H24  1  0.33375000  0.42517000  0.93938000  1.0
  H  H25  1  0.66625000  0.57482000  0.06063000  1.0
  H  H26  1  0.18191000  0.62513000  0.93584000  1.0
  H  H27  1  0.81809000  0.37487000  0.06416000  1.0
  H  H28  1  0.86626000  0.47875000  0.77460000  1.0
  H  H29  1  0.13374000  0.52126000  0.22539000  1.0
  H  H30  1  0.83886000  0.69420000  0.72115000  1.0
  H  H31  1  0.16115000  0.30579000  0.27885000  1.0
  H  H32  1  0.85004000  0.93496000  0.92544000  1.0
  H  H33  1  0.14996000  0.06504000  0.07456000  1.0
  H  H34  1  0.75518000  0.22705000  0.84776000  1.0
  H  H35  1  0.24482000  0.77294000  0.15224000  1.0
  H  H36  1  0.04722000  0.06538000  0.62612000  1.0
  H  H37  1  0.95277000  0.93462000  0.37387000  1.0
  C  C38  1  0.20424000  0.65312000  0.57251000  1.0
  C  C39  1  0.79577000  0.34688000  0.42748000  1.0
  C  C40  1  0.17308000  0.56039000  0.52004000  1.0
  C  C41  1  0.82693000  0.43961000  0.47995000  1.0
  C  C42  1  0.24759000  0.44615000  0.52787000  1.0
  C  C43  1  0.75242000  0.55385000  0.47212000  1.0
  C  C44  1  0.35781000  0.42315000  0.58983000  1.0
  C  C45  1  0.64219000  0.57685000  0.41017000  1.0
  C  C46  1  0.39407000  0.51447000  0.64210000  1.0
  C  C47  1  0.60593000  0.48553000  0.35790000  1.0
  C  C48  1  0.31753000  0.62836000  0.63251000  1.0
  C  C49  1  0.68247000  0.37164000  0.36748000  1.0
  C  C50  1  0.45823000  0.11657000  0.58680000  1.0
  C  C51  1  0.54177000  0.88343000  0.41321000  1.0
  C  C52  1  0.50894000  0.25317000  0.66957000  1.0
  C  C53  1  0.49106000  0.74683000  0.33043000  1.0
  C  C54  1  0.50090000  0.77473000  0.67769000  1.0
  C  C55  1  0.49911000  0.22527000  0.32231000  1.0
  C  C56  1  0.32445000  0.86463000  0.77206000  1.0
  C  C57  1  0.67555000  0.13537000  0.22794000  1.0
  C  C58  1  0.11562000  0.77399000  0.56140000  1.0
  C  C59  1  0.88439000  0.22602000  0.43859000  1.0
  C  C60  1  0.18413000  0.33917000  0.86256000  1.0
  C  C61  1  0.81586000  0.66083000  0.13744000  1.0
  C  C62  1  0.23031000  0.43844000  0.90396000  1.0
  C  C63  1  0.76968000  0.56155000  0.09605000  1.0
  C  C64  1  0.14710000  0.54900000  0.90242000  1.0
  C  C65  1  0.85290000  0.45099000  0.09759000  1.0
  C  C66  1  0.01502000  0.56386000  0.85622000  1.0
  C  C67  1  0.98499000  0.43614000  0.14378000  1.0
  C  C68  1  0.96721000  0.46827000  0.81238000  1.0
  C  C69  1  0.03279000  0.53173000  0.18762000  1.0
  C  C70  1  0.05151000  0.35723000  0.81656000  1.0
  C  C71  1  0.94848000  0.64277000  0.18344000  1.0
  C  C72  1  0.85229000  0.73271000  0.78528000  1.0
  C  C73  1  0.14772000  0.26729000  0.21472000  1.0
  C  C74  1  0.86704000  0.85501000  0.88751000  1.0
  C  C75  1  0.13297000  0.14500000  0.11249000  1.0
  C  C76  1  0.85335000  0.20561000  0.79225000  1.0
  C  C77  1  0.14664000  0.79439000  0.20775000  1.0
  C  C78  1  0.00547000  0.12514000  0.68036000  1.0
  C  C79  1  0.99453000  0.87487000  0.31965000  1.0
  C  C80  1  0.27191000  0.21726000  0.87625000  1.0
  C  C81  1  0.72806000  0.78272000  0.12375000  1.0
  N  N82  1  0.42688000  0.30463000  0.60143000  1.0
  N  N83  1  0.57312000  0.69537000  0.39858000  1.0
  N  N84  1  0.39426000  0.21738000  0.54779000  1.0
  N  N85  1  0.60574000  0.78262000  0.45222000  1.0
  N  N86  1  0.53100000  0.13415000  0.66188000  1.0
  N  N87  1  0.46900000  0.86585000  0.33812000  1.0
  N  N88  1  0.35696000  0.72140000  0.68522000  1.0
  N  N89  1  0.64305000  0.27860000  0.31477000  1.0
  N  N90  1  0.24266000  0.77851000  0.74463000  1.0
  N  N91  1  0.75734000  0.22149000  0.25537000  1.0
  N  N92  1  0.48428000  0.86500000  0.73256000  1.0
  N  N93  1  0.51572000  0.13500000  0.26744000  1.0
  N  N94  1  0.93343000  0.67783000  0.85265000  1.0
  N  N95  1  0.06657000  0.32217000  0.14735000  1.0
  N  N96  1  0.94531000  0.75606000  0.91773000  1.0
  N  N97  1  0.05469000  0.24394000  0.08227000  1.0
  N  N98  1  0.80756000  0.84471000  0.80591000  1.0
  N  N99  1  0.19245000  0.15529000  0.19409000  1.0
  N  N100  1  0.99741000  0.26171000  0.77172000  1.0
  N  N101  1  0.00258000  0.73829000  0.22828000  1.0
  N  N102  1  0.09595000  0.21122000  0.70062000  1.0
  N  N103  1  0.90404000  0.78878000  0.29938000  1.0
  N  N104  1  0.85476000  0.11876000  0.73517000  1.0
  N  N105  1  0.14524000  0.88123000  0.26483000  1.0
  O  O106  1  0.96544000  0.76350000  0.56516000  1.0
  O  O107  1  0.03456000  0.23651000  0.43483000  1.0
  O  O108  1  0.77767000  0.95022000  0.59641000  1.0
  O  O109  1  0.22234000  0.04978000  0.40359000  1.0
  O  O110  1  0.19618000  0.87208000  0.54798000  1.0
  O  O111  1  0.80382000  0.12792000  0.45202000  1.0
  O  O112  1  0.56903000  0.02691000  0.87957000  1.0
  O  O113  1  0.43097000  0.97310000  0.12043000  1.0
  O  O114  1  0.42046000  0.22905000  0.88284000  1.0
  O  O115  1  0.57953000  0.77095000  0.11716000  1.0
  O  O116  1  0.19771000  0.11858000  0.88285000  1.0
  O  O117  1  0.80228000  0.88142000  0.11716000  1.0
