# generated using pymatgen
data_CuH12C14(SN2)2
_symmetry_space_group_name_H-M   'P 1'
_cell_length_a   7.71045000
_cell_length_b   13.85580000
_cell_length_c   14.06060000
_cell_angle_alpha   104.64800000
_cell_angle_beta   90.00000000
_cell_angle_gamma   89.99990000
_symmetry_Int_Tables_number   1
_chemical_formula_structural   CuH12C14(SN2)2
_chemical_formula_sum   'Cu4 H48 C56 S8 N16'
_cell_volume   1453.33290641
_cell_formula_units_Z   4
loop_
 _symmetry_equiv_pos_site_id
 _symmetry_equiv_pos_as_xyz
  1  'x, y, z'
loop_
 _atom_site_type_symbol
 _atom_site_label
 _atom_site_symmetry_multiplicity
 _atom_site_fract_x
 _atom_site_fract_y
 _atom_site_fract_z
 _atom_site_occupancy
  Cu  Cu0  1  0.08906000  0.59326000  0.24822000  1.0
  Cu  Cu1  1  0.58906000  0.90673000  0.25178000  1.0
  Cu  Cu2  1  0.91094000  0.40673000  0.75177000  1.0
  Cu  Cu3  1  0.41094000  0.09327000  0.74822000  1.0
  H  H4  1  0.03663000  0.44550000  0.37008000  1.0
  H  H5  1  0.53663000  0.05449000  0.12992000  1.0
  H  H6  1  0.96337000  0.55449000  0.62991000  1.0
  H  H7  1  0.46337000  0.94550000  0.87008000  1.0
  H  H8  1  0.22087000  0.32936000  0.43445000  1.0
  H  H9  1  0.72087000  0.17064000  0.06555000  1.0
  H  H10  1  0.77913000  0.67064000  0.56555000  1.0
  H  H11  1  0.27913000  0.82936000  0.93445000  1.0
  H  H12  1  0.66699000  0.46725000  0.33624000  1.0
  H  H13  1  0.16699000  0.03276000  0.16376000  1.0
  H  H14  1  0.33302000  0.53276000  0.66376000  1.0
  H  H15  1  0.83301000  0.96724000  0.83624000  1.0
  H  H16  1  0.46594000  0.57603000  0.27580000  1.0
  H  H17  1  0.96594000  0.92398000  0.22420000  1.0
  H  H18  1  0.53406000  0.42398000  0.72420000  1.0
  H  H19  1  0.03406000  0.07603000  0.77580000  1.0
  H  H20  1  0.97798000  0.20510000  0.38351000  1.0
  H  H21  1  0.47798000  0.29490000  0.11649000  1.0
  H  H22  1  0.02202000  0.79490000  0.61649000  1.0
  H  H23  1  0.52202000  0.70510000  0.88351000  1.0
  H  H24  1  0.77622000  0.31178000  0.31213000  1.0
  H  H25  1  0.27621000  0.18822000  0.18787000  1.0
  H  H26  1  0.22378000  0.68822000  0.68787000  1.0
  H  H27  1  0.72379000  0.81178000  0.81213000  1.0
  H  H28  1  0.40989000  0.29763000  0.54146000  1.0
  H  H29  1  0.90989000  0.20237000  0.95854000  1.0
  H  H30  1  0.59011000  0.70237000  0.45854000  1.0
  H  H31  1  0.09011000  0.79763000  0.04146000  1.0
  H  H32  1  0.62071000  0.18953000  0.60120000  1.0
  H  H33  1  0.12071000  0.31047000  0.89880000  1.0
  H  H34  1  0.37929000  0.81047000  0.39880000  1.0
  H  H35  1  0.87929000  0.68953000  0.10120000  1.0
  H  H36  1  0.89321000  0.14398000  0.61280000  1.0
  H  H37  1  0.39321000  0.35602000  0.88720000  1.0
  H  H38  1  0.10679000  0.85602000  0.38720000  1.0
  H  H39  1  0.60679000  0.64398000  0.11280000  1.0
  H  H40  1  0.05807000  0.17149000  0.53562000  1.0
  H  H41  1  0.55807000  0.32851000  0.96438000  1.0
  H  H42  1  0.94193000  0.82851000  0.46438000  1.0
  H  H43  1  0.44193000  0.67150000  0.03562000  1.0
  H  H44  1  0.96880000  0.02504000  0.40078000  1.0
  H  H45  1  0.46880000  0.47496000  0.09922000  1.0
  H  H46  1  0.03120000  0.97496000  0.59922000  1.0
  H  H47  1  0.53120000  0.52504000  0.90078000  1.0
  H  H48  1  0.80387000  0.99567000  0.47738000  1.0
  H  H49  1  0.30386000  0.50433000  0.02262000  1.0
  H  H50  1  0.19614000  0.00433000  0.52261000  1.0
  H  H51  1  0.69613000  0.49567000  0.97739000  1.0
  C  C52  1  0.76617000  0.73127000  0.31363000  1.0
  C  C53  1  0.26617000  0.76873000  0.18637000  1.0
  C  C54  1  0.23383000  0.26873000  0.68637000  1.0
  C  C55  1  0.73383000  0.23127000  0.81363000  1.0
  C  C56  1  0.83646000  0.40807000  0.14561000  1.0
  C  C57  1  0.33646000  0.09193000  0.35439000  1.0
  C  C58  1  0.16354000  0.59192000  0.85439000  1.0
  C  C59  1  0.66354000  0.90807000  0.64561000  1.0
  C  C60  1  0.17761000  0.44788000  0.36437000  1.0
  C  C61  1  0.67761000  0.05212000  0.13563000  1.0
  C  C62  1  0.82239000  0.55212000  0.63563000  1.0
  C  C63  1  0.32240000  0.94788000  0.86437000  1.0
  C  C64  1  0.28103000  0.38358000  0.40091000  1.0
  C  C65  1  0.78103000  0.11642000  0.09909000  1.0
  C  C66  1  0.71897000  0.61642000  0.59909000  1.0
  C  C67  1  0.21898000  0.88358000  0.90091000  1.0
  C  C68  1  0.46201000  0.38643000  0.38993000  1.0
  C  C69  1  0.96201000  0.11357000  0.11007000  1.0
  C  C70  1  0.53799000  0.61357000  0.61007000  1.0
  C  C71  1  0.03800000  0.88643000  0.88994000  1.0
  C  C72  1  0.52850000  0.45796000  0.34482000  1.0
  C  C73  1  0.02850000  0.04204000  0.15518000  1.0
  C  C74  1  0.47150000  0.54205000  0.65518000  1.0
  C  C75  1  0.97150000  0.95796000  0.84482000  1.0
  C  C76  1  0.41596000  0.51995000  0.31088000  1.0
  C  C77  1  0.91596000  0.98005000  0.18912000  1.0
  C  C78  1  0.58404000  0.48005000  0.68912000  1.0
  C  C79  1  0.08404000  0.01995000  0.81088000  1.0
  C  C80  1  0.85098000  0.22965000  0.41562000  1.0
  C  C81  1  0.35098000  0.27036000  0.08438000  1.0
  C  C82  1  0.14902000  0.77036000  0.58438000  1.0
  C  C83  1  0.64902000  0.72965000  0.91562000  1.0
  C  C84  1  0.73991000  0.28943000  0.37859000  1.0
  C  C85  1  0.23991000  0.21057000  0.12141000  1.0
  C  C86  1  0.26009000  0.71057000  0.62141000  1.0
  C  C87  1  0.76009000  0.78943000  0.87859000  1.0
  C  C88  1  0.57859000  0.31818000  0.42439000  1.0
  C  C89  1  0.07859000  0.18182000  0.07561000  1.0
  C  C90  1  0.42141000  0.68182000  0.57561000  1.0
  C  C91  1  0.92141000  0.81818000  0.92439000  1.0
  C  C92  1  0.53387000  0.27959000  0.50414000  1.0
  C  C93  1  0.03387000  0.22041000  0.99586000  1.0
  C  C94  1  0.46613000  0.72041000  0.49586000  1.0
  C  C95  1  0.96613000  0.77959000  0.00414000  1.0
  C  C96  1  0.64884000  0.21974000  0.53854000  1.0
  C  C97  1  0.14884000  0.28026000  0.96146000  1.0
  C  C98  1  0.35116000  0.78026000  0.46146000  1.0
  C  C99  1  0.85116000  0.71974000  0.03854000  1.0
  C  C100  1  0.93025000  0.13708000  0.53604000  1.0
  C  C101  1  0.43024000  0.36292000  0.96396000  1.0
  C  C102  1  0.06976000  0.86292000  0.46396000  1.0
  C  C103  1  0.56975000  0.63708000  0.03604000  1.0
  C  C104  1  0.93360000  0.02862000  0.47745000  1.0
  C  C105  1  0.43359000  0.47138000  0.02255000  1.0
  C  C106  1  0.06641000  0.97138000  0.52255000  1.0
  C  C107  1  0.56640000  0.52862000  0.97745000  1.0
  S  S108  1  0.97296000  0.48347000  0.11121000  1.0
  S  S109  1  0.47296000  0.01653000  0.38880000  1.0
  S  S110  1  0.02704000  0.51653000  0.88879000  1.0
  S  S111  1  0.52705000  0.98347000  0.61121000  1.0
  S  S112  1  0.85467000  0.64170000  0.35361000  1.0
  S  S113  1  0.35467000  0.85830000  0.14640000  1.0
  S  S114  1  0.14533000  0.35830000  0.64640000  1.0
  S  S115  1  0.64533000  0.14170000  0.85360000  1.0
  N  N116  1  0.73561000  0.35070000  0.16420000  1.0
  N  N117  1  0.23561000  0.14930000  0.33580000  1.0
  N  N118  1  0.26438000  0.64930000  0.83580000  1.0
  N  N119  1  0.76438000  0.85070000  0.66420000  1.0
  N  N120  1  0.70073000  0.79776000  0.28764000  1.0
  N  N121  1  0.20073000  0.70224000  0.21236000  1.0
  N  N122  1  0.29927000  0.20224000  0.71236000  1.0
  N  N123  1  0.79927000  0.29776000  0.78764000  1.0
  N  N124  1  0.24194000  0.51518000  0.31875000  1.0
  N  N125  1  0.74194000  0.98482000  0.18125000  1.0
  N  N126  1  0.75806000  0.48482000  0.68124000  1.0
  N  N127  1  0.25806000  0.01518000  0.81875000  1.0
  N  N128  1  0.80635000  0.19803000  0.49614000  1.0
  N  N129  1  0.30634000  0.30197000  0.00385000  1.0
  N  N130  1  0.19365000  0.80197000  0.50386000  1.0
  N  N131  1  0.69365000  0.69803000  0.99614000  1.0
