# generated using pymatgen
data_Cu3H12C21N7O3
_symmetry_space_group_name_H-M   'P 1'
_cell_length_a   21.87200000
_cell_length_b   24.78880000
_cell_length_c   27.58810000
_cell_angle_alpha   91.71000000
_cell_angle_beta   90.25050000
_cell_angle_gamma   95.34800000
_symmetry_Int_Tables_number   1
_chemical_formula_structural   Cu3H12C21N7O3
_chemical_formula_sum   'Cu12 H48 C84 N28 O12'
_cell_volume   14885.60527615
_cell_formula_units_Z   4
loop_
 _symmetry_equiv_pos_site_id
 _symmetry_equiv_pos_as_xyz
  1  'x, y, z'
loop_
 _atom_site_type_symbol
 _atom_site_label
 _atom_site_symmetry_multiplicity
 _atom_site_fract_x
 _atom_site_fract_y
 _atom_site_fract_z
 _atom_site_occupancy
  Cu  Cu0  1  0.16574000  0.16672000  0.90622000  1.0
  Cu  Cu1  1  0.10119000  0.20013000  0.80973000  1.0
  Cu  Cu2  1  0.18253000  0.10001000  0.80892000  1.0
  Cu  Cu3  1  0.64802000  0.85101000  0.59458000  1.0
  Cu  Cu4  1  0.58868000  0.81411000  0.69351000  1.0
  Cu  Cu5  1  0.67075000  0.92750000  0.68567000  1.0
  Cu  Cu6  1  0.33513000  0.64987000  0.10485000  1.0
  Cu  Cu7  1  0.44625000  0.69390000  0.17660000  1.0
  Cu  Cu8  1  0.37720000  0.58550000  0.19916000  1.0
  Cu  Cu9  1  0.77882000  0.31294000  0.38613000  1.0
  Cu  Cu10  1  0.89630000  0.33271000  0.31790000  1.0
  Cu  Cu11  1  0.77937000  0.39186000  0.29837000  1.0
  H  H12  1  0.13430000  0.26289000  0.97820000  1.0
  H  H13  1  0.05582000  0.31317000  0.84424000  1.0
  H  H14  1  0.27441000  0.01559000  0.84455000  1.0
  H  H15  1  0.23486000  0.09744000  0.98024000  1.0
  H  H16  1  0.03179000  0.17881000  0.70760000  1.0
  H  H17  1  0.15063000  0.04828000  0.70556000  1.0
  H  H18  1  0.61149000  0.74759000  0.52745000  1.0
  H  H19  1  0.55909000  0.68650000  0.66832000  1.0
  H  H20  1  0.78209000  0.01069000  0.64678000  1.0
  H  H21  1  0.72952000  0.91446000  0.51689000  1.0
  H  H22  1  0.51416000  0.83745000  0.79006000  1.0
  H  H23  1  0.62694000  0.98965000  0.77780000  1.0
  H  H24  1  0.35167000  0.74129000  0.02290000  1.0
  H  H25  1  0.50342000  0.79184000  0.12036000  1.0
  H  H26  1  0.28676000  0.48296000  0.19149000  1.0
  H  H27  1  0.21696000  0.56961000  0.07215000  1.0
  H  H28  1  0.53371000  0.71554000  0.27002000  1.0
  H  H29  1  0.44148000  0.55782000  0.30050000  1.0
  H  H30  1  0.82819000  0.22966000  0.45960000  1.0
  H  H31  1  0.99302000  0.27494000  0.37808000  1.0
  H  H32  1  0.67382000  0.46436000  0.33213000  1.0
  H  H33  1  0.65446000  0.33880000  0.43840000  1.0
  H  H34  1  0.97223000  0.35777000  0.22032000  1.0
  H  H35  1  0.80157000  0.42606000  0.18906000  1.0
  H  H36  1  0.03409000  0.48153000  0.97308000  1.0
  H  H37  1  0.05474000  0.41858000  0.89205000  1.0
  H  H38  1  0.57087000  0.50733000  0.54577000  1.0
  H  H39  1  0.58441000  0.57958000  0.62319000  1.0
  H  H40  1  0.55139000  0.92774000  0.98077000  1.0
  H  H41  1  0.55813000  0.84700000  0.04641000  1.0
  H  H42  1  0.07200000  0.14715000  0.51570000  1.0
  H  H43  1  0.05946000  0.22807000  0.45128000  1.0
  H  H44  1  0.37490000  0.94368000  0.03696000  1.0
  H  H45  1  0.28190000  0.00988000  0.02771000  1.0
  H  H46  1  0.46909000  0.46947000  0.47633000  1.0
  H  H47  1  0.52131000  0.37863000  0.44269000  1.0
  H  H48  1  0.90493000  0.05796000  0.45138000  1.0
  H  H49  1  0.80320000  0.98629000  0.46422000  1.0
  H  H50  1  0.09374000  0.34985000  0.13579000  1.0
  H  H51  1  0.19907000  0.40218000  0.17600000  1.0
  H  H52  1  0.01467000  0.00484000  0.54494000  1.0
  H  H53  1  0.08985000  0.00500000  0.62510000  1.0
  H  H54  1  0.63510000  0.66666667  0.44005000  1.0
  H  H55  1  0.60478000  0.70807000  0.35287000  1.0
  H  H56  1  0.92554000  0.43273000  0.01781000  1.0
  H  H57  1  0.83736000  0.41960000  0.08812000  1.0
  H  H58  1  0.47531000  0.03509000  0.92126000  1.0
  H  H59  1  0.54969000  0.03578000  0.84122000  1.0
  C  C60  1  0.11783000  0.26696000  0.94148000  1.0
  C  C61  1  0.08802000  0.30917000  0.92177000  1.0
  C  C62  1  0.07819000  0.29310000  0.87289000  1.0
  C  C63  1  0.25865000  0.04132000  0.87350000  1.0
  C  C64  1  0.26952000  0.04045000  0.92370000  1.0
  C  C65  1  0.23790000  0.08293000  0.94292000  1.0
  C  C66  1  0.06516000  0.15022000  0.71461000  1.0
  C  C67  1  0.07986000  0.10505000  0.68655000  1.0
  C  C68  1  0.12586000  0.08338000  0.71355000  1.0
  C  C69  1  0.60040000  0.74165000  0.56531000  1.0
  C  C70  1  0.58086000  0.69363000  0.58876000  1.0
  C  C71  1  0.57419000  0.71025000  0.63746000  1.0
  C  C72  1  0.76189000  0.98190000  0.61953000  1.0
  C  C73  1  0.77521000  0.97679000  0.56989000  1.0
  C  C74  1  0.73468000  0.93290000  0.55301000  1.0
  C  C75  1  0.54671000  0.87102000  0.78029000  1.0
  C  C76  1  0.55707000  0.92321000  0.80177000  1.0
  C  C77  1  0.60418000  0.94893000  0.77387000  1.0
  C  C78  1  0.38549000  0.74652000  0.05193000  1.0
  C  C79  1  0.43655000  0.78511000  0.05771000  1.0
  C  C80  1  0.46336000  0.77201000  0.10164000  1.0
  C  C81  1  0.27772000  0.51105000  0.16350000  1.0
  C  C82  1  0.23062000  0.50760000  0.12852000  1.0
  C  C83  1  0.24196000  0.55545000  0.10259000  1.0
  C  C84  1  0.50581000  0.67701000  0.27008000  1.0
  C  C85  1  0.50264000  0.63633000  0.30467000  1.0
  C  C86  1  0.45843000  0.59636000  0.28569000  1.0
  C  C87  1  0.86276000  0.24595000  0.43456000  1.0
  C  C88  1  0.92573000  0.23898000  0.43276000  1.0
  C  C89  1  0.94716000  0.26933000  0.39305000  1.0
  C  C90  1  0.67737000  0.42941000  0.35437000  1.0
  C  C91  1  0.64199000  0.41211000  0.39432000  1.0
  C  C92  1  0.66692000  0.36474000  0.40835000  1.0
  C  C93  1  0.92706000  0.37245000  0.22063000  1.0
  C  C94  1  0.89603000  0.39684000  0.18361000  1.0
  C  C95  1  0.83965000  0.40712000  0.20447000  1.0
  C  C96  1  0.05468000  0.40923000  0.01084000  1.0
  C  C97  1  0.04619000  0.44007000  0.97157000  1.0
  C  C98  1  0.05660000  0.40714000  0.92963000  1.0
  C  C99  1  0.07148000  0.35799000  0.94585000  1.0
  C  C100  1  0.56283000  0.58132000  0.50535000  1.0
  C  C101  1  0.57012000  0.55092000  0.54540000  1.0
  C  C102  1  0.57643000  0.58879000  0.58563000  1.0
  C  C103  1  0.57316000  0.63955000  0.56799000  1.0
  C  C104  1  0.45632000  0.89224000  0.97386000  1.0
  C  C105  1  0.51531000  0.89746000  0.99129000  1.0
  C  C106  1  0.51832000  0.85579000  0.02552000  1.0
  C  C107  1  0.46087000  0.82826000  0.02746000  1.0
  C  C108  1  0.97153000  0.14359000  0.51613000  1.0
  C  C109  1  0.02992000  0.16206000  0.50301000  1.0
  C  C110  1  0.02299000  0.20394000  0.46941000  1.0
  C  C111  1  0.96121000  0.20785000  0.46359000  1.0
  C  C112  1  0.37960000  0.95167000  0.95807000  1.0
  C  C113  1  0.35822000  0.96019000  0.00401000  1.0
  C  C114  1  0.30985000  0.99469000  0.99889000  1.0
  C  C115  1  0.30526000  0.00555000  0.95057000  1.0
  C  C116  1  0.55078000  0.51127000  0.44446000  1.0
  C  C117  1  0.51186000  0.46762000  0.45691000  1.0
  C  C118  1  0.53947000  0.42064000  0.43987000  1.0
  C  C119  1  0.59333000  0.43853000  0.41751000  1.0
  C  C120  1  0.90097000  0.06602000  0.53057000  1.0
  C  C121  1  0.88299000  0.04665000  0.48522000  1.0
  C  C122  1  0.83012000  0.00947000  0.49215000  1.0
  C  C123  1  0.81955000  0.00789000  0.54120000  1.0
  C  C124  1  0.09731000  0.42150000  0.09159000  1.0
  C  C125  1  0.11660000  0.38881000  0.12646000  1.0
  C  C126  1  0.17111000  0.41616000  0.14720000  1.0
  C  C127  1  0.18248000  0.46407000  0.12335000  1.0
  C  C128  1  0.99266000  0.08214000  0.57732000  1.0
  C  C129  1  0.02130000  0.03542000  0.57390000  1.0
  C  C130  1  0.06030000  0.03583000  0.61543000  1.0
  C  C131  1  0.05344000  0.08302000  0.64157000  1.0
  C  C132  1  0.56127000  0.60419000  0.41994000  1.0
  C  C133  1  0.59983000  0.65037000  0.41456000  1.0
  C  C134  1  0.58377000  0.67166000  0.36920000  1.0
  C  C135  1  0.53703000  0.63698000  0.34926000  1.0
  C  C136  1  0.98666000  0.41731000  0.07797000  1.0
  C  C137  1  0.93200000  0.42429000  0.05565000  1.0
  C  C138  1  0.88640000  0.41761000  0.09261000  1.0
  C  C139  1  0.91578000  0.40748000  0.13492000  1.0
  C  C140  1  0.46566000  0.94769000  0.90542000  1.0
  C  C141  1  0.48679000  0.00070000  0.89904000  1.0
  C  C142  1  0.52546000  0.00079000  0.85758000  1.0
  C  C143  1  0.52625000  0.94778000  0.84149000  1.0
  N  N144  1  0.55269000  0.56656000  0.45645000  1.0
  N  N145  1  0.04663000  0.41738000  0.06052000  1.0
  N  N146  1  0.94917000  0.10303000  0.54740000  1.0
  N  N147  1  0.42694000  0.92244000  0.94008000  1.0
  N  N148  1  0.10066000  0.24493000  0.86427000  1.0
  N  N149  1  0.12526000  0.22875000  0.90674000  1.0
  N  N150  1  0.21001000  0.10701000  0.90687000  1.0
  N  N151  1  0.22292000  0.08135000  0.86385000  1.0
  N  N152  1  0.13739000  0.11329000  0.75469000  1.0
  N  N153  1  0.09989000  0.15475000  0.75540000  1.0
  N  N154  1  0.58925000  0.76418000  0.64255000  1.0
  N  N155  1  0.60545000  0.78359000  0.59786000  1.0
  N  N156  1  0.69985000  0.91348000  0.58983000  1.0
  N  N157  1  0.71666000  0.94365000  0.63109000  1.0
  N  N158  1  0.62028000  0.91474000  0.73830000  1.0
  N  N159  1  0.58476000  0.86638000  0.74223000  1.0
  N  N160  1  0.43106000  0.72879000  0.12040000  1.0
  N  N161  1  0.38264000  0.71285000  0.08975000  1.0
  N  N162  1  0.29221000  0.58508000  0.12105000  1.0
  N  N163  1  0.31417000  0.55742000  0.15883000  1.0
  N  N164  1  0.43716000  0.61232000  0.24291000  1.0
  N  N165  1  0.46646000  0.66216000  0.23333000  1.0
  N  N166  1  0.90040000  0.29276000  0.37291000  1.0
  N  N167  1  0.84805000  0.27824000  0.39853000  1.0
  N  N168  1  0.71378000  0.35460000  0.37881000  1.0
  N  N169  1  0.72003000  0.39464000  0.34530000  1.0
  N  N170  1  0.83738000  0.38992000  0.25040000  1.0
  N  N171  1  0.89147000  0.36847000  0.26047000  1.0
  O  O172  1  0.07003000  0.35851000  0.99578000  1.0
  O  O173  1  0.56433000  0.63502000  0.51779000  1.0
  O  O174  1  0.42218000  0.84994000  0.99482000  1.0
  O  O175  1  0.92889000  0.17115000  0.49339000  1.0
  O  O176  1  0.34772000  0.97786000  0.92477000  1.0
  O  O177  1  0.60102000  0.49451000  0.42035000  1.0
  O  O178  1  0.86272000  0.04351000  0.56530000  1.0
  O  O179  1  0.13713000  0.46825000  0.08925000  1.0
  O  O180  1  0.01130000  0.11185000  0.61854000  1.0
  O  O181  1  0.52230000  0.59523000  0.38071000  1.0
  O  O182  1  0.97842000  0.40686000  0.12586000  1.0
  O  O183  1  0.48865000  0.91454000  0.87055000  1.0
