# generated using pymatgen
data_Er2H9C27N(O7F6)2
_symmetry_space_group_name_H-M   'P 1'
_cell_length_a   11.69580000
_cell_length_b   11.88170000
_cell_length_c   14.24450000
_cell_angle_alpha   109.90700000
_cell_angle_beta   100.08400000
_cell_angle_gamma   101.09100000
_symmetry_Int_Tables_number   1
_chemical_formula_structural   Er2H9C27N(O7F6)2
_chemical_formula_sum   'Er4 H18 C54 N2 O28 F24'
_cell_volume   1763.27205279
_cell_formula_units_Z   2
loop_
 _symmetry_equiv_pos_site_id
 _symmetry_equiv_pos_as_xyz
  1  'x, y, z'
loop_
 _atom_site_type_symbol
 _atom_site_label
 _atom_site_symmetry_multiplicity
 _atom_site_fract_x
 _atom_site_fract_y
 _atom_site_fract_z
 _atom_site_occupancy
  Er  Er0  1  0.90177000  0.02876000  0.89683000  1.0
  Er  Er1  1  0.58192000  0.91468000  0.56709000  1.0
  Er  Er2  1  0.09823000  0.97124000  0.10317000  1.0
  Er  Er3  1  0.41808000  0.08532000  0.43292000  1.0
  H  H4  1  0.78768000  0.16346000  0.77128000  1.0
  H  H5  1  0.91860000  0.24533000  0.84462000  1.0
  H  H6  1  0.58610000  0.64006000  0.39208000  1.0
  H  H7  1  0.69383000  0.60541000  0.63098000  1.0
  H  H8  1  0.63783000  0.43853000  0.56497000  1.0
  H  H9  1  0.78745000  0.51556000  0.57178000  1.0
  H  H10  1  0.61220000  0.46375000  0.30767000  1.0
  H  H11  1  0.73963000  0.43152000  0.37281000  1.0
  H  H12  1  0.59107000  0.35183000  0.36589000  1.0
  H  H13  1  0.21231000  0.83654000  0.22872000  1.0
  H  H14  1  0.08140000  0.75468000  0.15538000  1.0
  H  H15  1  0.41389000  0.35994000  0.60792000  1.0
  H  H16  1  0.30616000  0.39459000  0.36903000  1.0
  H  H17  1  0.36216000  0.56146000  0.43504000  1.0
  H  H18  1  0.21254000  0.48443000  0.42822000  1.0
  H  H19  1  0.38779000  0.53625000  0.69234000  1.0
  H  H20  1  0.26036000  0.56847000  0.62720000  1.0
  H  H21  1  0.40892000  0.64816000  0.63411000  1.0
  C  C22  1  0.89467000  0.74937000  0.90468000  1.0
  C  C23  1  0.83066000  0.61249000  0.84851000  1.0
  C  C24  1  0.70910000  0.56829000  0.84313000  1.0
  C  C25  1  0.64671000  0.44379000  0.78686000  1.0
  C  C26  1  0.70341000  0.35847000  0.73354000  1.0
  C  C27  1  0.82552000  0.40272000  0.74056000  1.0
  C  C28  1  0.88809000  0.52751000  0.79667000  1.0
  C  C29  1  0.63212000  0.22865000  0.66005000  1.0
  C  C30  1  0.14201000  0.03298000  0.88922000  1.0
  C  C31  1  0.26449000  0.02136000  0.87879000  1.0
  C  C32  1  0.29790000  0.91148000  0.86911000  1.0
  C  C33  1  0.41111000  0.90060000  0.85616000  1.0
  C  C34  1  0.49507000  0.99801000  0.85211000  1.0
  C  C35  1  0.46311000  0.10799000  0.86320000  1.0
  C  C36  1  0.34988000  0.11978000  0.87557000  1.0
  C  C37  1  0.61390000  0.98368000  0.82833000  1.0
  C  C38  1  0.86742000  0.93273000  0.64004000  1.0
  C  C39  1  0.98581000  0.92652000  0.61221000  1.0
  C  C40  1  0.01653000  0.81442000  0.58203000  1.0
  C  C41  1  0.13079000  0.80916000  0.56942000  1.0
  C  C42  1  0.22003000  0.91738000  0.58758000  1.0
  C  C43  1  0.18800000  0.02999000  0.61714000  1.0
  C  C44  1  0.07247000  0.03377000  0.62727000  1.0
  C  C45  1  0.34345000  0.91160000  0.57768000  1.0
  C  C46  1  0.61538000  0.63841000  0.46924000  1.0
  C  C47  1  0.69484000  0.52396000  0.56565000  1.0
  C  C48  1  0.64803000  0.44082000  0.37317000  1.0
  C  C49  1  0.10534000  0.25064000  0.09532000  1.0
  C  C50  1  0.16934000  0.38752000  0.15149000  1.0
  C  C51  1  0.29090000  0.43171000  0.15687000  1.0
  C  C52  1  0.35329000  0.55620000  0.21314000  1.0
  C  C53  1  0.29659000  0.64153000  0.26646000  1.0
  C  C54  1  0.17448000  0.59728000  0.25944000  1.0
  C  C55  1  0.11191000  0.47250000  0.20333000  1.0
  C  C56  1  0.36788000  0.77135000  0.33995000  1.0
  C  C57  1  0.85800000  0.96703000  0.11078000  1.0
  C  C58  1  0.73551000  0.97865000  0.12121000  1.0
  C  C59  1  0.70210000  0.08852000  0.13089000  1.0
  C  C60  1  0.58889000  0.09940000  0.14384000  1.0
  C  C61  1  0.50493000  0.00198000  0.14789000  1.0
  C  C62  1  0.53690000  0.89201000  0.13681000  1.0
  C  C63  1  0.65013000  0.88022000  0.12444000  1.0
  C  C64  1  0.38610000  0.01632000  0.17166000  1.0
  C  C65  1  0.13258000  0.06727000  0.35996000  1.0
  C  C66  1  0.01419000  0.07347000  0.38779000  1.0
  C  C67  1  0.98348000  0.18557000  0.41796000  1.0
  C  C68  1  0.86921000  0.19084000  0.43058000  1.0
  C  C69  1  0.77998000  0.08261000  0.41241000  1.0
  C  C70  1  0.81200000  0.97001000  0.38285000  1.0
  C  C71  1  0.92753000  0.96623000  0.37272000  1.0
  C  C72  1  0.65655000  0.08840000  0.42232000  1.0
  C  C73  1  0.38461000  0.36159000  0.53077000  1.0
  C  C74  1  0.30515000  0.47604000  0.43435000  1.0
  C  C75  1  0.35196000  0.55918000  0.62683000  1.0
  N  N76  1  0.65083000  0.53899000  0.46970000  1.0
  N  N77  1  0.34916000  0.46100000  0.53030000  1.0
  O  O78  1  0.85014000  0.82014000  0.86942000  1.0
  O  O79  1  0.98436000  0.77933000  0.98101000  1.0
  O  O80  1  0.66917000  0.13735000  0.66755000  1.0
  O  O81  1  0.54210000  0.22289000  0.59337000  1.0
  O  O82  1  0.08886000  0.09136000  0.84571000  1.0
  O  O83  1  0.08951000  0.97880000  0.94137000  1.0
  O  O84  1  0.70332000  0.00749000  0.90268000  1.0
  O  O85  1  0.61471000  0.95065000  0.73452000  1.0
  O  O86  1  0.86214000  0.92348000  0.72478000  1.0
  O  O87  1  0.78468000  0.94546000  0.57772000  1.0
  O  O88  1  0.40689000  0.99385000  0.55263000  1.0
  O  O89  1  0.38750000  0.82987000  0.59489000  1.0
  O  O90  1  0.61310000  0.72569000  0.54950000  1.0
  O  O91  1  0.85078000  0.17665000  0.83417000  1.0
  O  O92  1  0.14986000  0.17986000  0.13058000  1.0
  O  O93  1  0.01564000  0.22068000  0.01899000  1.0
  O  O94  1  0.33082000  0.86265000  0.33246000  1.0
  O  O95  1  0.45790000  0.77711000  0.40663000  1.0
  O  O96  1  0.91116000  0.90865000  0.15429000  1.0
  O  O97  1  0.91049000  0.02121000  0.05862000  1.0
  O  O98  1  0.29668000  0.99250000  0.09732000  1.0
  O  O99  1  0.38529000  0.04935000  0.26548000  1.0
  O  O100  1  0.13787000  0.07653000  0.27522000  1.0
  O  O101  1  0.21532000  0.05454000  0.42228000  1.0
  O  O102  1  0.59311000  0.00615000  0.44737000  1.0
  O  O103  1  0.61250000  0.17013000  0.40511000  1.0
  O  O104  1  0.38689000  0.27431000  0.45050000  1.0
  O  O105  1  0.14921000  0.82336000  0.16583000  1.0
  F  F106  1  0.64957000  0.64696000  0.89228000  1.0
  F  F107  1  0.52848000  0.40675000  0.78314000  1.0
  F  F108  1  0.88447000  0.32473000  0.68819000  1.0
  F  F109  1  0.00458000  0.56623000  0.79659000  1.0
  F  F110  1  0.21940000  0.81151000  0.86801000  1.0
  F  F111  1  0.43891000  0.79198000  0.84532000  1.0
  F  F112  1  0.54325000  0.20514000  0.86067000  1.0
  F  F113  1  0.32525000  0.22874000  0.88567000  1.0
  F  F114  1  0.93389000  0.70770000  0.56534000  1.0
  F  F115  1  0.15255000  0.69634000  0.53781000  1.0
  F  F116  1  0.27039000  0.13909000  0.64206000  1.0
  F  F117  1  0.04594000  0.14440000  0.65598000  1.0
  F  F118  1  0.35044000  0.35304000  0.10773000  1.0
  F  F119  1  0.47153000  0.59325000  0.21687000  1.0
  F  F120  1  0.11552000  0.67528000  0.31180000  1.0
  F  F121  1  0.99542000  0.43378000  0.20340000  1.0
  F  F122  1  0.78059000  0.18849000  0.13197000  1.0
  F  F123  1  0.56109000  0.20801000  0.15467000  1.0
  F  F124  1  0.45676000  0.79486000  0.13933000  1.0
  F  F125  1  0.67476000  0.77126000  0.11434000  1.0
  F  F126  1  0.06612000  0.29230000  0.43465000  1.0
  F  F127  1  0.84745000  0.30365000  0.46219000  1.0
  F  F128  1  0.72962000  0.86091000  0.35793000  1.0
  F  F129  1  0.95406000  0.85560000  0.34401000  1.0
