# generated using pymatgen
data_BaH10C4(N4O3)2
_symmetry_space_group_name_H-M   'P 1'
_cell_length_a   7.66805000
_cell_length_b   7.79323000
_cell_length_c   11.78320000
_cell_angle_alpha   71.15450000
_cell_angle_beta   85.64050000
_cell_angle_gamma   63.83630000
_symmetry_Int_Tables_number   1
_chemical_formula_structural   BaH10C4(N4O3)2
_chemical_formula_sum   'Ba2 H20 C8 N16 O12'
_cell_volume   596.29118058
_cell_formula_units_Z   2
loop_
 _symmetry_equiv_pos_site_id
 _symmetry_equiv_pos_as_xyz
  1  'x, y, z'
loop_
 _atom_site_type_symbol
 _atom_site_label
 _atom_site_symmetry_multiplicity
 _atom_site_fract_x
 _atom_site_fract_y
 _atom_site_fract_z
 _atom_site_occupancy
  Ba  Ba0  1  0.31050000  0.79176000  0.03013000  1.0
  Ba  Ba1  1  0.68950000  0.20824000  0.96987000  1.0
  H  H2  1  0.53841000  0.71626000  0.45605000  1.0
  H  H3  1  0.46159000  0.28374000  0.54395000  1.0
  H  H4  1  0.89519000  0.37465000  0.49798000  1.0
  H  H5  1  0.10481000  0.62536000  0.50202000  1.0
  H  H6  1  0.25989000  0.37907000  0.06099000  1.0
  H  H7  1  0.74011000  0.62093000  0.93901000  1.0
  H  H8  1  0.23366000  0.47177000  0.91815000  1.0
  H  H9  1  0.76634000  0.52823000  0.08185000  1.0
  H  H10  1  0.09211000  0.21728000  0.05627000  1.0
  H  H11  1  0.90789000  0.78272000  0.94373000  1.0
  H  H12  1  0.07692000  0.29313000  0.91283000  1.0
  H  H13  1  0.92308000  0.70687000  0.08717000  1.0
  H  H14  1  0.61321000  0.80812000  0.22203000  1.0
  H  H15  1  0.38679000  0.19188000  0.77797000  1.0
  H  H16  1  0.41581000  0.01046000  0.19037000  1.0
  H  H17  1  0.58419000  0.98954000  0.80963000  1.0
  H  H18  1  0.97663000  0.93787000  0.25061000  1.0
  H  H19  1  0.02338000  0.06213000  0.74939000  1.0
  H  H20  1  0.16941000  0.72360000  0.29815000  1.0
  H  H21  1  0.83059000  0.27640000  0.70185000  1.0
  C  C22  1  0.06867000  0.32830000  0.24035000  1.0
  C  C23  1  0.93133000  0.67170000  0.75965000  1.0
  C  C24  1  0.51465000  0.69442000  0.55052000  1.0
  C  C25  1  0.48535000  0.30558000  0.44948000  1.0
  C  C26  1  0.38187000  0.74400000  0.72202000  1.0
  C  C27  1  0.61813000  0.25599000  0.27798000  1.0
  C  C28  1  0.92540000  0.39186000  0.40458000  1.0
  C  C29  1  0.07460000  0.60814000  0.59542000  1.0
  N  N30  1  0.21542000  0.01367000  0.53725000  1.0
  N  N31  1  0.78458000  0.98633000  0.46275000  1.0
  N  N32  1  0.22702000  0.06535000  0.42473000  1.0
  N  N33  1  0.77298000  0.93465000  0.57527000  1.0
  N  N34  1  0.07979000  0.24903000  0.36628000  1.0
  N  N35  1  0.92021000  0.75097000  0.63372000  1.0
  N  N36  1  0.36264000  0.83069000  0.59389000  1.0
  N  N37  1  0.63736000  0.16931000  0.40611000  1.0
  N  N38  1  0.91158000  0.50864000  0.20760000  1.0
  N  N39  1  0.08842000  0.49136000  0.79240000  1.0
  N  N40  1  0.82485000  0.54632000  0.31078000  1.0
  N  N41  1  0.17515000  0.45368000  0.68922000  1.0
  N  N42  1  0.54129000  0.56414000  0.74879000  1.0
  N  N43  1  0.45871000  0.43586000  0.25121000  1.0
  N  N44  1  0.62008000  0.53759000  0.64180000  1.0
  N  N45  1  0.37992000  0.46241000  0.35820000  1.0
  O  O46  1  0.18823000  0.23999000  0.17405000  1.0
  O  O47  1  0.81177000  0.76001000  0.82595000  1.0
  O  O48  1  0.26565000  0.82941000  0.78961000  1.0
  O  O49  1  0.73435000  0.17059000  0.21039000  1.0
  O  O50  1  0.31038000  0.45017000  0.99008000  1.0
  O  O51  1  0.68962000  0.54983000  0.00992000  1.0
  O  O52  1  0.06141000  0.19072000  0.98510000  1.0
  O  O53  1  0.93860000  0.80928000  0.01490000  1.0
  O  O54  1  0.52191000  0.91935000  0.15465000  1.0
  O  O55  1  0.47809000  0.08064000  0.84535000  1.0
  O  O56  1  0.10469000  0.84981000  0.23022000  1.0
  O  O57  1  0.89531000  0.15019000  0.76978000  1.0
