# generated using pymatgen
data_CdH5C4(NO2)3
_symmetry_space_group_name_H-M   'P 1'
_cell_length_a   7.45800000
_cell_length_b   10.12710000
_cell_length_c   10.60890000
_cell_angle_alpha   90.00000000
_cell_angle_beta   94.59370000
_cell_angle_gamma   90.00000000
_symmetry_Int_Tables_number   1
_chemical_formula_structural   CdH5C4(NO2)3
_chemical_formula_sum   'Cd4 H20 C16 N12 O24'
_cell_volume   798.69414269
_cell_formula_units_Z   4
loop_
 _symmetry_equiv_pos_site_id
 _symmetry_equiv_pos_as_xyz
  1  'x, y, z'
loop_
 _atom_site_type_symbol
 _atom_site_label
 _atom_site_symmetry_multiplicity
 _atom_site_fract_x
 _atom_site_fract_y
 _atom_site_fract_z
 _atom_site_occupancy
  Cd  Cd0  1  0.20071000  0.91524000  0.32349000  1.0
  Cd  Cd1  1  0.79929000  0.41524000  0.17651000  1.0
  Cd  Cd2  1  0.79929000  0.08476000  0.67651000  1.0
  Cd  Cd3  1  0.20071000  0.58476000  0.82349000  1.0
  H  H4  1  0.39206000  0.18895000  0.90758000  1.0
  H  H5  1  0.60794000  0.68895000  0.59242000  1.0
  H  H6  1  0.60794000  0.81106000  0.09242000  1.0
  H  H7  1  0.39206000  0.31105000  0.40758000  1.0
  H  H8  1  0.85059000  0.01251000  0.22645000  1.0
  H  H9  1  0.14941000  0.51251000  0.27356000  1.0
  H  H10  1  0.14941000  0.98749000  0.77356000  1.0
  H  H11  1  0.85059000  0.48749000  0.72644000  1.0
  H  H12  1  0.93062000  0.12035000  0.32734000  1.0
  H  H13  1  0.06937000  0.62035000  0.17266000  1.0
  H  H14  1  0.06937000  0.87965000  0.67266000  1.0
  H  H15  1  0.93063000  0.37965000  0.82734000  1.0
  H  H16  1  0.19503000  0.02568000  0.56981000  1.0
  H  H17  1  0.80498000  0.52568000  0.93019000  1.0
  H  H18  1  0.80497000  0.97432000  0.43019000  1.0
  H  H19  1  0.19502000  0.47432000  0.06981000  1.0
  H  H20  1  0.37023000  0.08965000  0.51760000  1.0
  H  H21  1  0.62977000  0.58965000  0.98240000  1.0
  H  H22  1  0.62977000  0.91035000  0.48240000  1.0
  H  H23  1  0.37023000  0.41035000  0.01760000  1.0
  C  C24  1  0.35563000  0.12121000  0.09898000  1.0
  C  C25  1  0.64437000  0.62121000  0.40102000  1.0
  C  C26  1  0.64437000  0.87879000  0.90101000  1.0
  C  C27  1  0.35563000  0.37879000  0.59898000  1.0
  C  C28  1  0.45264000  0.22365000  0.18075000  1.0
  C  C29  1  0.54737000  0.72365000  0.31926000  1.0
  C  C30  1  0.54736000  0.77635000  0.81925000  1.0
  C  C31  1  0.45264000  0.27635000  0.68075000  1.0
  C  C32  1  0.21424000  0.94825000  0.03136000  1.0
  C  C33  1  0.78576000  0.44825000  0.46864000  1.0
  C  C34  1  0.78576000  0.05175000  0.96864000  1.0
  C  C35  1  0.21424000  0.55175000  0.53136000  1.0
  C  C36  1  0.12138000  0.81718000  0.03445000  1.0
  C  C37  1  0.87862000  0.31718000  0.46555000  1.0
  C  C38  1  0.87862000  0.18282000  0.96554000  1.0
  C  C39  1  0.12138000  0.68282000  0.53444000  1.0
  N  N40  1  0.27495000  0.01273000  0.13859000  1.0
  N  N41  1  0.72505000  0.51273000  0.36141000  1.0
  N  N42  1  0.72505000  0.98727000  0.86141000  1.0
  N  N43  1  0.27495000  0.48727000  0.63859000  1.0
  N  N44  1  0.34235000  0.12064000  0.97129000  1.0
  N  N45  1  0.65765000  0.62064000  0.52871000  1.0
  N  N46  1  0.65765000  0.87936000  0.02871000  1.0
  N  N47  1  0.34235000  0.37936000  0.47129000  1.0
  N  N48  1  0.25378000  0.01237000  0.92683000  1.0
  N  N49  1  0.74622000  0.51237000  0.57317000  1.0
  N  N50  1  0.74622000  0.98763000  0.07316000  1.0
  N  N51  1  0.25378000  0.48763000  0.42683000  1.0
  O  O52  1  0.45291000  0.20940000  0.29795000  1.0
  O  O53  1  0.54709000  0.70940000  0.20205000  1.0
  O  O54  1  0.54709000  0.79060000  0.70205000  1.0
  O  O55  1  0.45291000  0.29060000  0.79794000  1.0
  O  O56  1  0.52724000  0.31421000  0.11887000  1.0
  O  O57  1  0.47277000  0.81421000  0.38113000  1.0
  O  O58  1  0.47276000  0.68579000  0.88113000  1.0
  O  O59  1  0.52724000  0.18579000  0.61887000  1.0
  O  O60  1  0.09136000  0.77705000  0.14496000  1.0
  O  O61  1  0.90864000  0.27705000  0.35504000  1.0
  O  O62  1  0.90864000  0.22295000  0.85504000  1.0
  O  O63  1  0.09136000  0.72296000  0.64496000  1.0
  O  O64  1  0.08090000  0.75978000  0.93093000  1.0
  O  O65  1  0.91909000  0.25978000  0.56907000  1.0
  O  O66  1  0.91910000  0.24022000  0.06908000  1.0
  O  O67  1  0.08091000  0.74022000  0.43093000  1.0
  O  O68  1  0.91969000  0.02223000  0.31072000  1.0
  O  O69  1  0.08031000  0.52223000  0.18929000  1.0
  O  O70  1  0.08031000  0.97777000  0.68929000  1.0
  O  O71  1  0.91969000  0.47777000  0.81071000  1.0
  O  O72  1  0.25263000  0.05007000  0.49088000  1.0
  O  O73  1  0.74738000  0.55007000  0.00911000  1.0
  O  O74  1  0.74738000  0.94993000  0.50912000  1.0
  O  O75  1  0.25262000  0.44993000  0.99088000  1.0
