# generated using pymatgen
data_CdH9C10NO8
_symmetry_space_group_name_H-M   'P 1'
_cell_length_a   4.98543000
_cell_length_b   11.04980000
_cell_length_c   11.83240000
_cell_angle_alpha   113.79600000
_cell_angle_beta   92.55000000
_cell_angle_gamma   92.05340000
_symmetry_Int_Tables_number   1
_chemical_formula_structural   CdH9C10NO8
_chemical_formula_sum   'Cd2 H18 C20 N2 O16'
_cell_volume   594.78760139
_cell_formula_units_Z   2
loop_
 _symmetry_equiv_pos_site_id
 _symmetry_equiv_pos_as_xyz
  1  'x, y, z'
loop_
 _atom_site_type_symbol
 _atom_site_label
 _atom_site_symmetry_multiplicity
 _atom_site_fract_x
 _atom_site_fract_y
 _atom_site_fract_z
 _atom_site_occupancy
  Cd  Cd0  1  0.54163000  0.12102000  0.77926000  1.0
  Cd  Cd1  1  0.45837000  0.87898000  0.22075000  1.0
  H  H2  1  0.01629000  0.04504000  0.63861000  1.0
  H  H3  1  0.98371000  0.95496000  0.36139000  1.0
  H  H4  1  0.78777000  0.07123000  0.55659000  1.0
  H  H5  1  0.21223000  0.92877000  0.44341000  1.0
  H  H6  1  0.03271000  0.43050000  0.05959000  1.0
  H  H7  1  0.96729000  0.56950000  0.94041000  1.0
  H  H8  1  0.59395000  0.56715000  0.39240000  1.0
  H  H9  1  0.40605000  0.43285000  0.60760000  1.0
  H  H10  1  0.05279000  0.21587000  0.27821000  1.0
  H  H11  1  0.94721000  0.78413000  0.72179000  1.0
  H  H12  1  0.27648000  0.15367000  0.11564000  1.0
  H  H13  1  0.72351000  0.84633000  0.88436000  1.0
  H  H14  1  0.37656000  0.27186000  0.05629000  1.0
  H  H15  1  0.62344000  0.72814000  0.94371000  1.0
  H  H16  1  0.74395000  0.28901000  0.57292000  1.0
  H  H17  1  0.25606000  0.71099000  0.42708000  1.0
  H  H18  1  0.01427000  0.25195000  0.47337000  1.0
  H  H19  1  0.98573000  0.74805000  0.52663000  1.0
  C  C20  1  0.96492000  0.42449000  0.14368000  1.0
  C  C21  1  0.03508000  0.57551000  0.85632000  1.0
  C  C22  1  0.79905000  0.51477000  0.22357000  1.0
  C  C23  1  0.20094000  0.48523000  0.77643000  1.0
  C  C24  1  0.72348000  0.49828000  0.32843000  1.0
  C  C25  1  0.27652000  0.50172000  0.67157000  1.0
  C  C26  1  0.81319000  0.39194000  0.35245000  1.0
  C  C27  1  0.18681000  0.60806000  0.64755000  1.0
  C  C28  1  0.97482000  0.30213000  0.26887000  1.0
  C  C29  1  0.02518000  0.69787000  0.73113000  1.0
  C  C30  1  0.20331000  0.22170000  0.07632000  1.0
  C  C31  1  0.79669000  0.77830000  0.92368000  1.0
  C  C32  1  0.03528000  0.14475000  0.95402000  1.0
  C  C33  1  0.96473000  0.85525000  0.04598000  1.0
  C  C34  1  0.69929000  0.62709000  0.19356000  1.0
  C  C35  1  0.30071000  0.37291000  0.80643000  1.0
  C  C36  1  0.79786000  0.26899000  0.47823000  1.0
  C  C37  1  0.20215000  0.73101000  0.52177000  1.0
  C  C38  1  0.63660000  0.14471000  0.38842000  1.0
  C  C39  1  0.36340000  0.85529000  0.61159000  1.0
  N  N40  1  0.04688000  0.32180000  0.16826000  1.0
  N  N41  1  0.95312000  0.67821000  0.83174000  1.0
  O  O42  1  0.86594000  0.10220000  0.64294000  1.0
  O  O43  1  0.13405000  0.89780000  0.35706000  1.0
  O  O44  1  0.15629000  0.06656000  0.86453000  1.0
  O  O45  1  0.84371000  0.93344000  0.13547000  1.0
  O  O46  1  0.78578000  0.16550000  0.95442000  1.0
  O  O47  1  0.21422000  0.83450000  0.04558000  1.0
  O  O48  1  0.55909000  0.70939000  0.27528000  1.0
  O  O49  1  0.44091000  0.29061000  0.72471000  1.0
  O  O50  1  0.75583000  0.63160000  0.09324000  1.0
  O  O51  1  0.24417000  0.36839000  0.90675000  1.0
  O  O52  1  0.73873000  0.38502000  0.45838000  1.0
  O  O53  1  0.26128000  0.61498000  0.54162000  1.0
  O  O54  1  0.69386000  0.03831000  0.40245000  1.0
  O  O55  1  0.30614000  0.96169000  0.59755000  1.0
  O  O56  1  0.46685000  0.14832000  0.30924000  1.0
  O  O57  1  0.53315000  0.85168000  0.69076000  1.0
