# generated using pymatgen
data_NdP2H12C6NO11
_symmetry_space_group_name_H-M   'P 1'
_cell_length_a   8.97896000
_cell_length_b   12.66970000
_cell_length_c   14.56740000
_cell_angle_alpha   113.86900000
_cell_angle_beta   90.00000000
_cell_angle_gamma   90.00000000
_symmetry_Int_Tables_number   1
_chemical_formula_structural   NdP2H12C6NO11
_chemical_formula_sum   'Nd4 P8 H48 C24 N4 O44'
_cell_volume   1515.46291331
_cell_formula_units_Z   4
loop_
 _symmetry_equiv_pos_site_id
 _symmetry_equiv_pos_as_xyz
  1  'x, y, z'
loop_
 _atom_site_type_symbol
 _atom_site_label
 _atom_site_symmetry_multiplicity
 _atom_site_fract_x
 _atom_site_fract_y
 _atom_site_fract_z
 _atom_site_occupancy
  Nd  Nd0  1  0.75260000  0.90970000  0.82991000  1.0
  Nd  Nd1  1  0.25260000  0.09030000  0.67009000  1.0
  Nd  Nd2  1  0.24740000  0.09030000  0.17009000  1.0
  Nd  Nd3  1  0.74741000  0.90970000  0.32991000  1.0
  P  P4  1  0.60424000  0.18064000  0.81362000  1.0
  P  P5  1  0.10424000  0.81936000  0.68638000  1.0
  P  P6  1  0.39575000  0.81936000  0.18638000  1.0
  P  P7  1  0.89575000  0.18065000  0.31363000  1.0
  P  P8  1  0.10973000  0.39150000  0.72629000  1.0
  P  P9  1  0.60973000  0.60850000  0.77371000  1.0
  P  P10  1  0.89027000  0.60850000  0.27371000  1.0
  P  P11  1  0.39027000  0.39150000  0.22629000  1.0
  H  H12  1  0.22636000  0.41132000  0.86198000  1.0
  H  H13  1  0.72636000  0.58868000  0.63802000  1.0
  H  H14  1  0.77364000  0.58868000  0.13802000  1.0
  H  H15  1  0.27364000  0.41132000  0.36198000  1.0
  H  H16  1  0.56388000  0.87509000  0.63838000  1.0
  H  H17  1  0.06388000  0.12491000  0.86162000  1.0
  H  H18  1  0.43612000  0.12491000  0.36162000  1.0
  H  H19  1  0.93612000  0.87509000  0.13837000  1.0
  H  H20  1  0.70224000  0.79272000  0.60786000  1.0
  H  H21  1  0.20224000  0.20728000  0.89214000  1.0
  H  H22  1  0.29777000  0.20728000  0.39215000  1.0
  H  H23  1  0.79776000  0.79272000  0.10786000  1.0
  H  H24  1  0.91312000  0.22209000  0.76154000  1.0
  H  H25  1  0.41313000  0.77791000  0.73846000  1.0
  H  H26  1  0.08687000  0.77791000  0.23846000  1.0
  H  H27  1  0.58688000  0.22209000  0.26154000  1.0
  H  H28  1  0.70184000  0.19150000  0.66189000  1.0
  H  H29  1  0.20185000  0.80850000  0.83811000  1.0
  H  H30  1  0.29815000  0.80850000  0.33811000  1.0
  H  H31  1  0.79816000  0.19150000  0.16189000  1.0
  H  H32  1  0.62635000  0.32868000  0.74771000  1.0
  H  H33  1  0.12635000  0.67132000  0.75229000  1.0
  H  H34  1  0.37364000  0.67132000  0.25229000  1.0
  H  H35  1  0.87364000  0.32868000  0.24771000  1.0
  H  H36  1  0.84465000  0.44176000  0.74603000  1.0
  H  H37  1  0.34464000  0.55824000  0.75397000  1.0
  H  H38  1  0.15536000  0.55824000  0.25397000  1.0
  H  H39  1  0.65535000  0.44176000  0.24604000  1.0
  H  H40  1  0.88578000  0.31010000  0.64159000  1.0
  H  H41  1  0.38578000  0.68990000  0.85841000  1.0
  H  H42  1  0.11422000  0.68990000  0.35841000  1.0
  H  H43  1  0.61422000  0.31011000  0.14159000  1.0
  H  H44  1  0.95856000  0.39684000  0.91241000  1.0
  H  H45  1  0.45856000  0.60315000  0.58759000  1.0
  H  H46  1  0.04144000  0.60315000  0.08759000  1.0
  H  H47  1  0.54144000  0.39684000  0.41241000  1.0
  H  H48  1  0.77330000  0.44208000  0.89905000  1.0
  H  H49  1  0.27330000  0.55791000  0.60095000  1.0
  H  H50  1  0.22669000  0.55792000  0.10095000  1.0
  H  H51  1  0.72669000  0.44208000  0.39905000  1.0
  H  H52  1  0.85235000  0.22638000  0.93904000  1.0
  H  H53  1  0.35236000  0.77361000  0.56096000  1.0
  H  H54  1  0.14764000  0.77361000  0.06096000  1.0
  H  H55  1  0.64764000  0.22638000  0.43904000  1.0
  H  H56  1  0.79094000  0.36245000  0.03006000  1.0
  H  H57  1  0.29094000  0.63754000  0.46994000  1.0
  H  H58  1  0.20905000  0.63755000  0.96994000  1.0
  H  H59  1  0.70905000  0.36245000  0.53006000  1.0
  C  C60  1  0.69165000  0.25248000  0.74075000  1.0
  C  C61  1  0.19165000  0.74752000  0.75926000  1.0
  C  C62  1  0.30835000  0.74752000  0.25926000  1.0
  C  C63  1  0.80835000  0.25248000  0.24074000  1.0
  C  C64  1  0.90867000  0.36130000  0.72151000  1.0
  C  C65  1  0.40867000  0.63870000  0.77850000  1.0
  C  C66  1  0.09133000  0.63870000  0.27850000  1.0
  C  C67  1  0.59133000  0.36130000  0.22150000  1.0
  C  C68  1  0.84435000  0.36785000  0.89002000  1.0
  C  C69  1  0.34435000  0.63215000  0.60998000  1.0
  C  C70  1  0.15565000  0.63215000  0.10998000  1.0
  C  C71  1  0.65564000  0.36785000  0.39002000  1.0
  C  C72  1  0.78616000  0.30368000  0.95052000  1.0
  C  C73  1  0.28616000  0.69632000  0.54948000  1.0
  C  C74  1  0.21384000  0.69632000  0.04947000  1.0
  C  C75  1  0.71384000  0.30368000  0.45053000  1.0
  C  C76  1  0.98097000  0.94930000  0.01478000  1.0
  C  C77  1  0.48098000  0.05070000  0.48522000  1.0
  C  C78  1  0.01903000  0.05069000  0.98522000  1.0
  C  C79  1  0.51903000  0.94931000  0.51478000  1.0
  C  C80  1  0.55836000  0.03879000  0.03893000  1.0
  C  C81  1  0.05837000  0.96122000  0.46107000  1.0
  C  C82  1  0.44164000  0.96121000  0.96107000  1.0
  C  C83  1  0.94164000  0.03879000  0.53893000  1.0
  N  N84  1  0.84672000  0.29468000  0.77843000  1.0
  N  N85  1  0.34672000  0.70532000  0.72157000  1.0
  N  N86  1  0.15327000  0.70532000  0.22157000  1.0
  N  N87  1  0.65327000  0.29468000  0.27843000  1.0
  O  O88  1  0.43814000  0.17490000  0.79702000  1.0
  O  O89  1  0.93814000  0.82510000  0.70298000  1.0
  O  O90  1  0.56186000  0.82510000  0.20297000  1.0
  O  O91  1  0.06186000  0.17490000  0.29703000  1.0
  O  O92  1  0.68939000  0.07048000  0.79274000  1.0
  O  O93  1  0.18939000  0.92952000  0.70726000  1.0
  O  O94  1  0.31061000  0.92952000  0.20727000  1.0
  O  O95  1  0.81061000  0.07048000  0.29273000  1.0
  O  O96  1  0.63075000  0.27171000  0.92770000  1.0
  O  O97  1  0.13075000  0.72829000  0.57230000  1.0
  O  O98  1  0.36925000  0.72829000  0.07230000  1.0
  O  O99  1  0.86925000  0.27171000  0.42770000  1.0
  O  O100  1  0.19516000  0.27886000  0.68883000  1.0
  O  O101  1  0.69516000  0.72114000  0.81117000  1.0
  O  O102  1  0.80484000  0.72114000  0.31117000  1.0
  O  O103  1  0.30484000  0.27886000  0.18883000  1.0
  O  O104  1  0.15189000  0.45743000  0.84596000  1.0
  O  O105  1  0.65189000  0.54257000  0.65404000  1.0
  O  O106  1  0.84811000  0.54257000  0.15404000  1.0
  O  O107  1  0.34811000  0.45743000  0.34596000  1.0
  O  O108  1  0.12632000  0.47316000  0.67656000  1.0
  O  O109  1  0.62632000  0.52684000  0.82345000  1.0
  O  O110  1  0.87368000  0.52684000  0.32344000  1.0
  O  O111  1  0.37368000  0.47316000  0.17656000  1.0
  O  O112  1  0.03107000  0.95815000  0.09973000  1.0
  O  O113  1  0.53108000  0.04185000  0.40026000  1.0
  O  O114  1  0.96893000  0.04184000  0.90027000  1.0
  O  O115  1  0.46893000  0.95816000  0.59973000  1.0
  O  O116  1  0.90496000  0.86702000  0.95504000  1.0
  O  O117  1  0.40496000  0.13297000  0.54496000  1.0
  O  O118  1  0.09505000  0.13297000  0.04496000  1.0
  O  O119  1  0.59505000  0.86703000  0.45504000  1.0
  O  O120  1  0.51532000  0.08818000  0.12951000  1.0
  O  O121  1  0.01532000  0.91182000  0.37049000  1.0
  O  O122  1  0.48468000  0.91182000  0.87050000  1.0
  O  O123  1  0.98468000  0.08818000  0.62950000  1.0
  O  O124  1  0.68592000  0.04673000  0.00586000  1.0
  O  O125  1  0.18592000  0.95327000  0.49414000  1.0
  O  O126  1  0.31408000  0.95327000  0.99414000  1.0
  O  O127  1  0.81408000  0.04673000  0.50586000  1.0
  O  O128  1  0.62435000  0.82077000  0.65875000  1.0
  O  O129  1  0.12435000  0.17923000  0.84125000  1.0
  O  O130  1  0.37565000  0.17923000  0.34125000  1.0
  O  O131  1  0.87565000  0.82077000  0.15875000  1.0
