# generated using pymatgen
data_FeH8(C4O3)2
_symmetry_space_group_name_H-M   'P 1'
_cell_length_a   6.35326000
_cell_length_b   7.29462000
_cell_length_c   9.38840325
_cell_angle_alpha   98.38413984
_cell_angle_beta   109.78171119
_cell_angle_gamma   89.97690000
_symmetry_Int_Tables_number   1
_chemical_formula_structural   FeH8(C4O3)2
_chemical_formula_sum   'Fe2 H16 C16 O12'
_cell_volume   404.49024031
_cell_formula_units_Z   2
loop_
 _symmetry_equiv_pos_site_id
 _symmetry_equiv_pos_as_xyz
  1  'x, y, z'
loop_
 _atom_site_type_symbol
 _atom_site_label
 _atom_site_symmetry_multiplicity
 _atom_site_fract_x
 _atom_site_fract_y
 _atom_site_fract_z
 _atom_site_occupancy
  Fe  Fe0  1  1.00000000  0.00000000  0.50000000  1.0
  Fe  Fe1  1  0.50000000  0.50000000  0.50000000  1.0
  H  H2  1  0.26443000  0.93815000  0.85620000  1.0
  H  H3  1  0.59168000  0.43793000  0.85643000  1.0
  H  H4  1  0.73557000  0.06185000  0.14381000  1.0
  H  H5  1  0.40833000  0.56207000  0.14357000  1.0
  H  H6  1  0.60461000  0.87962000  0.87924000  1.0
  H  H7  1  0.27462000  0.37999000  0.87901000  1.0
  H  H8  1  0.39539000  0.12037000  0.12077000  1.0
  H  H9  1  0.72538000  0.62001000  0.12099000  1.0
  H  H10  1  0.37563000  0.89483000  0.54207000  1.0
  H  H11  1  0.16664000  0.39491000  0.54222000  1.0
  H  H12  1  0.62438000  0.10518000  0.45793000  1.0
  H  H13  1  0.83337000  0.60510000  0.45779000  1.0
  H  H14  1  0.42462000  0.11005000  0.61729000  1.0
  H  H15  1  0.19274000  0.61023000  0.61735000  1.0
  H  H16  1  0.57537000  0.88996000  0.38271000  1.0
  H  H17  1  0.80726000  0.38978000  0.38265000  1.0
  C  C18  1  0.92660000  0.89703000  0.85236000  1.0
  C  C19  1  0.92571000  0.39698000  0.85231000  1.0
  C  C20  1  0.07339000  0.10296000  0.14764000  1.0
  C  C21  1  0.07430000  0.60302000  0.14768000  1.0
  C  C22  1  0.15064000  0.96418000  0.92043000  1.0
  C  C23  1  0.76975000  0.46411000  0.92048000  1.0
  C  C24  1  0.84936000  0.03581000  0.07957000  1.0
  C  C25  1  0.23026000  0.53588000  0.07952000  1.0
  C  C26  1  0.77717000  0.93400000  0.93335000  1.0
  C  C27  1  0.15621000  0.43413000  0.93326000  1.0
  C  C28  1  0.22283000  0.06599000  0.06665000  1.0
  C  C29  1  0.84381000  0.56588000  0.06674000  1.0
  C  C30  1  0.84719000  0.78086000  0.69995000  1.0
  C  C31  1  0.85242000  0.28091000  0.69996000  1.0
  C  C32  1  0.15280000  0.21913000  0.30005000  1.0
  C  C33  1  0.14759000  0.71909000  0.30004000  1.0
  O  O34  1  0.96182000  0.77452000  0.60683000  1.0
  O  O35  1  0.64447000  0.27443000  0.60709000  1.0
  O  O36  1  0.03817000  0.22549000  0.39317000  1.0
  O  O37  1  0.35553000  0.72557000  0.39290000  1.0
  O  O38  1  0.66597000  0.68371000  0.66695000  1.0
  O  O39  1  0.00083000  0.18394000  0.66672000  1.0
  O  O40  1  0.33402000  0.31629000  0.33305000  1.0
  O  O41  1  0.99924333  0.81606000  0.33333333  1.0
  O  O42  1  0.33073000  0.99763000  0.60753000  1.0
  O  O43  1  0.27694000  0.49787000  0.60757000  1.0
  O  O44  1  0.66927000  0.00237000  0.39247000  1.0
  O  O45  1  0.72306000  0.50214000  0.39243000  1.0
