# generated using pymatgen
data_ZnH4C4(S2N3)2
_symmetry_space_group_name_H-M   'P 1'
_cell_length_a   8.11984000
_cell_length_b   11.11590000
_cell_length_c   11.21360000
_cell_angle_alpha   89.99990000
_cell_angle_beta   89.99990000
_cell_angle_gamma   90.00010000
_symmetry_Int_Tables_number   1
_chemical_formula_structural   ZnH4C4(S2N3)2
_chemical_formula_sum   'Zn4 H16 C16 S16 N24'
_cell_volume   1012.13201678
_cell_formula_units_Z   4
loop_
 _symmetry_equiv_pos_site_id
 _symmetry_equiv_pos_as_xyz
  1  'x, y, z'
loop_
 _atom_site_type_symbol
 _atom_site_label
 _atom_site_symmetry_multiplicity
 _atom_site_fract_x
 _atom_site_fract_y
 _atom_site_fract_z
 _atom_site_occupancy
  Zn  Zn0  1  0.12148000  0.63900000  0.37587000  1.0
  Zn  Zn1  1  0.37852000  0.13900000  0.62413000  1.0
  Zn  Zn2  1  0.87852000  0.86100000  0.87587000  1.0
  Zn  Zn3  1  0.62148000  0.36100000  0.12413000  1.0
  H  H4  1  0.22610000  0.82273000  0.80274000  1.0
  H  H5  1  0.27390000  0.32273000  0.19726000  1.0
  H  H6  1  0.77390000  0.67727000  0.30274000  1.0
  H  H7  1  0.72610000  0.17727000  0.69726000  1.0
  H  H8  1  0.39702000  0.73916000  0.84664000  1.0
  H  H9  1  0.10298000  0.23916000  0.15336000  1.0
  H  H10  1  0.60298000  0.76084000  0.34664000  1.0
  H  H11  1  0.89702000  0.26084000  0.65336000  1.0
  H  H12  1  0.12452000  0.27083000  0.47391000  1.0
  H  H13  1  0.37548000  0.77083000  0.52609000  1.0
  H  H14  1  0.87548000  0.22917000  0.97391000  1.0
  H  H15  1  0.62452000  0.72917000  0.02609000  1.0
  H  H16  1  0.98156000  0.22197000  0.36820000  1.0
  H  H17  1  0.51844000  0.72197000  0.63180000  1.0
  H  H18  1  0.01845000  0.27803000  0.86820000  1.0
  H  H19  1  0.48155000  0.77803000  0.13180000  1.0
  C  C20  1  0.05140000  0.60764000  0.10928000  1.0
  C  C21  1  0.44860000  0.10764000  0.89072000  1.0
  C  C22  1  0.94860000  0.89236000  0.60928000  1.0
  C  C23  1  0.55140000  0.39236000  0.39072000  1.0
  C  C24  1  0.18231000  0.70755000  0.93997000  1.0
  C  C25  1  0.31769000  0.20755000  0.06003000  1.0
  C  C26  1  0.81769000  0.79245000  0.43997000  1.0
  C  C27  1  0.68231000  0.29245000  0.56003000  1.0
  C  C28  1  0.26500000  0.90403000  0.35379000  1.0
  C  C29  1  0.23500000  0.40403000  0.64621000  1.0
  C  C30  1  0.73500000  0.59597000  0.85379000  1.0
  C  C31  1  0.76500000  0.09597000  0.14621000  1.0
  C  C32  1  0.15266000  0.09724000  0.41336000  1.0
  C  C33  1  0.34734000  0.59724000  0.58664000  1.0
  C  C34  1  0.84734000  0.40276000  0.91336000  1.0
  C  C35  1  0.65266000  0.90276000  0.08663000  1.0
  S  S36  1  0.10461000  0.99534000  0.30088000  1.0
  S  S37  1  0.39539000  0.49535000  0.69912000  1.0
  S  S38  1  0.89539000  0.50465000  0.80088000  1.0
  S  S39  1  0.60461000  0.00465000  0.19912000  1.0
  S  S40  1  0.31453000  0.76817000  0.28839000  1.0
  S  S41  1  0.18547000  0.26817000  0.71161000  1.0
  S  S42  1  0.68547000  0.73183000  0.78838000  1.0
  S  S43  1  0.81453000  0.23183000  0.21161000  1.0
  S  S44  1  0.24074000  0.58934000  0.03232000  1.0
  S  S45  1  0.25926000  0.08934000  0.96768000  1.0
  S  S46  1  0.75926000  0.91066000  0.53233000  1.0
  S  S47  1  0.74074000  0.41066000  0.46767000  1.0
  S  S48  1  0.99957000  0.52130000  0.23297000  1.0
  S  S49  1  0.50043000  0.02129000  0.76703000  1.0
  S  S50  1  0.00043000  0.97871000  0.73297000  1.0
  S  S51  1  0.49957000  0.47871000  0.26703000  1.0
  N  N52  1  0.95973000  0.69210000  0.06290000  1.0
  N  N53  1  0.54027000  0.19210000  0.93710000  1.0
  N  N54  1  0.04027000  0.80791000  0.56290000  1.0
  N  N55  1  0.45973000  0.30790000  0.43710000  1.0
  N  N56  1  0.34114000  0.94953000  0.44628000  1.0
  N  N57  1  0.15886000  0.44953000  0.55372000  1.0
  N  N58  1  0.65886000  0.55047000  0.94627000  1.0
  N  N59  1  0.84114000  0.05047000  0.05373000  1.0
  N  N60  1  0.27734000  0.05812000  0.48087000  1.0
  N  N61  1  0.22266000  0.55812000  0.51913000  1.0
  N  N62  1  0.72266000  0.44188000  0.98087000  1.0
  N  N63  1  0.77734000  0.94188000  0.01913000  1.0
  N  N64  1  0.03230000  0.74828000  0.96757000  1.0
  N  N65  1  0.46770000  0.24828000  0.03243000  1.0
  N  N66  1  0.96770000  0.75172000  0.46757000  1.0
  N  N67  1  0.53230000  0.25172000  0.53243000  1.0
  N  N68  1  0.27211000  0.75107000  0.84946000  1.0
  N  N69  1  0.22789000  0.25107000  0.15054000  1.0
  N  N70  1  0.72789000  0.74893000  0.34947000  1.0
  N  N71  1  0.77211000  0.24893000  0.65054000  1.0
  N  N72  1  0.07241000  0.20111000  0.42805000  1.0
  N  N73  1  0.42758000  0.70111000  0.57195000  1.0
  N  N74  1  0.92759000  0.29889000  0.92805000  1.0
  N  N75  1  0.57241000  0.79889000  0.07195000  1.0
