# generated using pymatgen
data_CdH26C28(N5O3)2
_symmetry_space_group_name_H-M   'P 1'
_cell_length_a   7.35559000
_cell_length_b   7.80559000
_cell_length_c   12.36090000
_cell_angle_alpha   87.19590000
_cell_angle_beta   84.02760000
_cell_angle_gamma   78.93560000
_symmetry_Int_Tables_number   1
_chemical_formula_structural   CdH26C28(N5O3)2
_chemical_formula_sum   'Cd1 H26 C28 N10 O6'
_cell_volume   692.42046250
_cell_formula_units_Z   1
loop_
 _symmetry_equiv_pos_site_id
 _symmetry_equiv_pos_as_xyz
  1  'x, y, z'
loop_
 _atom_site_type_symbol
 _atom_site_label
 _atom_site_symmetry_multiplicity
 _atom_site_fract_x
 _atom_site_fract_y
 _atom_site_fract_z
 _atom_site_occupancy
  Cd  Cd0  1  0.00000000  0.50000000  0.00000000  1.0
  H  H1  1  0.41109000  0.38201000  0.88730000  1.0
  H  H2  1  0.58891000  0.61799000  0.11270000  1.0
  H  H3  1  0.07385000  0.54335000  0.56372000  1.0
  H  H4  1  0.92615000  0.45665000  0.43628000  1.0
  H  H5  1  0.13300000  0.74747000  0.38300000  1.0
  H  H6  1  0.86701000  0.25253000  0.61700000  1.0
  H  H7  1  0.93708000  0.63237000  0.74943000  1.0
  H  H8  1  0.06292000  0.36763000  0.25057000  1.0
  H  H9  1  0.56357000  0.27110000  0.70792000  1.0
  H  H10  1  0.43643000  0.72890000  0.29208000  1.0
  H  H11  1  0.69714000  0.16274000  0.17704000  1.0
  H  H12  1  0.30286000  0.83725000  0.82296000  1.0
  H  H13  1  0.96387000  0.95846000  0.08738000  1.0
  H  H14  1  0.03613000  0.04154000  0.91263000  1.0
  H  H15  1  0.86447000  0.93720000  0.48605000  1.0
  H  H16  1  0.13553000  0.06280000  0.51395000  1.0
  H  H17  1  0.41655000  0.25543000  0.26965000  1.0
  H  H18  1  0.58345000  0.74456000  0.73034000  1.0
  H  H19  1  0.48118000  0.04740000  0.87888000  1.0
  H  H20  1  0.51882000  0.95260000  0.12112000  1.0
  H  H21  1  0.65552000  0.09894000  0.95524000  1.0
  H  H22  1  0.34448000  0.90106000  0.04475000  1.0
  H  H23  1  0.81752000  0.31507000  0.85792000  1.0
  H  H24  1  0.18249000  0.68493000  0.14208000  1.0
  H  H25  1  0.70759000  0.51031000  0.88755000  1.0
  H  H26  1  0.29241000  0.48969000  0.11245000  1.0
  C  C27  1  0.68446000  0.82535000  0.92507000  1.0
  C  C28  1  0.31554000  0.17465000  0.07493000  1.0
  C  C29  1  0.41059000  0.32075000  0.51647000  1.0
  C  C30  1  0.58941000  0.67925000  0.48353000  1.0
  C  C31  1  0.32953000  0.39424000  0.62080000  1.0
  C  C32  1  0.67047000  0.60576000  0.37920000  1.0
  C  C33  1  0.33976000  0.41246000  0.81385000  1.0
  C  C34  1  0.66024000  0.58754000  0.18615000  1.0
  C  C35  1  0.15346000  0.50290000  0.63304000  1.0
  C  C36  1  0.84654000  0.49710000  0.36696000  1.0
  C  C37  1  0.59865000  0.17444000  0.39800000  1.0
  C  C38  1  0.40135000  0.82556000  0.60200000  1.0
  C  C39  1  0.03273000  0.84053000  0.34007000  1.0
  C  C40  1  0.96727000  0.15948000  0.65993000  1.0
  C  C41  1  0.07669000  0.55387000  0.73653000  1.0
  C  C42  1  0.92331000  0.44613000  0.26348000  1.0
  C  C43  1  0.56502000  0.00440000  0.94703000  1.0
  C  C44  1  0.43498000  0.99560000  0.05297000  1.0
  C  C45  1  0.75749000  0.06403000  0.34000000  1.0
  C  C46  1  0.24251000  0.93597000  0.66000000  1.0
  C  C47  1  0.42533000  0.35247000  0.71378000  1.0
  C  C48  1  0.57467000  0.64753000  0.28622000  1.0
  C  C49  1  0.78817000  0.07110000  0.22616000  1.0
  C  C50  1  0.21183000  0.92890000  0.77384000  1.0
  C  C51  1  0.93963000  0.95887000  0.17573000  1.0
  C  C52  1  0.06037000  0.04113000  0.82427000  1.0
  C  C53  1  0.88471000  0.94711000  0.39770000  1.0
  C  C54  1  0.11530000  0.05289000  0.60231000  1.0
  N  N55  1  0.44585000  0.25818000  0.35087000  1.0
  N  N56  1  0.55415000  0.74182000  0.64913000  1.0
  N  N57  1  0.16591000  0.50698000  0.82625000  1.0
  N  N58  1  0.83409000  0.49302000  0.17375000  1.0
  N  N59  1  0.57938000  0.21121000  0.50361000  1.0
  N  N60  1  0.42062000  0.78879000  0.49639000  1.0
  N  N61  1  0.32408000  0.35187000  0.42454000  1.0
  N  N62  1  0.67591000  0.64813000  0.57546000  1.0
  N  N63  1  0.06012000  0.84427000  0.23069000  1.0
  N  N64  1  0.93988000  0.15573000  0.76931000  1.0
  O  O65  1  0.63490000  0.72744000  0.85757000  1.0
  O  O66  1  0.36510000  0.27256000  0.14243000  1.0
  O  O67  1  0.76403000  0.39482000  0.91984000  1.0
  O  O68  1  0.23597000  0.60518000  0.08016000  1.0
  O  O69  1  0.82433000  0.78019000  0.97911000  1.0
  O  O70  1  0.17566000  0.21981000  0.02090000  1.0
