# generated using pymatgen
data_Al6H27C74NO30
_symmetry_space_group_name_H-M   'P 1'
_cell_length_a   12.55070000
_cell_length_b   12.56620000
_cell_length_c   28.76150000
_cell_angle_alpha   88.64370000
_cell_angle_beta   88.88330000
_cell_angle_gamma   60.96970000
_symmetry_Int_Tables_number   1
_chemical_formula_structural   Al6H27C74NO30
_chemical_formula_sum   'Al6 H27 C74 N1 O30'
_cell_volume   3964.92910889
_cell_formula_units_Z   1
loop_
 _symmetry_equiv_pos_site_id
 _symmetry_equiv_pos_as_xyz
  1  'x, y, z'
loop_
 _atom_site_type_symbol
 _atom_site_label
 _atom_site_symmetry_multiplicity
 _atom_site_fract_x
 _atom_site_fract_y
 _atom_site_fract_z
 _atom_site_occupancy
  Al  Al0  1  0.58928000  0.58865000  0.49914000  1.0
  Al  Al1  1  0.57998000  0.33747000  0.50200000  1.0
  Al  Al2  1  0.34209000  0.57146000  0.50065000  1.0
  Al  Al3  1  0.07082000  0.08061000  0.00116000  1.0
  Al  Al4  1  0.32449000  0.08595000  0.99900000  1.0
  Al  Al5  1  0.09196000  0.32546000  0.99969000  1.0
  H  H6  1  0.54019000  0.21635000  0.78175000  1.0
  H  H7  1  0.43786000  0.12355000  0.71799000  1.0
  H  H8  1  0.44767000  0.43537000  0.72806000  1.0
  H  H9  1  0.22982000  0.53466000  0.78205000  1.0
  H  H10  1  0.12746000  0.44198000  0.71828000  1.0
  H  H11  1  0.21955000  0.22344000  0.77195000  1.0
  H  H12  1  0.29372000  0.66390000  0.72292000  1.0
  H  H13  1  0.28647000  0.70530000  0.80767000  1.0
  H  H14  1  0.35422000  0.00432000  0.77638000  1.0
  H  H15  1  0.36088000  0.96330000  0.69165000  1.0
  H  H16  1  0.95360000  0.38623000  0.69471000  1.0
  H  H17  1  0.99040000  0.38375000  0.77980000  1.0
  H  H18  1  0.70919000  0.28800000  0.80900000  1.0
  H  H19  1  0.67243000  0.29050000  0.72391000  1.0
  H  H20  1  0.41677000  0.42897000  0.18889000  1.0
  H  H21  1  0.24367000  0.21348000  0.22637000  1.0
  H  H22  1  0.26970000  0.24034000  0.30955000  1.0
  H  H23  1  0.52731000  0.74501000  0.29262000  1.0
  H  H24  1  0.52348000  0.77857000  0.20662000  1.0
  H  H25  1  0.13383000  0.92235000  0.20802000  1.0
  H  H26  1  0.13768000  0.88948000  0.29409000  1.0
  H  H27  1  0.00016000  0.15478000  0.30360000  1.0
  H  H28  1  0.03462000  0.15432000  0.21802000  1.0
  H  H29  1  0.70545000  0.49961000  0.20450000  1.0
  H  H30  1  0.67180000  0.50028000  0.28993000  1.0
  H  H31  1  0.69366000  0.68573000  0.52678000  1.0
  H  H32  1  0.97642000  0.97273000  0.03159000  1.0
  C  C33  1  0.71270000  0.37797000  0.56842000  1.0
  C  C34  1  0.38528000  0.37920000  0.56456000  1.0
  C  C35  1  0.37684000  0.70822000  0.56704000  1.0
  C  C36  1  0.72303000  0.37419000  0.43659000  1.0
  C  C37  1  0.39746000  0.38375000  0.43477000  1.0
  C  C38  1  0.37653000  0.71420000  0.43443000  1.0
  C  C39  1  0.39151000  0.21475000  0.73262000  1.0
  C  C40  1  0.44866000  0.26659000  0.76721000  1.0
  C  C41  1  0.31058000  0.30119000  0.88867000  1.0
  C  C42  1  0.36059000  0.35438000  0.61132000  1.0
  C  C43  1  0.27052000  0.27035000  0.76166000  1.0
  C  C44  1  0.32786000  0.32218000  0.79783000  1.0
  C  C45  1  0.21904000  0.39173000  0.73275000  1.0
  C  C46  1  0.33991000  0.33607000  0.70214000  1.0
  C  C47  1  0.27615000  0.44350000  0.76739000  1.0
  C  C48  1  0.39709000  0.38803000  0.73832000  1.0
  C  C49  1  0.31942000  0.31206000  0.84670000  1.0
  C  C50  1  0.34960000  0.34525000  0.65327000  1.0
  C  C51  1  0.34656000  0.75810000  0.61298000  1.0
  C  C52  1  0.30674000  0.73832000  0.73494000  1.0
  C  C53  1  0.30287000  0.76113000  0.78204000  1.0
  C  C54  1  0.34097000  0.93005000  0.76436000  1.0
  C  C55  1  0.34469000  0.90731000  0.71727000  1.0
  C  C56  1  0.32796000  0.81077000  0.70180000  1.0
  C  C57  1  0.31988000  0.85751000  0.79750000  1.0
  C  C58  1  0.31284000  0.88365000  0.84535000  1.0
  C  C59  1  0.33584000  0.78421000  0.65396000  1.0
  C  C60  1  0.30331000  0.90925000  0.88635000  1.0
  C  C61  1  0.76169000  0.35192000  0.61466000  1.0
  C  C62  1  0.90071000  0.36473000  0.71997000  1.0
  C  C63  1  0.92100000  0.36344000  0.76722000  1.0
  C  C64  1  0.76203000  0.30959000  0.78374000  1.0
  C  C65  1  0.74177000  0.31087000  0.73648000  1.0
  C  C66  1  0.81048000  0.33874000  0.70384000  1.0
  C  C67  1  0.85216000  0.33573000  0.79986000  1.0
  C  C68  1  0.87604000  0.33099000  0.84789000  1.0
  C  C69  1  0.78625000  0.34391000  0.65581000  1.0
  C  C70  1  0.90004000  0.32319000  0.88909000  1.0
  C  C71  1  0.37651000  0.36256000  0.38770000  1.0
  C  C72  1  0.39811000  0.40076000  0.26151000  1.0
  C  C73  1  0.38419000  0.38643000  0.21463000  1.0
  C  C74  1  0.28763000  0.26595000  0.23620000  1.0
  C  C75  1  0.30212000  0.28094000  0.28286000  1.0
  C  C76  1  0.35858000  0.34836000  0.29728000  1.0
  C  C77  1  0.32906000  0.31823000  0.20112000  1.0
  C  C78  1  0.31531000  0.30370000  0.15323000  1.0
  C  C79  1  0.37114000  0.35966000  0.34542000  1.0
  C  C80  1  0.30374000  0.29253000  0.11195000  1.0
  C  C81  1  0.34720000  0.76674000  0.38852000  1.0
  C  C82  1  0.44166000  0.78509000  0.27380000  1.0
  C  C83  1  0.43951000  0.80346000  0.22607000  1.0
  C  C84  1  0.21927000  0.88457000  0.22693000  1.0
  C  C85  1  0.22138000  0.86642000  0.27470000  1.0
  C  C86  1  0.33277000  0.81606000  0.29878000  1.0
  C  C87  1  0.32835000  0.85331000  0.20194000  1.0
  C  C88  1  0.32401000  0.87414000  0.15336000  1.0
  C  C89  1  0.33761000  0.79229000  0.34715000  1.0
  C  C90  1  0.31549000  0.89619000  0.11169000  1.0
  C  C91  1  0.77984000  0.34195000  0.39152000  1.0
  C  C92  1  0.93665000  0.23026000  0.28174000  1.0
  C  C93  1  0.95579000  0.23010000  0.23408000  1.0
  C  C94  1  0.77057000  0.42524000  0.22633000  1.0
  C  C95  1  0.75179000  0.42578000  0.27399000  1.0
  C  C96  1  0.83409000  0.32808000  0.30235000  1.0
  C  C97  1  0.87281000  0.32733000  0.20565000  1.0
  C  C98  1  0.89239000  0.32419000  0.15702000  1.0
  C  C99  1  0.80935000  0.33116000  0.35059000  1.0
  C  C100  1  0.91175000  0.31712000  0.11522000  1.0
  C  C101  1  0.27618000  0.95806000  0.93249000  1.0
  C  C102  1  0.28679000  0.27629000  0.93553000  1.0
  C  C103  1  0.94991000  0.29580000  0.93514000  1.0
  C  C104  1  0.28846000  0.94545000  0.06523000  1.0
  C  C105  1  0.27897000  0.27192000  0.06522000  1.0
  C  C106  1  0.95549000  0.28854000  0.06820000  1.0
  N  N107  1  0.45597000  0.47431000  0.27262000  1.0
  O  O108  1  0.47883000  0.68736000  0.55042000  1.0
  O  O109  1  0.69361000  0.47745000  0.54969000  1.0
  O  O110  1  0.68793000  0.29889000  0.55107000  1.0
  O  O111  1  0.48612000  0.30208000  0.54586000  1.0
  O  O112  1  0.30741000  0.48016000  0.54586000  1.0
  O  O113  1  0.29879000  0.68485000  0.54770000  1.0
  O  O114  1  0.47934000  0.68973000  0.44997000  1.0
  O  O115  1  0.69065000  0.48068000  0.44973000  1.0
  O  O116  1  0.70542000  0.29352000  0.45898000  1.0
  O  O117  1  0.49806000  0.30626000  0.45320000  1.0
  O  O118  1  0.31660000  0.48173000  0.45340000  1.0
  O  O119  1  0.29696000  0.69192000  0.45521000  1.0
  O  O120  1  0.50264000  0.49793000  0.50116000  1.0
  O  O121  1  0.96478000  0.19828000  0.95426000  1.0
  O  O122  1  0.17252000  0.98490000  0.94903000  1.0
  O  O123  1  0.35883000  0.97410000  0.95203000  1.0
  O  O124  1  0.36285000  0.17344000  0.95362000  1.0
  O  O125  1  0.18836000  0.35541000  0.95502000  1.0
  O  O126  1  0.98004000  0.37174000  0.95199000  1.0
  O  O127  1  0.98101000  0.18410000  0.05450000  1.0
  O  O128  1  0.18606000  0.97002000  0.04910000  1.0
  O  O129  1  0.36942000  0.96573000  0.04452000  1.0
  O  O130  1  0.35563000  0.17258000  0.04634000  1.0
  O  O131  1  0.17880000  0.35259000  0.04748000  1.0
  O  O132  1  0.97007000  0.36933000  0.04456000  1.0
  O  O133  1  0.16389000  0.16508000  0.99996000  1.0
  O  O134  1  0.47801000  0.48085000  0.31400000  1.0
  O  O135  1  0.47981000  0.52560000  0.23980000  1.0
  O  O136  1  0.66757000  0.67190000  0.49721000  1.0
  O  O137  1  0.98504000  0.00498000  0.00177000  1.0
