# generated using pymatgen
data_AgH12C15N3O4
_symmetry_space_group_name_H-M   'P 1'
_cell_length_a   7.55528000
_cell_length_b   9.55437000
_cell_length_c   10.92730000
_cell_angle_alpha   76.90520000
_cell_angle_beta   71.71040000
_cell_angle_gamma   76.47790000
_symmetry_Int_Tables_number   1
_chemical_formula_structural   AgH12C15N3O4
_chemical_formula_sum   'Ag2 H24 C30 N6 O8'
_cell_volume   718.09314953
_cell_formula_units_Z   2
loop_
 _symmetry_equiv_pos_site_id
 _symmetry_equiv_pos_as_xyz
  1  'x, y, z'
loop_
 _atom_site_type_symbol
 _atom_site_label
 _atom_site_symmetry_multiplicity
 _atom_site_fract_x
 _atom_site_fract_y
 _atom_site_fract_z
 _atom_site_occupancy
  Ag  Ag0  1  0.33841000  0.94941000  0.64644000  1.0
  Ag  Ag1  1  0.66160000  0.05059000  0.35356000  1.0
  H  H2  1  0.38741000  0.64550000  0.55438000  1.0
  H  H3  1  0.61260000  0.35450000  0.44563000  1.0
  H  H4  1  0.34302000  0.55542000  0.36888000  1.0
  H  H5  1  0.65699000  0.44458000  0.63113000  1.0
  H  H6  1  0.12363000  0.00440000  0.22827000  1.0
  H  H7  1  0.87637000  0.99559000  0.77172000  1.0
  H  H8  1  0.17107000  0.07174000  0.41908000  1.0
  H  H9  1  0.82893000  0.92826000  0.58091000  1.0
  H  H10  1  0.25998000  0.60504000  0.16852000  1.0
  H  H11  1  0.74002000  0.39495000  0.83148000  1.0
  H  H12  1  0.11607000  0.92925000  0.06734000  1.0
  H  H13  1  0.88393000  0.07074000  0.93267000  1.0
  H  H14  1  0.37623000  0.06408000  0.88684000  1.0
  H  H15  1  0.62377000  0.93593000  0.11315000  1.0
  H  H16  1  0.30866000  0.29827000  0.96928000  1.0
  H  H17  1  0.69133000  0.70174000  0.03072000  1.0
  H  H18  1  0.10808000  0.50626000  0.62989000  1.0
  H  H19  1  0.89191000  0.49374000  0.37011000  1.0
  H  H20  1  0.19903000  0.26503000  0.55660000  1.0
  H  H21  1  0.80097000  0.73497000  0.44339000  1.0
  H  H22  1  0.10323000  0.65815000  0.77020000  1.0
  H  H23  1  0.89676000  0.34186000  0.22981000  1.0
  H  H24  1  0.25877000  0.53099000  0.00827000  1.0
  H  H25  1  0.74123000  0.46901000  0.99172000  1.0
  C  C26  1  0.14953000  0.76634000  0.95103000  1.0
  C  C27  1  0.85048000  0.23366000  0.04896000  1.0
  C  C28  1  0.32668000  0.72001000  0.48056000  1.0
  C  C29  1  0.67333000  0.27999000  0.51944000  1.0
  C  C30  1  0.30354000  0.67122000  0.37685000  1.0
  C  C31  1  0.69645000  0.32878000  0.62315000  1.0
  C  C32  1  0.23226000  0.77243000  0.28057000  1.0
  C  C33  1  0.76774000  0.22757000  0.71943000  1.0
  C  C34  1  0.18150000  0.91963000  0.29756000  1.0
  C  C35  1  0.81850000  0.08037000  0.70244000  1.0
  C  C36  1  0.20738000  0.95835000  0.40460000  1.0
  C  C37  1  0.79262000  0.04166000  0.59540000  1.0
  C  C38  1  0.21946000  0.72276000  0.16747000  1.0
  C  C39  1  0.78054000  0.27723000  0.83254000  1.0
  C  C40  1  0.16224000  0.81214000  0.06666000  1.0
  C  C41  1  0.83776000  0.18786000  0.93334000  1.0
  C  C42  1  0.31843000  0.16554000  0.83243000  1.0
  C  C43  1  0.68157000  0.83447000  0.16756000  1.0
  C  C44  1  0.28091000  0.29752000  0.87725000  1.0
  C  C45  1  0.71909000  0.70249000  0.12275000  1.0
  C  C46  1  0.20719000  0.42587000  0.80316000  1.0
  C  C47  1  0.79281000  0.57413000  0.19684000  1.0
  C  C48  1  0.17204000  0.41142000  0.68801000  1.0
  C  C49  1  0.82795000  0.58859000  0.31199000  1.0
  C  C50  1  0.21783000  0.27646000  0.64849000  1.0
  C  C51  1  0.78217000  0.72355000  0.35151000  1.0
  C  C52  1  0.16779000  0.57152000  0.83546000  1.0
  C  C53  1  0.83220000  0.42848000  0.16454000  1.0
  C  C54  1  0.20092000  0.61124000  0.93604000  1.0
  C  C55  1  0.79908000  0.38877000  0.06396000  1.0
  N  N56  1  0.27960000  0.86137000  0.49536000  1.0
  N  N57  1  0.72040000  0.13863000  0.50464000  1.0
  N  N58  1  0.29032000  0.15411000  0.71925000  1.0
  N  N59  1  0.70968000  0.84589000  0.28075000  1.0
  N  N60  1  0.63448000  0.72336000  0.76686000  1.0
  N  N61  1  0.36552000  0.27663000  0.23313000  1.0
  O  O62  1  0.09104000  0.86197000  0.86620000  1.0
  O  O63  1  0.90898000  0.13803000  0.13380000  1.0
  O  O64  1  0.59498000  0.72754000  0.65972000  1.0
  O  O65  1  0.40503000  0.27246000  0.34027000  1.0
  O  O66  1  0.54558000  0.81845000  0.83837000  1.0
  O  O67  1  0.45442000  0.18156000  0.16162000  1.0
  O  O68  1  0.76331000  0.62419000  0.79836000  1.0
  O  O69  1  0.23668000  0.37581000  0.20164000  1.0
