# generated using pymatgen
data_MnH18C19N3O5
_symmetry_space_group_name_H-M   'P 1'
_cell_length_a   8.70795000
_cell_length_b   11.61710000
_cell_length_c   17.79290000
_cell_angle_alpha   90.00030000
_cell_angle_beta   90.00040000
_cell_angle_gamma   79.68300000
_symmetry_Int_Tables_number   1
_chemical_formula_structural   MnH18C19N3O5
_chemical_formula_sum   'Mn4 H72 C76 N12 O20'
_cell_volume   1770.84810673
_cell_formula_units_Z   4
loop_
 _symmetry_equiv_pos_site_id
 _symmetry_equiv_pos_as_xyz
  1  'x, y, z'
loop_
 _atom_site_type_symbol
 _atom_site_label
 _atom_site_symmetry_multiplicity
 _atom_site_fract_x
 _atom_site_fract_y
 _atom_site_fract_z
 _atom_site_occupancy
  Mn  Mn0  1  0.79089000  0.62150000  0.17175000  1.0
  Mn  Mn1  1  0.29089000  0.62150000  0.32824000  1.0
  Mn  Mn2  1  0.20912000  0.37850000  0.82825000  1.0
  Mn  Mn3  1  0.70911000  0.37851000  0.67176000  1.0
  H  H4  1  0.00140000  0.79657000  0.24119000  1.0
  H  H5  1  0.50140000  0.79656000  0.25881000  1.0
  H  H6  1  0.99861000  0.20343000  0.75881000  1.0
  H  H7  1  0.49859000  0.20344000  0.74120000  1.0
  H  H8  1  0.00382000  0.00784000  0.24745000  1.0
  H  H9  1  0.50382000  0.00784000  0.25255000  1.0
  H  H10  1  0.99618000  0.99215000  0.75255000  1.0
  H  H11  1  0.49617000  0.99216000  0.74745000  1.0
  H  H12  1  0.60721000  0.05856000  0.09578000  1.0
  H  H13  1  0.10722000  0.05856000  0.40423000  1.0
  H  H14  1  0.39279000  0.94144000  0.90423000  1.0
  H  H15  1  0.89278000  0.94145000  0.59578000  1.0
  H  H16  1  0.62600000  0.84573000  0.09452000  1.0
  H  H17  1  0.12600000  0.84572000  0.40548000  1.0
  H  H18  1  0.37401000  0.15427000  0.90548000  1.0
  H  H19  1  0.87399000  0.15428000  0.59453000  1.0
  H  H20  1  0.96778000  0.39828000  0.25231000  1.0
  H  H21  1  0.46779000  0.39827000  0.24769000  1.0
  H  H22  1  0.03221000  0.60172000  0.74768000  1.0
  H  H23  1  0.53221000  0.60173000  0.75231000  1.0
  H  H24  1  0.97184000  0.18465000  0.26136000  1.0
  H  H25  1  0.47184000  0.18465000  0.23864000  1.0
  H  H26  1  0.02816000  0.81535000  0.73863000  1.0
  H  H27  1  0.52816000  0.81535000  0.76137000  1.0
  H  H28  1  0.62889000  0.22704000  0.08125000  1.0
  H  H29  1  0.12888000  0.22704000  0.41875000  1.0
  H  H30  1  0.37110000  0.77296000  0.91875000  1.0
  H  H31  1  0.87109000  0.77298000  0.58125000  1.0
  H  H32  1  0.63381000  0.43549000  0.08373000  1.0
  H  H33  1  0.13381000  0.43549000  0.41628000  1.0
  H  H34  1  0.36618000  0.56451000  0.91628000  1.0
  H  H35  1  0.86618000  0.56452000  0.58372000  1.0
  H  H36  1  0.69823000  0.62020000  0.87539000  1.0
  H  H37  1  0.19824000  0.62020000  0.62460000  1.0
  H  H38  1  0.30176000  0.37979000  0.12461000  1.0
  H  H39  1  0.80176000  0.37978000  0.37539000  1.0
  H  H40  1  0.89510000  0.60499000  0.90856000  1.0
  H  H41  1  0.39510000  0.60499000  0.59144000  1.0
  H  H42  1  0.10490000  0.39500000  0.09144000  1.0
  H  H43  1  0.60490000  0.39500000  0.40856000  1.0
  H  H44  1  0.90045000  0.40651000  0.94832000  1.0
  H  H45  1  0.40045000  0.40651000  0.55168000  1.0
  H  H46  1  0.09956000  0.59348000  0.05168000  1.0
  H  H47  1  0.59955000  0.59348000  0.44831000  1.0
  H  H48  1  0.69397000  0.41662000  0.93307000  1.0
  H  H49  1  0.19397000  0.41662000  0.56693000  1.0
  H  H50  1  0.30604000  0.58337000  0.06693000  1.0
  H  H51  1  0.80603000  0.58337000  0.43306000  1.0
  H  H52  1  0.45571000  0.63798000  0.17023000  1.0
  H  H53  1  0.95570000  0.63799000  0.32977000  1.0
  H  H54  1  0.54431000  0.36202000  0.82977000  1.0
  H  H55  1  0.04430000  0.36201000  0.67023000  1.0
  H  H56  1  0.53935000  0.66167000  0.08912000  1.0
  H  H57  1  0.03936000  0.66166000  0.41087000  1.0
  H  H58  1  0.46065000  0.33833000  0.91088000  1.0
  H  H59  1  0.96064000  0.33834000  0.58912000  1.0
  H  H60  1  0.65044000  0.17045000  0.87220000  1.0
  H  H61  1  0.15043000  0.17044000  0.62780000  1.0
  H  H62  1  0.34959000  0.82954000  0.12779000  1.0
  H  H63  1  0.84959000  0.82957000  0.37221000  1.0
  H  H64  1  0.87574000  0.18528000  0.95303000  1.0
  H  H65  1  0.37572000  0.18529000  0.54697000  1.0
  H  H66  1  0.12430000  0.81471000  0.04696000  1.0
  H  H67  1  0.62430000  0.81472000  0.45304000  1.0
  H  H68  1  0.93945000  0.80912000  0.98254000  1.0
  H  H69  1  0.43946000  0.80913000  0.51746000  1.0
  H  H70  1  0.06054000  0.19088000  0.01747000  1.0
  H  H71  1  0.56053000  0.19088000  0.48254000  1.0
  H  H72  1  0.71132000  0.81200000  0.90091000  1.0
  H  H73  1  0.21134000  0.81199000  0.59909000  1.0
  H  H74  1  0.28867000  0.18800000  0.09910000  1.0
  H  H75  1  0.78865000  0.18803000  0.40091000  1.0
  C  C76  1  0.91679000  0.85814000  0.20929000  1.0
  C  C77  1  0.41679000  0.85814000  0.29071000  1.0
  C  C78  1  0.08322000  0.14186000  0.79071000  1.0
  C  C79  1  0.58320000  0.14187000  0.70929000  1.0
  C  C80  1  0.91643000  0.97764000  0.21268000  1.0
  C  C81  1  0.41644000  0.97764000  0.28732000  1.0
  C  C82  1  0.08357000  0.02236000  0.78732000  1.0
  C  C83  1  0.58356000  0.02237000  0.71268000  1.0
  C  C84  1  0.80574000  0.05549000  0.17134000  1.0
  C  C85  1  0.30574000  0.05549000  0.32866000  1.0
  C  C86  1  0.19426000  0.94451000  0.82866000  1.0
  C  C87  1  0.69426000  0.94451000  0.67134000  1.0
  C  C88  1  0.69886000  0.00573000  0.12863000  1.0
  C  C89  1  0.19887000  0.00573000  0.37137000  1.0
  C  C90  1  0.30114000  0.99427000  0.87137000  1.0
  C  C91  1  0.80113000  0.99428000  0.62864000  1.0
  C  C92  1  0.70771000  0.88530000  0.12779000  1.0
  C  C93  1  0.20772000  0.88530000  0.37221000  1.0
  C  C94  1  0.29229000  0.11469000  0.87221000  1.0
  C  C95  1  0.79227000  0.11471000  0.62780000  1.0
  C  C96  1  0.89302000  0.35580000  0.21642000  1.0
  C  C97  1  0.39301000  0.35579000  0.28358000  1.0
  C  C98  1  0.10698000  0.64420000  0.78357000  1.0
  C  C99  1  0.60698000  0.64421000  0.71642000  1.0
  C  C100  1  0.89544000  0.23604000  0.22050000  1.0
  C  C101  1  0.39544000  0.23603000  0.27950000  1.0
  C  C102  1  0.10456000  0.76396000  0.77949000  1.0
  C  C103  1  0.60456000  0.76397000  0.72051000  1.0
  C  C104  1  0.80189000  0.18319000  0.17150000  1.0
  C  C105  1  0.30190000  0.18319000  0.32850000  1.0
  C  C106  1  0.19810000  0.81681000  0.82849000  1.0
  C  C107  1  0.69810000  0.81682000  0.67151000  1.0
  C  C108  1  0.70574000  0.25816000  0.12179000  1.0
  C  C109  1  0.20574000  0.25816000  0.37821000  1.0
  C  C110  1  0.29426000  0.74184000  0.87821000  1.0
  C  C111  1  0.79425000  0.74185000  0.62179000  1.0
  C  C112  1  0.70863000  0.37740000  0.12215000  1.0
  C  C113  1  0.20863000  0.37739000  0.37785000  1.0
  C  C114  1  0.29136000  0.62260000  0.87785000  1.0
  C  C115  1  0.79136000  0.62262000  0.62215000  1.0
  C  C116  1  0.71909000  0.62113000  0.99562000  1.0
  C  C117  1  0.21909000  0.62113000  0.50437000  1.0
  C  C118  1  0.28092000  0.37886000  0.00438000  1.0
  C  C119  1  0.78091000  0.37886000  0.49562000  1.0
  C  C120  1  0.78118000  0.57982000  0.91850000  1.0
  C  C121  1  0.28117000  0.57981000  0.58150000  1.0
  C  C122  1  0.21882000  0.42017000  0.08150000  1.0
  C  C123  1  0.71882000  0.42017000  0.41850000  1.0
  C  C124  1  0.80046000  0.44532000  0.91334000  1.0
  C  C125  1  0.30046000  0.44532000  0.58666000  1.0
  C  C126  1  0.19954000  0.55467000  0.08666000  1.0
  C  C127  1  0.69954000  0.55466000  0.41333000  1.0
  C  C128  1  0.83268000  0.41008000  0.83210000  1.0
  C  C129  1  0.33268000  0.41008000  0.66791000  1.0
  C  C130  1  0.16732000  0.58992000  0.16790000  1.0
  C  C131  1  0.66732000  0.58992000  0.33209000  1.0
  C  C132  1  0.71776000  0.09178000  0.89773000  1.0
  C  C133  1  0.21775000  0.09177000  0.60227000  1.0
  C  C134  1  0.28226000  0.90822000  0.10226000  1.0
  C  C135  1  0.78226000  0.90824000  0.39774000  1.0
  C  C136  1  0.84506000  0.09966000  0.94354000  1.0
  C  C137  1  0.34505000  0.09965000  0.55646000  1.0
  C  C138  1  0.15496000  0.90034000  0.05645000  1.0
  C  C139  1  0.65496000  0.90035000  0.44355000  1.0
  C  C140  1  0.93172000  0.99799000  0.97562000  1.0
  C  C141  1  0.43171000  0.99799000  0.52438000  1.0
  C  C142  1  0.06829000  0.00201000  0.02438000  1.0
  C  C143  1  0.56828000  0.00201000  0.47562000  1.0
  C  C144  1  0.88167000  0.89233000  0.95924000  1.0
  C  C145  1  0.38167000  0.89232000  0.54075000  1.0
  C  C146  1  0.11833000  0.10767000  0.04076000  1.0
  C  C147  1  0.61832000  0.10768000  0.45924000  1.0
  C  C148  1  0.75221000  0.89347000  0.91325000  1.0
  C  C149  1  0.25223000  0.89346000  0.58675000  1.0
  C  C150  1  0.24779000  0.10653000  0.08675000  1.0
  C  C151  1  0.74777000  0.10655000  0.41326000  1.0
  N  N152  1  0.81510000  0.81127000  0.16697000  1.0
  N  N153  1  0.31510000  0.81127000  0.33302000  1.0
  N  N154  1  0.18491000  0.18873000  0.83303000  1.0
  N  N155  1  0.68488000  0.18874000  0.66698000  1.0
  N  N156  1  0.80215000  0.42646000  0.16777000  1.0
  N  N157  1  0.30215000  0.42646000  0.33223000  1.0
  N  N158  1  0.19785000  0.57353000  0.83223000  1.0
  N  N159  1  0.69784000  0.57355000  0.66777000  1.0
  N  N160  1  0.67009000  0.99064000  0.88232000  1.0
  N  N161  1  0.17008000  0.99063000  0.61768000  1.0
  N  N162  1  0.32992000  0.00936000  0.11768000  1.0
  N  N163  1  0.82991000  0.00938000  0.38232000  1.0
  O  O164  1  0.81865000  0.61761000  0.04862000  1.0
  O  O165  1  0.31866000  0.61761000  0.45138000  1.0
  O  O166  1  0.18135000  0.38238000  0.95138000  1.0
  O  O167  1  0.68134000  0.38239000  0.54862000  1.0
  O  O168  1  0.57184000  0.65292000  0.00265000  1.0
  O  O169  1  0.07185000  0.65291000  0.49735000  1.0
  O  O170  1  0.42816000  0.34707000  0.99736000  1.0
  O  O171  1  0.92816000  0.34707000  0.50264000  1.0
  O  O172  1  0.72163000  0.37927000  0.79366000  1.0
  O  O173  1  0.22165000  0.37926000  0.70634000  1.0
  O  O174  1  0.27836000  0.62073000  0.20634000  1.0
  O  O175  1  0.77836000  0.62073000  0.29365000  1.0
  O  O176  1  0.96321000  0.41781000  0.80351000  1.0
  O  O177  1  0.46320000  0.41783000  0.69650000  1.0
  O  O178  1  0.03679000  0.58219000  0.19649000  1.0
  O  O179  1  0.53679000  0.58216000  0.30350000  1.0
  O  O180  1  0.54674000  0.66477000  0.14639000  1.0
  O  O181  1  0.04674000  0.66477000  0.35360000  1.0
  O  O182  1  0.45327000  0.33523000  0.85361000  1.0
  O  O183  1  0.95326000  0.33524000  0.64639000  1.0
