# generated using pymatgen
data_Al3H25C42I6(N3O7)2
_symmetry_space_group_name_H-M   'P 1'
_cell_length_a   13.08874114
_cell_length_b   13.13810000
_cell_length_c   28.29280000
_cell_angle_alpha   89.86560000
_cell_angle_beta   89.78549128
_cell_angle_gamma   60.21004153
_symmetry_Int_Tables_number   1
_chemical_formula_structural   Al3H25C42I6(N3O7)2
_chemical_formula_sum   'Al6 H50 C84 I12 N12 O28'
_cell_volume   4222.30107401
_cell_formula_units_Z   2
loop_
 _symmetry_equiv_pos_site_id
 _symmetry_equiv_pos_as_xyz
  1  'x, y, z'
loop_
 _atom_site_type_symbol
 _atom_site_label
 _atom_site_symmetry_multiplicity
 _atom_site_fract_x
 _atom_site_fract_y
 _atom_site_fract_z
 _atom_site_occupancy
  Al  Al0  1  0.52255000  0.24766000  0.25242000  1.0
  Al  Al1  1  0.27721000  0.24984000  0.25212000  1.0
  Al  Al2  1  0.26930000  0.48131000  0.25264000  1.0
  Al  Al3  1  0.77800000  0.74299000  0.74789000  1.0
  Al  Al4  1  0.52930000  0.75142000  0.74931000  1.0
  Al  Al5  1  0.74729000  0.51586000  0.74999000  1.0
  H  H6  1  0.90501000  0.41124000  0.40392000  1.0
  H  H7  1  0.79850000  0.99019000  0.43660000  1.0
  H  H8  1  0.88432000  0.83384000  0.43245000  1.0
  H  H9  1  0.83122000  0.90296000  0.48845000  1.0
  H  H10  1  0.15540000  0.28602000  0.08146000  1.0
  H  H11  1  0.02480000  0.20802000  0.05279000  1.0
  H  H12  1  0.17837000  0.10440000  0.05965000  1.0
  H  H13  1  0.11882000  0.15875000  0.00255000  1.0
  H  H14  1  0.40408000  0.68859000  0.41350000  1.0
  H  H15  1  0.20254000  0.81532000  0.44204000  1.0
  H  H16  1  0.28146000  0.89368000  0.43725000  1.0
  H  H17  1  0.97982000  0.20841000  0.42936000  1.0
  H  H18  1  0.26310000  0.84207000  0.49332000  1.0
  H  H19  1  0.55737000  0.14596000  0.07917000  1.0
  H  H20  1  0.76402000  0.01955000  0.04920000  1.0
  H  H21  1  0.71461000  0.17275000  0.05602000  1.0
  H  H22  1  0.71842000  0.11322000  0.99905000  1.0
  H  H23  1  0.32072000  0.59476000  0.90229000  1.0
  H  H24  1  0.13470000  0.60562000  0.91663000  1.0
  H  H25  1  0.18368000  0.54739000  0.97443000  1.0
  H  H26  1  0.24986000  0.45738000  0.92407000  1.0
  H  H27  1  0.88559000  0.38468000  0.57609000  1.0
  H  H28  1  0.82265000  0.28609000  0.42632000  1.0
  H  H29  1  0.70996000  0.39837000  0.54509000  1.0
  H  H30  1  0.73175000  0.45604000  0.49141000  1.0
  H  H31  1  0.69756000  0.54009000  0.54420000  1.0
  H  H32  1  0.59438000  0.08091000  0.90822000  1.0
  H  H33  1  0.59961000  0.25745000  0.92346000  1.0
  H  H34  1  0.53862000  0.26499000  0.98070000  1.0
  H  H35  1  0.45146000  0.28681000  0.92963000  1.0
  H  H36  1  0.39105000  0.72160000  0.58612000  1.0
  H  H37  1  0.39985000  0.88614000  0.55476000  1.0
  H  H38  1  0.45693000  0.80836000  0.50079000  1.0
  H  H39  1  0.89546000  0.26373000  0.48190000  1.0
  H  H40  1  0.54272000  0.75903000  0.55321000  1.0
  H  H41  1  0.08074000  0.31660000  0.91131000  1.0
  H  H42  1  0.25931000  0.13697000  0.92470000  1.0
  H  H43  1  0.26937000  0.18736000  0.98205000  1.0
  H  H44  1  0.28794000  0.25579000  0.93106000  1.0
  H  H45  1  0.71467000  0.89216000  0.58250000  1.0
  H  H46  1  0.88036000  0.72009000  0.55356000  1.0
  H  H47  1  0.80830000  0.73765000  0.49830000  1.0
  H  H48  1  0.75455000  0.70150000  0.54980000  1.0
  H  H49  1  0.27716000  0.57055000  0.07314000  1.0
  H  H50  1  0.20617000  0.77367000  0.04122000  1.0
  H  H51  1  0.09792000  0.72875000  0.04763000  1.0
  H  H52  1  0.15942000  0.72675000  0.99109000  1.0
  H  H53  1  0.67981000  0.90524000  0.40982000  1.0
  H  H54  1  0.71370000  0.18435000  0.22498000  1.0
  H  H55  1  0.87977000  0.83478000  0.77626000  1.0
  C  C56  1  0.44663000  0.11411000  0.31721000  1.0
  C  C57  1  0.57662000  0.88309000  0.68397000  1.0
  C  C58  1  0.56124000  0.56396000  0.81267000  1.0
  C  C59  1  0.89312000  0.52851000  0.68326000  1.0
  C  C60  1  0.06039000  0.46467000  0.35782000  1.0
  C  C61  1  0.44956000  0.48019000  0.13634000  1.0
  C  C62  1  0.47606000  0.05439000  0.36183000  1.0
  C  C63  1  0.07990000  0.45719000  0.14178000  1.0
  C  C64  1  0.45666000  0.48679000  0.36479000  1.0
  C  C65  1  0.46645000  0.06773000  0.13924000  1.0
  C  C66  1  0.52568000  0.53703000  0.85671000  1.0
  C  C67  1  0.13448000  0.42785000  0.18715000  1.0
  C  C68  1  0.94889000  0.49393000  0.63771000  1.0
  C  C69  1  0.53773000  0.93904000  0.86026000  1.0
  C  C70  1  0.51336000  0.54656000  0.64377000  1.0
  C  C71  1  0.93945000  0.51248000  0.86337000  1.0
  C  C72  1  0.54190000  0.94937000  0.64097000  1.0
  C  C73  1  0.95027000  0.43479000  0.46864000  1.0
  C  C74  1  0.37882000  0.54399000  0.01657000  1.0
  C  C75  1  0.60725000  0.95293000  0.47393000  1.0
  C  C76  1  0.07625000  0.38278000  0.02442000  1.0
  C  C77  1  0.42903000  0.61602000  0.47754000  1.0
  C  C78  1  0.43767000  0.45174000  0.31904000  1.0
  C  C79  1  0.53674000  0.07059000  0.02161000  1.0
  C  C80  1  0.39161000  0.54642000  0.96658000  1.0
  C  C81  1  0.94041000  0.43313000  0.51886000  1.0
  C  C82  1  0.54267000  0.05628000  0.97162000  1.0
  C  C83  1  0.43172000  0.62368000  0.52778000  1.0
  C  C84  1  0.05900000  0.39164000  0.97455000  1.0
  C  C85  1  0.61596000  0.94536000  0.52421000  1.0
  C  C86  1  0.07195000  0.51834000  0.52692000  1.0
  C  C87  1  0.60787000  0.45999000  0.97691000  1.0
  C  C88  1  0.39959000  0.08078000  0.53049000  1.0
  C  C89  1  0.44801000  0.12029000  0.18506000  1.0
  C  C90  1  0.92549000  0.60680000  0.98286000  1.0
  C  C91  1  0.50861000  0.40864000  0.53387000  1.0
  C  C92  1  0.45795000  0.92419000  0.97956000  1.0
  C  C93  1  0.59600000  0.45185000  0.02533000  1.0
  C  C94  1  0.07351000  0.52916000  0.47822000  1.0
  C  C95  1  0.44736000  0.94227000  0.02805000  1.0
  C  C96  1  0.51310000  0.40008000  0.48498000  1.0
  C  C97  1  0.94793000  0.59927000  0.03103000  1.0
  C  C98  1  0.38992000  0.08017000  0.48178000  1.0
  C  C99  1  0.01534000  0.48531000  0.44900000  1.0
  C  C100  1  0.12551000  0.43692000  0.31461000  1.0
  C  C101  1  0.48196000  0.49294000  0.04518000  1.0
  C  C102  1  0.49327000  0.01762000  0.45348000  1.0
  C  C103  1  0.02404000  0.48796000  0.05178000  1.0
  C  C104  1  0.47371000  0.50310000  0.45680000  1.0
  C  C105  1  0.48506000  0.01635000  0.04896000  1.0
  C  C106  1  0.50613000  0.50720000  0.94760000  1.0
  C  C107  1  0.00231000  0.47370000  0.54729000  1.0
  C  C108  1  0.50542000  0.98095000  0.95146000  1.0
  C  C109  1  0.47267000  0.51946000  0.55524000  1.0
  C  C110  1  0.98178000  0.50352000  0.95461000  1.0
  C  C111  1  0.43040000  0.45579000  0.18407000  1.0
  C  C112  1  0.51170000  0.01002000  0.55169000  1.0
  C  C113  1  0.98053000  0.48178000  0.59640000  1.0
  C  C114  1  0.51777000  0.51954000  0.89871000  1.0
  C  C115  1  0.52184000  0.98702000  0.60056000  1.0
  C  C116  1  0.96021000  0.51036000  0.90558000  1.0
  C  C117  1  0.49168000  0.52826000  0.60367000  1.0
  C  C118  1  0.51916000  0.96059000  0.90241000  1.0
  C  C119  1  0.46750000  0.48646000  0.09430000  1.0
  C  C120  1  0.03514000  0.47775000  0.39992000  1.0
  C  C121  1  0.47419000  0.03835000  0.09788000  1.0
  C  C122  1  0.56721000  0.88261000  0.81486000  1.0
  C  C123  1  0.46698000  0.49511000  0.40734000  1.0
  C  C124  1  0.04924000  0.47695000  0.10044000  1.0
  C  C125  1  0.48467000  0.03299000  0.40416000  1.0
  C  C126  1  0.89882000  0.28174000  0.44435000  1.0
  C  C127  1  0.17840000  0.71155000  0.02891000  1.0
  C  C128  1  0.81035000  0.90683000  0.45085000  1.0
  C  C129  1  0.11426000  0.18176000  0.03997000  1.0
  C  C130  1  0.27797000  0.82180000  0.45561000  1.0
  C  C131  1  0.70078000  0.10852000  0.03661000  1.0
  C  C132  1  0.21180000  0.54750000  0.93796000  1.0
  C  C133  1  0.55072000  0.57624000  0.68634000  1.0
  C  C134  1  0.74597000  0.45037000  0.52967000  1.0
  C  C135  1  0.54135000  0.23664000  0.94415000  1.0
  C  C136  1  0.45244000  0.79907000  0.53909000  1.0
  C  C137  1  0.23890000  0.21470000  0.94582000  1.0
  C  C138  1  0.79487000  0.75248000  0.53644000  1.0
  C  C139  1  0.88754000  0.54439000  0.81710000  1.0
  I  I140  1  0.16207000  0.57105000  0.57278000  1.0
  I  I141  1  0.56856000  0.24143000  0.44979000  1.0
  I  I142  1  0.86409000  0.74443000  0.07634000  1.0
  I  I143  1  0.22890000  0.17722000  0.44711000  1.0
  I  I144  1  0.77052000  0.40456000  0.94414000  1.0
  I  I145  1  0.25546000  0.17579000  0.57548000  1.0
  I  I146  1  0.81211000  0.76494000  0.94905000  1.0
  I  I147  1  0.55923000  0.26426000  0.57862000  1.0
  I  I148  1  0.40364000  0.81846000  0.94519000  1.0
  I  I149  1  0.73911000  0.39259000  0.07177000  1.0
  I  I150  1  0.16611000  0.60036000  0.44455000  1.0
  I  I151  1  0.38925000  0.85457000  0.07337000  1.0
  N  N152  1  0.89674000  0.39353000  0.43836000  1.0
  N  N153  1  0.39680000  0.72917000  0.55049000  1.0
  N  N154  1  0.11163000  0.29487000  0.94499000  1.0
  N  N155  1  0.72216000  0.87749000  0.54696000  1.0
  N  N156  1  0.26910000  0.58930000  0.03788000  1.0
  N  N157  1  0.70413000  0.89756000  0.44443000  1.0
  N  N158  1  0.14304000  0.27549000  0.04664000  1.0
  N  N159  1  0.38931000  0.71261000  0.44819000  1.0
  N  N160  1  0.57851000  0.13633000  0.04410000  1.0
  N  N161  1  0.29655000  0.58945000  0.93611000  1.0
  N  N162  1  0.87173000  0.39317000  0.54050000  1.0
  N  N163  1  0.58648000  0.11008000  0.94214000  1.0
  O  O164  1  0.51016000  0.34844000  0.30621000  1.0
  O  O165  1  0.88136000  0.62135000  0.70140000  1.0
  O  O166  1  0.49189000  0.85432000  0.79922000  1.0
  O  O167  1  0.64467000  0.49828000  0.70637000  1.0
  O  O168  1  0.52131000  0.13492000  0.29767000  1.0
  O  O169  1  0.17155000  0.32226000  0.20130000  1.0
  O  O170  1  0.34575000  0.52685000  0.29586000  1.0
  O  O171  1  0.51581000  0.15866000  0.19680000  1.0
  O  O172  1  0.14976000  0.34115000  0.29360000  1.0
  O  O173  1  0.32811000  0.52693000  0.20189000  1.0
  O  O174  1  0.66281000  0.86074000  0.79530000  1.0
  O  O175  1  0.36106000  0.12803000  0.20964000  1.0
  O  O176  1  0.48800000  0.68332000  0.70013000  1.0
  O  O177  1  0.86790000  0.47037000  0.79476000  1.0
  O  O178  1  0.68450000  0.83626000  0.69465000  1.0
  O  O179  1  0.49191000  0.66107000  0.79233000  1.0
  O  O180  1  0.85497000  0.46231000  0.70089000  1.0
  O  O181  1  0.35519000  0.32721000  0.25214000  1.0
  O  O182  1  0.68420000  0.66950000  0.74941000  1.0
  O  O183  1  0.16021000  0.50834000  0.30140000  1.0
  O  O184  1  0.51160000  0.36593000  0.20400000  1.0
  O  O185  1  0.34176000  0.14628000  0.30216000  1.0
  O  O186  1  0.14740000  0.50552000  0.20924000  1.0
  O  O187  1  0.86152000  0.64587000  0.80315000  1.0
  O  O188  1  0.49691000  0.87286000  0.70698000  1.0
  O  O189  1  0.66492000  0.48882000  0.79829000  1.0
  O  O190  1  0.67658000  0.17456000  0.25287000  1.0
  O  O191  1  0.86557000  0.80914000  0.74623000  1.0
