# generated using pymatgen
data_GdH12C15(NO2)6
_symmetry_space_group_name_H-M   'P 1'
_cell_length_a   7.96403000
_cell_length_b   11.35030000
_cell_length_c   12.99930000
_cell_angle_alpha   83.58410000
_cell_angle_beta   81.01400000
_cell_angle_gamma   77.55350000
_symmetry_Int_Tables_number   1
_chemical_formula_structural   GdH12C15(NO2)6
_chemical_formula_sum   'Gd2 H24 C30 N12 O24'
_cell_volume   1129.64082494
_cell_formula_units_Z   2
loop_
 _symmetry_equiv_pos_site_id
 _symmetry_equiv_pos_as_xyz
  1  'x, y, z'
loop_
 _atom_site_type_symbol
 _atom_site_label
 _atom_site_symmetry_multiplicity
 _atom_site_fract_x
 _atom_site_fract_y
 _atom_site_fract_z
 _atom_site_occupancy
  Gd  Gd0  1  0.76930000  0.83344000  0.72259000  1.0
  Gd  Gd1  1  0.23071000  0.16656000  0.27741000  1.0
  H  H2  1  0.06329000  0.72857000  0.42656000  1.0
  H  H3  1  0.93672000  0.27143000  0.57345000  1.0
  H  H4  1  0.30436000  0.56165000  0.37265000  1.0
  H  H5  1  0.69564000  0.43834000  0.62736000  1.0
  H  H6  1  0.49873000  0.57680000  0.66429000  1.0
  H  H7  1  0.50127000  0.42320000  0.33571000  1.0
  H  H8  1  0.24567000  0.74100000  0.70664000  1.0
  H  H9  1  0.75435000  0.25900000  0.29336000  1.0
  H  H10  1  0.05103000  0.69497000  0.94691000  1.0
  H  H11  1  0.94897000  0.30503000  0.05309000  1.0
  H  H12  1  0.99086000  0.67565000  0.14392000  1.0
  H  H13  1  0.00914000  0.32435000  0.85608000  1.0
  H  H14  1  0.71397000  0.04751000  0.12651000  1.0
  H  H15  1  0.28603000  0.95249000  0.87348000  1.0
  H  H16  1  0.77830000  0.04953000  0.93088000  1.0
  H  H17  1  0.22170000  0.95047000  0.06911000  1.0
  H  H18  1  0.74219000  0.03727000  0.47041000  1.0
  H  H19  1  0.25783000  0.96273000  0.52958000  1.0
  H  H20  1  0.84640000  0.03845000  0.27648000  1.0
  H  H21  1  0.15362000  0.96154000  0.72351000  1.0
  H  H22  1  0.75297000  0.67565000  0.29022000  1.0
  H  H23  1  0.24702000  0.32435000  0.70978000  1.0
  H  H24  1  0.65290000  0.69090000  0.48310000  1.0
  H  H25  1  0.34710000  0.30911000  0.51691000  1.0
  C  C26  1  0.16201000  0.68813000  0.47593000  1.0
  C  C27  1  0.83800000  0.31186000  0.52407000  1.0
  C  C28  1  0.29973000  0.59572000  0.44800000  1.0
  C  C29  1  0.70028000  0.40427000  0.55201000  1.0
  C  C30  1  0.42575000  0.54900000  0.51462000  1.0
  C  C31  1  0.57425000  0.45099000  0.48538000  1.0
  C  C32  1  0.40453000  0.60302000  0.60948000  1.0
  C  C33  1  0.59548000  0.39697000  0.39052000  1.0
  C  C34  1  0.26562000  0.69558000  0.63518000  1.0
  C  C35  1  0.73440000  0.30442000  0.36482000  1.0
  C  C36  1  0.97524000  0.76765000  0.99249000  1.0
  C  C37  1  0.02476000  0.23234000  0.00751000  1.0
  C  C38  1  0.93993000  0.76009000  0.10028000  1.0
  C  C39  1  0.06007000  0.23991000  0.89972000  1.0
  C  C40  1  0.84494000  0.86089000  0.15189000  1.0
  C  C41  1  0.15506000  0.13911000  0.84811000  1.0
  C  C42  1  0.78758000  0.96714000  0.09013000  1.0
  C  C43  1  0.21243000  0.03285000  0.90987000  1.0
  C  C44  1  0.82176000  0.97079000  0.98281000  1.0
  C  C45  1  0.17824000  0.02921000  0.01719000  1.0
  C  C46  1  0.74485000  0.96262000  0.42437000  1.0
  C  C47  1  0.25515000  0.03739000  0.57562000  1.0
  C  C48  1  0.80026000  0.96059000  0.31851000  1.0
  C  C49  1  0.19972000  0.03942000  0.68148000  1.0
  C  C50  1  0.80127000  0.85886000  0.26589000  1.0
  C  C51  1  0.19871000  0.14115000  0.73411000  1.0
  C  C52  1  0.75180000  0.75807000  0.32594000  1.0
  C  C53  1  0.24818000  0.24193000  0.67407000  1.0
  C  C54  1  0.69578000  0.76366000  0.43150000  1.0
  C  C55  1  0.30421000  0.23634000  0.56850000  1.0
  N  N56  1  0.14453000  0.73614000  0.56921000  1.0
  N  N57  1  0.85549000  0.26386000  0.43078000  1.0
  N  N58  1  0.91531000  0.87172000  0.93532000  1.0
  N  N59  1  0.08469000  0.12828000  0.06468000  1.0
  N  N60  1  0.68760000  0.86630000  0.47880000  1.0
  N  N61  1  0.31240000  0.13371000  0.52120000  1.0
  N  N62  1  0.90026000  0.57009000  0.71919000  1.0
  N  N63  1  0.09973000  0.42991000  0.28081000  1.0
  N  N64  1  0.49965000  0.75651000  0.87795000  1.0
  N  N65  1  0.50035000  0.24349000  0.12205000  1.0
  N  N66  1  0.67289000  0.09430000  0.73149000  1.0
  N  N67  1  0.32711000  0.90570000  0.26851000  1.0
  O  O68  1  0.01165000  0.82473000  0.59430000  1.0
  O  O69  1  0.98836000  0.17527000  0.40570000  1.0
  O  O70  1  0.95090000  0.87779000  0.83197000  1.0
  O  O71  1  0.04911000  0.12221000  0.16803000  1.0
  O  O72  1  0.62031000  0.87182000  0.57814000  1.0
  O  O73  1  0.37969000  0.12819000  0.42186000  1.0
  O  O74  1  0.77841000  0.62954000  0.66734000  1.0
  O  O75  1  0.22156000  0.37046000  0.33267000  1.0
  O  O76  1  0.96718000  0.63267000  0.77138000  1.0
  O  O77  1  0.03282000  0.36733000  0.22861000  1.0
  O  O78  1  0.94836000  0.45899000  0.71724000  1.0
  O  O79  1  0.05163000  0.54101000  0.28275000  1.0
  O  O80  1  0.47190000  0.79181000  0.78284000  1.0
  O  O81  1  0.52810000  0.20821000  0.21716000  1.0
  O  O82  1  0.65418000  0.75385000  0.89710000  1.0
  O  O83  1  0.34581000  0.24615000  0.10291000  1.0
  O  O84  1  0.38490000  0.72903000  0.94561000  1.0
  O  O85  1  0.61510000  0.27096000  0.05439000  1.0
  O  O86  1  0.79284000  0.04750000  0.66075000  1.0
  O  O87  1  0.20717000  0.95250000  0.33925000  1.0
  O  O88  1  0.59307000  0.01896000  0.79161000  1.0
  O  O89  1  0.40694000  0.98103000  0.20838000  1.0
  O  O90  1  0.63630000  0.20373000  0.74247000  1.0
  O  O91  1  0.36369000  0.79626000  0.25753000  1.0
