# generated using pymatgen
data_UH5C10N2Cl2O7
_symmetry_space_group_name_H-M   'P 1'
_cell_length_a   8.08016000
_cell_length_b   8.56099000
_cell_length_c   12.17130000
_cell_angle_alpha   70.68530000
_cell_angle_beta   72.23000000
_cell_angle_gamma   76.12340000
_symmetry_Int_Tables_number   1
_chemical_formula_structural   UH5C10N2Cl2O7
_chemical_formula_sum   'U2 H10 C20 N4 Cl4 O14'
_cell_volume   747.55314396
_cell_formula_units_Z   2
loop_
 _symmetry_equiv_pos_site_id
 _symmetry_equiv_pos_as_xyz
  1  'x, y, z'
loop_
 _atom_site_type_symbol
 _atom_site_label
 _atom_site_symmetry_multiplicity
 _atom_site_fract_x
 _atom_site_fract_y
 _atom_site_fract_z
 _atom_site_occupancy
  U  U0  1  0.35624000  0.33186000  0.24249000  1.0
  U  U1  1  0.64375000  0.66813000  0.75752000  1.0
  H  H2  1  0.69666000  0.09448000  0.22754000  1.0
  H  H3  1  0.30335000  0.90551000  0.77245000  1.0
  H  H4  1  0.67140000  0.12147000  0.10139000  1.0
  H  H5  1  0.32860000  0.87852000  0.89861000  1.0
  H  H6  1  0.99895000  0.01925000  0.31368000  1.0
  H  H7  1  0.00106000  0.98075000  0.68631000  1.0
  H  H8  1  0.31494000  0.87934000  0.27723000  1.0
  H  H9  1  0.68507000  0.12065000  0.72276000  1.0
  H  H10  1  0.44804000  0.80605000  0.07838000  1.0
  H  H11  1  0.55198000  0.19394000  0.92161000  1.0
  C  C12  1  0.15562000  0.39115000  0.02967000  1.0
  C  C13  1  0.84439000  0.60886000  0.97035000  1.0
  C  C14  1  0.96822000  0.50173000  0.89094000  1.0
  C  C15  1  0.03179000  0.49828000  0.10907000  1.0
  C  C16  1  0.12275000  0.40206000  0.92043000  1.0
  C  C17  1  0.87725000  0.59796000  0.07957000  1.0
  C  C18  1  0.37048000  0.50695000  0.44012000  1.0
  C  C19  1  0.62950000  0.49306000  0.55987000  1.0
  C  C20  1  0.45641000  0.61335000  0.57176000  1.0
  C  C21  1  0.54357000  0.38666000  0.42823000  1.0
  C  C22  1  0.33191000  0.61638000  0.51177000  1.0
  C  C23  1  0.66808000  0.38364000  0.48823000  1.0
  C  C24  1  0.05096000  0.97911000  0.04666000  1.0
  C  C25  1  0.94905000  0.02089000  0.95334000  1.0
  C  C26  1  0.06491000  0.98350000  0.23085000  1.0
  C  C27  1  0.93511000  0.01650000  0.76914000  1.0
  C  C28  1  0.23944000  0.90546000  0.21130000  1.0
  C  C29  1  0.76057000  0.09454000  0.78869000  1.0
  C  C30  1  0.31246000  0.86684000  0.10264000  1.0
  C  C31  1  0.68754000  0.13316000  0.89735000  1.0
  N  N32  1  0.97046000  0.02082000  0.14951000  1.0
  N  N33  1  0.02955000  0.97918000  0.85049000  1.0
  N  N34  1  0.21833000  0.90296000  0.02124000  1.0
  N  N35  1  0.78168000  0.09703000  0.97875000  1.0
  Cl  Cl36  1  0.26130000  0.28874000  0.82572000  1.0
  Cl  Cl37  1  0.73870000  0.71125000  0.17430000  1.0
  Cl  Cl38  1  0.13420000  0.74623000  0.52974000  1.0
  Cl  Cl39  1  0.86578000  0.25378000  0.47025000  1.0
  O  O40  1  0.46756000  0.49897000  0.13384000  1.0
  O  O41  1  0.53245000  0.50102000  0.86617000  1.0
  O  O42  1  0.24629000  0.16367000  0.35219000  1.0
  O  O43  1  0.75370000  0.83633000  0.64782000  1.0
  O  O44  1  0.28177000  0.29668000  0.07283000  1.0
  O  O45  1  0.71822000  0.70332000  0.92718000  1.0
  O  O46  1  0.91838000  0.51158000  0.79920000  1.0
  O  O47  1  0.08162000  0.48842000  0.20080000  1.0
  O  O48  1  0.27026000  0.49756000  0.38041000  1.0
  O  O49  1  0.72972000  0.50245000  0.61960000  1.0
  O  O50  1  0.43804000  0.70573000  0.63918000  1.0
  O  O51  1  0.56194000  0.29428000  0.36083000  1.0
  O  O52  1  0.59930000  0.12463000  0.18849000  1.0
  O  O53  1  0.40071000  0.87537000  0.81150000  1.0
