# generated using pymatgen
data_CuH18Au2(C2N)6
_symmetry_space_group_name_H-M   'P 1'
_cell_length_a   8.49713000
_cell_length_b   9.44851000
_cell_length_c   10.81740000
_cell_angle_alpha   90.00040000
_cell_angle_beta   90.00020000
_cell_angle_gamma   78.16200000
_symmetry_Int_Tables_number   1
_chemical_formula_structural   CuH18Au2(C2N)6
_chemical_formula_sum   'Cu2 H36 Au4 C24 N12'
_cell_volume   850.00614542
_cell_formula_units_Z   2
loop_
 _symmetry_equiv_pos_site_id
 _symmetry_equiv_pos_as_xyz
  1  'x, y, z'
loop_
 _atom_site_type_symbol
 _atom_site_label
 _atom_site_symmetry_multiplicity
 _atom_site_fract_x
 _atom_site_fract_y
 _atom_site_fract_z
 _atom_site_occupancy
  Cu  Cu0  1  0.43539000  0.15594000  0.22768000  1.0
  Cu  Cu1  1  0.56461000  0.84407000  0.72768000  1.0
  H  H2  1  0.65393000  0.12990000  0.07180000  1.0
  H  H3  1  0.34606000  0.87011000  0.57180000  1.0
  H  H4  1  0.57134000  0.43927000  0.12696000  1.0
  H  H5  1  0.42866000  0.56073000  0.62696000  1.0
  H  H6  1  0.44852000  0.40176000  0.30506000  1.0
  H  H7  1  0.55148000  0.59824000  0.80505000  1.0
  H  H8  1  0.78477000  0.36549000  0.96874000  1.0
  H  H9  1  0.21522000  0.63450000  0.46874000  1.0
  H  H10  1  0.88930000  0.23080000  0.06881000  1.0
  H  H11  1  0.11070000  0.76919000  0.56881000  1.0
  H  H12  1  0.83182000  0.55905000  0.11147000  1.0
  H  H13  1  0.16819000  0.44095000  0.61147000  1.0
  H  H14  1  0.01635000  0.44234000  0.07573000  1.0
  H  H15  1  0.98365000  0.55765000  0.57573000  1.0
  H  H16  1  0.99107000  0.49800000  0.30341000  1.0
  H  H17  1  0.00894000  0.50199000  0.80341000  1.0
  H  H18  1  0.01095000  0.31162000  0.27426000  1.0
  H  H19  1  0.98906000  0.68838000  0.77426000  1.0
  H  H20  1  0.69334000  0.52772000  0.32042000  1.0
  H  H21  1  0.30667000  0.47228000  0.82041000  1.0
  H  H22  1  0.79406000  0.39891000  0.42880000  1.0
  H  H23  1  0.20596000  0.60109000  0.92880000  1.0
  H  H24  1  0.76119000  0.19905000  0.28852000  1.0
  H  H25  1  0.23881000  0.80095000  0.78852000  1.0
  H  H26  1  0.43961000  0.17667000  0.93279000  1.0
  H  H27  1  0.56037000  0.82334000  0.43279000  1.0
  H  H28  1  0.55760000  0.30852000  0.90313000  1.0
  H  H29  1  0.44238000  0.69150000  0.40312000  1.0
  H  H30  1  0.37822000  0.35432000  0.99439000  1.0
  H  H31  1  0.62178000  0.64569000  0.49438000  1.0
  H  H32  1  0.40224000  0.28621000  0.49437000  1.0
  H  H33  1  0.59777000  0.71379000  0.99436000  1.0
  H  H34  1  0.57226000  0.36841000  0.51314000  1.0
  H  H35  1  0.42776000  0.63159000  0.01314000  1.0
  H  H36  1  0.59968000  0.17898000  0.48716000  1.0
  H  H37  1  0.40033000  0.82102000  0.98716000  1.0
  Au  Au38  1  0.98527000  0.79625000  0.23358000  1.0
  Au  Au39  1  0.01474000  0.20375000  0.73357000  1.0
  Au  Au40  1  0.00745000  0.97226000  0.98666000  1.0
  Au  Au41  1  0.99256000  0.02774000  0.48666000  1.0
  C  C42  1  0.76273000  0.90818000  0.24512000  1.0
  C  C43  1  0.23729000  0.09181000  0.74511000  1.0
  C  C44  1  0.19846000  0.66449000  0.22756000  1.0
  C  C45  1  0.80153000  0.33552000  0.72757000  1.0
  C  C46  1  0.18965000  0.04048000  0.06249000  1.0
  C  C47  1  0.81035000  0.95952000  0.56249000  1.0
  C  C48  1  0.17733000  0.08845000  0.40877000  1.0
  C  C49  1  0.82267000  0.91155000  0.90876000  1.0
  C  C50  1  0.65637000  0.33482000  0.13632000  1.0
  C  C51  1  0.34362000  0.66518000  0.63632000  1.0
  C  C52  1  0.81132000  0.33984000  0.06643000  1.0
  C  C53  1  0.18868000  0.66015000  0.56643000  1.0
  C  C54  1  0.90145000  0.44783000  0.12423000  1.0
  C  C55  1  0.09855000  0.55216000  0.62423000  1.0
  C  C56  1  0.93006000  0.41769000  0.26192000  1.0
  C  C57  1  0.06994000  0.58231000  0.76192000  1.0
  C  C58  1  0.77166000  0.41992000  0.32973000  1.0
  C  C59  1  0.22835000  0.58008000  0.82973000  1.0
  C  C60  1  0.68551000  0.30758000  0.27435000  1.0
  C  C61  1  0.31448000  0.69243000  0.77435000  1.0
  C  C62  1  0.48215000  0.26854000  0.97207000  1.0
  C  C63  1  0.51784000  0.73147000  0.47207000  1.0
  C  C64  1  0.52532000  0.28447000  0.46363000  1.0
  C  C65  1  0.47469000  0.71553000  0.96362000  1.0
  N  N66  1  0.62959000  0.97273000  0.25239000  1.0
  N  N67  1  0.37040000  0.02728000  0.75238000  1.0
  N  N68  1  0.31823000  0.57669000  0.22837000  1.0
  N  N69  1  0.68177000  0.42329000  0.72838000  1.0
  N  N70  1  0.29316000  0.08486000  0.11008000  1.0
  N  N71  1  0.70684000  0.91514000  0.61008000  1.0
  N  N72  1  0.28671000  0.12186000  0.35952000  1.0
  N  N73  1  0.71329000  0.87814000  0.85952000  1.0
  N  N74  1  0.57154000  0.22410000  0.08687000  1.0
  N  N75  1  0.42845000  0.77591000  0.58686000  1.0
  N  N76  1  0.52576000  0.30574000  0.32900000  1.0
  N  N77  1  0.47424000  0.69426000  0.82900000  1.0
