# generated using pymatgen
data_Tb2Cu3H30C24(NO4)6
_symmetry_space_group_name_H-M   'P 1'
_cell_length_a   13.38950000
_cell_length_b   13.38950000
_cell_length_c   14.39960000
_cell_angle_alpha   89.99980000
_cell_angle_beta   89.99990000
_cell_angle_gamma   60.00000000
_symmetry_Int_Tables_number   1
_chemical_formula_structural   Tb2Cu3H30C24(NO4)6
_chemical_formula_sum   'Tb4 Cu6 H60 C48 N12 O48'
_cell_volume   2235.68070707
_cell_formula_units_Z   2
loop_
 _symmetry_equiv_pos_site_id
 _symmetry_equiv_pos_as_xyz
  1  'x, y, z'
loop_
 _atom_site_type_symbol
 _atom_site_label
 _atom_site_symmetry_multiplicity
 _atom_site_fract_x
 _atom_site_fract_y
 _atom_site_fract_z
 _atom_site_occupancy
  Tb  Tb0  1  0.66666667  0.66666667  0.83153000  1.0
  Tb  Tb1  1  0.33333333  0.33333333  0.66847000  1.0
  Tb  Tb2  1  0.33333333  0.33333333  0.16847000  1.0
  Tb  Tb3  1  0.66666667  0.66666667  0.33153000  1.0
  Cu  Cu4  1  0.50000000  0.50000000  0.00000000  1.0
  Cu  Cu5  1  0.50000000  1.00000000  1.00000000  1.0
  Cu  Cu6  1  0.00000000  0.50000000  0.00000000  1.0
  Cu  Cu7  1  0.00000000  0.50000000  0.50000000  1.0
  Cu  Cu8  1  0.50000000  1.00000000  0.50000000  1.0
  Cu  Cu9  1  0.50000000  0.50000000  0.50000000  1.0
  H  H10  1  0.32318000  0.63981000  0.08308000  1.0
  H  H11  1  0.63982000  0.03700000  0.08308000  1.0
  H  H12  1  0.03701000  0.32317000  0.08308000  1.0
  H  H13  1  0.96299000  0.36019000  0.41692000  1.0
  H  H14  1  0.67682000  0.96300000  0.41692000  1.0
  H  H15  1  0.36019000  0.67682000  0.41692000  1.0
  H  H16  1  0.67682000  0.36019000  0.91692000  1.0
  H  H17  1  0.36018000  0.96300000  0.91692000  1.0
  H  H18  1  0.96299000  0.67683000  0.91692000  1.0
  H  H19  1  0.03701000  0.63981000  0.58308000  1.0
  H  H20  1  0.32318000  0.03700000  0.58308000  1.0
  H  H21  1  0.63982000  0.32317000  0.58308000  1.0
  H  H22  1  0.39564000  0.68784000  0.20537000  1.0
  H  H23  1  0.68784000  0.91652000  0.20537000  1.0
  H  H24  1  0.91652000  0.39564000  0.20537000  1.0
  H  H25  1  0.08348000  0.31216000  0.29463000  1.0
  H  H26  1  0.60436000  0.08348000  0.29463000  1.0
  H  H27  1  0.31216000  0.60436000  0.29463000  1.0
  H  H28  1  0.60436000  0.31216000  0.79463000  1.0
  H  H29  1  0.31216000  0.08348000  0.79463000  1.0
  H  H30  1  0.08348000  0.60436000  0.79463000  1.0
  H  H31  1  0.91652000  0.68784000  0.70537000  1.0
  H  H32  1  0.39564000  0.91652000  0.70537000  1.0
  H  H33  1  0.68784000  0.39564000  0.70537000  1.0
  H  H34  1  0.46213000  0.74143000  0.13198000  1.0
  H  H35  1  0.74144000  0.79643000  0.13198000  1.0
  H  H36  1  0.79644000  0.46212000  0.13198000  1.0
  H  H37  1  0.20356000  0.25857000  0.36802000  1.0
  H  H38  1  0.53787000  0.20357000  0.36802000  1.0
  H  H39  1  0.25856000  0.53788000  0.36802000  1.0
  H  H40  1  0.53787000  0.25857000  0.86802000  1.0
  H  H41  1  0.25856000  0.20357000  0.86802000  1.0
  H  H42  1  0.20356000  0.53788000  0.86802000  1.0
  H  H43  1  0.79644000  0.74143000  0.63198000  1.0
  H  H44  1  0.46213000  0.79643000  0.63198000  1.0
  H  H45  1  0.74144000  0.46212000  0.63198000  1.0
  H  H46  1  0.30507000  0.83184000  0.02597000  1.0
  H  H47  1  0.83184000  0.86309000  0.02597000  1.0
  H  H48  1  0.86309000  0.30507000  0.02597000  1.0
  H  H49  1  0.13691000  0.16816000  0.47403000  1.0
  H  H50  1  0.69493000  0.13691000  0.47403000  1.0
  H  H51  1  0.16816000  0.69493000  0.47403000  1.0
  H  H52  1  0.69493000  0.16816000  0.97403000  1.0
  H  H53  1  0.16816000  0.13691000  0.97403000  1.0
  H  H54  1  0.13691000  0.69493000  0.97403000  1.0
  H  H55  1  0.86309000  0.83184000  0.52597000  1.0
  H  H56  1  0.30507000  0.86309000  0.52597000  1.0
  H  H57  1  0.83184000  0.30507000  0.52597000  1.0
  H  H58  1  0.28695000  0.74069000  0.94584000  1.0
  H  H59  1  0.74069000  0.97236000  0.94584000  1.0
  H  H60  1  0.97236000  0.28695000  0.94584000  1.0
  H  H61  1  0.02764000  0.25931000  0.55416000  1.0
  H  H62  1  0.71305000  0.02764000  0.55415000  1.0
  H  H63  1  0.25931000  0.71305000  0.55416000  1.0
  H  H64  1  0.71305000  0.25931000  0.05416000  1.0
  H  H65  1  0.25931000  0.02764000  0.05416000  1.0
  H  H66  1  0.02764000  0.71305000  0.05416000  1.0
  H  H67  1  0.97236000  0.74069000  0.44584000  1.0
  H  H68  1  0.28695000  0.97236000  0.44584000  1.0
  H  H69  1  0.74069000  0.28695000  0.44584000  1.0
  C  C70  1  0.56560000  0.56223000  0.16074000  1.0
  C  C71  1  0.56223000  0.87217000  0.16074000  1.0
  C  C72  1  0.87217000  0.56560000  0.16074000  1.0
  C  C73  1  0.12783000  0.43777000  0.33926000  1.0
  C  C74  1  0.43440000  0.12783000  0.33926000  1.0
  C  C75  1  0.43777000  0.43440000  0.33926000  1.0
  C  C76  1  0.43440000  0.43777000  0.83926000  1.0
  C  C77  1  0.43777000  0.12783000  0.83926000  1.0
  C  C78  1  0.12783000  0.43440000  0.83926000  1.0
  C  C79  1  0.87217000  0.56223000  0.66074000  1.0
  C  C80  1  0.56560000  0.87217000  0.66074000  1.0
  C  C81  1  0.56223000  0.56560000  0.66074000  1.0
  C  C82  1  0.44836000  0.66781000  0.14213000  1.0
  C  C83  1  0.66781000  0.88383000  0.14213000  1.0
  C  C84  1  0.88383000  0.44836000  0.14213000  1.0
  C  C85  1  0.11617000  0.33219000  0.35787000  1.0
  C  C86  1  0.55164000  0.11617000  0.35787000  1.0
  C  C87  1  0.33219000  0.55164000  0.35787000  1.0
  C  C88  1  0.55164000  0.33219000  0.85787000  1.0
  C  C89  1  0.33219000  0.11617000  0.85787000  1.0
  C  C90  1  0.11617000  0.55164000  0.85787000  1.0
  C  C91  1  0.88383000  0.66781000  0.64213000  1.0
  C  C92  1  0.44836000  0.88382000  0.64213000  1.0
  C  C93  1  0.66781000  0.44836000  0.64213000  1.0
  C  C94  1  0.44607000  0.73791000  0.93115000  1.0
  C  C95  1  0.73791000  0.81602000  0.93115000  1.0
  C  C96  1  0.81602000  0.44607000  0.93115000  1.0
  C  C97  1  0.18398000  0.26209000  0.56884000  1.0
  C  C98  1  0.55393000  0.18398000  0.56884000  1.0
  C  C99  1  0.26209000  0.55393000  0.56884000  1.0
  C  C100  1  0.55393000  0.26209000  0.06885000  1.0
  C  C101  1  0.26209000  0.18398000  0.06885000  1.0
  C  C102  1  0.18398000  0.55393000  0.06885000  1.0
  C  C103  1  0.81602000  0.73791000  0.43115000  1.0
  C  C104  1  0.44607000  0.81602000  0.43116000  1.0
  C  C105  1  0.73791000  0.44607000  0.43116000  1.0
  C  C106  1  0.34892000  0.74627000  0.99254000  1.0
  C  C107  1  0.74627000  0.90481000  0.99254000  1.0
  C  C108  1  0.90481000  0.34893000  0.99254000  1.0
  C  C109  1  0.09519000  0.25373000  0.50746000  1.0
  C  C110  1  0.65108000  0.09518000  0.50746000  1.0
  C  C111  1  0.25373000  0.65108000  0.50746000  1.0
  C  C112  1  0.65108000  0.25373000  0.00746000  1.0
  C  C113  1  0.25373000  0.09519000  0.00746000  1.0
  C  C114  1  0.09519000  0.65107000  0.00746000  1.0
  C  C115  1  0.90481000  0.74627000  0.49254000  1.0
  C  C116  1  0.34892000  0.90482000  0.49254000  1.0
  C  C117  1  0.74627000  0.34892000  0.49254000  1.0
  N  N118  1  0.38974000  0.65271000  0.06101000  1.0
  N  N119  1  0.65272000  0.95755000  0.06101000  1.0
  N  N120  1  0.95755000  0.38973000  0.06101000  1.0
  N  N121  1  0.04245000  0.34728000  0.43899000  1.0
  N  N122  1  0.61027000  0.04245000  0.43899000  1.0
  N  N123  1  0.34728000  0.61027000  0.43899000  1.0
  N  N124  1  0.61026000  0.34729000  0.93899000  1.0
  N  N125  1  0.34728000  0.04246000  0.93899000  1.0
  N  N126  1  0.04245000  0.61027000  0.93899000  1.0
  N  N127  1  0.95755000  0.65272000  0.56101000  1.0
  N  N128  1  0.38973000  0.95755000  0.56101000  1.0
  N  N129  1  0.65272000  0.38973000  0.56101000  1.0
  O  O130  1  0.54485000  0.64630000  0.93798000  1.0
  O  O131  1  0.64629000  0.80886000  0.93798000  1.0
  O  O132  1  0.80885000  0.54486000  0.93798000  1.0
  O  O133  1  0.19115000  0.35370000  0.56202000  1.0
  O  O134  1  0.45514000  0.19115000  0.56202000  1.0
  O  O135  1  0.35371000  0.45514000  0.56202000  1.0
  O  O136  1  0.45515000  0.35370000  0.06202000  1.0
  O  O137  1  0.35371000  0.19114000  0.06202000  1.0
  O  O138  1  0.19115000  0.45514000  0.06202000  1.0
  O  O139  1  0.80885000  0.64630000  0.43798000  1.0
  O  O140  1  0.54486000  0.80885000  0.43798000  1.0
  O  O141  1  0.64629000  0.54485000  0.43798000  1.0
  O  O142  1  0.60307000  0.47628000  0.10549000  1.0
  O  O143  1  0.47627000  0.92066000  0.10549000  1.0
  O  O144  1  0.92065000  0.60308000  0.10549000  1.0
  O  O145  1  0.07934000  0.52373000  0.39451000  1.0
  O  O146  1  0.39693000  0.07934000  0.39452000  1.0
  O  O147  1  0.52373000  0.39693000  0.39451000  1.0
  O  O148  1  0.39693000  0.52372000  0.89451000  1.0
  O  O149  1  0.52373000  0.07934000  0.89451000  1.0
  O  O150  1  0.07935000  0.39692000  0.89451000  1.0
  O  O151  1  0.92066000  0.47627000  0.60548000  1.0
  O  O152  1  0.60307000  0.92066000  0.60549000  1.0
  O  O153  1  0.47627000  0.60307000  0.60549000  1.0
  O  O154  1  0.42546000  0.81896000  0.87571000  1.0
  O  O155  1  0.81896000  0.75558000  0.87571000  1.0
  O  O156  1  0.75558000  0.42546000  0.87571000  1.0
  O  O157  1  0.24442000  0.18103000  0.62429000  1.0
  O  O158  1  0.57455000  0.24441000  0.62429000  1.0
  O  O159  1  0.18104000  0.57454000  0.62429000  1.0
  O  O160  1  0.57454000  0.18104000  0.12429000  1.0
  O  O161  1  0.18104000  0.24442000  0.12429000  1.0
  O  O162  1  0.24442000  0.57454000  0.12429000  1.0
  O  O163  1  0.75558000  0.81897000  0.37571000  1.0
  O  O164  1  0.42545000  0.75559000  0.37571000  1.0
  O  O165  1  0.81896000  0.42546000  0.37571000  1.0
  O  O166  1  0.62295000  0.56353000  0.22982000  1.0
  O  O167  1  0.56353000  0.81352000  0.22982000  1.0
  O  O168  1  0.81352000  0.62295000  0.22982000  1.0
  O  O169  1  0.18648000  0.43647000  0.27018000  1.0
  O  O170  1  0.37705000  0.18648000  0.27018000  1.0
  O  O171  1  0.43647000  0.37705000  0.27018000  1.0
  O  O172  1  0.37705000  0.43647000  0.77018000  1.0
  O  O173  1  0.43647000  0.18648000  0.77018000  1.0
  O  O174  1  0.18648000  0.37705000  0.77018000  1.0
  O  O175  1  0.81352000  0.56353000  0.72982000  1.0
  O  O176  1  0.62295000  0.81352000  0.72982000  1.0
  O  O177  1  0.56353000  0.62295000  0.72982000  1.0
