# generated using pymatgen
data_CdH5C7SN6Cl
_symmetry_space_group_name_H-M   'P 1'
_cell_length_a   7.98911000
_cell_length_b   10.61350000
_cell_length_c   14.51640000
_cell_angle_alpha   84.05290000
_cell_angle_beta   74.04980000
_cell_angle_gamma   67.90970000
_symmetry_Int_Tables_number   1
_chemical_formula_structural   CdH5C7SN6Cl
_chemical_formula_sum   'Cd4 H20 C28 S4 N24 Cl4'
_cell_volume   1096.61535843
_cell_formula_units_Z   4
loop_
 _symmetry_equiv_pos_site_id
 _symmetry_equiv_pos_as_xyz
  1  'x, y, z'
loop_
 _atom_site_type_symbol
 _atom_site_label
 _atom_site_symmetry_multiplicity
 _atom_site_fract_x
 _atom_site_fract_y
 _atom_site_fract_z
 _atom_site_occupancy
  Cd  Cd0  1  0.33819000  0.12721000  0.55431000  1.0
  Cd  Cd1  1  0.02012000  0.87273000  0.44554000  1.0
  Cd  Cd2  1  0.64283000  0.62719000  0.94556000  1.0
  Cd  Cd3  1  0.21574000  0.37288000  0.05442000  1.0
  H  H4  1  0.64247000  0.49773000  0.60777000  1.0
  H  H5  1  0.74844000  0.50213000  0.39235000  1.0
  H  H6  1  0.00060000  0.99779000  0.89242000  1.0
  H  H7  1  0.89095000  0.00219000  0.10761000  1.0
  H  H8  1  0.05646000  0.54378000  0.80766000  1.0
  H  H9  1  0.40806000  0.45605000  0.19249000  1.0
  H  H10  1  0.61438000  0.04406000  0.69236000  1.0
  H  H11  1  0.35110000  0.95586000  0.30739000  1.0
  H  H12  1  0.65835000  0.37343000  0.82331000  1.0
  H  H13  1  0.85545000  0.62666000  0.17669000  1.0
  H  H14  1  0.23206000  0.87369000  0.67654000  1.0
  H  H15  1  0.78274000  0.12660000  0.32325000  1.0
  H  H16  1  0.89349000  0.19662000  0.69867000  1.0
  H  H17  1  0.78949000  0.80327000  0.30142000  1.0
  H  H18  1  0.34252000  0.69690000  0.80127000  1.0
  H  H19  1  0.84122000  0.30345000  0.19865000  1.0
  H  H20  1  0.74617000  0.25720000  0.53062000  1.0
  H  H21  1  0.53493000  0.74279000  0.46942000  1.0
  H  H22  1  0.02752000  0.75707000  0.96945000  1.0
  H  H23  1  0.75439000  0.24293000  0.03055000  1.0
  C  C24  1  0.01819000  0.46810000  0.78208000  1.0
  C  C25  1  0.26867000  0.53179000  0.21806000  1.0
  C  C26  1  0.55058000  0.96835000  0.71793000  1.0
  C  C27  1  0.23721000  0.03166000  0.28186000  1.0
  C  C28  1  0.79950000  0.37205000  0.79089000  1.0
  C  C29  1  0.96286000  0.62794000  0.20914000  1.0
  C  C30  1  0.34079000  0.87232000  0.70900000  1.0
  C  C31  1  0.92256000  0.12790000  0.29080000  1.0
  C  C32  1  0.92727000  0.27657000  0.72199000  1.0
  C  C33  1  0.92647000  0.72333000  0.27807000  1.0
  C  C34  1  0.39964000  0.77685000  0.77795000  1.0
  C  C35  1  0.95493000  0.22344000  0.22193000  1.0
  C  C36  1  0.14564000  0.37383000  0.71126000  1.0
  C  C37  1  0.23122000  0.62601000  0.28891000  1.0
  C  C38  1  0.60723000  0.87408000  0.78882000  1.0
  C  C39  1  0.27050000  0.12605000  0.21109000  1.0
  C  C40  1  0.33271000  0.37360000  0.66666667  1.0
  C  C41  1  0.37342000  0.62627000  0.33354000  1.0
  C  C42  1  0.74971000  0.87372000  0.83347000  1.0
  C  C43  1  0.45726000  0.12637000  0.16651000  1.0
  C  C44  1  0.61084000  0.31121000  0.57822000  1.0
  C  C45  1  0.50103000  0.68878000  0.42185000  1.0
  C  C46  1  0.93976000  0.81109000  0.92181000  1.0
  C  C47  1  0.67302000  0.18891000  0.07816000  1.0
  C  C48  1  0.10642000  0.34356000  0.40579000  1.0
  C  C49  1  0.85613000  0.65614000  0.59418000  1.0
  C  C50  1  0.26244000  0.84351000  0.09408000  1.0
  C  C51  1  0.19995000  0.15644000  0.90605000  1.0
  S  S52  1  0.32967000  0.28399000  0.40128000  1.0
  S  S53  1  0.01514000  0.71597000  0.59864000  1.0
  S  S54  1  0.48118000  0.78396000  0.09856000  1.0
  S  S55  1  0.36362000  0.21615000  0.90140000  1.0
  N  N56  1  0.09802000  0.27902000  0.68152000  1.0
  N  N57  1  0.05918000  0.72083000  0.31860000  1.0
  N  N58  1  0.52987000  0.77926000  0.81850000  1.0
  N  N59  1  0.12809000  0.22097000  0.18143000  1.0
  N  N60  1  0.84632000  0.46728000  0.82027000  1.0
  N  N61  1  0.13418000  0.53270000  0.17979000  1.0
  N  N62  1  0.41698000  0.96753000  0.67965000  1.0
  N  N63  1  0.06452000  0.03252000  0.32010000  1.0
  N  N64  1  0.46563000  0.27047000  0.60781000  1.0
  N  N65  1  0.34460000  0.72948000  0.39231000  1.0
  N  N66  1  0.82400000  0.77044000  0.89222000  1.0
  N  N67  1  0.48710000  0.22961000  0.10774000  1.0
  N  N68  1  0.56565000  0.43217000  0.61856000  1.0
  N  N69  1  0.61695000  0.56779000  0.38154000  1.0
  N  N70  1  0.93479000  0.93213000  0.88153000  1.0
  N  N71  1  0.74869000  0.06786000  0.11845000  1.0
  N  N72  1  0.38969000  0.47406000  0.67519000  1.0
  N  N73  1  0.53933000  0.52583000  0.32499000  1.0
  N  N74  1  0.81527000  0.97416000  0.82494000  1.0
  N  N75  1  0.61463000  0.02587000  0.17502000  1.0
  N  N76  1  0.94676000  0.38774000  0.40604000  1.0
  N  N77  1  0.74093000  0.61185000  0.59400000  1.0
  N  N78  1  0.10297000  0.88766000  0.09390000  1.0
  N  N79  1  0.08444000  0.11225000  0.90631000  1.0
  Cl  Cl80  1  0.07804000  0.03794000  0.54800000  1.0
  Cl  Cl81  1  0.66429000  0.96221000  0.45195000  1.0
  Cl  Cl82  1  0.37611000  0.53808000  0.95202000  1.0
  Cl  Cl83  1  0.86627000  0.46215000  0.04799000  1.0
