# generated using pymatgen
data_LiH11C6S(NO2)2
_symmetry_space_group_name_H-M   'P 1'
_cell_length_a   7.74372000
_cell_length_b   8.14854000
_cell_length_c   14.43170000
_cell_angle_alpha   94.79440000
_cell_angle_beta   89.99990000
_cell_angle_gamma   89.99990000
_symmetry_Int_Tables_number   1
_chemical_formula_structural   LiH11C6S(NO2)2
_chemical_formula_sum   'Li4 H44 C24 S4 N8 O16'
_cell_volume   907.45414477
_cell_formula_units_Z   4
loop_
 _symmetry_equiv_pos_site_id
 _symmetry_equiv_pos_as_xyz
  1  'x, y, z'
loop_
 _atom_site_type_symbol
 _atom_site_label
 _atom_site_symmetry_multiplicity
 _atom_site_fract_x
 _atom_site_fract_y
 _atom_site_fract_z
 _atom_site_occupancy
  Li  Li0  1  0.78421000  0.67281000  0.73916000  1.0
  Li  Li1  1  0.28421000  0.32719000  0.76084000  1.0
  Li  Li2  1  0.21579000  0.32719000  0.26084000  1.0
  Li  Li3  1  0.71579000  0.67281000  0.23916000  1.0
  H  H4  1  0.06410000  0.85227000  0.76546000  1.0
  H  H5  1  0.56410000  0.14773000  0.73454000  1.0
  H  H6  1  0.93591000  0.14773000  0.23454000  1.0
  H  H7  1  0.43590000  0.85227000  0.26546000  1.0
  H  H8  1  0.90574000  0.97068000  0.74815000  1.0
  H  H9  1  0.40574000  0.02932000  0.75185000  1.0
  H  H10  1  0.09426000  0.02933000  0.25185000  1.0
  H  H11  1  0.59426000  0.97067000  0.24815000  1.0
  H  H12  1  0.72072000  0.44240000  0.39215000  1.0
  H  H13  1  0.22072000  0.55760000  0.10785000  1.0
  H  H14  1  0.27928000  0.55760000  0.60785000  1.0
  H  H15  1  0.77928000  0.44240000  0.89215000  1.0
  H  H16  1  0.52898000  0.71911000  0.45231000  1.0
  H  H17  1  0.02898000  0.28089000  0.04769000  1.0
  H  H18  1  0.47102000  0.28089000  0.54769000  1.0
  H  H19  1  0.97102000  0.71911000  0.95231000  1.0
  H  H20  1  0.73846000  0.79870000  0.44666000  1.0
  H  H21  1  0.23846000  0.20131000  0.05334000  1.0
  H  H22  1  0.26154000  0.20130000  0.55334000  1.0
  H  H23  1  0.76154000  0.79870000  0.94666000  1.0
  H  H24  1  0.55887000  0.98249000  0.55824000  1.0
  H  H25  1  0.05887000  0.01751000  0.94176000  1.0
  H  H26  1  0.44113000  0.01751000  0.44176000  1.0
  H  H27  1  0.94113000  0.98248000  0.05824000  1.0
  H  H28  1  0.72551000  0.89268000  0.61948000  1.0
  H  H29  1  0.22550000  0.10732000  0.88052000  1.0
  H  H30  1  0.27450000  0.10732000  0.38052000  1.0
  H  H31  1  0.77450000  0.89268000  0.11948000  1.0
  H  H32  1  0.51300000  0.81378000  0.62399000  1.0
  H  H33  1  0.01300000  0.18622000  0.87601000  1.0
  H  H34  1  0.48700000  0.18622000  0.37602000  1.0
  H  H35  1  0.98700000  0.81378000  0.12398000  1.0
  H  H36  1  0.91441000  0.08947000  0.52202000  1.0
  H  H37  1  0.41441000  0.91053000  0.97798000  1.0
  H  H38  1  0.08559000  0.91053000  0.47798000  1.0
  H  H39  1  0.58559000  0.08947000  0.02202000  1.0
  H  H40  1  0.97167000  0.17543000  0.41641000  1.0
  H  H41  1  0.47167000  0.82457000  0.08359000  1.0
  H  H42  1  0.02833000  0.82457000  0.58359000  1.0
  H  H43  1  0.52833000  0.17543000  0.91641000  1.0
  H  H44  1  0.76058000  0.09905000  0.43134000  1.0
  H  H45  1  0.26058000  0.90095000  0.06866000  1.0
  H  H46  1  0.23942000  0.90095000  0.56866000  1.0
  H  H47  1  0.73942000  0.09905000  0.93134000  1.0
  C  C48  1  0.71844000  0.58733000  0.52222000  1.0
  C  C49  1  0.21844000  0.41267000  0.97778000  1.0
  C  C50  1  0.28156000  0.41267000  0.47778000  1.0
  C  C51  1  0.78156000  0.58733000  0.02222000  1.0
  C  C52  1  0.64651000  0.74537000  0.49405000  1.0
  C  C53  1  0.14651000  0.25463000  0.00594000  1.0
  C  C54  1  0.35349000  0.25463000  0.50595000  1.0
  C  C55  1  0.85349000  0.74537000  0.99405000  1.0
  C  C56  1  0.60861000  0.86506000  0.57842000  1.0
  C  C57  1  0.10861000  0.13494000  0.92158000  1.0
  C  C58  1  0.39139000  0.13494000  0.42158000  1.0
  C  C59  1  0.89139000  0.86506000  0.07842000  1.0
  C  C60  1  0.81607000  0.32796000  0.51106000  1.0
  C  C61  1  0.31607000  0.67204000  0.98894000  1.0
  C  C62  1  0.18393000  0.67204000  0.48894000  1.0
  C  C63  1  0.68392000  0.32796000  0.01106000  1.0
  C  C64  1  0.86818000  0.16438000  0.46774000  1.0
  C  C65  1  0.36818000  0.83562000  0.03226000  1.0
  C  C66  1  0.13182000  0.83562000  0.53226000  1.0
  C  C67  1  0.63182000  0.16438000  0.96774000  1.0
  C  C68  1  0.82201000  0.39668000  0.60196000  1.0
  C  C69  1  0.32201000  0.60332000  0.89804000  1.0
  C  C70  1  0.17799000  0.60332000  0.39804000  1.0
  C  C71  1  0.67799000  0.39668000  0.10196000  1.0
  S  S72  1  0.89611000  0.31578000  0.70362000  1.0
  S  S73  1  0.39611000  0.68422000  0.79638000  1.0
  S  S74  1  0.10389000  0.68422000  0.29638000  1.0
  S  S75  1  0.60389000  0.31578000  0.20362000  1.0
  N  N76  1  0.76239000  0.55716000  0.60823000  1.0
  N  N77  1  0.26238000  0.44284000  0.89177000  1.0
  N  N78  1  0.23761000  0.44284000  0.39177000  1.0
  N  N79  1  0.73761000  0.55716000  0.10823000  1.0
  N  N80  1  0.74951000  0.45164000  0.46220000  1.0
  N  N81  1  0.24951000  0.54836000  0.03780000  1.0
  N  N82  1  0.25049000  0.54836000  0.53780000  1.0
  N  N83  1  0.75049000  0.45164000  0.96220000  1.0
  O  O84  1  0.86862000  0.45286000  0.77600000  1.0
  O  O85  1  0.36862000  0.54714000  0.72400000  1.0
  O  O86  1  0.13138000  0.54714000  0.22400000  1.0
  O  O87  1  0.63138000  0.45286000  0.27600000  1.0
  O  O88  1  0.07864000  0.27196000  0.68952000  1.0
  O  O89  1  0.57864000  0.72804000  0.81048000  1.0
  O  O90  1  0.92136000  0.72804000  0.31048000  1.0
  O  O91  1  0.42136000  0.27196000  0.18952000  1.0
  O  O92  1  0.79319000  0.16845000  0.72060000  1.0
  O  O93  1  0.29319000  0.83155000  0.77939000  1.0
  O  O94  1  0.20681000  0.83155000  0.27940000  1.0
  O  O95  1  0.70681000  0.16845000  0.22060000  1.0
  O  O96  1  0.93773000  0.85640000  0.75732000  1.0
  O  O97  1  0.43773000  0.14360000  0.74269000  1.0
  O  O98  1  0.06227000  0.14360000  0.24268000  1.0
  O  O99  1  0.56227000  0.85640000  0.25732000  1.0
