# generated using pymatgen
data_ZnH20C30N3O4
_symmetry_space_group_name_H-M   'P 1'
_cell_length_a   10.37220000
_cell_length_b   12.68760000
_cell_length_c   12.90590000
_cell_angle_alpha   62.93120000
_cell_angle_beta   87.98930000
_cell_angle_gamma   71.61250000
_symmetry_Int_Tables_number   1
_chemical_formula_structural   ZnH20C30N3O4
_chemical_formula_sum   'Zn2 H40 C60 N6 O8'
_cell_volume   1423.26955491
_cell_formula_units_Z   2
loop_
 _symmetry_equiv_pos_site_id
 _symmetry_equiv_pos_as_xyz
  1  'x, y, z'
loop_
 _atom_site_type_symbol
 _atom_site_label
 _atom_site_symmetry_multiplicity
 _atom_site_fract_x
 _atom_site_fract_y
 _atom_site_fract_z
 _atom_site_occupancy
  Zn  Zn0  1  0.40648000  0.44684000  0.90720000  1.0
  Zn  Zn1  1  0.59352000  0.55317000  0.09279000  1.0
  H  H2  1  0.68727000  0.58518000  0.41235000  1.0
  H  H3  1  0.31273000  0.41482000  0.58765000  1.0
  H  H4  1  0.13129000  0.50100000  0.98873000  1.0
  H  H5  1  0.86873000  0.49900000  0.01128000  1.0
  H  H6  1  0.63450000  0.58262000  0.63186000  1.0
  H  H7  1  0.36552000  0.41735000  0.36816000  1.0
  H  H8  1  0.95117000  0.67401000  0.00741000  1.0
  H  H9  1  0.04886000  0.32598000  0.99261000  1.0
  H  H10  1  0.80504000  0.68688000  0.85517000  1.0
  H  H11  1  0.19499000  0.31309000  0.14485000  1.0
  H  H12  1  0.99191000  0.72523000  0.73040000  1.0
  H  H13  1  0.00809000  0.27477000  0.26960000  1.0
  H  H14  1  0.36219000  0.72694000  0.81714000  1.0
  H  H15  1  0.63781000  0.27307000  0.18286000  1.0
  H  H16  1  0.80959000  0.84042000  0.01133000  1.0
  H  H17  1  0.19041000  0.15958000  0.98867000  1.0
  H  H18  1  0.98364000  0.00510000  0.87279000  1.0
  H  H19  1  0.01635000  0.99490000  0.12722000  1.0
  H  H20  1  0.98873000  0.66777000  0.17892000  1.0
  H  H21  1  0.01127000  0.33223000  0.82108000  1.0
  H  H22  1  0.46348000  0.16020000  0.07009000  1.0
  H  H23  1  0.53650000  0.83983000  0.92989000  1.0
  H  H24  1  0.18939000  0.91328000  0.82070000  1.0
  H  H25  1  0.81062000  0.08673000  0.17929000  1.0
  H  H26  1  0.18431000  0.68348000  0.60309000  1.0
  H  H27  1  0.81570000  0.31651000  0.39690000  1.0
  H  H28  1  0.16871000  0.74604000  0.44936000  1.0
  H  H29  1  0.83128000  0.25397000  0.55062000  1.0
  H  H30  1  0.10874000  0.70679000  0.31419000  1.0
  H  H31  1  0.89126000  0.29321000  0.68582000  1.0
  H  H32  1  0.62655000  0.95402000  0.09288000  1.0
  H  H33  1  0.37341000  0.04600000  0.90712000  1.0
  H  H34  1  0.86059000  0.92600000  0.41311000  1.0
  H  H35  1  0.13941000  0.07399000  0.58690000  1.0
  H  H36  1  0.23308000  0.86022000  0.60460000  1.0
  H  H37  1  0.76692000  0.13977000  0.39541000  1.0
  H  H38  1  0.65139000  0.36265000  0.80087000  1.0
  H  H39  1  0.34861000  0.63734000  0.19911000  1.0
  H  H40  1  0.81995000  0.16770000  0.80950000  1.0
  H  H41  1  0.18003000  0.83229000  0.19049000  1.0
  C  C42  1  0.81178000  0.64123000  0.57720000  1.0
  C  C43  1  0.18823000  0.35876000  0.42280000  1.0
  C  C44  1  0.77714000  0.61449000  0.39167000  1.0
  C  C45  1  0.22286000  0.38551000  0.60833000  1.0
  C  C46  1  0.13986000  0.59401000  0.95444000  1.0
  C  C47  1  0.86015000  0.40600000  0.04556000  1.0
  C  C48  1  0.71256000  0.61421000  0.65128000  1.0
  C  C49  1  0.28745000  0.38577000  0.34874000  1.0
  C  C50  1  0.71235000  0.62956000  0.75222000  1.0
  C  C51  1  0.28767000  0.37042000  0.24778000  1.0
  C  C52  1  0.61013000  0.59814000  0.83541000  1.0
  C  C53  1  0.38986000  0.40186000  0.16457000  1.0
  C  C54  1  0.04003000  0.69108000  0.96350000  1.0
  C  C55  1  0.95999000  0.30892000  0.03651000  1.0
  C  C56  1  0.81133000  0.67224000  0.77800000  1.0
  C  C57  1  0.18868000  0.32774000  0.22201000  1.0
  C  C58  1  0.05506000  0.81035000  0.91474000  1.0
  C  C59  1  0.94495000  0.18966000  0.08526000  1.0
  C  C60  1  0.91455000  0.67791000  0.60864000  1.0
  C  C61  1  0.08546000  0.32209000  0.39136000  1.0
  C  C62  1  0.83976000  0.64097000  0.46654000  1.0
  C  C63  1  0.16024000  0.35903000  0.53346000  1.0
  C  C64  1  0.76163000  0.60231000  0.20391000  1.0
  C  C65  1  0.23838000  0.39769000  0.79609000  1.0
  C  C66  1  0.91476000  0.69458000  0.70846000  1.0
  C  C67  1  0.08525000  0.30542000  0.29154000  1.0
  C  C68  1  0.95900000  0.67635000  0.43692000  1.0
  C  C69  1  0.04099000  0.32365000  0.56309000  1.0
  C  C70  1  0.82996000  0.62656000  0.28691000  1.0
  C  C71  1  0.17004000  0.37344000  0.71309000  1.0
  C  C72  1  0.26852000  0.72045000  0.85622000  1.0
  C  C73  1  0.73149000  0.27956000  0.14378000  1.0
  C  C74  1  0.83683000  0.92561000  0.96327000  1.0
  C  C75  1  0.16316000  0.07439000  0.03673000  1.0
  C  C76  1  0.95571000  0.92004000  0.91582000  1.0
  C  C77  1  0.04428000  0.07996000  0.08419000  1.0
  C  C78  1  0.94764000  0.66212000  0.25937000  1.0
  C  C79  1  0.05236000  0.33787000  0.74064000  1.0
  C  C80  1  0.05403000  0.87885000  0.50903000  1.0
  C  C81  1  0.94597000  0.12115000  0.49097000  1.0
  C  C82  1  0.73997000  0.04254000  0.95391000  1.0
  C  C83  1  0.26002000  0.95745000  0.04609000  1.0
  C  C84  1  0.54504000  0.15637000  0.01482000  1.0
  C  C85  1  0.45493000  0.84364000  0.98517000  1.0
  C  C86  1  0.17266000  0.82311000  0.85991000  1.0
  C  C87  1  0.82734000  0.17690000  0.14009000  1.0
  C  C88  1  0.11123000  0.74703000  0.52236000  1.0
  C  C89  1  0.88877000  0.25297000  0.47765000  1.0
  C  C90  1  0.01423000  0.68559000  0.33408000  1.0
  C  C91  1  0.98577000  0.31440000  0.66593000  1.0
  C  C92  1  0.63588000  0.04260000  0.02689000  1.0
  C  C93  1  0.36410000  0.95741000  0.97310000  1.0
  C  C94  1  0.92247000  0.95850000  0.45087000  1.0
  C  C95  1  0.07754000  0.04150000  0.54915000  1.0
  C  C96  1  0.13084000  0.92177000  0.55805000  1.0
  C  C97  1  0.86916000  0.07822000  0.44197000  1.0
  C  C98  1  0.65020000  0.26969000  0.86395000  1.0
  C  C99  1  0.34979000  0.73032000  0.13603000  1.0
  C  C100  1  0.74412000  0.16081000  0.87051000  1.0
  C  C101  1  0.25586000  0.83919000  0.12948000  1.0
  N  N102  1  0.25304000  0.60722000  0.90250000  1.0
  N  N103  1  0.74697000  0.39278000  0.09751000  1.0
  N  N104  1  0.55180000  0.26842000  0.93512000  1.0
  N  N105  1  0.44819000  0.73159000  0.06486000  1.0
  N  N106  1  0.00345000  0.69610000  0.52454000  1.0
  N  N107  1  0.99654000  0.30391000  0.47546000  1.0
  O  O108  1  0.54356000  0.53393000  0.82402000  1.0
  O  O109  1  0.45640000  0.46611000  0.17594000  1.0
  O  O110  1  0.59567000  0.63761000  0.91146000  1.0
  O  O111  1  0.40433000  0.36237000  0.08854000  1.0
  O  O112  1  0.68294000  0.53564000  0.24499000  1.0
  O  O113  1  0.31703000  0.46438000  0.75500000  1.0
  O  O114  1  0.78005000  0.64924000  0.09652000  1.0
  O  O115  1  0.21998000  0.35075000  0.90348000  1.0
