# generated using pymatgen
data_Zr3H14C25O26F
_symmetry_space_group_name_H-M   'P 1'
_cell_length_a   14.84572375
_cell_length_b   14.84881747
_cell_length_c   14.85080000
_cell_angle_alpha   60.00575254
_cell_angle_beta   89.99571121
_cell_angle_gamma   119.99305791
_symmetry_Int_Tables_number   1
_chemical_formula_structural   Zr3H14C25O26F
_chemical_formula_sum   'Zr6 H28 C50 O52 F2'
_cell_volume   2315.23543639
_cell_formula_units_Z   2
loop_
 _symmetry_equiv_pos_site_id
 _symmetry_equiv_pos_as_xyz
  1  'x, y, z'
loop_
 _atom_site_type_symbol
 _atom_site_label
 _atom_site_symmetry_multiplicity
 _atom_site_fract_x
 _atom_site_fract_y
 _atom_site_fract_z
 _atom_site_occupancy
  Zr  Zr0  1  0.61870000  0.49999000  0.61861000  1.0
  Zr  Zr1  1  0.38061000  0.49993000  0.38143000  1.0
  Zr  Zr2  1  0.61859000  0.49996000  0.38129000  1.0
  Zr  Zr3  1  0.38051000  0.50002000  0.61871000  1.0
  Zr  Zr4  1  0.38141000  0.26356000  0.61833000  1.0
  Zr  Zr5  1  0.61782000  0.73639000  0.38177000  1.0
  H  H6  1  0.59310000  0.31268000  0.59355000  1.0
  H  H7  1  0.21882000  0.31258000  0.59375000  1.0
  H  H8  1  0.59328000  0.68736000  0.21912000  1.0
  H  H9  1  0.59343000  0.68752000  0.59371000  1.0
  H  H10  1  0.95932000  0.58806000  0.66704000  1.0
  H  H11  1  0.87406000  0.41782000  0.75049000  1.0
  H  H12  1  0.04256000  0.41787000  0.75063000  1.0
  H  H13  1  0.12749000  0.58808000  0.66728000  1.0
  H  H14  1  0.33862000  0.69369000  0.16111000  1.0
  H  H15  1  0.65350000  0.30575000  0.84471000  1.0
  H  H16  1  0.34196000  0.99911000  0.85209000  1.0
  H  H17  1  0.65360000  0.00115000  0.15197000  1.0
  H  H18  1  0.15107000  0.30612000  0.34863000  1.0
  H  H19  1  0.85338000  0.69416000  0.64431000  1.0
  H  H20  1  0.84833000  0.00094000  0.34540000  1.0
  H  H21  1  0.15737000  0.99883000  0.64790000  1.0
  H  H22  1  0.84703000  0.00136000  0.15215000  1.0
  H  H23  1  0.15671000  0.99925000  0.85238000  1.0
  H  H24  1  0.15184000  0.30594000  0.84497000  1.0
  H  H25  1  0.85443000  0.69382000  0.16126000  1.0
  H  H26  1  0.34066000  0.99886000  0.64784000  1.0
  H  H27  1  0.65217000  0.00096000  0.34565000  1.0
  H  H28  1  0.34008000  0.69419000  0.64439000  1.0
  H  H29  1  0.65440000  0.30617000  0.34862000  1.0
  H  H30  1  0.65005000  0.49429000  0.15555000  1.0
  H  H31  1  0.34378000  0.49452000  0.84979000  1.0
  H  H32  1  0.64985000  0.49430000  0.84998000  1.0
  H  H33  1  0.34327000  0.49437000  0.15544000  1.0
  C  C34  1  0.49671000  0.19318000  0.80885000  1.0
  C  C35  1  0.19608000  0.19307000  0.49774000  1.0
  C  C36  1  0.49735000  0.80687000  0.19664000  1.0
  C  C37  1  0.80933000  0.80678000  0.49592000  1.0
  C  C38  1  0.80468000  0.50642000  0.49675000  1.0
  C  C39  1  0.49672000  0.49417000  0.80909000  1.0
  C  C40  1  0.20099000  0.50641000  0.49703000  1.0
  C  C41  1  0.49649000  0.49398000  0.19673000  1.0
  C  C42  1  0.49625000  0.19313000  0.49766000  1.0
  C  C43  1  0.80879000  0.80701000  0.19668000  1.0
  C  C44  1  0.49681000  0.80680000  0.49600000  1.0
  C  C45  1  0.19593000  0.19325000  0.80905000  1.0
  C  C46  1  0.49738000  0.90498000  0.09815000  1.0
  C  C47  1  0.49765000  0.09519000  0.90644000  1.0
  C  C48  1  0.41212000  0.86939000  0.05215000  1.0
  C  C49  1  0.58348000  0.13061000  0.95192000  1.0
  C  C50  1  0.41265000  0.96378000  0.95673000  1.0
  C  C51  1  0.58319000  0.03655000  0.04696000  1.0
  C  C52  1  0.09809000  0.09501000  0.49719000  1.0
  C  C53  1  0.90818000  0.90479000  0.49559000  1.0
  C  C54  1  0.04818000  0.13054000  0.41586000  1.0
  C  C55  1  0.95810000  0.86932000  0.57697000  1.0
  C  C56  1  0.95419000  0.03617000  0.41492000  1.0
  C  C57  1  0.05174000  0.96339000  0.57812000  1.0
  C  C58  1  0.90704000  0.90512000  0.09836000  1.0
  C  C59  1  0.09707000  0.09531000  0.90670000  1.0
  C  C60  1  0.95292000  0.03672000  0.04722000  1.0
  C  C61  1  0.05065000  0.96391000  0.95701000  1.0
  C  C62  1  0.04672000  0.13078000  0.95219000  1.0
  C  C63  1  0.95673000  0.86952000  0.05240000  1.0
  C  C64  1  0.49625000  0.09507000  0.49719000  1.0
  C  C65  1  0.49599000  0.90482000  0.49568000  1.0
  C  C66  1  0.41093000  0.96347000  0.57807000  1.0
  C  C67  1  0.58145000  0.03621000  0.41507000  1.0
  C  C68  1  0.41054000  0.86940000  0.57695000  1.0
  C  C69  1  0.58179000  0.13059000  0.41595000  1.0
  C  C70  1  0.90472000  0.50681000  0.49572000  1.0
  C  C71  1  0.10136000  0.50686000  0.49590000  1.0
  C  C72  1  0.95527000  0.50553000  0.57569000  1.0
  C  C73  1  0.05061000  0.50727000  0.41514000  1.0
  C  C74  1  0.04934000  0.50557000  0.57578000  1.0
  C  C75  1  0.95610000  0.50728000  0.41504000  1.0
  C  C76  1  0.94795000  0.50350000  0.67863000  1.0
  C  C77  1  0.05439000  0.50355000  0.67873000  1.0
  C  C78  1  0.49658000  0.49413000  0.09838000  1.0
  C  C79  1  0.49669000  0.49420000  0.90731000  1.0
  C  C80  1  0.58014000  0.49458000  0.04994000  1.0
  C  C81  1  0.41363000  0.49474000  0.95526000  1.0
  C  C82  1  0.58018000  0.49460000  0.95537000  1.0
  C  C83  1  0.41356000  0.49471000  0.04983000  1.0
  O  O84  1  0.57279000  0.31213000  0.76590000  1.0
  O  O85  1  0.23827000  0.31196000  0.42243000  1.0
  O  O86  1  0.42146000  0.68807000  0.23942000  1.0
  O  O87  1  0.76599000  0.68788000  0.57241000  1.0
  O  O88  1  0.76280000  0.50616000  0.42147000  1.0
  O  O89  1  0.42092000  0.49492000  0.76584000  1.0
  O  O90  1  0.23886000  0.50466000  0.57514000  1.0
  O  O91  1  0.57301000  0.49466000  0.23925000  1.0
  O  O92  1  0.42028000  0.15962000  0.57418000  1.0
  O  O93  1  0.76539000  0.84051000  0.23884000  1.0
  O  O94  1  0.57388000  0.84021000  0.42074000  1.0
  O  O95  1  0.23872000  0.15980000  0.76634000  1.0
  O  O96  1  0.76580000  0.68823000  0.23936000  1.0
  O  O97  1  0.42120000  0.68791000  0.57248000  1.0
  O  O98  1  0.23876000  0.31220000  0.76605000  1.0
  O  O99  1  0.57285000  0.31201000  0.42228000  1.0
  O  O100  1  0.76505000  0.50471000  0.57484000  1.0
  O  O101  1  0.42063000  0.49460000  0.23927000  1.0
  O  O102  1  0.24261000  0.50609000  0.42179000  1.0
  O  O103  1  0.57322000  0.49481000  0.76590000  1.0
  O  O104  1  0.76568000  0.84022000  0.42066000  1.0
  O  O105  1  0.42045000  0.15973000  0.76617000  1.0
  O  O106  1  0.23858000  0.15959000  0.57423000  1.0
  O  O107  1  0.57415000  0.84036000  0.23889000  1.0
  O  O108  1  0.56668000  0.63408000  0.56714000  1.0
  O  O109  1  0.56653000  0.63388000  0.29911000  1.0
  O  O110  1  0.29883000  0.36553000  0.56757000  1.0
  O  O111  1  0.56602000  0.36562000  0.56737000  1.0
  O  O112  1  0.45025000  0.40123000  0.45077000  1.0
  O  O113  1  0.45036000  0.40148000  0.64814000  1.0
  O  O114  1  0.45035000  0.59841000  0.45106000  1.0
  O  O115  1  0.64729000  0.59842000  0.45095000  1.0
  O  O116  1  0.32780000  0.74795000  0.09500000  1.0
  O  O117  1  0.66831000  0.25276000  0.90770000  1.0
  O  O118  1  0.32944000  0.92192000  0.91846000  1.0
  O  O119  1  0.66726000  0.07828000  0.08454000  1.0
  O  O120  1  0.08514000  0.25199000  0.33751000  1.0
  O  O121  1  0.92019000  0.74713000  0.65551000  1.0
  O  O122  1  0.91235000  0.07803000  0.33533000  1.0
  O  O123  1  0.09320000  0.92160000  0.65830000  1.0
  O  O124  1  0.91064000  0.07847000  0.08483000  1.0
  O  O125  1  0.09202000  0.92206000  0.91875000  1.0
  O  O126  1  0.08409000  0.25293000  0.90804000  1.0
  O  O127  1  0.91960000  0.74809000  0.09521000  1.0
  O  O128  1  0.32764000  0.92166000  0.65822000  1.0
  O  O129  1  0.66526000  0.07805000  0.33559000  1.0
  O  O130  1  0.32623000  0.74719000  0.65550000  1.0
  O  O131  1  0.66634000  0.25203000  0.33766000  1.0
  O  O132  1  0.66206000  0.49508000  0.08963000  1.0
  O  O133  1  0.33231000  0.49538000  0.91485000  1.0
  O  O134  1  0.66211000  0.49511000  0.91507000  1.0
  O  O135  1  0.33216000  0.49530000  0.08945000  1.0
  F  F136  1  0.09025000  0.50721000  0.33367000  1.0
  F  F137  1  0.91659000  0.50730000  0.33347000  1.0
