# generated using pymatgen
data_CoH6C12(N2F)2
_symmetry_space_group_name_H-M   'P 1'
_cell_length_a   13.28820000
_cell_length_b   13.28820000
_cell_length_c   14.60950000
_cell_angle_alpha   90.00010000
_cell_angle_beta   90.00000000
_cell_angle_gamma   90.00000000
_symmetry_Int_Tables_number   1
_chemical_formula_structural   CoH6C12(N2F)2
_chemical_formula_sum   'Co4 H24 C48 N16 F8'
_cell_volume   2579.69085936
_cell_formula_units_Z   4
loop_
 _symmetry_equiv_pos_site_id
 _symmetry_equiv_pos_as_xyz
  1  'x, y, z'
loop_
 _atom_site_type_symbol
 _atom_site_label
 _atom_site_symmetry_multiplicity
 _atom_site_fract_x
 _atom_site_fract_y
 _atom_site_fract_z
 _atom_site_occupancy
  Co  Co0  1  0.50759000  0.51103000  0.62159000  1.0
  Co  Co1  1  0.49241000  0.48897000  0.12159000  1.0
  Co  Co2  1  0.48897000  0.50759000  0.37159000  1.0
  Co  Co3  1  0.51103000  0.49241000  0.87159000  1.0
  H  H4  1  0.45980000  0.27589000  0.35421000  1.0
  H  H5  1  0.54020000  0.72411000  0.85421000  1.0
  H  H6  1  0.72411000  0.45980000  0.10421000  1.0
  H  H7  1  0.27588000  0.54020000  0.60421000  1.0
  H  H8  1  0.47819000  0.74122000  0.34672000  1.0
  H  H9  1  0.52181000  0.25878000  0.84673000  1.0
  H  H10  1  0.25878000  0.47819000  0.09672000  1.0
  H  H11  1  0.74122000  0.52181000  0.59672000  1.0
  H  H12  1  0.52452000  0.27899000  0.64480000  1.0
  H  H13  1  0.47548000  0.72102000  0.14480000  1.0
  H  H14  1  0.72101000  0.52452000  0.39480000  1.0
  H  H15  1  0.27899000  0.47548000  0.89480000  1.0
  H  H16  1  0.53710000  0.91696000  0.63817000  1.0
  H  H17  1  0.46290000  0.08304000  0.13817000  1.0
  H  H18  1  0.08304000  0.53710000  0.38817000  1.0
  H  H19  1  0.91696000  0.46291000  0.88817000  1.0
  H  H20  1  0.45108000  0.10306000  0.35537000  1.0
  H  H21  1  0.54892000  0.89694000  0.85537000  1.0
  H  H22  1  0.89694000  0.45108000  0.10537000  1.0
  H  H23  1  0.10306000  0.54892000  0.60537000  1.0
  H  H24  1  0.51484000  0.74415000  0.64124000  1.0
  H  H25  1  0.48516000  0.25585000  0.14125000  1.0
  H  H26  1  0.25585000  0.51484000  0.39125000  1.0
  H  H27  1  0.74415000  0.48516000  0.89124000  1.0
  C  C28  1  0.47533000  0.29324000  0.42542000  1.0
  C  C29  1  0.52467000  0.70675000  0.92542000  1.0
  C  C30  1  0.70676000  0.47533000  0.17542000  1.0
  C  C31  1  0.29324000  0.52467000  0.67542000  1.0
  C  C32  1  0.48744000  0.72492000  0.41886000  1.0
  C  C33  1  0.51256000  0.27508000  0.91886000  1.0
  C  C34  1  0.27508000  0.48744000  0.16886000  1.0
  C  C35  1  0.72492000  0.51256000  0.66886000  1.0
  C  C36  1  0.49208000  0.22839000  0.50009000  1.0
  C  C37  1  0.50792000  0.77161000  0.00009000  1.0
  C  C38  1  0.77161000  0.49208000  0.25009000  1.0
  C  C39  1  0.22839000  0.50792000  0.75009000  1.0
  C  C40  1  0.50899000  0.29500000  0.57352000  1.0
  C  C41  1  0.49101000  0.70500000  0.07352000  1.0
  C  C42  1  0.70499000  0.50899000  0.32352000  1.0
  C  C43  1  0.29501000  0.49101000  0.82352000  1.0
  C  C44  1  0.49629000  0.79155000  0.49343000  1.0
  C  C45  1  0.50371000  0.20844000  0.99343000  1.0
  C  C46  1  0.20845000  0.49629000  0.24343000  1.0
  C  C47  1  0.79156000  0.50372000  0.74343000  1.0
  C  C48  1  0.51713000  0.95565000  0.57504000  1.0
  C  C49  1  0.48286000  0.04435000  0.07504000  1.0
  C  C50  1  0.04435000  0.51714000  0.32504000  1.0
  C  C51  1  0.95565000  0.48286000  0.82504000  1.0
  C  C52  1  0.49516000  0.90111000  0.49491000  1.0
  C  C53  1  0.50484000  0.09889000  0.99491000  1.0
  C  C54  1  0.09889000  0.49516000  0.24491000  1.0
  C  C55  1  0.90111000  0.50485000  0.74491000  1.0
  C  C56  1  0.47180000  0.96035000  0.41818000  1.0
  C  C57  1  0.52820000  0.03965000  0.91818000  1.0
  C  C58  1  0.03965000  0.47179000  0.16818000  1.0
  C  C59  1  0.96035000  0.52821000  0.66818000  1.0
  C  C60  1  0.47027000  0.06436000  0.41868000  1.0
  C  C61  1  0.52973000  0.93564000  0.91868000  1.0
  C  C62  1  0.93564000  0.47027000  0.16868000  1.0
  C  C63  1  0.06436000  0.52973000  0.66868000  1.0
  C  C64  1  0.49232000  0.11890000  0.49874000  1.0
  C  C65  1  0.50768000  0.88110000  0.99874000  1.0
  C  C66  1  0.88110000  0.49232000  0.24874000  1.0
  C  C67  1  0.11890000  0.50768000  0.74874000  1.0
  C  C68  1  0.51506000  0.05966000  0.57561000  1.0
  C  C69  1  0.48494000  0.94034000  0.07561000  1.0
  C  C70  1  0.94034000  0.51506000  0.32561000  1.0
  C  C71  1  0.05966000  0.48494000  0.82561000  1.0
  C  C72  1  0.50701000  0.72671000  0.56901000  1.0
  C  C73  1  0.49299000  0.27329000  0.06901000  1.0
  C  C74  1  0.27329000  0.50701000  0.31900000  1.0
  C  C75  1  0.72671000  0.49299000  0.81901000  1.0
  N  N76  1  0.48214000  0.38995000  0.45236000  1.0
  N  N77  1  0.51786000  0.61005000  0.95236000  1.0
  N  N78  1  0.61005000  0.48214000  0.20236000  1.0
  N  N79  1  0.38995000  0.51786000  0.70236000  1.0
  N  N80  1  0.49266000  0.62886000  0.44829000  1.0
  N  N81  1  0.50734000  0.37114000  0.94829000  1.0
  N  N82  1  0.37114000  0.49266000  0.19829000  1.0
  N  N83  1  0.62886000  0.50734000  0.69830000  1.0
  N  N84  1  0.50482000  0.62996000  0.54154000  1.0
  N  N85  1  0.49517000  0.37004000  0.04154000  1.0
  N  N86  1  0.37004000  0.50482000  0.29154000  1.0
  N  N87  1  0.62996000  0.49518000  0.79154000  1.0
  N  N88  1  0.50297000  0.39096000  0.54418000  1.0
  N  N89  1  0.49703000  0.60904000  0.04418000  1.0
  N  N90  1  0.60904000  0.50297000  0.29418000  1.0
  N  N91  1  0.39097000  0.49703000  0.79418000  1.0
  F  F92  1  0.53746000  0.10663000  0.65623000  1.0
  F  F93  1  0.46254000  0.89337000  0.15623000  1.0
  F  F94  1  0.89337000  0.53746000  0.40623000  1.0
  F  F95  1  0.10663000  0.46254000  0.90623000  1.0
  F  F96  1  0.44831000  0.91354000  0.33773000  1.0
  F  F97  1  0.55169000  0.08646000  0.83774000  1.0
  F  F98  1  0.08645000  0.44831000  0.08774000  1.0
  F  F99  1  0.91354000  0.55169000  0.58774000  1.0
