# generated using pymatgen
data_HgH8C6(SN3)2
_symmetry_space_group_name_H-M   'P 1'
_cell_length_a   8.22356000
_cell_length_b   10.06320000
_cell_length_c   13.27340000
_cell_angle_alpha   90.00020000
_cell_angle_beta   89.99990000
_cell_angle_gamma   90.00000000
_symmetry_Int_Tables_number   1
_chemical_formula_structural   HgH8C6(SN3)2
_chemical_formula_sum   'Hg4 H32 C24 S8 N24'
_cell_volume   1098.44458383
_cell_formula_units_Z   4
loop_
 _symmetry_equiv_pos_site_id
 _symmetry_equiv_pos_as_xyz
  1  'x, y, z'
loop_
 _atom_site_type_symbol
 _atom_site_label
 _atom_site_symmetry_multiplicity
 _atom_site_fract_x
 _atom_site_fract_y
 _atom_site_fract_z
 _atom_site_occupancy
  Hg  Hg0  1  0.75000000  0.57246000  0.50000000  1.0
  Hg  Hg1  1  0.25000000  0.92755000  0.00000000  1.0
  Hg  Hg2  1  0.25000000  0.42754000  0.50000000  1.0
  Hg  Hg3  1  0.75000000  0.07246000  0.00000000  1.0
  H  H4  1  0.63424000  0.31402000  0.70139000  1.0
  H  H5  1  0.13425000  0.18598000  0.79861000  1.0
  H  H6  1  0.86576000  0.31402000  0.29861000  1.0
  H  H7  1  0.36575000  0.18598000  0.20139000  1.0
  H  H8  1  0.36576000  0.68598000  0.29861000  1.0
  H  H9  1  0.86575000  0.81401000  0.20139000  1.0
  H  H10  1  0.13424000  0.68599000  0.70139000  1.0
  H  H11  1  0.63425000  0.81401000  0.79861000  1.0
  H  H12  1  0.66411000  0.14551000  0.74323000  1.0
  H  H13  1  0.16411000  0.35448000  0.75677000  1.0
  H  H14  1  0.83589000  0.14551000  0.25677000  1.0
  H  H15  1  0.33589000  0.35449000  0.24323000  1.0
  H  H16  1  0.33589000  0.85449000  0.25677000  1.0
  H  H17  1  0.83588000  0.64551000  0.24322000  1.0
  H  H18  1  0.16411000  0.85449000  0.74323000  1.0
  H  H19  1  0.66411000  0.64551000  0.75678000  1.0
  H  H20  1  0.56904000  0.17758000  0.62448000  1.0
  H  H21  1  0.06904000  0.32242000  0.87552000  1.0
  H  H22  1  0.93096000  0.17758000  0.37552000  1.0
  H  H23  1  0.43096000  0.32242000  0.12448000  1.0
  H  H24  1  0.43096000  0.82242000  0.37552000  1.0
  H  H25  1  0.93096000  0.67758000  0.12448000  1.0
  H  H26  1  0.06904000  0.82242000  0.62448000  1.0
  H  H27  1  0.56904000  0.67758000  0.87552000  1.0
  H  H28  1  0.84760000  0.00443000  0.58733000  1.0
  H  H29  1  0.34760000  0.49557000  0.91268000  1.0
  H  H30  1  0.65241000  0.00443000  0.41267000  1.0
  H  H31  1  0.15240000  0.49557000  0.08732000  1.0
  H  H32  1  0.15241000  0.99557000  0.41267000  1.0
  H  H33  1  0.65239000  0.50443000  0.08732000  1.0
  H  H34  1  0.34760000  0.99557000  0.58732000  1.0
  H  H35  1  0.84760000  0.50443000  0.91268000  1.0
  C  C36  1  0.66151000  0.21205000  0.67788000  1.0
  C  C37  1  0.16151000  0.28795000  0.82213000  1.0
  C  C38  1  0.83849000  0.21205000  0.32213000  1.0
  C  C39  1  0.33849000  0.28795000  0.17787000  1.0
  C  C40  1  0.33849000  0.78795000  0.32213000  1.0
  C  C41  1  0.83849000  0.71205000  0.17787000  1.0
  C  C42  1  0.16151000  0.78795000  0.67787000  1.0
  C  C43  1  0.66151000  0.71205000  0.82213000  1.0
  C  C44  1  0.92163000  0.31862000  0.61350000  1.0
  C  C45  1  0.42163000  0.18138000  0.88651000  1.0
  C  C46  1  0.57837000  0.31862000  0.38650000  1.0
  C  C47  1  0.07837000  0.18139000  0.11349000  1.0
  C  C48  1  0.07837000  0.68138000  0.38651000  1.0
  C  C49  1  0.57837000  0.81862000  0.11349000  1.0
  C  C50  1  0.42163000  0.68138000  0.61350000  1.0
  C  C51  1  0.92163000  0.81861000  0.88651000  1.0
  C  C52  1  0.89877000  0.10380000  0.58987000  1.0
  C  C53  1  0.39877000  0.39620000  0.91014000  1.0
  C  C54  1  0.60124000  0.10380000  0.41013000  1.0
  C  C55  1  0.10123000  0.39621000  0.08986000  1.0
  C  C56  1  0.10124000  0.89620000  0.41013000  1.0
  C  C57  1  0.60123000  0.60380000  0.08986000  1.0
  C  C58  1  0.39877000  0.89620000  0.58986000  1.0
  C  C59  1  0.89877000  0.60380000  0.91014000  1.0
  S  S60  1  0.88790000  0.48016000  0.65171000  1.0
  S  S61  1  0.38790000  0.01985000  0.84829000  1.0
  S  S62  1  0.61210000  0.48016000  0.34829000  1.0
  S  S63  1  0.11210000  0.01985000  0.15171000  1.0
  S  S64  1  0.11210000  0.51984000  0.34829000  1.0
  S  S65  1  0.61210000  0.98016000  0.15171000  1.0
  S  S66  1  0.38790000  0.51984000  0.65171000  1.0
  S  S67  1  0.88790000  0.98015000  0.84829000  1.0
  N  N68  1  0.82010000  0.21164000  0.62922000  1.0
  N  N69  1  0.32011000  0.28837000  0.87078000  1.0
  N  N70  1  0.67990000  0.21164000  0.37078000  1.0
  N  N71  1  0.17989000  0.28837000  0.12922000  1.0
  N  N72  1  0.17990000  0.78836000  0.37078000  1.0
  N  N73  1  0.67989000  0.71163000  0.12922000  1.0
  N  N74  1  0.32010000  0.78836000  0.62922000  1.0
  N  N75  1  0.82011000  0.71163000  0.87078000  1.0
  N  N76  1  0.05525000  0.27314000  0.56725000  1.0
  N  N77  1  0.55525000  0.22687000  0.93276000  1.0
  N  N78  1  0.44475000  0.27313000  0.43276000  1.0
  N  N79  1  0.94475000  0.22687000  0.06724000  1.0
  N  N80  1  0.94475000  0.72687000  0.43276000  1.0
  N  N81  1  0.44474000  0.77313000  0.06724000  1.0
  N  N82  1  0.55525000  0.72687000  0.56724000  1.0
  N  N83  1  0.05526000  0.77313000  0.93276000  1.0
  N  N84  1  0.04116000  0.13873000  0.55199000  1.0
  N  N85  1  0.54116000  0.36128000  0.94802000  1.0
  N  N86  1  0.45884000  0.13873000  0.44801000  1.0
  N  N87  1  0.95884000  0.36128000  0.05198000  1.0
  N  N88  1  0.95884000  0.86127000  0.44801000  1.0
  N  N89  1  0.45884000  0.63873000  0.05198000  1.0
  N  N90  1  0.54115000  0.86127000  0.55198000  1.0
  N  N91  1  0.04116000  0.63873000  0.94802000  1.0
