# generated using pymatgen
data_CdH12C14(IN4)2
_symmetry_space_group_name_H-M   'P 1'
_cell_length_a   4.12353000
_cell_length_b   7.47301000
_cell_length_c   30.59990000
_cell_angle_alpha   90.00170000
_cell_angle_beta   90.00620000
_cell_angle_gamma   98.36680000
_symmetry_Int_Tables_number   1
_chemical_formula_structural   CdH12C14(IN4)2
_chemical_formula_sum   'Cd2 H24 C28 I4 N16'
_cell_volume   932.90554762
_cell_formula_units_Z   2
loop_
 _symmetry_equiv_pos_site_id
 _symmetry_equiv_pos_as_xyz
  1  'x, y, z'
loop_
 _atom_site_type_symbol
 _atom_site_label
 _atom_site_symmetry_multiplicity
 _atom_site_fract_x
 _atom_site_fract_y
 _atom_site_fract_z
 _atom_site_occupancy
  Cd  Cd0  1  0.00003000  0.00003000  0.00000000  1.0
  Cd  Cd1  1  0.50005000  0.49999000  0.50000000  1.0
  H  H2  1  0.84404000  0.04774000  0.90018000  1.0
  H  H3  1  0.65600000  0.45225000  0.40018000  1.0
  H  H4  1  0.15604000  0.95230000  0.09982000  1.0
  H  H5  1  0.34393000  0.54772000  0.59982000  1.0
  H  H6  1  0.60967000  0.18078000  0.83905000  1.0
  H  H7  1  0.89041000  0.31921000  0.33907000  1.0
  H  H8  1  0.39038000  0.81923000  0.16095000  1.0
  H  H9  1  0.10953000  0.68077000  0.66093000  1.0
  H  H10  1  0.56166000  0.23502000  0.75429000  1.0
  H  H11  1  0.93833000  0.26496000  0.25430000  1.0
  H  H12  1  0.43829000  0.76496000  0.24571000  1.0
  H  H13  1  0.06164000  0.73503000  0.74570000  1.0
  H  H14  1  0.14680000  0.60238000  0.95902000  1.0
  H  H15  1  0.35313000  0.89758000  0.45902000  1.0
  H  H16  1  0.85324000  0.39767000  0.04098000  1.0
  H  H17  1  0.64688000  0.10240000  0.54098000  1.0
  H  H18  1  0.19153000  0.44963000  0.88741000  1.0
  H  H19  1  0.30848000  0.05034000  0.38742000  1.0
  H  H20  1  0.80846000  0.55038000  0.11260000  1.0
  H  H21  1  0.69152000  0.94965000  0.61259000  1.0
  H  H22  1  0.05116000  0.60381000  0.81872000  1.0
  H  H23  1  0.44887000  0.89619000  0.31873000  1.0
  H  H24  1  0.94885000  0.39619000  0.18128000  1.0
  H  H25  1  0.55106000  0.10379000  0.68127000  1.0
  C  C26  1  0.91769000  0.91449000  0.89541000  1.0
  C  C27  1  0.58234000  0.58551000  0.39541000  1.0
  C  C28  1  0.08237000  0.08555000  0.10459000  1.0
  C  C29  1  0.41762000  0.41446000  0.60459000  1.0
  C  C30  1  0.93044000  0.83956000  0.85363000  1.0
  C  C31  1  0.56958000  0.66043000  0.35364000  1.0
  C  C32  1  0.06963000  0.16046000  0.14637000  1.0
  C  C33  1  0.43039000  0.33956000  0.64636000  1.0
  C  C34  1  0.69492000  0.09702000  0.81383000  1.0
  C  C35  1  0.80512000  0.40298000  0.31384000  1.0
  C  C36  1  0.30511000  0.90299000  0.18617000  1.0
  C  C37  1  0.19479000  0.59700000  0.68616000  1.0
  C  C38  1  0.84135000  0.94040000  0.81571000  1.0
  C  C39  1  0.65864000  0.55961000  0.31572000  1.0
  C  C40  1  0.15867000  0.05962000  0.18429000  1.0
  C  C41  1  0.34129000  0.44036000  0.68428000  1.0
  C  C42  1  0.08527000  0.66595000  0.92864000  1.0
  C  C43  1  0.41468000  0.83403000  0.42864000  1.0
  C  C44  1  0.91480000  0.33411000  0.07137000  1.0
  C  C45  1  0.58531000  0.16594000  0.57136000  1.0
  C  C46  1  0.11023000  0.58201000  0.88830000  1.0
  C  C47  1  0.38975000  0.91797000  0.38831000  1.0
  C  C48  1  0.88977000  0.41800000  0.11170000  1.0
  C  C49  1  0.61024000  0.08202000  0.61169000  1.0
  C  C50  1  0.03135000  0.66834000  0.85035000  1.0
  C  C51  1  0.46866000  0.83168000  0.35036000  1.0
  C  C52  1  0.96867000  0.33169000  0.14965000  1.0
  C  C53  1  0.53132000  0.16830000  0.64965000  1.0
  I  I54  1  0.54265000  0.24602000  0.96140000  1.0
  I  I55  1  0.95746000  0.25397000  0.46140000  1.0
  I  I56  1  0.45742000  0.75404000  0.03860000  1.0
  I  I57  1  0.04265000  0.74602000  0.53859000  1.0
  N  N58  1  0.99125000  0.83014000  0.93191000  1.0
  N  N59  1  0.50872000  0.66984000  0.43191000  1.0
  N  N60  1  0.00881000  0.16992000  0.06809000  1.0
  N  N61  1  0.49128000  0.33013000  0.56809000  1.0
  N  N62  1  0.66688000  0.13113000  0.77080000  1.0
  N  N63  1  0.83314000  0.36887000  0.27081000  1.0
  N  N64  1  0.33312000  0.86887000  0.22920000  1.0
  N  N65  1  0.16681000  0.63112000  0.72919000  1.0
  N  N66  1  0.89170000  0.89110000  0.77339000  1.0
  N  N67  1  0.60831000  0.60889000  0.27340000  1.0
  N  N68  1  0.10831000  0.10889000  0.22661000  1.0
  N  N69  1  0.39163000  0.39108000  0.72661000  1.0
  N  N70  1  0.78533000  0.00702000  0.74635000  1.0
  N  N71  1  0.71464000  0.49296000  0.24636000  1.0
  N  N72  1  0.21462000  0.99296000  0.25365000  1.0
  N  N73  1  0.28530000  0.50701000  0.75364000  1.0
