# generated using pymatgen
data_Zn2H19C32Br2N3O10
_symmetry_space_group_name_H-M   'P 1'
_cell_length_a   9.77296000
_cell_length_b   11.02000000
_cell_length_c   17.58470000
_cell_angle_alpha   84.97350000
_cell_angle_beta   87.34240000
_cell_angle_gamma   87.47740000
_symmetry_Int_Tables_number   1
_chemical_formula_structural   Zn2H19C32Br2N3O10
_chemical_formula_sum   'Zn2 H19 C32 Br2 N3 O10'
_cell_volume   1883.00569464
_cell_formula_units_Z   1
loop_
 _symmetry_equiv_pos_site_id
 _symmetry_equiv_pos_as_xyz
  1  'x, y, z'
loop_
 _atom_site_type_symbol
 _atom_site_label
 _atom_site_symmetry_multiplicity
 _atom_site_fract_x
 _atom_site_fract_y
 _atom_site_fract_z
 _atom_site_occupancy
  Zn  Zn0  1  0.36826000  0.50424000  0.50500000  1.0
  Zn  Zn1  1  0.65228000  0.49165000  0.50327000  1.0
  H  H2  1  0.65753000  0.62109000  0.73482000  1.0
  H  H3  1  0.61228000  0.65785000  0.99631000  1.0
  H  H4  1  0.26295000  0.45695000  0.89319000  1.0
  H  H5  1  0.38897000  0.43385000  0.11363000  1.0
  H  H6  1  0.28406000  0.42820000  0.75389000  1.0
  H  H7  1  0.34809000  0.51414000  0.00340000  1.0
  H  H8  1  0.63630000  0.65470000  0.87227000  1.0
  H  H9  1  0.65601000  0.73528000  0.12025000  1.0
  H  H10  1  0.73475000  0.88031000  0.51552000  1.0
  H  H11  1  0.72756000  0.10625000  0.51614000  1.0
  H  H12  1  0.17846000  0.11963000  0.51817000  1.0
  H  H13  1  0.21786000  0.12346000  0.41790000  1.0
  H  H14  1  0.18458000  0.89055000  0.52642000  1.0
  H  H15  1  0.22071000  0.89416000  0.42586000  1.0
  H  H16  1  0.16846000  0.38355000  0.41612000  1.0
  H  H17  1  0.10750000  0.59762000  0.66769000  1.0
  H  H18  1  0.09988000  0.72868000  0.60027000  1.0
  H  H19  1  0.84923000  0.58170000  0.66376000  1.0
  H  H20  1  0.84139000  0.71250000  0.59615000  1.0
  C  C21  1  0.52185000  0.73209000  0.50573000  1.0
  C  C22  1  0.49006000  0.49564000  0.65363000  1.0
  C  C23  1  0.51006000  0.26477000  0.49919000  1.0
  C  C24  1  0.50677000  0.53567000  0.35450000  1.0
  C  C25  1  0.47398000  0.51981000  0.73622000  1.0
  C  C26  1  0.57156000  0.58516000  0.77019000  1.0
  C  C27  1  0.55876000  0.60407000  0.84727000  1.0
  C  C28  1  0.44875000  0.55603000  0.89357000  1.0
  C  C29  1  0.34905000  0.49416000  0.85823000  1.0
  C  C30  1  0.36066000  0.47713000  0.78077000  1.0
  C  C31  1  0.44283000  0.49684000  0.14480000  1.0
  C  C32  1  0.43991000  0.48030000  0.22407000  1.0
  C  C33  1  0.58640000  0.64604000  0.22719000  1.0
  C  C34  1  0.59345000  0.66332000  0.14789000  1.0
  C  C35  1  0.51851000  0.58997000  0.10488000  1.0
  C  C36  1  0.43723000  0.55972000  0.97614000  1.0
  C  C37  1  0.52589000  0.60640000  0.02162000  1.0
  C  C38  1  0.50995000  0.55547000  0.26833000  1.0
  C  C39  1  0.39780000  0.93828000  0.49165000  1.0
  C  C40  1  0.51821000  0.86756000  0.50224000  1.0
  C  C41  1  0.63769000  0.93214000  0.50944000  1.0
  C  C42  1  0.63423000  0.05882000  0.50859000  1.0
  C  C43  1  0.51159000  0.12980000  0.49833000  1.0
  C  C44  1  0.39490000  0.06552000  0.48856000  1.0
  C  C45  1  0.24300000  0.07789000  0.47392000  1.0
  C  C46  1  0.24597000  0.93379000  0.47840000  1.0
  C  C47  1  0.92882000  0.54610000  0.54858000  1.0
  C  C48  1  0.95693000  0.42106000  0.45425000  1.0
  C  C49  1  0.09978000  0.43121000  0.45508000  1.0
  C  C50  1  0.06990000  0.55513000  0.55050000  1.0
  C  C51  1  0.06101000  0.63728000  0.61500000  1.0
  C  C52  1  0.89930000  0.62752000  0.61268000  1.0
  Br  Br53  1  0.89088000  0.31840000  0.38555000  1.0
  Br  Br54  1  0.34352000  0.34472000  0.27113000  1.0
  N  N55  1  0.86747000  0.48014000  0.50092000  1.0
  N  N56  1  0.15806000  0.49954000  0.50392000  1.0
  N  N57  1  0.66095000  0.73203000  0.26846000  1.0
  O  O58  1  0.40663000  0.68174000  0.51705000  1.0
  O  O59  1  0.63835000  0.67685000  0.49776000  1.0
  O  O60  1  0.38175000  0.46982000  0.62142000  1.0
  O  O61  1  0.60953000  0.50288000  0.62186000  1.0
  O  O62  1  0.39677000  0.32361000  0.48683000  1.0
  O  O63  1  0.62225000  0.31206000  0.51291000  1.0
  O  O64  1  0.38996000  0.54878000  0.38754000  1.0
  O  O65  1  0.61963000  0.50479000  0.38473000  1.0
  O  O66  1  0.60430000  0.76824000  0.32713000  1.0
  O  O67  1  0.77361000  0.76430000  0.24016000  1.0
