# generated using pymatgen
data_AgH4CN4
_symmetry_space_group_name_H-M   'P 1'
_cell_length_a   5.68149000
_cell_length_b   5.88947000
_cell_length_c   6.46961000
_cell_angle_alpha   68.62190000
_cell_angle_beta   73.75790000
_cell_angle_gamma   86.41130000
_symmetry_Int_Tables_number   1
_chemical_formula_structural   AgH4CN4
_chemical_formula_sum   'Ag2 H8 C2 N8'
_cell_volume   193.35134958
_cell_formula_units_Z   2
loop_
 _symmetry_equiv_pos_site_id
 _symmetry_equiv_pos_as_xyz
  1  'x, y, z'
loop_
 _atom_site_type_symbol
 _atom_site_label
 _atom_site_symmetry_multiplicity
 _atom_site_fract_x
 _atom_site_fract_y
 _atom_site_fract_z
 _atom_site_occupancy
  Ag  Ag0  1  0.06231000  0.07935000  0.74244000  1.0
  Ag  Ag1  1  0.93768000  0.92066000  0.25756000  1.0
  H  H2  1  0.03448000  0.54616000  0.71783000  1.0
  H  H3  1  0.96553000  0.45384000  0.28217000  1.0
  H  H4  1  0.23527000  0.42427000  0.85705000  1.0
  H  H5  1  0.76474000  0.57573000  0.14294000  1.0
  H  H6  1  0.42661000  0.75257000  0.50722000  1.0
  H  H7  1  0.57340000  0.24743000  0.49277000  1.0
  H  H8  1  0.32225000  0.60614000  0.35122000  1.0
  H  H9  1  0.67776000  0.39386000  0.64878000  1.0
  C  C10  1  0.38475000  0.57269000  0.50590000  1.0
  C  C11  1  0.61526000  0.42731000  0.49410000  1.0
  N  N12  1  0.81188000  0.81773000  0.73663000  1.0
  N  N13  1  0.18812000  0.18227000  0.26337000  1.0
  N  N14  1  0.59478000  0.80569000  0.82531000  1.0
  N  N15  1  0.40521000  0.19431000  0.17470000  1.0
  N  N16  1  0.38130000  0.78651000  0.90951000  1.0
  N  N17  1  0.61867000  0.21349000  0.09050000  1.0
  N  N18  1  0.18606000  0.43999000  0.71184000  1.0
  N  N19  1  0.81395000  0.56001000  0.28816000  1.0
