# generated using pymatgen
data_ZnH17C26NO4
_symmetry_space_group_name_H-M   'P 1'
_cell_length_a   13.93520000
_cell_length_b   15.32260000
_cell_length_c   17.22530000
_cell_angle_alpha   89.09610000
_cell_angle_beta   83.22580000
_cell_angle_gamma   87.33820000
_symmetry_Int_Tables_number   1
_chemical_formula_structural   ZnH17C26NO4
_chemical_formula_sum   'Zn2 H34 C52 N2 O8'
_cell_volume   3648.19185554
_cell_formula_units_Z   2
loop_
 _symmetry_equiv_pos_site_id
 _symmetry_equiv_pos_as_xyz
  1  'x, y, z'
loop_
 _atom_site_type_symbol
 _atom_site_label
 _atom_site_symmetry_multiplicity
 _atom_site_fract_x
 _atom_site_fract_y
 _atom_site_fract_z
 _atom_site_occupancy
  Zn  Zn0  1  0.59901000  0.49283000  0.49916000  1.0
  Zn  Zn1  1  0.39703000  0.50259000  0.50929000  1.0
  H  H2  1  0.37497000  0.59656000  0.27551000  1.0
  H  H3  1  0.94136000  0.57423000  0.39218000  1.0
  H  H4  1  0.32455000  0.55374000  0.75582000  1.0
  H  H5  1  0.67846000  0.52740000  0.24777000  1.0
  H  H6  1  0.39304000  0.60941000  0.01010000  1.0
  H  H7  1  0.61561000  0.59771000  0.99405000  1.0
  H  H8  1  0.68781000  0.56510000  0.10554000  1.0
  H  H9  1  0.31925000  0.60083000  0.89468000  1.0
  H  H10  1  0.63000000  0.56431000  0.87781000  1.0
  H  H11  1  0.38239000  0.63544000  0.13439000  1.0
  H  H12  1  0.63568000  0.93325000  0.54551000  1.0
  H  H13  1  0.63282000  0.51808000  0.74035000  1.0
  H  H14  1  0.41173000  0.05835000  0.40899000  1.0
  H  H15  1  0.34756000  0.78076000  0.48835000  1.0
  H  H16  1  0.58734000  0.21948000  0.59100000  1.0
  H  H17  1  0.34563000  0.94328000  0.48184000  1.0
  H  H18  1  0.57951000  0.05805000  0.60368000  1.0
  H  H19  1  0.58828000  0.69375000  0.65857000  1.0
  H  H20  1  0.73770000  0.62957000  0.70421000  1.0
  H  H21  1  0.89904000  0.66088000  0.63289000  1.0
  H  H22  1  0.90851000  0.75969000  0.51585000  1.0
  H  H23  1  0.75816000  0.82529000  0.47085000  1.0
  H  H24  1  0.06481000  0.63080000  0.46035000  1.0
  H  H25  1  0.26813000  0.16555000  0.40685000  1.0
  H  H26  1  0.19036000  0.23879000  0.29910000  1.0
  H  H27  1  0.28079000  0.34582000  0.21146000  1.0
  H  H28  1  0.44946000  0.37824000  0.23214000  1.0
  H  H29  1  0.52696000  0.30479000  0.33922000  1.0
  H  H30  1  0.92080000  0.41678000  0.60354000  1.0
  H  H31  1  0.24407000  0.62719000  0.46769000  1.0
  H  H32  1  0.74098000  0.42078000  0.60031000  1.0
  H  H33  1  0.24892000  0.36749000  0.53565000  1.0
  H  H34  1  0.76058000  0.57103000  0.39839000  1.0
  H  H35  1  0.06950000  0.35943000  0.53343000  1.0
  C  C36  1  0.48820000  0.66837000  0.51460000  1.0
  C  C37  1  0.54830000  0.18323000  0.55173000  1.0
  C  C38  1  0.40996000  0.90621000  0.49629000  1.0
  C  C39  1  0.54437000  0.09290000  0.55828000  1.0
  C  C40  1  0.49155000  0.95029000  0.51208000  1.0
  C  C41  1  0.49369000  0.04648000  0.50769000  1.0
  C  C42  1  0.10263000  0.57083000  0.47711000  1.0
  C  C43  1  0.88860000  0.45071000  0.55624000  1.0
  C  C44  1  0.20164000  0.56967000  0.48118000  1.0
  C  C45  1  0.78907000  0.45280000  0.55521000  1.0
  C  C46  1  0.20413000  0.42414000  0.52074000  1.0
  C  C47  1  0.50206000  0.32780000  0.49724000  1.0
  C  C48  1  0.79998000  0.53800000  0.44227000  1.0
  C  C49  1  0.10496000  0.42050000  0.51914000  1.0
  C  C50  1  0.89990000  0.53957000  0.43961000  1.0
  C  C51  1  0.51853000  0.52698000  0.35316000  1.0
  C  C52  1  0.48363000  0.50407000  0.65677000  1.0
  C  C53  1  0.05198000  0.49521000  0.49750000  1.0
  C  C54  1  0.94621000  0.49482000  0.49734000  1.0
  C  C55  1  0.52560000  0.55710000  0.26969000  1.0
  C  C56  1  0.47897000  0.53210000  0.74005000  1.0
  C  C57  1  0.44301000  0.58988000  0.23736000  1.0
  C  C58  1  0.57184000  0.90022000  0.53247000  1.0
  C  C59  1  0.56468000  0.53681000  0.77501000  1.0
  C  C60  1  0.44768000  0.61116000  0.15844000  1.0
  C  C61  1  0.56244000  0.56323000  0.85177000  1.0
  C  C62  1  0.53524000  0.59940000  0.10867000  1.0
  C  C63  1  0.47383000  0.58580000  0.89708000  1.0
  C  C64  1  0.61903000  0.57258000  0.14295000  1.0
  C  C65  1  0.38843000  0.58298000  0.86070000  1.0
  C  C66  1  0.61430000  0.55122000  0.22201000  1.0
  C  C67  1  0.39070000  0.55646000  0.78356000  1.0
  C  C68  1  0.54183000  0.60388000  0.02379000  1.0
  C  C69  1  0.44720000  0.09375000  0.45129000  1.0
  C  C70  1  0.46687000  0.60348000  0.98041000  1.0
  C  C71  1  0.66267000  0.76393000  0.56123000  1.0
  C  C72  1  0.65832000  0.70819000  0.62693000  1.0
  C  C73  1  0.74273000  0.67173000  0.65244000  1.0
  C  C74  1  0.83315000  0.68949000  0.61264000  1.0
  C  C75  1  0.83836000  0.74477000  0.54721000  1.0
  C  C76  1  0.75386000  0.78205000  0.52203000  1.0
  C  C77  1  0.40281000  0.23014000  0.38075000  1.0
  C  C78  1  0.30809000  0.21187000  0.36811000  1.0
  C  C79  1  0.26425000  0.25341000  0.30780000  1.0
  C  C80  1  0.57405000  0.80876000  0.53652000  1.0
  C  C81  1  0.31479000  0.31345000  0.25873000  1.0
  C  C82  1  0.40942000  0.33161000  0.27033000  1.0
  C  C83  1  0.45295000  0.29041000  0.33077000  1.0
  C  C84  1  0.44937000  0.18495000  0.44431000  1.0
  C  C85  1  0.49158000  0.76574000  0.51925000  1.0
  C  C86  1  0.50048000  0.23002000  0.49610000  1.0
  C  C87  1  0.41045000  0.81564000  0.50042000  1.0
  N  N88  1  0.25112000  0.49788000  0.50312000  1.0
  N  N89  1  0.74586000  0.49512000  0.49890000  1.0
  O  O90  1  0.56828000  0.62574000  0.49787000  1.0
  O  O91  1  0.42126000  0.37020000  0.49763000  1.0
  O  O92  1  0.40497000  0.63590000  0.52562000  1.0
  O  O93  1  0.58393000  0.36032000  0.49993000  1.0
  O  O94  1  0.59667000  0.49996000  0.37944000  1.0
  O  O95  1  0.40436000  0.49341000  0.62896000  1.0
  O  O96  1  0.43460000  0.52971000  0.39166000  1.0
  O  O97  1  0.56817000  0.49484000  0.61923000  1.0
