# generated using pymatgen
data_Zn2H18C41N2Cl3O11
_symmetry_space_group_name_H-M   'P 1'
_cell_length_a   13.25260000
_cell_length_b   13.83540000
_cell_length_c   28.58770000
_cell_angle_alpha   89.90970000
_cell_angle_beta   89.75030000
_cell_angle_gamma   89.86540000
_symmetry_Int_Tables_number   1
_chemical_formula_structural   Zn2H18C41N2Cl3O11
_chemical_formula_sum   'Zn4 H36 C82 N4 Cl6 O22'
_cell_volume   5241.62769661
_cell_formula_units_Z   2
loop_
 _symmetry_equiv_pos_site_id
 _symmetry_equiv_pos_as_xyz
  1  'x, y, z'
loop_
 _atom_site_type_symbol
 _atom_site_label
 _atom_site_symmetry_multiplicity
 _atom_site_fract_x
 _atom_site_fract_y
 _atom_site_fract_z
 _atom_site_occupancy
  Zn  Zn0  1  0.50940000  0.40322000  0.49654000  1.0
  Zn  Zn1  1  0.48854000  0.60243000  0.50128000  1.0
  Zn  Zn2  1  0.50965000  0.59748000  0.03728000  1.0
  Zn  Zn3  1  0.48987000  0.39835000  0.03262000  1.0
  H  H4  1  0.39849000  0.25603000  0.54859000  1.0
  H  H5  1  0.32294000  0.10180000  0.58357000  1.0
  H  H6  1  0.61933000  0.24531000  0.44592000  1.0
  H  H7  1  0.60118000  0.74879000  0.45015000  1.0
  H  H8  1  0.67891000  0.90290000  0.41619000  1.0
  H  H9  1  0.38115000  0.75945000  0.55309000  1.0
  H  H10  1  0.50549000  0.62669000  0.18965000  1.0
  H  H11  1  0.49898000  0.31915000  0.17609000  1.0
  H  H12  1  0.50605000  0.37257000  0.34413000  1.0
  H  H13  1  0.49894000  0.68011000  0.35775000  1.0
  H  H14  1  0.49686000  0.65455000  0.64816000  1.0
  H  H15  1  0.49809000  0.74544000  0.72310000  1.0
  H  H16  1  0.50139000  0.34483000  0.64789000  1.0
  H  H17  1  0.49739000  0.34498000  0.88573000  1.0
  H  H18  1  0.49762000  0.25409000  0.81076000  1.0
  H  H19  1  0.50334000  0.65467000  0.88595000  1.0
  H  H20  1  0.83386000  0.37212000  0.49816000  1.0
  H  H21  1  0.80164000  0.67950000  0.50062000  1.0
  H  H22  1  0.16477000  0.62721000  0.50056000  1.0
  H  H23  1  0.19703000  0.31981000  0.49885000  1.0
  H  H24  1  0.39847000  0.74543000  0.98558000  1.0
  H  H25  1  0.32362000  0.90025000  0.95081000  1.0
  H  H26  1  0.61970000  0.75468000  0.08720000  1.0
  H  H27  1  0.60231000  0.25131000  0.08334000  1.0
  H  H28  1  0.68010000  0.09667000  0.11678000  1.0
  H  H29  1  0.38304000  0.24219000  0.98093000  1.0
  H  H30  1  0.83404000  0.62939000  0.03596000  1.0
  H  H31  1  0.80337000  0.32205000  0.03383000  1.0
  H  H32  1  0.16629000  0.37428000  0.03426000  1.0
  H  H33  1  0.19688000  0.68171000  0.03601000  1.0
  H  H34  1  0.50035000  0.71858000  0.23584000  1.0
  H  H35  1  0.50043000  0.28085000  0.29801000  1.0
  H  H36  1  0.93407000  0.28064000  0.50053000  1.0
  H  H37  1  0.06455000  0.71896000  0.50068000  1.0
  H  H38  1  0.93374000  0.72080000  0.03483000  1.0
  H  H39  1  0.06639000  0.28249000  0.03547000  1.0
  C  C40  1  0.49796000  0.50092000  0.59097000  1.0
  C  C41  1  0.30161000  0.48867000  0.49963000  1.0
  C  C42  1  0.50168000  0.51323000  0.40710000  1.0
  C  C43  1  0.69695000  0.51167000  0.49873000  1.0
  C  C44  1  0.49945000  0.49869000  0.94289000  1.0
  C  C45  1  0.30242000  0.51296000  0.03478000  1.0
  C  C46  1  0.50160000  0.48616000  0.12672000  1.0
  C  C47  1  0.69783000  0.48997000  0.03509000  1.0
  C  C48  1  0.44534000  0.20930000  0.52672000  1.0
  C  C49  1  0.43890000  0.10825000  0.52922000  1.0
  C  C50  1  0.37145000  0.05946000  0.56049000  1.0
  C  C51  1  0.56995000  0.20336000  0.46873000  1.0
  C  C52  1  0.57017000  0.10207000  0.46804000  1.0
  C  C53  1  0.63390000  0.04421000  0.43809000  1.0
  C  C54  1  0.55486000  0.79568000  0.47219000  1.0
  C  C55  1  0.56210000  0.89667000  0.47010000  1.0
  C  C56  1  0.63010000  0.94538000  0.43909000  1.0
  C  C57  1  0.43041000  0.80157000  0.53029000  1.0
  C  C58  1  0.43082000  0.90283000  0.53128000  1.0
  C  C59  1  0.36761000  0.96062000  0.56147000  1.0
  C  C60  1  0.50273000  0.05351000  0.49907000  1.0
  C  C61  1  0.49831000  0.95138000  0.50028000  1.0
  C  C62  1  0.50465000  0.55659000  0.20729000  1.0
  C  C63  1  0.50183000  0.38210000  0.19880000  1.0
  C  C64  1  0.50315000  0.37058000  0.24674000  1.0
  C  C65  1  0.50457000  0.45230000  0.27734000  1.0
  C  C66  1  0.50501000  0.44269000  0.32650000  1.0
  C  C67  1  0.50189000  0.61718000  0.33501000  1.0
  C  C68  1  0.50308000  0.62877000  0.28707000  1.0
  C  C69  1  0.50443000  0.54704000  0.25645000  1.0
  C  C70  1  0.50314000  0.47561000  0.17892000  1.0
  C  C71  1  0.50336000  0.52368000  0.35489000  1.0
  C  C72  1  0.49779000  0.58712000  0.66789000  1.0
  C  C73  1  0.49865000  0.58847000  0.71690000  1.0
  C  C74  1  0.49879000  0.67745000  0.74242000  1.0
  C  C75  1  0.49995000  0.41187000  0.66772000  1.0
  C  C76  1  0.49938000  0.40979000  0.71673000  1.0
  C  C77  1  0.49886000  0.32169000  0.74367000  1.0
  C  C78  1  0.49848000  0.41241000  0.86598000  1.0
  C  C79  1  0.49885000  0.41104000  0.81697000  1.0
  C  C80  1  0.49835000  0.32207000  0.79143000  1.0
  C  C81  1  0.50148000  0.58764000  0.86613000  1.0
  C  C82  1  0.50043000  0.58972000  0.81713000  1.0
  C  C83  1  0.49990000  0.67781000  0.79018000  1.0
  C  C84  1  0.49866000  0.49969000  0.64350000  1.0
  C  C85  1  0.49918000  0.49914000  0.74209000  1.0
  C  C86  1  0.49997000  0.49984000  0.89037000  1.0
  C  C87  1  0.49950000  0.50037000  0.79177000  1.0
  C  C88  1  0.87131000  0.44233000  0.49888000  1.0
  C  C89  1  0.85135000  0.61679000  0.50001000  1.0
  C  C90  1  0.95468000  0.62871000  0.50024000  1.0
  C  C91  1  0.02138000  0.54714000  0.49996000  1.0
  C  C92  1  0.12726000  0.55701000  0.50018000  1.0
  C  C93  1  0.14739000  0.38258000  0.49933000  1.0
  C  C94  1  0.04400000  0.37070000  0.49946000  1.0
  C  C95  1  0.97724000  0.45223000  0.49945000  1.0
  C  C96  1  0.80938000  0.52314000  0.49915000  1.0
  C  C97  1  0.18929000  0.47628000  0.49972000  1.0
  C  C98  1  0.44561000  0.79186000  0.00719000  1.0
  C  C99  1  0.43960000  0.89296000  0.00467000  1.0
  C  C100  1  0.37231000  0.94224000  0.97367000  1.0
  C  C101  1  0.57034000  0.79698000  0.06464000  1.0
  C  C102  1  0.57089000  0.89827000  0.06531000  1.0
  C  C103  1  0.63479000  0.95569000  0.09500000  1.0
  C  C104  1  0.55618000  0.20474000  0.06134000  1.0
  C  C105  1  0.56331000  0.10371000  0.06334000  1.0
  C  C106  1  0.63119000  0.05454000  0.09407000  1.0
  C  C107  1  0.43211000  0.19970000  0.00357000  1.0
  C  C108  1  0.43225000  0.09845000  0.00258000  1.0
  C  C109  1  0.36887000  0.04111000  0.97266000  1.0
  C  C110  1  0.50362000  0.94728000  0.03454000  1.0
  C  C111  1  0.49950000  0.04945000  0.03336000  1.0
  C  C112  1  0.87185000  0.55918000  0.03545000  1.0
  C  C113  1  0.85275000  0.38475000  0.03448000  1.0
  C  C114  1  0.95615000  0.37280000  0.03471000  1.0
  C  C115  1  0.02247000  0.45434000  0.03491000  1.0
  C  C116  1  0.12843000  0.44448000  0.03470000  1.0
  C  C117  1  0.14761000  0.61892000  0.03550000  1.0
  C  C118  1  0.04415000  0.63077000  0.03542000  1.0
  C  C119  1  0.97784000  0.54925000  0.03524000  1.0
  C  C120  1  0.81031000  0.47841000  0.03500000  1.0
  C  C121  1  0.19002000  0.52524000  0.03502000  1.0
  N  N122  1  0.50906000  0.25405000  0.49730000  1.0
  N  N123  1  0.49065000  0.75110000  0.50140000  1.0
  N  N124  1  0.50920000  0.74670000  0.03637000  1.0
  N  N125  1  0.49223000  0.24974000  0.03233000  1.0
  Cl  Cl126  1  0.28577000  0.90317000  0.59939000  1.0
  Cl  Cl127  1  0.71631000  0.10152000  0.40038000  1.0
  Cl  Cl128  1  0.50025000  0.78790000  0.81931000  1.0
  Cl  Cl129  1  0.49854000  0.21159000  0.71455000  1.0
  Cl  Cl130  1  0.28731000  0.09913000  0.93501000  1.0
  Cl  Cl131  1  0.71717000  0.89777000  0.13231000  1.0
  O  O132  1  0.50658000  0.42069000  0.56963000  1.0
  O  O133  1  0.48864000  0.58375000  0.57181000  1.0
  O  O134  1  0.33585000  0.57463000  0.50067000  1.0
  O  O135  1  0.35464000  0.41167000  0.49846000  1.0
  O  O136  1  0.49410000  0.59162000  0.43024000  1.0
  O  O137  1  0.50752000  0.42855000  0.42455000  1.0
  O  O138  1  0.66180000  0.42592000  0.49644000  1.0
  O  O139  1  0.64471000  0.58882000  0.50079000  1.0
  O  O140  1  0.50818000  0.57886000  0.96421000  1.0
  O  O141  1  0.49004000  0.41592000  0.96210000  1.0
  O  O142  1  0.33715000  0.42704000  0.03379000  1.0
  O  O143  1  0.35502000  0.59004000  0.03561000  1.0
  O  O144  1  0.49483000  0.40773000  0.10361000  1.0
  O  O145  1  0.50682000  0.57085000  0.10926000  1.0
  O  O146  1  0.66226000  0.57574000  0.03751000  1.0
  O  O147  1  0.64594000  0.41291000  0.03271000  1.0
  O  O148  1  0.50223000  0.72115000  0.26988000  1.0
  O  O149  1  0.50243000  0.27823000  0.26396000  1.0
  O  O150  1  0.00753000  0.27824000  0.49950000  1.0
  O  O151  1  0.99106000  0.72119000  0.50079000  1.0
  O  O152  1  0.00720000  0.72321000  0.03555000  1.0
  O  O153  1  0.99293000  0.28029000  0.03467000  1.0
