# generated using pymatgen
data_Cu2H18C24N4O9
_symmetry_space_group_name_H-M   'P 1'
_cell_length_a   10.74110000
_cell_length_b   13.79150000
_cell_length_c   19.02750000
_cell_angle_alpha   90.03240000
_cell_angle_beta   90.02950000
_cell_angle_gamma   76.65800000
_symmetry_Int_Tables_number   1
_chemical_formula_structural   Cu2H18C24N4O9
_chemical_formula_sum   'Cu8 H72 C96 N16 O36'
_cell_volume   2742.57923798
_cell_formula_units_Z   4
loop_
 _symmetry_equiv_pos_site_id
 _symmetry_equiv_pos_as_xyz
  1  'x, y, z'
loop_
 _atom_site_type_symbol
 _atom_site_label
 _atom_site_symmetry_multiplicity
 _atom_site_fract_x
 _atom_site_fract_y
 _atom_site_fract_z
 _atom_site_occupancy
  Cu  Cu0  1  0.07685000  0.15470000  0.12031000  1.0
  Cu  Cu1  1  0.92276000  0.34506000  0.61974000  1.0
  Cu  Cu2  1  0.92324000  0.84517000  0.87973000  1.0
  Cu  Cu3  1  0.07704000  0.65462000  0.37953000  1.0
  Cu  Cu4  1  0.26182000  0.78745000  0.48358000  1.0
  Cu  Cu5  1  0.73809000  0.71252000  0.98355000  1.0
  Cu  Cu6  1  0.73947000  0.21281000  0.51675000  1.0
  Cu  Cu7  1  0.26199000  0.28731000  0.01633000  1.0
  H  H8  1  0.01545000  0.97682000  0.06221000  1.0
  H  H9  1  0.98441000  0.52315000  0.56183000  1.0
  H  H10  1  0.98459000  0.02314000  0.93773000  1.0
  H  H11  1  0.01579000  0.47691000  0.43760000  1.0
  H  H12  1  0.19868000  0.97864000  0.22326000  1.0
  H  H13  1  0.80156000  0.52137000  0.72312000  1.0
  H  H14  1  0.80119000  0.02102000  0.77702000  1.0
  H  H15  1  0.19925000  0.47864000  0.27667000  1.0
  H  H16  1  0.09068000  0.97006000  0.51913000  1.0
  H  H17  1  0.90906000  0.53001000  0.01933000  1.0
  H  H18  1  0.90918000  0.02944000  0.48093000  1.0
  H  H19  1  0.09098000  0.46972000  0.98049000  1.0
  H  H20  1  0.45955000  0.59733000  0.53301000  1.0
  H  H21  1  0.54016000  0.90300000  0.03272000  1.0
  H  H22  1  0.54066000  0.40320000  0.46709000  1.0
  H  H23  1  0.45987000  0.09689000  0.96718000  1.0
  H  H24  1  0.17121000  0.08507000  0.43661000  1.0
  H  H25  1  0.82898000  0.41481000  0.93639000  1.0
  H  H26  1  0.82861000  0.91466000  0.56369000  1.0
  H  H27  1  0.17067000  0.58501000  0.06335000  1.0
  H  H28  1  0.61863000  0.13616000  0.18281000  1.0
  H  H29  1  0.38091000  0.36408000  0.68293000  1.0
  H  H30  1  0.38144000  0.86371000  0.81720000  1.0
  H  H31  1  0.61870000  0.63587000  0.31707000  1.0
  H  H32  1  0.81251000  0.20932000  0.18245000  1.0
  H  H33  1  0.18698000  0.29097000  0.68236000  1.0
  H  H34  1  0.18756000  0.79053000  0.81762000  1.0
  H  H35  1  0.81251000  0.70909000  0.31728000  1.0
  H  H36  1  0.05239000  0.27949000  0.25870000  1.0
  H  H37  1  0.94799000  0.22055000  0.75834000  1.0
  H  H38  1  0.94759000  0.72017000  0.74155000  1.0
  H  H39  1  0.05237000  0.77940000  0.24143000  1.0
  H  H40  1  0.07391000  0.25621000  0.39015000  1.0
  H  H41  1  0.92641000  0.24374000  0.88979000  1.0
  H  H42  1  0.92615000  0.74351000  0.61010000  1.0
  H  H43  1  0.07340000  0.75611000  0.10994000  1.0
  H  H44  1  0.41279000  0.80354000  0.61754000  1.0
  H  H45  1  0.58663000  0.69673000  0.11733000  1.0
  H  H46  1  0.58740000  0.19705000  0.38290000  1.0
  H  H47  1  0.41357000  0.30318000  0.88252000  1.0
  H  H48  1  0.75784000  0.80610000  0.47481000  1.0
  H  H49  1  0.24204000  0.69363000  0.97521000  1.0
  H  H50  1  0.24283000  0.19388000  0.52497000  1.0
  H  H51  1  0.75801000  0.30623000  0.02478000  1.0
  H  H52  1  0.84120000  0.64802000  0.53991000  1.0
  H  H53  1  0.15873000  0.85191000  0.04018000  1.0
  H  H54  1  0.15918000  0.35214000  0.46006000  1.0
  H  H55  1  0.84133000  0.14799000  0.95978000  1.0
  H  H56  1  0.41301000  0.93916000  0.70536000  1.0
  H  H57  1  0.58629000  0.56133000  0.20519000  1.0
  H  H58  1  0.58641000  0.06183000  0.29494000  1.0
  H  H59  1  0.41406000  0.43871000  0.79481000  1.0
  H  H60  1  0.23877000  0.09699000  0.69892000  1.0
  H  H61  1  0.76052000  0.40347000  0.19893000  1.0
  H  H62  1  0.76023000  0.90364000  0.30103000  1.0
  H  H63  1  0.23984000  0.59658000  0.80113000  1.0
  H  H64  1  0.62980000  0.97298000  0.12193000  1.0
  H  H65  1  0.36991000  0.52715000  0.62201000  1.0
  H  H66  1  0.37022000  0.02697000  0.87799000  1.0
  H  H67  1  0.63007000  0.47285000  0.37809000  1.0
  H  H68  1  0.52318000  0.85448000  0.44379000  1.0
  H  H69  1  0.47654000  0.64541000  0.94392000  1.0
  H  H70  1  0.47752000  0.14571000  0.55599000  1.0
  H  H71  1  0.52351000  0.35441000  0.05605000  1.0
  H  H72  1  0.24915000  0.25714000  0.14334000  1.0
  H  H73  1  0.74939000  0.24280000  0.64424000  1.0
  H  H74  1  0.75089000  0.74274000  0.85659000  1.0
  H  H75  1  0.24906000  0.75717000  0.35657000  1.0
  H  H76  1  0.30918000  0.14103000  0.10671000  1.0
  H  H77  1  0.68968000  0.35933000  0.60772000  1.0
  H  H78  1  0.69089000  0.85881000  0.89326000  1.0
  H  H79  1  0.30930000  0.64111000  0.39318000  1.0
  C  C80  1  0.92692000  0.00869000  0.08960000  1.0
  C  C81  1  0.07283000  0.49140000  0.58937000  1.0
  C  C82  1  0.07313000  0.99124000  0.91037000  1.0
  C  C83  1  0.92721000  0.50871000  0.41021000  1.0
  C  C84  1  0.65531000  0.61087000  0.54377000  1.0
  C  C85  1  0.34449000  0.88928000  0.04372000  1.0
  C  C86  1  0.34494000  0.38947000  0.45632000  1.0
  C  C87  1  0.65556000  0.11061000  0.95620000  1.0
  C  C88  1  0.04268000  0.13684000  0.59650000  1.0
  C  C89  1  0.95694000  0.36344000  0.09664000  1.0
  C  C90  1  0.95685000  0.86326000  0.40324000  1.0
  C  C91  1  0.04325000  0.63643000  0.90337000  1.0
  C  C92  1  0.17480000  0.03908000  0.26147000  1.0
  C  C93  1  0.82544000  0.46091000  0.76128000  1.0
  C  C94  1  0.82507000  0.96055000  0.73883000  1.0
  C  C95  1  0.17515000  0.53905000  0.23848000  1.0
  C  C96  1  0.82639000  0.96030000  0.08904000  1.0
  C  C97  1  0.17337000  0.53980000  0.58894000  1.0
  C  C98  1  0.17364000  0.03966000  0.91088000  1.0
  C  C99  1  0.82672000  0.46035000  0.41089000  1.0
  C  C100  1  0.15067000  0.04591000  0.60844000  1.0
  C  C101  1  0.84882000  0.45435000  0.10855000  1.0
  C  C102  1  0.84877000  0.95417000  0.39156000  1.0
  C  C103  1  0.15136000  0.54555000  0.89139000  1.0
  C  C104  1  0.19523000  0.01956000  0.33322000  1.0
  C  C105  1  0.80491000  0.48037000  0.83305000  1.0
  C  C106  1  0.80456000  0.98012000  0.66708000  1.0
  C  C107  1  0.19527000  0.51952000  0.16671000  1.0
  C  C108  1  0.15952000  0.96666000  0.56147000  1.0
  C  C109  1  0.84005000  0.53353000  0.06157000  1.0
  C  C110  1  0.84017000  0.03325000  0.43864000  1.0
  C  C111  1  0.16004000  0.46627000  0.93828000  1.0
  C  C112  1  0.84731000  0.86386000  0.04810000  1.0
  C  C113  1  0.15247000  0.63621000  0.54803000  1.0
  C  C114  1  0.15268000  0.13611000  0.95179000  1.0
  C  C115  1  0.84753000  0.36421000  0.45196000  1.0
  C  C116  1  0.52808000  0.64232000  0.52204000  1.0
  C  C117  1  0.47165000  0.85788000  0.02189000  1.0
  C  C118  1  0.47221000  0.35810000  0.47802000  1.0
  C  C119  1  0.52839000  0.14201000  0.97803000  1.0
  C  C120  1  0.15940000  0.09889000  0.38042000  1.0
  C  C121  1  0.84081000  0.40102000  0.88018000  1.0
  C  C122  1  0.84047000  0.90081000  0.61987000  1.0
  C  C123  1  0.15913000  0.59882000  0.11956000  1.0
  C  C124  1  0.24548000  0.91489000  0.35837000  1.0
  C  C125  1  0.75452000  0.58502000  0.85826000  1.0
  C  C126  1  0.75402000  0.08477000  0.64197000  1.0
  C  C127  1  0.24557000  0.41486000  0.14153000  1.0
  C  C128  1  0.70630000  0.09683000  0.15703000  1.0
  C  C129  1  0.29332000  0.40338000  0.65704000  1.0
  C  C130  1  0.29376000  0.90307000  0.84296000  1.0
  C  C131  1  0.70644000  0.59662000  0.34284000  1.0
  C  C132  1  0.81243000  0.13877000  0.15680000  1.0
  C  C133  1  0.18715000  0.36147000  0.65672000  1.0
  C  C134  1  0.18765000  0.86111000  0.84324000  1.0
  C  C135  1  0.81257000  0.63859000  0.34298000  1.0
  C  C136  1  0.09185000  0.20661000  0.28206000  1.0
  C  C137  1  0.90850000  0.29340000  0.78175000  1.0
  C  C138  1  0.90815000  0.79304000  0.71820000  1.0
  C  C139  1  0.09185000  0.70655000  0.21801000  1.0
  C  C140  1  0.10617000  0.19377000  0.35447000  1.0
  C  C141  1  0.89413000  0.30617000  0.85415000  1.0
  C  C142  1  0.89384000  0.80592000  0.64581000  1.0
  C  C143  1  0.10587000  0.69369000  0.14558000  1.0
  C  C144  1  0.34002000  0.87326000  0.61660000  1.0
  C  C145  1  0.65943000  0.62704000  0.11648000  1.0
  C  C146  1  0.65995000  0.12724000  0.38375000  1.0
  C  C147  1  0.34076000  0.37286000  0.88340000  1.0
  C  C148  1  0.69697000  0.51305000  0.58154000  1.0
  C  C149  1  0.30279000  0.98724000  0.08136000  1.0
  C  C150  1  0.30311000  0.48737000  0.41865000  1.0
  C  C151  1  0.69730000  0.01262000  0.91862000  1.0
  C  C152  1  0.69387000  0.75880000  0.48970000  1.0
  C  C153  1  0.30599000  0.74105000  0.98997000  1.0
  C  C154  1  0.30670000  0.24131000  0.51015000  1.0
  C  C155  1  0.69405000  0.25883000  0.00999000  1.0
  C  C156  1  0.74010000  0.67042000  0.52642000  1.0
  C  C157  1  0.25977000  0.82954000  0.02661000  1.0
  C  C158  1  0.26029000  0.32977000  0.47354000  1.0
  C  C159  1  0.74027000  0.17034000  0.97334000  1.0
  C  C160  1  0.33877000  0.94897000  0.66528000  1.0
  C  C161  1  0.66063000  0.55143000  0.16516000  1.0
  C  C162  1  0.66080000  0.05170000  0.33497000  1.0
  C  C163  1  0.33966000  0.44854000  0.83478000  1.0
  C  C164  1  0.24285000  0.03656000  0.66141000  1.0
  C  C165  1  0.75656000  0.46380000  0.16141000  1.0
  C  C166  1  0.75646000  0.96391000  0.33865000  1.0
  C  C167  1  0.24371000  0.53616000  0.83858000  1.0
  C  C168  1  0.71264000  0.00607000  0.12310000  1.0
  C  C169  1  0.28705000  0.49407000  0.62310000  1.0
  C  C170  1  0.28740000  0.99386000  0.87685000  1.0
  C  C171  1  0.71288000  0.50597000  0.37684000  1.0
  C  C172  1  0.56464000  0.78531000  0.47168000  1.0
  C  C173  1  0.43511000  0.71463000  0.97179000  1.0
  C  C174  1  0.43593000  0.21490000  0.52817000  1.0
  C  C175  1  0.56493000  0.28523000  0.02817000  1.0
  N  N176  1  0.92114000  0.09522000  0.12297000  1.0
  N  N177  1  0.07854000  0.40495000  0.62275000  1.0
  N  N178  1  0.07893000  0.90468000  0.87705000  1.0
  N  N179  1  0.92139000  0.59514000  0.37676000  1.0
  N  N180  1  0.25177000  0.88282000  0.56528000  1.0
  N  N181  1  0.74779000  0.61736000  0.06526000  1.0
  N  N182  1  0.74828000  0.11735000  0.43505000  1.0
  N  N183  1  0.25234000  0.38245000  0.93458000  1.0
  N  N184  1  0.48296000  0.72783000  0.48733000  1.0
  N  N185  1  0.51671000  0.77227000  0.98724000  1.0
  N  N186  1  0.51743000  0.27253000  0.51261000  1.0
  N  N187  1  0.48331000  0.22761000  0.01268000  1.0
  N  N188  1  0.12501000  0.13055000  0.23628000  1.0
  N  N189  1  0.87535000  0.36949000  0.73604000  1.0
  N  N190  1  0.87500000  0.86910000  0.76399000  1.0
  N  N191  1  0.12530000  0.63051000  0.26373000  1.0
  O  O192  1  0.81814000  0.48181000  0.58986000  1.0
  O  O193  1  0.18171000  0.01814000  0.09014000  1.0
  O  O194  1  0.18200000  0.51819000  0.40989000  1.0
  O  O195  1  0.81838000  0.98172000  0.90990000  1.0
  O  O196  1  0.04008000  0.21116000  0.63830000  1.0
  O  O197  1  0.95973000  0.28920000  0.13846000  1.0
  O  O198  1  0.95975000  0.78914000  0.36124000  1.0
  O  O199  1  0.04046000  0.71071000  0.86157000  1.0
  O  O200  1  0.23800000  0.20603000  0.10346000  1.0
  O  O201  1  0.76023000  0.29417000  0.60461000  1.0
  O  O202  1  0.76203000  0.79377000  0.89651000  1.0
  O  O203  1  0.23802000  0.70609000  0.39644000  1.0
  O  O204  1  0.61306000  0.46739000  0.60082000  1.0
  O  O205  1  0.38657000  0.03338000  0.10012000  1.0
  O  O206  1  0.38682000  0.53348000  0.39981000  1.0
  O  O207  1  0.61354000  0.96646000  0.89985000  1.0
  O  O208  1  0.95262000  0.83210000  0.01845000  1.0
  O  O209  1  0.04715000  0.66799000  0.51840000  1.0
  O  O210  1  0.04732000  0.16798000  0.98134000  1.0
  O  O211  1  0.95268000  0.33259000  0.48190000  1.0
  O  O212  1  0.74976000  0.82386000  0.04706000  1.0
  O  O213  1  0.25008000  0.67616000  0.54702000  1.0
  O  O214  1  0.25032000  0.17602000  0.95288000  1.0
  O  O215  1  0.75012000  0.32404000  0.45305000  1.0
  O  O216  1  0.27875000  0.90461000  0.42313000  1.0
  O  O217  1  0.72124000  0.59529000  0.92300000  1.0
  O  O218  1  0.72106000  0.09517000  0.57722000  1.0
  O  O219  1  0.27887000  0.40451000  0.07680000  1.0
  O  O220  1  0.96732000  0.13303000  0.54731000  1.0
  O  O221  1  0.03216000  0.36738000  0.04742000  1.0
  O  O222  1  0.03222000  0.86704000  0.45248000  1.0
  O  O223  1  0.96812000  0.63248000  0.95259000  1.0
  O  O224  1  0.24811000  0.84448000  0.31489000  1.0
  O  O225  1  0.75182000  0.65545000  0.81483000  1.0
  O  O226  1  0.75096000  0.15513000  0.68563000  1.0
  O  O227  1  0.24819000  0.34449000  0.18499000  1.0
