# generated using pymatgen
data_Cd2H19C37N8ClO6
_symmetry_space_group_name_H-M   'P 1'
_cell_length_a   9.89370000
_cell_length_b   12.28360000
_cell_length_c   15.72340000
_cell_angle_alpha   67.73020000
_cell_angle_beta   74.18680000
_cell_angle_gamma   80.02580000
_symmetry_Int_Tables_number   1
_chemical_formula_structural   Cd2H19C37N8ClO6
_chemical_formula_sum   'Cd4 H38 C74 N16 Cl2 O12'
_cell_volume   1696.15771031
_cell_formula_units_Z   2
loop_
 _symmetry_equiv_pos_site_id
 _symmetry_equiv_pos_as_xyz
  1  'x, y, z'
loop_
 _atom_site_type_symbol
 _atom_site_label
 _atom_site_symmetry_multiplicity
 _atom_site_fract_x
 _atom_site_fract_y
 _atom_site_fract_z
 _atom_site_occupancy
  Cd  Cd0  1  0.72052000  0.39135000  0.60539000  1.0
  Cd  Cd1  1  0.27948000  0.60865000  0.39461000  1.0
  Cd  Cd2  1  0.84070000  0.72252000  0.39104000  1.0
  Cd  Cd3  1  0.15929000  0.27748000  0.60896000  1.0
  H  H4  1  0.08639000  0.91253000  0.30531000  1.0
  H  H5  1  0.91361000  0.08747000  0.69469000  1.0
  H  H6  1  0.23163000  0.03346000  0.14804000  1.0
  H  H7  1  0.76837000  0.96654000  0.85196000  1.0
  H  H8  1  0.67777000  0.76901000  0.63776000  1.0
  H  H9  1  0.32224000  0.23099000  0.36223000  1.0
  H  H10  1  0.92121000  0.55450000  0.64715000  1.0
  H  H11  1  0.07879000  0.44550000  0.35285000  1.0
  H  H12  1  0.92683000  0.62454000  0.77690000  1.0
  H  H13  1  0.07317000  0.37545000  0.22310000  1.0
  H  H14  1  0.78087000  0.52747000  0.93986000  1.0
  H  H15  1  0.21913000  0.47253000  0.06014000  1.0
  H  H16  1  0.52386000  0.35376000  0.20492000  1.0
  H  H17  1  0.47614000  0.64624000  0.79508000  1.0
  H  H18  1  0.36661000  0.20235000  0.22274000  1.0
  H  H19  1  0.63338000  0.79765000  0.77726000  1.0
  H  H20  1  0.37266000  0.10282000  0.99839000  1.0
  H  H21  1  0.62735000  0.89717000  0.00162000  1.0
  H  H22  1  0.37314000  0.05599000  0.85301000  1.0
  H  H23  1  0.62688000  0.94400000  0.14700000  1.0
  H  H24  1  0.52468000  0.16743000  0.69963000  1.0
  H  H25  1  0.47533000  0.83256000  0.30037000  1.0
  H  H26  1  0.22495000  0.99240000  0.00287000  1.0
  H  H27  1  0.77504000  0.00760000  0.99714000  1.0
  H  H28  1  0.22349000  0.89987000  0.77506000  1.0
  H  H29  1  0.77651000  0.10013000  0.22494000  1.0
  H  H30  1  0.07184000  0.74341000  0.79489000  1.0
  H  H31  1  0.92817000  0.25659000  0.20511000  1.0
  H  H32  1  0.82098000  0.56360000  0.06177000  1.0
  H  H33  1  0.17903000  0.43639000  0.93823000  1.0
  H  H34  1  0.67921000  0.46277000  0.22695000  1.0
  H  H35  1  0.32079000  0.53722000  0.77305000  1.0
  H  H36  1  0.69495000  0.52308000  0.35700000  1.0
  H  H37  1  0.30505000  0.47692000  0.64300000  1.0
  H  H38  1  0.55434000  0.95673000  0.66005000  1.0
  H  H39  1  0.44567000  0.04327000  0.33994000  1.0
  H  H40  1  0.23617000  0.93809000  0.52905000  1.0
  H  H41  1  0.76383000  0.06192000  0.47095000  1.0
  C  C42  1  0.08510000  0.90163000  0.23973000  1.0
  C  C43  1  0.91489000  0.09837000  0.76027000  1.0
  C  C44  1  0.16636000  0.96777000  0.15213000  1.0
  C  C45  1  0.83363000  0.03223000  0.84787000  1.0
  C  C46  1  0.51975000  0.74451000  0.57729000  1.0
  C  C47  1  0.48025000  0.25549000  0.42271000  1.0
  C  C48  1  0.57747000  0.80438000  0.61760000  1.0
  C  C49  1  0.42254000  0.19562000  0.38240000  1.0
  C  C50  1  0.58337000  0.62278000  0.58127000  1.0
  C  C51  1  0.41663000  0.37722000  0.41872000  1.0
  C  C52  1  0.85762000  0.51602000  0.71860000  1.0
  C  C53  1  0.14239000  0.48398000  0.28140000  1.0
  C  C54  1  0.86060000  0.55455000  0.79147000  1.0
  C  C55  1  0.13941000  0.44545000  0.20853000  1.0
  C  C56  1  0.78031000  0.50143000  0.88104000  1.0
  C  C57  1  0.21970000  0.49857000  0.11896000  1.0
  C  C58  1  0.69499000  0.41211000  0.89639000  1.0
  C  C59  1  0.30500000  0.58790000  0.10361000  1.0
  C  C60  1  0.60674000  0.35364000  0.98845000  1.0
  C  C61  1  0.39325000  0.64636000  0.01155000  1.0
  C  C62  1  0.52429000  0.32985000  0.14457000  1.0
  C  C63  1  0.47570000  0.67015000  0.85543000  1.0
  C  C64  1  0.43658000  0.24442000  0.15497000  1.0
  C  C65  1  0.56342000  0.75558000  0.84503000  1.0
  C  C66  1  0.52020000  0.26630000  0.99962000  1.0
  C  C67  1  0.47980000  0.73370000  0.00038000  1.0
  C  C68  1  0.51995000  0.23444000  0.91981000  1.0
  C  C69  1  0.48005000  0.76556000  0.08019000  1.0
  C  C70  1  0.43620000  0.14732000  0.92877000  1.0
  C  C71  1  0.56381000  0.85268000  0.07123000  1.0
  C  C72  1  0.43708000  0.12176000  0.85024000  1.0
  C  C73  1  0.56293000  0.87824000  0.14977000  1.0
  C  C74  1  0.52220000  0.18449000  0.76315000  1.0
  C  C75  1  0.47781000  0.81550000  0.23685000  1.0
  C  C76  1  0.60422000  0.29195000  0.83009000  1.0
  C  C77  1  0.39577000  0.70805000  0.16991000  1.0
  C  C78  1  0.69507000  0.38097000  0.81832000  1.0
  C  C79  1  0.30492000  0.61904000  0.18167000  1.0
  C  C80  1  0.16351000  0.94559000  0.07265000  1.0
  C  C81  1  0.83648000  0.05441000  0.92735000  1.0
  C  C82  1  0.08001000  0.85876000  0.08080000  1.0
  C  C83  1  0.91998000  0.14124000  0.91921000  1.0
  C  C84  1  0.07761000  0.82885000  0.00036000  1.0
  C  C85  1  0.92239000  0.17115000  0.99965000  1.0
  C  C86  1  0.15679000  0.85495000  0.84370000  1.0
  C  C87  1  0.84321000  0.14504000  0.15630000  1.0
  C  C88  1  0.07164000  0.76715000  0.85531000  1.0
  C  C89  1  0.92836000  0.23284000  0.14469000  1.0
  C  C90  1  0.99214000  0.74018000  0.01216000  1.0
  C  C91  1  0.00785000  0.25982000  0.98784000  1.0
  C  C92  1  0.90739000  0.67880000  0.10511000  1.0
  C  C93  1  0.09261000  0.32120000  0.89489000  1.0
  C  C94  1  0.82367000  0.58810000  0.12096000  1.0
  C  C95  1  0.17634000  0.41190000  0.87904000  1.0
  C  C96  1  0.74765000  0.53163000  0.21115000  1.0
  C  C97  1  0.25236000  0.46836000  0.78885000  1.0
  C  C98  1  0.75504000  0.56612000  0.28532000  1.0
  C  C99  1  0.24496000  0.43388000  0.71468000  1.0
  C  C100  1  0.91037000  0.70754000  0.18369000  1.0
  C  C101  1  0.08963000  0.29245000  0.81631000  1.0
  C  C102  1  0.99904000  0.79852000  0.17110000  1.0
  C  C103  1  0.00095000  0.20148000  0.82890000  1.0
  C  C104  1  0.30427000  0.06302000  0.61729000  1.0
  C  C105  1  0.69573000  0.93698000  0.38271000  1.0
  C  C106  1  0.34797000  0.74732000  0.48288000  1.0
  C  C107  1  0.65204000  0.25269000  0.51712000  1.0
  C  C108  1  0.38095000  0.95262000  0.60383000  1.0
  C  C109  1  0.61906000  0.04739000  0.39617000  1.0
  C  C110  1  0.50898000  0.90776000  0.63083000  1.0
  C  C111  1  0.49102000  0.09224000  0.36916000  1.0
  C  C112  1  0.39841000  0.79553000  0.54216000  1.0
  C  C113  1  0.60159000  0.20447000  0.45783000  1.0
  C  C114  1  0.32963000  0.89825000  0.55669000  1.0
  C  C115  1  0.67037000  0.10176000  0.44330000  1.0
  N  N116  1  0.77751000  0.43162000  0.73200000  1.0
  N  N117  1  0.22249000  0.56838000  0.26800000  1.0
  N  N118  1  0.60312000  0.26634000  0.75399000  1.0
  N  N119  1  0.39688000  0.73365000  0.24600000  1.0
  N  N120  1  0.60827000  0.38456000  0.06218000  1.0
  N  N121  1  0.39173000  0.61544000  0.93782000  1.0
  N  N122  1  0.43429000  0.21233000  0.08380000  1.0
  N  N123  1  0.56571000  0.78767000  0.91620000  1.0
  N  N124  1  0.00378000  0.82081000  0.24787000  1.0
  N  N125  1  0.99622000  0.17919000  0.75213000  1.0
  N  N126  1  0.83463000  0.65130000  0.27166000  1.0
  N  N127  1  0.16537000  0.34870000  0.72834000  1.0
  N  N128  1  0.16025000  0.88546000  0.91554000  1.0
  N  N129  1  0.83974000  0.11454000  0.08446000  1.0
  N  N130  1  0.99032000  0.70995000  0.93810000  1.0
  N  N131  1  0.00968000  0.29004000  0.06190000  1.0
  Cl  Cl132  1  0.96942000  0.35825000  0.51422000  1.0
  Cl  Cl133  1  0.03057000  0.64176000  0.48578000  1.0
  O  O134  1  0.68901000  0.60477000  0.51758000  1.0
  O  O135  1  0.31099000  0.39523000  0.48241000  1.0
  O  O136  1  0.53569000  0.53956000  0.65533000  1.0
  O  O137  1  0.46430000  0.46044000  0.34467000  1.0
  O  O138  1  0.38118000  0.63672000  0.49578000  1.0
  O  O139  1  0.61882000  0.36329000  0.50422000  1.0
  O  O140  1  0.28178000  0.81614000  0.42259000  1.0
  O  O141  1  0.71822000  0.18388000  0.57742000  1.0
  O  O142  1  0.19693000  0.10472000  0.58060000  1.0
  O  O143  1  0.80308000  0.89528000  0.41940000  1.0
  O  O144  1  0.34683000  0.11150000  0.66290000  1.0
  O  O145  1  0.65317000  0.88850000  0.33711000  1.0
