# generated using pymatgen
data_Cu3BH22WC17S5N8
_symmetry_space_group_name_H-M   'P 1'
_cell_length_a   10.52510000
_cell_length_b   12.24940000
_cell_length_c   12.59200000
_cell_angle_alpha   80.48210000
_cell_angle_beta   70.46460000
_cell_angle_gamma   66.91310000
_symmetry_Int_Tables_number   1
_chemical_formula_structural   Cu3BH22WC17S5N8
_chemical_formula_sum   'Cu6 B2 H44 W2 C34 S10 N16'
_cell_volume   1406.35274809
_cell_formula_units_Z   2
loop_
 _symmetry_equiv_pos_site_id
 _symmetry_equiv_pos_as_xyz
  1  'x, y, z'
loop_
 _atom_site_type_symbol
 _atom_site_label
 _atom_site_symmetry_multiplicity
 _atom_site_fract_x
 _atom_site_fract_y
 _atom_site_fract_z
 _atom_site_occupancy
  Cu  Cu0  1  0.72444000  0.77590000  0.01160000  1.0
  Cu  Cu1  1  0.27555000  0.22410000  0.98839000  1.0
  Cu  Cu2  1  0.65839000  0.93061000  0.18390000  1.0
  Cu  Cu3  1  0.34161000  0.06939000  0.81610000  1.0
  Cu  Cu4  1  0.94579000  0.80685000  0.07353000  1.0
  Cu  Cu5  1  0.05422000  0.19316000  0.92647000  1.0
  B  B6  1  0.82390000  0.43108000  0.35899000  1.0
  B  B7  1  0.17610000  0.56892000  0.64101000  1.0
  H  H8  1  0.46670000  0.68451000  0.64542000  1.0
  H  H9  1  0.53330000  0.31549000  0.35458000  1.0
  H  H10  1  0.59360000  0.89426000  0.44706000  1.0
  H  H11  1  0.40640000  0.10574000  0.55294000  1.0
  H  H12  1  0.42397000  0.88795000  0.53359000  1.0
  H  H13  1  0.57604000  0.11205000  0.46641000  1.0
  H  H14  1  0.47097000  0.88547000  0.38423000  1.0
  H  H15  1  0.52903000  0.11453000  0.61577000  1.0
  H  H16  1  0.67187000  0.32266000  0.09415000  1.0
  H  H17  1  0.32813000  0.67735000  0.90585000  1.0
  H  H18  1  0.54906000  0.44706000  0.69017000  1.0
  H  H19  1  0.45094000  0.55294000  0.30983000  1.0
  H  H20  1  0.73726000  0.37880000  0.62058000  1.0
  H  H21  1  0.26274000  0.62121000  0.37942000  1.0
  H  H22  1  0.60799000  0.36240000  0.56961000  1.0
  H  H23  1  0.39201000  0.63761000  0.43039000  1.0
  H  H24  1  0.52852000  0.65347000  0.06853000  1.0
  H  H25  1  0.47148000  0.34653000  0.93147000  1.0
  H  H26  1  0.58269000  0.52472000  0.99220000  1.0
  H  H27  1  0.41732000  0.47528000  0.00780000  1.0
  H  H28  1  0.70011000  0.60285000  0.96570000  1.0
  H  H29  1  0.29989000  0.39715000  0.03430000  1.0
  H  H30  1  0.29833000  0.41361000  0.29626000  1.0
  H  H31  1  0.70167000  0.58638000  0.70375000  1.0
  H  H32  1  0.17457000  0.64538000  0.08474000  1.0
  H  H33  1  0.82543000  0.35462000  0.91526000  1.0
  H  H34  1  0.29650000  0.59694000  0.16671000  1.0
  H  H35  1  0.70351000  0.40305000  0.83330000  1.0
  H  H36  1  0.13059000  0.71822000  0.20932000  1.0
  H  H37  1  0.86941000  0.28178000  0.79068000  1.0
  H  H38  1  0.94084000  0.17175000  0.24876000  1.0
  H  H39  1  0.05916000  0.82825000  0.75124000  1.0
  H  H40  1  0.79145000  0.14916000  0.23344000  1.0
  H  H41  1  0.20854000  0.85084000  0.76656000  1.0
  H  H42  1  0.77814000  0.20207000  0.36233000  1.0
  H  H43  1  0.22185000  0.79792000  0.63766000  1.0
  H  H44  1  0.03574000  0.30323000  0.51387000  1.0
  H  H45  1  0.96427000  0.69676000  0.48613000  1.0
  H  H46  1  0.21787000  0.24000000  0.42885000  1.0
  H  H47  1  0.78213000  0.76000000  0.57115000  1.0
  H  H48  1  0.07800000  0.21413000  0.39998000  1.0
  H  H49  1  0.92201000  0.78587000  0.60002000  1.0
  H  H50  1  0.83452000  0.34108000  0.41565000  1.0
  H  H51  1  0.16548000  0.65892000  0.58435000  1.0
  W  W52  1  0.78398000  0.68873000  0.20166000  1.0
  W  W53  1  0.21603000  0.31127000  0.79834000  1.0
  C  C54  1  0.57591000  0.72306000  0.46722000  1.0
  C  C55  1  0.42409000  0.27694000  0.53278000  1.0
  C  C56  1  0.54125000  0.65296000  0.56403000  1.0
  C  C57  1  0.45875000  0.34704000  0.43597000  1.0
  C  C58  1  0.11586000  0.54458000  0.23799000  1.0
  C  C59  1  0.88414000  0.45542000  0.76201000  1.0
  C  C60  1  0.62363000  0.53523000  0.53608000  1.0
  C  C61  1  0.37637000  0.46477000  0.46392000  1.0
  C  C62  1  0.59482000  0.85345000  0.81919000  1.0
  C  C63  1  0.40517000  0.14654000  0.18081000  1.0
  C  C64  1  0.68410000  0.49381000  0.11894000  1.0
  C  C65  1  0.31590000  0.50619000  0.88106000  1.0
  C  C66  1  0.82984000  0.08286000  0.98948000  1.0
  C  C67  1  0.17015000  0.91714000  0.01053000  1.0
  C  C68  1  0.51294000  0.85447000  0.45702000  1.0
  C  C69  1  0.48707000  0.14553000  0.54298000  1.0
  C  C70  1  0.70150000  0.37345000  0.13820000  1.0
  C  C71  1  0.29850000  0.62656000  0.86180000  1.0
  C  C72  1  0.08857000  0.38822000  0.35030000  1.0
  C  C73  1  0.91143000  0.61178000  0.64970000  1.0
  C  C74  1  0.63022000  0.42471000  0.60770000  1.0
  C  C75  1  0.36978000  0.57528000  0.39230000  1.0
  C  C76  1  0.62014000  0.57372000  0.03276000  1.0
  C  C77  1  0.37986000  0.42628000  0.96724000  1.0
  C  C78  1  0.18742000  0.44331000  0.29512000  1.0
  C  C79  1  0.81258000  0.55669000  0.70489000  1.0
  C  C80  1  0.76914000  0.33022000  0.22250000  1.0
  C  C81  1  0.23086000  0.66978000  0.77750000  1.0
  C  C82  1  0.18178000  0.63112000  0.17114000  1.0
  C  C83  1  0.81823000  0.36888000  0.82886000  1.0
  C  C84  1  0.82214000  0.20676000  0.27007000  1.0
  C  C85  1  0.17785000  0.79324000  0.72993000  1.0
  C  C86  1  0.10539000  0.28056000  0.42723000  1.0
  C  C87  1  0.89461000  0.71943000  0.57277000  1.0
  S  S88  1  0.55714000  0.79860000  0.18133000  1.0
  S  S89  1  0.44287000  0.20140000  0.81866000  1.0
  S  S90  1  0.93788000  0.64718000  0.01890000  1.0
  S  S91  1  0.06212000  0.35282000  0.98109000  1.0
  S  S92  1  0.83985000  0.83003000  0.26007000  1.0
  S  S93  1  0.16015000  0.16997000  0.73993000  1.0
  S  S94  1  0.50048000  0.89666000  0.72995000  1.0
  S  S95  1  0.49949000  0.10334000  0.27005000  1.0
  S  S96  1  0.72392000  0.01694000  0.98623000  1.0
  S  S97  1  0.27608000  0.98307000  0.01378000  1.0
  N  N98  1  0.97800000  0.55070000  0.25604000  1.0
  N  N99  1  0.02200000  0.44929000  0.74396000  1.0
  N  N100  1  0.96457000  0.45397000  0.32448000  1.0
  N  N101  1  0.03543000  0.54603000  0.67552000  1.0
  N  N102  1  0.67636000  0.65073000  0.38294000  1.0
  N  N103  1  0.32364000  0.34927000  0.61706000  1.0
  N  N104  1  0.70375000  0.53622000  0.42679000  1.0
  N  N105  1  0.29625000  0.46378000  0.57321000  1.0
  N  N106  1  0.73782000  0.52357000  0.18997000  1.0
  N  N107  1  0.26218000  0.47643000  0.81003000  1.0
  N  N108  1  0.78667000  0.42288000  0.25370000  1.0
  N  N109  1  0.21332000  0.57712000  0.74630000  1.0
  N  N110  1  0.66250000  0.82238000  0.88382000  1.0
  N  N111  1  0.33749000  0.17761000  0.11618000  1.0
  N  N112  1  0.90712000  0.13184000  0.98882000  1.0
  N  N113  1  0.09289000  0.86817000  0.01118000  1.0
