# generated using pymatgen
data_ZnH16C21N2O5
_symmetry_space_group_name_H-M   'P 1'
_cell_length_a   8.84065000
_cell_length_b   9.63067000
_cell_length_c   13.57880000
_cell_angle_alpha   102.55800000
_cell_angle_beta   97.09630000
_cell_angle_gamma   112.09700000
_symmetry_Int_Tables_number   1
_chemical_formula_structural   ZnH16C21N2O5
_chemical_formula_sum   'Zn2 H32 C42 N4 O10'
_cell_volume   1018.26808437
_cell_formula_units_Z   2
loop_
 _symmetry_equiv_pos_site_id
 _symmetry_equiv_pos_as_xyz
  1  'x, y, z'
loop_
 _atom_site_type_symbol
 _atom_site_label
 _atom_site_symmetry_multiplicity
 _atom_site_fract_x
 _atom_site_fract_y
 _atom_site_fract_z
 _atom_site_occupancy
  Zn  Zn0  1  0.84411000  0.56065000  0.74185000  1.0
  Zn  Zn1  1  0.15590000  0.43935000  0.25815000  1.0
  H  H2  1  0.37393000  0.07622000  0.78102000  1.0
  H  H3  1  0.62607000  0.92378000  0.21898000  1.0
  H  H4  1  0.00725000  0.77605000  0.49959000  1.0
  H  H5  1  0.99275000  0.22396000  0.50041000  1.0
  H  H6  1  0.43841000  0.18148000  0.49379000  1.0
  H  H7  1  0.56159000  0.81852000  0.50621000  1.0
  H  H8  1  0.24078000  0.14479000  0.34865000  1.0
  H  H9  1  0.75922000  0.85522000  0.65135000  1.0
  H  H10  1  0.16156000  0.97192000  0.24078000  1.0
  H  H11  1  0.83844000  0.02809000  0.75922000  1.0
  H  H12  1  0.36228000  0.03185000  0.32438000  1.0
  H  H13  1  0.63772000  0.96816000  0.67563000  1.0
  H  H14  1  0.06975000  0.68746000  0.95863000  1.0
  H  H15  1  0.93026000  0.31254000  0.04137000  1.0
  H  H16  1  0.30547000  0.65037000  0.04781000  1.0
  H  H17  1  0.69453000  0.34963000  0.95219000  1.0
  H  H18  1  0.22811000  0.28727000  0.76909000  1.0
  H  H19  1  0.77189000  0.71273000  0.23091000  1.0
  H  H20  1  0.98725000  0.33409000  0.69361000  1.0
  H  H21  1  0.01275000  0.66591000  0.30639000  1.0
  H  H22  1  0.46677000  0.35941000  0.90651000  1.0
  H  H23  1  0.53323000  0.64059000  0.09349000  1.0
  H  H24  1  0.92793000  0.81137000  0.94723000  1.0
  H  H25  1  0.07207000  0.18863000  0.05277000  1.0
  H  H26  1  0.78922000  0.96619000  0.03636000  1.0
  H  H27  1  0.21077000  0.03381000  0.96364000  1.0
  H  H28  1  0.37448000  0.73576000  0.76672000  1.0
  H  H29  1  0.62551000  0.26424000  0.23328000  1.0
  H  H30  1  0.52484000  0.57690000  0.69423000  1.0
  H  H31  1  0.47516000  0.42310000  0.30576000  1.0
  H  H32  1  0.35911000  0.92965000  0.89968000  1.0
  H  H33  1  0.64089000  0.07036000  0.10032000  1.0
  C  C34  1  0.42069000  0.14090000  0.64200000  1.0
  C  C35  1  0.57931000  0.85910000  0.35800000  1.0
  C  C36  1  0.32880000  0.04670000  0.69770000  1.0
  C  C37  1  0.67121000  0.95331000  0.30230000  1.0
  C  C38  1  0.17957000  0.91524000  0.64640000  1.0
  C  C39  1  0.82043000  0.08476000  0.35360000  1.0
  C  C40  1  0.12324000  0.87844000  0.53945000  1.0
  C  C41  1  0.87676000  0.12157000  0.46055000  1.0
  C  C42  1  0.21470000  0.97376000  0.48371000  1.0
  C  C43  1  0.78530000  0.02624000  0.51629000  1.0
  C  C44  1  0.36387000  0.10529000  0.53460000  1.0
  C  C45  1  0.63613000  0.89471000  0.46540000  1.0
  C  C46  1  0.57871000  0.28245000  0.69907000  1.0
  C  C47  1  0.42129000  0.71755000  0.30093000  1.0
  C  C48  1  0.07978000  0.81513000  0.70654000  1.0
  C  C49  1  0.92022000  0.18487000  0.29346000  1.0
  C  C50  1  0.23503000  0.02638000  0.32078000  1.0
  C  C51  1  0.76497000  0.97363000  0.67922000  1.0
  C  C52  1  0.10842000  0.59969000  0.91921000  1.0
  C  C53  1  0.89158000  0.40030000  0.08078000  1.0
  C  C54  1  0.24248000  0.58016000  0.96822000  1.0
  C  C55  1  0.75752000  0.41984000  0.03178000  1.0
  C  C56  1  0.29415000  0.46980000  0.91410000  1.0
  C  C57  1  0.70585000  0.53020000  0.08590000  1.0
  C  C58  1  0.19731000  0.37744000  0.81410000  1.0
  C  C59  1  0.80269000  0.62256000  0.18591000  1.0
  C  C60  1  0.06373000  0.40400000  0.77083000  1.0
  C  C61  1  0.93627000  0.59600000  0.22917000  1.0
  C  C62  1  0.44387000  0.45255000  0.95525000  1.0
  C  C63  1  0.55613000  0.54744000  0.04475000  1.0
  C  C64  1  0.80316000  0.79535000  0.91136000  1.0
  C  C65  1  0.19683000  0.20465000  0.08864000  1.0
  C  C66  1  0.72647000  0.88395000  0.95944000  1.0
  C  C67  1  0.27352000  0.11604000  0.04056000  1.0
  C  C68  1  0.56812000  0.86497000  0.90809000  1.0
  C  C69  1  0.43188000  0.13503000  0.09190000  1.0
  C  C70  1  0.49624000  0.75431000  0.80986000  1.0
  C  C71  1  0.50376000  0.24569000  0.19014000  1.0
  C  C72  1  0.57898000  0.66646000  0.76894000  1.0
  C  C73  1  0.42102000  0.33354000  0.23106000  1.0
  C  C74  1  0.47584000  0.95096000  0.95142000  1.0
  C  C75  1  0.52415000  0.04904000  0.04858000  1.0
  N  N76  1  0.02115000  0.51565000  0.82150000  1.0
  N  N77  1  0.97885000  0.48435000  0.17850000  1.0
  N  N78  1  0.73108000  0.68680000  0.81833000  1.0
  N  N79  1  0.26892000  0.31320000  0.18167000  1.0
  O  O80  1  0.65435000  0.37249000  0.64533000  1.0
  O  O81  1  0.34565000  0.62751000  0.35467000  1.0
  O  O82  1  0.62976000  0.31028000  0.79475000  1.0
  O  O83  1  0.37024000  0.68973000  0.20525000  1.0
  O  O84  1  0.11770000  0.85978000  0.80415000  1.0
  O  O85  1  0.88230000  0.14022000  0.19585000  1.0
  O  O86  1  0.95710000  0.68452000  0.65195000  1.0
  O  O87  1  0.04290000  0.31548000  0.34805000  1.0
  O  O88  1  0.14801000  0.92890000  0.37958000  1.0
  O  O89  1  0.85199000  0.07111000  0.62042000  1.0
