# generated using pymatgen
data_CdH10C11N3O5
_symmetry_space_group_name_H-M   'P 1'
_cell_length_a   8.74649000
_cell_length_b   9.06096373
_cell_length_c   9.89628000
_cell_angle_alpha   83.95220725
_cell_angle_beta   76.34420000
_cell_angle_gamma   72.01233543
_symmetry_Int_Tables_number   1
_chemical_formula_structural   CdH10C11N3O5
_chemical_formula_sum   'Cd2 H20 C22 N6 O10'
_cell_volume   724.42812088
_cell_formula_units_Z   2
loop_
 _symmetry_equiv_pos_site_id
 _symmetry_equiv_pos_as_xyz
  1  'x, y, z'
loop_
 _atom_site_type_symbol
 _atom_site_label
 _atom_site_symmetry_multiplicity
 _atom_site_fract_x
 _atom_site_fract_y
 _atom_site_fract_z
 _atom_site_occupancy
  Cd  Cd0  1  0.17300000  0.73280000  0.05246000  1.0
  Cd  Cd1  1  0.82701000  0.26720000  0.94756000  1.0
  H  H2  1  0.32224000  0.01518000  0.49112000  1.0
  H  H3  1  0.67775000  0.98480000  0.50888000  1.0
  H  H4  1  0.49916000  0.85905000  0.42526000  1.0
  H  H5  1  0.50083000  0.14094000  0.57473000  1.0
  H  H6  1  0.58523000  0.66034000  0.87828000  1.0
  H  H7  1  0.41478000  0.33966000  0.12171000  1.0
  H  H8  1  0.16646000  0.92690000  0.73026000  1.0
  H  H9  1  0.83354000  0.07309000  0.26974000  1.0
  H  H10  1  0.68125000  0.53238000  0.27165000  1.0
  H  H11  1  0.31874000  0.46760000  0.72838000  1.0
  H  H12  1  0.80328000  0.42512000  0.47711000  1.0
  H  H13  1  0.19670000  0.57486000  0.52293000  1.0
  H  H14  1  0.32222000  0.93418000  0.21874000  1.0
  H  H15  1  0.67779000  0.06583000  0.78123000  1.0
  H  H16  1  0.63084000  0.82797000  0.17977000  1.0
  H  H17  1  0.36918000  0.17203000  0.82019000  1.0
  H  H18  1  0.34896000  0.43350000  0.93146000  1.0
  H  H19  1  0.65104000  0.56650000  0.06856000  1.0
  H  H20  1  0.17426000  0.39711000  0.98391000  1.0
  H  H21  1  0.82572000  0.60291000  0.01609000  1.0
  C  C22  1  0.44522000  0.94700000  0.50518000  1.0
  C  C23  1  0.55477000  0.05298000  0.49481000  1.0
  C  C24  1  0.50700000  0.73254000  0.81178000  1.0
  C  C25  1  0.49301000  0.26745000  0.18821000  1.0
  C  C26  1  0.29273000  0.86712000  0.73788000  1.0
  C  C27  1  0.70727000  0.13287000  0.26212000  1.0
  C  C28  1  0.43013000  0.56216000  0.38432000  1.0
  C  C29  1  0.56985000  0.43784000  0.61573000  1.0
  C  C30  1  0.60148000  0.51899000  0.37185000  1.0
  C  C31  1  0.39850000  0.48100000  0.62818000  1.0
  C  C32  1  0.67065000  0.45730000  0.48613000  1.0
  C  C33  1  0.32933000  0.54269000  0.51390000  1.0
  C  C34  1  0.35584000  0.62191000  0.25976000  1.0
  C  C35  1  0.64415000  0.37810000  0.74028000  1.0
  C  C36  1  0.32935000  0.05797000  0.02140000  1.0
  C  C37  1  0.67067000  0.94204000  0.97857000  1.0
  C  C38  1  0.40184000  0.96164000  0.12337000  1.0
  C  C39  1  0.59818000  0.03836000  0.87659000  1.0
  C  C40  1  0.57188000  0.90316000  0.10176000  1.0
  C  C41  1  0.42815000  0.09684000  0.89821000  1.0
  C  C42  1  0.14656000  0.10818000  0.04042000  1.0
  C  C43  1  0.85346000  0.89184000  0.95955000  1.0
  N  N44  1  0.42897000  0.86896000  0.64099000  1.0
  N  N45  1  0.57102000  0.13103000  0.35900000  1.0
  N  N46  1  0.56682000  0.78369000  0.68621000  1.0
  N  N47  1  0.43319000  0.21629000  0.31378000  1.0
  N  N48  1  0.33869000  0.78078000  0.84763000  1.0
  N  N49  1  0.66132000  0.21921000  0.15237000  1.0
  O  O50  1  0.19907000  0.67662000  0.27816000  1.0
  O  O51  1  0.80091000  0.32340000  0.72187000  1.0
  O  O52  1  0.44921000  0.61580000  0.13902000  1.0
  O  O53  1  0.55077000  0.38421000  0.86102000  1.0
  O  O54  1  0.06690000  0.02108000  0.11155000  1.0
  O  O55  1  0.93311000  0.97895000  0.88842000  1.0
  O  O56  1  0.08209000  0.23714000  0.97785000  1.0
  O  O57  1  0.91794000  0.76287000  0.02211000  1.0
  O  O58  1  0.23569000  0.47019000  0.99066000  1.0
  O  O59  1  0.76430000  0.52982000  0.00935000  1.0
