# generated using pymatgen
data_Zn2H4C12S2O7
_symmetry_space_group_name_H-M   'P 1'
_cell_length_a   19.66510000
_cell_length_b   19.67030000
_cell_length_c   33.37190000
_cell_angle_alpha   79.16290000
_cell_angle_beta   79.18080000
_cell_angle_gamma   63.94060000
_symmetry_Int_Tables_number   1
_chemical_formula_structural   Zn2H4C12S2O7
_chemical_formula_sum   'Zn16 H32 C96 S16 O56'
_cell_volume   11308.60719260
_cell_formula_units_Z   8
loop_
 _symmetry_equiv_pos_site_id
 _symmetry_equiv_pos_as_xyz
  1  'x, y, z'
loop_
 _atom_site_type_symbol
 _atom_site_label
 _atom_site_symmetry_multiplicity
 _atom_site_fract_x
 _atom_site_fract_y
 _atom_site_fract_z
 _atom_site_occupancy
  Zn  Zn0  1  0.05595000  0.40019000  0.47842000  1.0
  Zn  Zn1  1  0.98314000  0.48252000  0.56070000  1.0
  Zn  Zn2  1  0.05982000  0.55936000  0.48229000  1.0
  Zn  Zn3  1  0.90166000  0.55611000  0.47919000  1.0
  Zn  Zn4  1  0.69443000  0.34984000  0.27209000  1.0
  Zn  Zn5  1  0.68992000  0.18991000  0.26707000  1.0
  Zn  Zn6  1  0.76767000  0.26786000  0.19083000  1.0
  Zn  Zn7  1  0.84936000  0.19528000  0.27230000  1.0
  Zn  Zn8  1  0.26678000  0.76627000  0.68919000  1.0
  Zn  Zn9  1  0.34877000  0.69414000  0.77159000  1.0
  Zn  Zn10  1  0.19386000  0.84729000  0.77088000  1.0
  Zn  Zn11  1  0.18932000  0.68882000  0.76639000  1.0
  Zn  Zn12  1  0.56040000  0.06045000  0.98338000  1.0
  Zn  Zn13  1  0.40114000  0.05500000  0.97811000  1.0
  Zn  Zn14  1  0.55449000  0.90142000  0.97793000  1.0
  Zn  Zn15  1  0.48373000  0.98390000  0.06032000  1.0
  H  H16  1  0.95390000  0.24863000  0.35129000  1.0
  H  H17  1  0.74674000  0.45559000  0.35112000  1.0
  H  H18  1  0.00096000  0.29769000  0.39941000  1.0
  H  H19  1  0.09746000  0.59735000  0.70005000  1.0
  H  H20  1  0.20109000  0.70108000  0.59665000  1.0
  H  H21  1  0.04985000  0.54982000  0.65142000  1.0
  H  H22  1  0.28622000  0.51070000  0.40924000  1.0
  H  H23  1  0.46396000  0.23918000  0.34067000  1.0
  H  H24  1  0.77156000  0.54702000  0.64854000  1.0
  H  H25  1  0.47834000  0.70298000  0.60152000  1.0
  H  H26  1  0.04716000  0.27131000  0.64858000  1.0
  H  H27  1  0.20314000  0.97814000  0.60161000  1.0
  H  H28  1  0.80070000  0.77926000  0.40220000  1.0
  H  H29  1  0.94938000  0.97091000  0.34779000  1.0
  H  H30  1  0.54990000  0.04991000  0.15262000  1.0
  H  H31  1  0.65333000  0.15343000  0.04901000  1.0
  H  H32  1  0.59853000  0.09840000  0.20021000  1.0
  H  H33  1  0.70284000  0.47869000  0.10145000  1.0
  H  H34  1  0.54697000  0.77197000  0.14833000  1.0
  H  H35  1  0.08697000  0.10846000  0.21010000  1.0
  H  H36  1  0.16345000  0.14117000  0.04001000  1.0
  H  H37  1  0.50140000  0.79597000  0.89877000  1.0
  H  H38  1  0.29454000  0.00319000  0.89878000  1.0
  H  H39  1  0.45234000  0.74900000  0.85064000  1.0
  H  H40  1  0.44895000  0.47096000  0.84775000  1.0
  H  H41  1  0.30084000  0.27885000  0.90232000  1.0
  H  H42  1  0.96378000  0.73902000  0.84074000  1.0
  H  H43  1  0.78597000  0.01055000  0.90936000  1.0
  H  H44  1  0.81007000  0.52756000  0.41887000  1.0
  H  H45  1  0.13545000  0.63563000  0.52676000  1.0
  H  H46  1  0.72331000  0.22314000  0.11458000  1.0
  H  H47  1  0.22238000  0.93988000  0.83111000  1.0
  C  C48  1  0.06140000  0.31556000  0.56180000  1.0
  C  C49  1  0.06939000  0.56956000  0.56959000  1.0
  C  C50  1  0.18440000  0.43887000  0.43850000  1.0
  C  C51  1  0.93804000  0.68437000  0.43854000  1.0
  C  C52  1  0.93063000  0.43028000  0.43049000  1.0
  C  C53  1  0.81583000  0.56135000  0.56177000  1.0
  C  C54  1  0.56571000  0.31115000  0.31139000  1.0
  C  C55  1  0.68050000  0.18036000  0.18068000  1.0
  C  C56  1  0.68865000  0.43440000  0.18836000  1.0
  C  C57  1  0.93461000  0.18847000  0.18896000  1.0
  C  C58  1  0.81890000  0.32064000  0.31976000  1.0
  C  C59  1  0.81205000  0.06597000  0.31149000  1.0
  C  C60  1  0.43396000  0.68893000  0.68831000  1.0
  C  C61  1  0.31971000  0.81928000  0.81941000  1.0
  C  C62  1  0.18897000  0.93369000  0.68835000  1.0
  C  C63  1  0.06552000  0.81082000  0.81127000  1.0
  C  C64  1  0.18069000  0.68071000  0.67978000  1.0
  C  C65  1  0.31159000  0.56555000  0.81133000  1.0
  C  C66  1  0.43822000  0.18406000  0.93862000  1.0
  C  C67  1  0.42946000  0.93116000  0.93029000  1.0
  C  C68  1  0.68388000  0.93891000  0.93855000  1.0
  C  C69  1  0.56114000  0.81643000  0.06146000  1.0
  C  C70  1  0.57007000  0.07017000  0.06928000  1.0
  C  C71  1  0.31591000  0.06169000  0.06129000  1.0
  C  C72  1  0.90097000  0.40342000  0.40220000  1.0
  C  C73  1  0.84758000  0.34936000  0.34845000  1.0
  C  C74  1  0.82824000  0.44869000  0.38843000  1.0
  C  C75  1  0.91968000  0.30418000  0.36195000  1.0
  C  C76  1  0.80246000  0.42070000  0.36154000  1.0
  C  C77  1  0.94547000  0.33143000  0.38847000  1.0
  C  C78  1  0.09840000  0.59849000  0.59716000  1.0
  C  C79  1  0.15198000  0.65200000  0.65109000  1.0
  C  C80  1  0.14168000  0.64171000  0.58141000  1.0
  C  C81  1  0.10920000  0.60919000  0.66694000  1.0
  C  C82  1  0.16801000  0.66802000  0.60886000  1.0
  C  C83  1  0.08305000  0.58307000  0.64004000  1.0
  C  C84  1  0.30364000  0.45385000  0.40119000  1.0
  C  C85  1  0.44643000  0.29601000  0.34877000  1.0
  C  C86  1  0.25912000  0.41353000  0.41365000  1.0
  C  C87  1  0.49089000  0.33636000  0.33634000  1.0
  C  C88  1  0.37820000  0.33870000  0.37238000  1.0
  C  C89  1  0.37183000  0.41116000  0.37758000  1.0
  C  C90  1  0.72631000  0.57608000  0.62885000  1.0
  C  C91  1  0.52358000  0.67398000  0.62121000  1.0
  C  C92  1  0.74091000  0.58634000  0.58643000  1.0
  C  C93  1  0.50902000  0.66377000  0.66361000  1.0
  C  C94  1  0.60267000  0.64210000  0.60849000  1.0
  C  C95  1  0.64724000  0.60796000  0.64157000  1.0
  C  C96  1  0.07624000  0.22606000  0.62891000  1.0
  C  C97  1  0.17414000  0.02335000  0.62130000  1.0
  C  C98  1  0.08649000  0.24064000  0.58649000  1.0
  C  C99  1  0.16390000  0.00877000  0.66370000  1.0
  C  C100  1  0.14228000  0.10243000  0.60858000  1.0
  C  C101  1  0.10813000  0.14699000  0.64164000  1.0
  C  C102  1  0.84485000  0.80002000  0.39753000  1.0
  C  C103  1  0.90532000  0.95003000  0.35245000  1.0
  C  C104  1  0.91360000  0.75904000  0.41363000  1.0
  C  C105  1  0.83660000  0.99102000  0.33638000  1.0
  C  C106  1  0.90847000  0.88045000  0.37469000  1.0
  C  C107  1  0.84177000  0.86951000  0.37523000  1.0
  C  C108  1  0.65285000  0.15278000  0.15169000  1.0
  C  C109  1  0.59882000  0.09887000  0.09801000  1.0
  C  C110  1  0.66854000  0.16855000  0.10843000  1.0
  C  C111  1  0.58302000  0.08302000  0.14083000  1.0
  C  C112  1  0.64108000  0.14114000  0.08207000  1.0
  C  C113  1  0.60994000  0.10988000  0.16700000  1.0
  C  C114  1  0.67377000  0.52389000  0.12116000  1.0
  C  C115  1  0.57601000  0.72672000  0.12865000  1.0
  C  C116  1  0.66348000  0.50930000  0.16358000  1.0
  C  C117  1  0.58628000  0.74133000  0.08625000  1.0
  C  C118  1  0.60779000  0.64761000  0.14141000  1.0
  C  C119  1  0.64194000  0.60298000  0.10838000  1.0
  C  C120  1  0.08006000  0.12468000  0.17764000  1.0
  C  C121  1  0.17029000  0.12492000  0.07248000  1.0
  C  C122  1  0.00912000  0.16346000  0.16376000  1.0
  C  C123  1  0.24117000  0.08630000  0.08642000  1.0
  C  C124  1  0.11153000  0.13893000  0.10564000  1.0
  C  C125  1  0.13875000  0.11056000  0.14448000  1.0
  C  C126  1  0.34665000  0.84896000  0.84770000  1.0
  C  C127  1  0.40077000  0.90241000  0.90154000  1.0
  C  C128  1  0.30145000  0.92171000  0.86146000  1.0
  C  C129  1  0.44588000  0.83029000  0.88807000  1.0
  C  C130  1  0.32945000  0.94748000  0.88837000  1.0
  C  C131  1  0.41862000  0.80452000  0.86152000  1.0
  C  C132  1  0.40491000  0.45004000  0.85244000  1.0
  C  C133  1  0.34486000  0.29978000  0.89762000  1.0
  C  C134  1  0.33615000  0.49088000  0.83636000  1.0
  C  C135  1  0.41362000  0.25893000  0.91367000  1.0
  C  C136  1  0.34160000  0.36935000  0.87533000  1.0
  C  C137  1  0.40821000  0.38046000  0.87475000  1.0
  C  C138  1  0.94632000  0.79585000  0.84883000  1.0
  C  C139  1  0.80346000  0.95372000  0.90127000  1.0
  C  C140  1  0.99091000  0.83608000  0.83635000  1.0
  C  C141  1  0.75886000  0.91349000  0.91366000  1.0
  C  C142  1  0.87174000  0.91098000  0.87767000  1.0
  C  C143  1  0.87810000  0.83855000  0.87245000  1.0
  S  S144  1  0.29969000  0.32389000  0.39683000  1.0
  S  S145  1  0.45036000  0.42595000  0.35317000  1.0
  S  S146  1  0.65900000  0.63452000  0.56185000  1.0
  S  S147  1  0.59086000  0.61557000  0.68820000  1.0
  S  S148  1  0.13472000  0.15876000  0.56194000  1.0
  S  S149  1  0.11571000  0.09059000  0.68828000  1.0
  S  S150  1  0.97462000  0.80452000  0.40179000  1.0
  S  S151  1  0.77562000  0.94551000  0.34814000  1.0
  S  S152  1  0.61526000  0.59129000  0.18807000  1.0
  S  S153  1  0.63440000  0.65939000  0.06173000  1.0
  S  S154  1  0.01335000  0.18289000  0.11049000  1.0
  S  S155  1  0.23692000  0.06677000  0.13967000  1.0
  S  S156  1  0.27534000  0.44517000  0.84823000  1.0
  S  S157  1  0.47448000  0.30455000  0.90182000  1.0
  S  S158  1  0.95035000  0.92569000  0.85326000  1.0
  S  S159  1  0.79944000  0.82387000  0.89683000  1.0
  O  O160  1  0.00030000  0.49906000  0.50035000  1.0
  O  O161  1  0.07763000  0.31553000  0.52278000  1.0
  O  O162  1  0.03104000  0.53121000  0.58536000  1.0
  O  O163  1  0.15700000  0.50545000  0.44981000  1.0
  O  O164  1  0.02577000  0.37382000  0.58135000  1.0
  O  O165  1  0.15329000  0.39192000  0.44662000  1.0
  O  O166  1  0.08518000  0.58544000  0.53036000  1.0
  O  O167  1  0.00463000  0.65674000  0.45007000  1.0
  O  O168  1  0.88725000  0.49700000  0.44221000  1.0
  O  O169  1  0.89106000  0.65344000  0.44658000  1.0
  O  O170  1  0.99603000  0.38751000  0.44179000  1.0
  O  O171  1  0.87419000  0.52580000  0.58124000  1.0
  O  O172  1  0.81576000  0.57767000  0.52272000  1.0
  O  O173  1  0.75012000  0.25032000  0.25074000  1.0
  O  O174  1  0.59638000  0.35843000  0.30331000  1.0
  O  O175  1  0.66476000  0.16463000  0.21905000  1.0
  O  O176  1  0.72438000  0.37597000  0.16889000  1.0
  O  O177  1  0.59316000  0.24465000  0.30010000  1.0
  O  O178  1  0.67254000  0.43439000  0.22737000  1.0
  O  O179  1  0.71977000  0.21957000  0.16489000  1.0
  O  O180  1  0.87602000  0.22410000  0.16944000  1.0
  O  O181  1  0.86263000  0.25483000  0.30877000  1.0
  O  O182  1  0.93471000  0.17269000  0.22789000  1.0
  O  O183  1  0.75321000  0.36408000  0.30860000  1.0
  O  O184  1  0.74552000  0.09330000  0.30001000  1.0
  O  O185  1  0.85904000  0.09678000  0.30363000  1.0
  O  O186  1  0.25019000  0.74888000  0.74952000  1.0
  O  O187  1  0.37587000  0.72461000  0.66868000  1.0
  O  O188  1  0.36248000  0.75395000  0.80805000  1.0
  O  O189  1  0.17272000  0.93364000  0.72737000  1.0
  O  O190  1  0.43400000  0.67264000  0.72731000  1.0
  O  O191  1  0.22449000  0.87556000  0.66877000  1.0
  O  O192  1  0.25289000  0.86255000  0.80776000  1.0
  O  O193  1  0.09655000  0.85794000  0.80327000  1.0
  O  O194  1  0.16433000  0.66443000  0.71818000  1.0
  O  O195  1  0.09285000  0.74462000  0.79963000  1.0
  O  O196  1  0.21916000  0.71910000  0.66355000  1.0
  O  O197  1  0.35864000  0.59639000  0.80337000  1.0
  O  O198  1  0.24512000  0.59288000  0.79975000  1.0
  O  O199  1  0.49993000  0.00017000  0.99996000  1.0
  O  O200  1  0.50487000  0.15659000  0.94992000  1.0
  O  O201  1  0.38600000  0.99685000  0.94145000  1.0
  O  O202  1  0.65286000  0.89192000  0.94650000  1.0
  O  O203  1  0.39105000  0.15347000  0.94669000  1.0
  O  O204  1  0.65670000  0.00530000  0.94990000  1.0
  O  O205  1  0.49526000  0.88755000  0.94134000  1.0
  O  O206  1  0.57691000  0.81628000  0.02246000  1.0
  O  O207  1  0.53162000  0.03177000  0.08560000  1.0
  O  O208  1  0.52603000  0.87465000  0.08103000  1.0
  O  O209  1  0.58622000  0.08629000  0.03084000  1.0
  O  O210  1  0.31561000  0.07786000  0.02241000  1.0
  O  O211  1  0.37436000  0.02630000  0.08085000  1.0
  O  O212  1  0.78203000  0.51811000  0.40002000  1.0
  O  O213  1  0.15902000  0.65900000  0.54088000  1.0
  O  O214  1  0.70905000  0.20911000  0.09113000  1.0
  O  O215  1  0.23201000  0.96796000  0.84985000  1.0
