# generated using pymatgen
data_CuH2C12(BrN2)2
_symmetry_space_group_name_H-M   'P 1'
_cell_length_a   3.86434000
_cell_length_b   11.24685785
_cell_length_c   13.51720000
_cell_angle_alpha   90.51704733
_cell_angle_beta   90.06810000
_cell_angle_gamma   99.81488278
_symmetry_Int_Tables_number   1
_chemical_formula_structural   CuH2C12(BrN2)2
_chemical_formula_sum   'Cu2 H4 C24 Br4 N8'
_cell_volume   578.85590451
_cell_formula_units_Z   2
loop_
 _symmetry_equiv_pos_site_id
 _symmetry_equiv_pos_as_xyz
  1  'x, y, z'
loop_
 _atom_site_type_symbol
 _atom_site_label
 _atom_site_symmetry_multiplicity
 _atom_site_fract_x
 _atom_site_fract_y
 _atom_site_fract_z
 _atom_site_occupancy
  Cu  Cu0  1  0.91872000  0.00005000  0.24998000  1.0
  Cu  Cu1  1  0.08129000  0.99995000  0.75003000  1.0
  H  H2  1  0.79294000  0.61163000  0.14003000  1.0
  H  H3  1  0.17968000  0.38849000  0.36015000  1.0
  H  H4  1  0.20706000  0.38837000  0.85997000  1.0
  H  H5  1  0.82033000  0.61151000  0.63985000  1.0
  C  C6  1  0.82823000  0.16106000  0.07753000  1.0
  C  C7  1  0.66689000  0.83909000  0.42246000  1.0
  C  C8  1  0.17179000  0.83894000  0.92247000  1.0
  C  C9  1  0.33312000  0.16091000  0.57754000  1.0
  C  C10  1  0.89575000  0.23895000  0.99730000  1.0
  C  C11  1  0.65532000  0.76131000  0.50279000  1.0
  C  C12  1  0.10425000  0.76105000  0.00270000  1.0
  C  C13  1  0.34468000  0.23869000  0.49721000  1.0
  C  C14  1  0.94585000  0.36966000  0.00194000  1.0
  C  C15  1  0.57538000  0.63038000  0.49814000  1.0
  C  C16  1  0.05416000  0.63034000  0.99806000  1.0
  C  C17  1  0.42462000  0.36962000  0.50186000  1.0
  C  C18  1  0.84135000  0.43895000  0.08130000  1.0
  C  C19  1  0.40095000  0.56118000  0.41893000  1.0
  C  C20  1  0.15864000  0.56105000  0.91869000  1.0
  C  C21  1  0.59905000  0.43882000  0.58107000  1.0
  C  C22  1  0.89215000  0.56352000  0.07882000  1.0
  C  C23  1  0.32774000  0.43652000  0.42133000  1.0
  C  C24  1  0.10785000  0.43648000  0.92118000  1.0
  C  C25  1  0.67226000  0.56348000  0.57867000  1.0
  C  C26  1  0.92102000  0.17874000  0.90726000  1.0
  C  C27  1  0.74061000  0.82144000  0.59282000  1.0
  C  C28  1  0.07899000  0.82126000  0.09274000  1.0
  C  C29  1  0.25940000  0.17856000  0.40718000  1.0
  Br  Br30  1  0.61111000  0.36368000  0.19381000  1.0
  Br  Br31  1  0.24585000  0.63658000  0.30623000  1.0
  Br  Br32  1  0.38884000  0.63632000  0.80618000  1.0
  Br  Br33  1  0.75412000  0.36342000  0.69378000  1.0
  N  N34  1  0.77211000  0.08872000  0.14036000  1.0
  N  N35  1  0.68386000  0.91125000  0.35944000  1.0
  N  N36  1  0.22791000  0.91128000  0.85964000  1.0
  N  N37  1  0.31615000  0.08875000  0.64056000  1.0
  N  N38  1  0.92093000  0.12335000  0.83304000  1.0
  N  N39  1  0.79661000  0.87676000  0.66710000  1.0
  N  N40  1  0.07907000  0.87665000  0.16696000  1.0
  N  N41  1  0.20341000  0.12324000  0.33291000  1.0
