# generated using pymatgen
data_NaP3H27C24O11
_symmetry_space_group_name_H-M   'P 1'
_cell_length_a   7.94564000
_cell_length_b   12.67680000
_cell_length_c   14.02550000
_cell_angle_alpha   88.11100000
_cell_angle_beta   85.07230000
_cell_angle_gamma   79.88550000
_symmetry_Int_Tables_number   1
_chemical_formula_structural   NaP3H27C24O11
_chemical_formula_sum   'Na2 P6 H54 C48 O22'
_cell_volume   1385.39645130
_cell_formula_units_Z   2
loop_
 _symmetry_equiv_pos_site_id
 _symmetry_equiv_pos_as_xyz
  1  'x, y, z'
loop_
 _atom_site_type_symbol
 _atom_site_label
 _atom_site_symmetry_multiplicity
 _atom_site_fract_x
 _atom_site_fract_y
 _atom_site_fract_z
 _atom_site_occupancy
  Na  Na0  1  0.20157000  0.51470000  0.05229000  1.0
  Na  Na1  1  0.79843000  0.48530000  0.94771000  1.0
  P  P2  1  0.07091000  0.25592000  0.78383000  1.0
  P  P3  1  0.92908000  0.74409000  0.21616000  1.0
  P  P4  1  0.96757000  0.45468000  0.36410000  1.0
  P  P5  1  0.03244000  0.54532000  0.63590000  1.0
  P  P6  1  0.53554000  0.75530000  0.99343000  1.0
  P  P7  1  0.46446000  0.24470000  0.00657000  1.0
  H  H8  1  0.13499000  0.42232000  0.48462000  1.0
  H  H9  1  0.86501000  0.57769000  0.51538000  1.0
  H  H10  1  0.17732000  0.34443000  0.65746000  1.0
  H  H11  1  0.82268000  0.65557000  0.34254000  1.0
  H  H12  1  0.51881000  0.56991000  0.07391000  1.0
  H  H13  1  0.48119000  0.43009000  0.92610000  1.0
  H  H14  1  0.97635000  0.43587000  0.78336000  1.0
  H  H15  1  0.02365000  0.56413000  0.21664000  1.0
  H  H16  1  0.69843000  0.82235000  0.09543000  1.0
  H  H17  1  0.30157000  0.17765000  0.90457000  1.0
  H  H18  1  0.05775000  0.57203000  0.85258000  1.0
  H  H19  1  0.94225000  0.42797000  0.14743000  1.0
  H  H20  1  0.29442000  0.78877000  0.08206000  1.0
  H  H21  1  0.70559000  0.21123000  0.91794000  1.0
  H  H22  1  0.49788000  0.20155000  0.70339000  1.0
  H  H23  1  0.50211000  0.79845000  0.29660000  1.0
  H  H24  1  0.69411000  0.28962000  0.78839000  1.0
  H  H25  1  0.30588000  0.71038000  0.21161000  1.0
  H  H26  1  0.12894000  0.08254000  0.65020000  1.0
  H  H27  1  0.87106000  0.91746000  0.34980000  1.0
  H  H28  1  0.93129000  0.99232000  0.56748000  1.0
  H  H29  1  0.06872000  0.00768000  0.43252000  1.0
  H  H30  1  0.50910000  0.29408000  0.54195000  1.0
  H  H31  1  0.49090000  0.70592000  0.45805000  1.0
  H  H32  1  0.66989000  0.44134000  0.49852000  1.0
  H  H33  1  0.33012000  0.55865000  0.50148000  1.0
  H  H34  1  0.98995000  0.24113000  0.28741000  1.0
  H  H35  1  0.01005000  0.75888000  0.71259000  1.0
  H  H36  1  0.82798000  0.09534000  0.33023000  1.0
  H  H37  1  0.17202000  0.90466000  0.66977000  1.0
  H  H38  1  0.67629000  0.75434000  0.64272000  1.0
  H  H39  1  0.32370000  0.24566000  0.35728000  1.0
  H  H40  1  0.68312000  0.67154000  0.80430000  1.0
  H  H41  1  0.31687000  0.32845000  0.19570000  1.0
  H  H42  1  0.40089000  0.96711000  0.92365000  1.0
  H  H43  1  0.59912000  0.03290000  0.07635000  1.0
  H  H44  1  0.39102000  0.04822000  0.76268000  1.0
  H  H45  1  0.60898000  0.95178000  0.23732000  1.0
  H  H46  1  0.52156000  0.52343000  0.36038000  1.0
  H  H47  1  0.47845000  0.47657000  0.63962000  1.0
  H  H48  1  0.32623000  0.56625000  0.30642000  1.0
  H  H49  1  0.67377000  0.43375000  0.69358000  1.0
  H  H50  1  0.42587000  0.42969000  0.30271000  1.0
  H  H51  1  0.57414000  0.57031000  0.69729000  1.0
  H  H52  1  0.59438000  0.61348000  0.21077000  1.0
  H  H53  1  0.40562000  0.38652000  0.78923000  1.0
  H  H54  1  0.67230000  0.47423000  0.19939000  1.0
  H  H55  1  0.32771000  0.52578000  0.80061000  1.0
  H  H56  1  0.12910000  0.74127000  0.88693000  1.0
  H  H57  1  0.87089000  0.25873000  0.11307000  1.0
  H  H58  1  0.90532000  0.73988000  0.87800000  1.0
  H  H59  1  0.09468000  0.26012000  0.12200000  1.0
  H  H60  1  0.98784000  0.73618000  0.99241000  1.0
  H  H61  1  0.01215000  0.26382000  0.00759000  1.0
  C  C62  1  0.51682000  0.95584000  0.59331000  1.0
  C  C63  1  0.48318000  0.04416000  0.40669000  1.0
  C  C64  1  0.57352000  0.09076000  0.47187000  1.0
  C  C65  1  0.42648000  0.90924000  0.52813000  1.0
  C  C66  1  0.59009000  0.04657000  0.56516000  1.0
  C  C67  1  0.40991000  0.95343000  0.43483000  1.0
  C  C68  1  0.70128000  0.09185000  0.62824000  1.0
  C  C69  1  0.29872000  0.90815000  0.37176000  1.0
  C  C70  1  0.63572000  0.17330000  0.69319000  1.0
  C  C71  1  0.36428000  0.82670000  0.30681000  1.0
  C  C72  1  0.74637000  0.22260000  0.74160000  1.0
  C  C73  1  0.25362000  0.77740000  0.25839000  1.0
  C  C74  1  0.92444000  0.19151000  0.72589000  1.0
  C  C75  1  0.07555000  0.80849000  0.27411000  1.0
  C  C76  1  0.99044000  0.10738000  0.66333000  1.0
  C  C77  1  0.00956000  0.89262000  0.33667000  1.0
  C  C78  1  0.87958000  0.05770000  0.61598000  1.0
  C  C79  1  0.12042000  0.94230000  0.38402000  1.0
  C  C80  1  0.66026000  0.18293000  0.44133000  1.0
  C  C81  1  0.33974000  0.81707000  0.55867000  1.0
  C  C82  1  0.61551000  0.28197000  0.48677000  1.0
  C  C83  1  0.38449000  0.71803000  0.51323000  1.0
  C  C84  1  0.70519000  0.36519000  0.46192000  1.0
  C  C85  1  0.29481000  0.63481000  0.53808000  1.0
  C  C86  1  0.84121000  0.35144000  0.39040000  1.0
  C  C87  1  0.15879000  0.64856000  0.60960000  1.0
  C  C88  1  0.88433000  0.25334000  0.34315000  1.0
  C  C89  1  0.11567000  0.74666000  0.65685000  1.0
  C  C90  1  0.79378000  0.17069000  0.36796000  1.0
  C  C91  1  0.20622000  0.82931000  0.63203000  1.0
  C  C92  1  0.53339000  0.90755000  0.69097000  1.0
  C  C93  1  0.46661000  0.09245000  0.30903000  1.0
  C  C94  1  0.61625000  0.80146000  0.70409000  1.0
  C  C95  1  0.38374000  0.19854000  0.29590000  1.0
  C  C96  1  0.62017000  0.75445000  0.79540000  1.0
  C  C97  1  0.37983000  0.24555000  0.20459000  1.0
  C  C98  1  0.54155000  0.81315000  0.87514000  1.0
  C  C99  1  0.45845000  0.18685000  0.12485000  1.0
  C  C100  1  0.46118000  0.91986000  0.86251000  1.0
  C  C101  1  0.53882000  0.08014000  0.13749000  1.0
  C  C102  1  0.45762000  0.96627000  0.77135000  1.0
  C  C103  1  0.54239000  0.03373000  0.22865000  1.0
  C  C104  1  0.45019000  0.51214000  0.29898000  1.0
  C  C105  1  0.54982000  0.48786000  0.70102000  1.0
  C  C106  1  0.55428000  0.53475000  0.20784000  1.0
  C  C107  1  0.44573000  0.46525000  0.79216000  1.0
  C  C108  1  0.01656000  0.70938000  0.91857000  1.0
  C  C109  1  0.98344000  0.29062000  0.08143000  1.0
  O  O110  1  0.14916000  0.18208000  0.86030000  1.0
  O  O111  1  0.85084000  0.81792000  0.13970000  1.0
  O  O112  1  0.96662000  0.36416000  0.82507000  1.0
  O  O113  1  0.03337000  0.63584000  0.17493000  1.0
  O  O114  1  0.21284000  0.28118000  0.70504000  1.0
  O  O115  1  0.78715000  0.71882000  0.29496000  1.0
  O  O116  1  0.14180000  0.41596000  0.41142000  1.0
  O  O117  1  0.85820000  0.58404000  0.58858000  1.0
  O  O118  1  0.87208000  0.56080000  0.40738000  1.0
  O  O119  1  0.12793000  0.43920000  0.59262000  1.0
  O  O120  1  0.01146000  0.46299000  0.25606000  1.0
  O  O121  1  0.98854000  0.53701000  0.74395000  1.0
  O  O122  1  0.33384000  0.75648000  0.01998000  1.0
  O  O123  1  0.66616000  0.24352000  0.98003000  1.0
  O  O124  1  0.63736000  0.64407000  0.99758000  1.0
  O  O125  1  0.36265000  0.35593000  0.00242000  1.0
  O  O126  1  0.57783000  0.83635000  0.06524000  1.0
  O  O127  1  0.42217000  0.16365000  0.93476000  1.0
  O  O128  1  0.45678000  0.53338000  0.12591000  1.0
  O  O129  1  0.54322000  0.46662000  0.87409000  1.0
  O  O130  1  0.05027000  0.59350000  0.92023000  1.0
  O  O131  1  0.94973000  0.40649000  0.07977000  1.0
