# generated using pymatgen
data_SnH17C11NO4
_symmetry_space_group_name_H-M   'P 1'
_cell_length_a   9.44168000
_cell_length_b   9.85374000
_cell_length_c   15.12180000
_cell_angle_alpha   89.99990000
_cell_angle_beta   102.14800000
_cell_angle_gamma   90.00000000
_symmetry_Int_Tables_number   1
_chemical_formula_structural   SnH17C11NO4
_chemical_formula_sum   'Sn4 H68 C44 N4 O16'
_cell_volume   1375.36603313
_cell_formula_units_Z   4
loop_
 _symmetry_equiv_pos_site_id
 _symmetry_equiv_pos_as_xyz
  1  'x, y, z'
loop_
 _atom_site_type_symbol
 _atom_site_label
 _atom_site_symmetry_multiplicity
 _atom_site_fract_x
 _atom_site_fract_y
 _atom_site_fract_z
 _atom_site_occupancy
  Sn  Sn0  1  0.91634000  0.10854000  0.23297000  1.0
  Sn  Sn1  1  0.08366000  0.60854000  0.26703000  1.0
  Sn  Sn2  1  0.08366000  0.89146000  0.76703000  1.0
  Sn  Sn3  1  0.91634000  0.39146000  0.73297000  1.0
  H  H4  1  0.64277000  0.00554000  0.18010000  1.0
  H  H5  1  0.35723000  0.50553000  0.31990000  1.0
  H  H6  1  0.35723000  0.99447000  0.81990000  1.0
  H  H7  1  0.64278000  0.49447000  0.68010000  1.0
  H  H8  1  0.75610000  0.88359000  0.24803000  1.0
  H  H9  1  0.24390000  0.38359000  0.25197000  1.0
  H  H10  1  0.24390000  0.11641000  0.75197000  1.0
  H  H11  1  0.75610000  0.61641000  0.74803000  1.0
  H  H12  1  0.76659000  0.90546000  0.13308000  1.0
  H  H13  1  0.23341000  0.40546000  0.36692000  1.0
  H  H14  1  0.23341000  0.09454000  0.86692000  1.0
  H  H15  1  0.76659000  0.59454000  0.63308000  1.0
  H  H16  1  0.05279000  0.25103000  0.37960000  1.0
  H  H17  1  0.94721000  0.75103000  0.12040000  1.0
  H  H18  1  0.94721000  0.74897000  0.62040000  1.0
  H  H19  1  0.05279000  0.24897000  0.87960000  1.0
  H  H20  1  0.99248000  0.09270000  0.41635000  1.0
  H  H21  1  0.00752000  0.59270000  0.08365000  1.0
  H  H22  1  0.00752000  0.90730000  0.58365000  1.0
  H  H23  1  0.99248000  0.40730000  0.91635000  1.0
  H  H24  1  0.86569000  0.22954000  0.38325000  1.0
  H  H25  1  0.13431000  0.72954000  0.11675000  1.0
  H  H26  1  0.13431000  0.77046000  0.61675000  1.0
  H  H27  1  0.86569000  0.27046000  0.88325000  1.0
  H  H28  1  0.97620000  0.22718000  0.08284000  1.0
  H  H29  1  0.02380000  0.72718000  0.41717000  1.0
  H  H30  1  0.02380000  0.77281000  0.91716000  1.0
  H  H31  1  0.97620000  0.27281000  0.58284000  1.0
  H  H32  1  0.05519000  0.06035000  0.09671000  1.0
  H  H33  1  0.94481000  0.56035000  0.40329000  1.0
  H  H34  1  0.94481000  0.93965000  0.90329000  1.0
  H  H35  1  0.05519000  0.43965000  0.59671000  1.0
  H  H36  1  0.14165000  0.19910000  0.16334000  1.0
  H  H37  1  0.85835000  0.69910000  0.33666000  1.0
  H  H38  1  0.85835000  0.80090000  0.83666000  1.0
  H  H39  1  0.14165000  0.30090000  0.66334000  1.0
  H  H40  1  0.45860000  0.70702000  0.26661000  1.0
  H  H41  1  0.54140000  0.20702000  0.23339000  1.0
  H  H42  1  0.54140000  0.29298000  0.73339000  1.0
  H  H43  1  0.45860000  0.79298000  0.76661000  1.0
  H  H44  1  0.63698000  0.51390000  0.30756000  1.0
  H  H45  1  0.36302000  0.01390000  0.19244000  1.0
  H  H46  1  0.36302000  0.48610000  0.69244000  1.0
  H  H47  1  0.63698000  0.98610000  0.80756000  1.0
  H  H48  1  0.58863000  0.58638000  0.90867000  1.0
  H  H49  1  0.41137000  0.08638000  0.59133000  1.0
  H  H50  1  0.41137000  0.41362000  0.09133000  1.0
  H  H51  1  0.58863000  0.91362000  0.40867000  1.0
  H  H52  1  0.77004000  0.53867000  0.90162000  1.0
  H  H53  1  0.22996000  0.03867000  0.59838000  1.0
  H  H54  1  0.22996000  0.46133000  0.09838000  1.0
  H  H55  1  0.77004000  0.96133000  0.40162000  1.0
  H  H56  1  0.73637000  0.69870000  0.95048000  1.0
  H  H57  1  0.26363000  0.19870000  0.54952000  1.0
  H  H58  1  0.26363000  0.30130000  0.04952000  1.0
  H  H59  1  0.73637000  0.80130000  0.45048000  1.0
  H  H60  1  0.45553000  0.89331000  0.99163000  1.0
  H  H61  1  0.54447000  0.39331000  0.50837000  1.0
  H  H62  1  0.54447000  0.10669000  0.00837000  1.0
  H  H63  1  0.45553000  0.60669000  0.49163000  1.0
  H  H64  1  0.27773000  0.93419000  0.00948000  1.0
  H  H65  1  0.72227000  0.43419000  0.49052000  1.0
  H  H66  1  0.72227000  0.06581000  0.99052000  1.0
  H  H67  1  0.27773000  0.56581000  0.50948000  1.0
  H  H68  1  0.31643000  0.76820000  0.97041000  1.0
  H  H69  1  0.68357000  0.26820000  0.52959000  1.0
  H  H70  1  0.68357000  0.23181000  0.02959000  1.0
  H  H71  1  0.31643000  0.73181000  0.47041000  1.0
  C  C72  1  0.75002000  0.95843000  0.19385000  1.0
  C  C73  1  0.24998000  0.45843000  0.30615000  1.0
  C  C74  1  0.24998000  0.04157000  0.80615000  1.0
  C  C75  1  0.75002000  0.54157000  0.69385000  1.0
  C  C76  1  0.96276000  0.17883000  0.37047000  1.0
  C  C77  1  0.03724000  0.67883000  0.12953000  1.0
  C  C78  1  0.03724000  0.82116000  0.62953000  1.0
  C  C79  1  0.96276000  0.32117000  0.87047000  1.0
  C  C80  1  0.03723000  0.15475000  0.13125000  1.0
  C  C81  1  0.96277000  0.65475000  0.36875000  1.0
  C  C82  1  0.96277000  0.84525000  0.86875000  1.0
  C  C83  1  0.03723000  0.34525000  0.63125000  1.0
  C  C84  1  0.79916000  0.39637000  0.19803000  1.0
  C  C85  1  0.20085000  0.89637000  0.30197000  1.0
  C  C86  1  0.20084000  0.60363000  0.80197000  1.0
  C  C87  1  0.79916000  0.10363000  0.69803000  1.0
  C  C88  1  0.69242000  0.51041000  0.17659000  1.0
  C  C89  1  0.30759000  0.01041000  0.32341000  1.0
  C  C90  1  0.30759000  0.48959000  0.82341000  1.0
  C  C91  1  0.69241000  0.98959000  0.67659000  1.0
  C  C92  1  0.66067000  0.57090000  0.09045000  1.0
  C  C93  1  0.33933000  0.07090000  0.40955000  1.0
  C  C94  1  0.33933000  0.42910000  0.90955000  1.0
  C  C95  1  0.66067000  0.92910000  0.59045000  1.0
  C  C96  1  0.49480000  0.71544000  0.13017000  1.0
  C  C97  1  0.50520000  0.21544000  0.36983000  1.0
  C  C98  1  0.50520000  0.28456000  0.86983000  1.0
  C  C99  1  0.49480000  0.78456000  0.63017000  1.0
  C  C100  1  0.51883000  0.66565000  0.21883000  1.0
  C  C101  1  0.48117000  0.16565000  0.28117000  1.0
  C  C102  1  0.48116000  0.33435000  0.78116000  1.0
  C  C103  1  0.51883000  0.83435000  0.71884000  1.0
  C  C104  1  0.61814000  0.56032000  0.24065000  1.0
  C  C105  1  0.38186000  0.06032000  0.25935000  1.0
  C  C106  1  0.38186000  0.43968000  0.75935000  1.0
  C  C107  1  0.61814000  0.93968000  0.74065000  1.0
  C  C108  1  0.70364000  0.59178000  0.94166000  1.0
  C  C109  1  0.29636000  0.09178000  0.55834000  1.0
  C  C110  1  0.29636000  0.40822000  0.05834000  1.0
  C  C111  1  0.70364000  0.90822000  0.44166000  1.0
  C  C112  1  0.35958000  0.85440000  0.01351000  1.0
  C  C113  1  0.64042000  0.35440000  0.48649000  1.0
  C  C114  1  0.64042000  0.14561000  0.98649000  1.0
  C  C115  1  0.35958000  0.64561000  0.51351000  1.0
  N  N116  1  0.56433000  0.67044000  0.06776000  1.0
  N  N117  1  0.43567000  0.17044000  0.43224000  1.0
  N  N118  1  0.43567000  0.32956000  0.93224000  1.0
  N  N119  1  0.56433000  0.82956000  0.56776000  1.0
  O  O120  1  0.74833000  0.27545000  0.18880000  1.0
  O  O121  1  0.25167000  0.77545000  0.31120000  1.0
  O  O122  1  0.25167000  0.72455000  0.81120000  1.0
  O  O123  1  0.74833000  0.22455000  0.68880000  1.0
  O  O124  1  0.93340000  0.41953000  0.22486000  1.0
  O  O125  1  0.06660000  0.91953000  0.27514000  1.0
  O  O126  1  0.06660000  0.58047000  0.77514000  1.0
  O  O127  1  0.93340000  0.08047000  0.72486000  1.0
  O  O128  1  0.73137000  0.52286000  0.02759000  1.0
  O  O129  1  0.26863000  0.02286000  0.47241000  1.0
  O  O130  1  0.26863000  0.47714000  0.97241000  1.0
  O  O131  1  0.73137000  0.97714000  0.52759000  1.0
  O  O132  1  0.39419000  0.81507000  0.10728000  1.0
  O  O133  1  0.60581000  0.31507000  0.39272000  1.0
  O  O134  1  0.60581000  0.18493000  0.89272000  1.0
  O  O135  1  0.39419000  0.68493000  0.60728000  1.0
