# generated using pymatgen
data_ZnH12C12S2(NO)4
_symmetry_space_group_name_H-M   'P 1'
_cell_length_a   7.34235000
_cell_length_b   9.44411000
_cell_length_c   11.88720000
_cell_angle_alpha   78.04320000
_cell_angle_beta   77.66310000
_cell_angle_gamma   85.09990000
_symmetry_Int_Tables_number   1
_chemical_formula_structural   ZnH12C12S2(NO)4
_chemical_formula_sum   'Zn2 H24 C24 S4 N8 O8'
_cell_volume   787.04630035
_cell_formula_units_Z   2
loop_
 _symmetry_equiv_pos_site_id
 _symmetry_equiv_pos_as_xyz
  1  'x, y, z'
loop_
 _atom_site_type_symbol
 _atom_site_label
 _atom_site_symmetry_multiplicity
 _atom_site_fract_x
 _atom_site_fract_y
 _atom_site_fract_z
 _atom_site_occupancy
  Zn  Zn0  1  0.26038000  0.79825000  0.52049000  1.0
  Zn  Zn1  1  0.73947000  0.20139000  0.47951000  1.0
  H  H2  1  0.16180000  0.00644000  0.05361000  1.0
  H  H3  1  0.83828000  0.99353000  0.94637000  1.0
  H  H4  1  0.50205000  0.98150000  0.70192000  1.0
  H  H5  1  0.49804000  0.01838000  0.29799000  1.0
  H  H6  1  0.37687000  0.99523000  0.91002000  1.0
  H  H7  1  0.62319000  0.00474000  0.08986000  1.0
  H  H8  1  0.03824000  0.01352000  0.26339000  1.0
  H  H9  1  0.96181000  0.98640000  0.73660000  1.0
  H  H10  1  0.12621000  0.57156000  0.36687000  1.0
  H  H11  1  0.87375000  0.42831000  0.63302000  1.0
  H  H12  1  0.28227000  0.53506000  0.97546000  1.0
  H  H13  1  0.71777000  0.46489000  0.02451000  1.0
  H  H14  1  0.25460000  0.54136000  0.15863000  1.0
  H  H15  1  0.74547000  0.45861000  0.84128000  1.0
  H  H16  1  0.41797000  0.54086000  0.76452000  1.0
  H  H17  1  0.58211000  0.45901000  0.23548000  1.0
  H  H18  1  0.14521000  0.07890000  0.53956000  1.0
  H  H19  1  0.85481000  0.92093000  0.46039000  1.0
  H  H20  1  0.36375000  0.43303000  0.49311000  1.0
  H  H21  1  0.63729000  0.56862000  0.50738000  1.0
  H  H22  1  0.23704000  0.45395000  0.61087000  1.0
  H  H23  1  0.76247000  0.54644000  0.38947000  1.0
  H  H24  1  0.35239000  0.09090000  0.46523000  1.0
  H  H25  1  0.64758000  0.90892000  0.53472000  1.0
  C  C26  1  0.15964000  0.90544000  0.11770000  1.0
  C  C27  1  0.84041000  0.09451000  0.88226000  1.0
  C  C28  1  0.45388000  0.88689000  0.76745000  1.0
  C  C29  1  0.54625000  0.11299000  0.23247000  1.0
  C  C30  1  0.38148000  0.89085000  0.88392000  1.0
  C  C31  1  0.61861000  0.10908000  0.11600000  1.0
  C  C32  1  0.08842000  0.91348000  0.23340000  1.0
  C  C33  1  0.91160000  0.08644000  0.76654000  1.0
  C  C34  1  0.13769000  0.66080000  0.29149000  1.0
  C  C35  1  0.86231000  0.33909000  0.70841000  1.0
  C  C36  1  0.33288000  0.63683000  0.92008000  1.0
  C  C37  1  0.66718000  0.36312000  0.07988000  1.0
  C  C38  1  0.21037000  0.64905000  0.17641000  1.0
  C  C39  1  0.78966000  0.35090000  0.82350000  1.0
  C  C40  1  0.40746000  0.63675000  0.80313000  1.0
  C  C41  1  0.59265000  0.36314000  0.19684000  1.0
  C  C42  1  0.31441000  0.76580000  0.96373000  1.0
  C  C43  1  0.68563000  0.23417000  0.03621000  1.0
  C  C44  1  0.22767000  0.77253000  0.08601000  1.0
  C  C45  1  0.77240000  0.22744000  0.91392000  1.0
  C  C46  1  0.55952000  0.75229000  0.29885000  1.0
  C  C47  1  0.44037000  0.24767000  0.70109000  1.0
  C  C48  1  0.98902000  0.72197000  0.76240000  1.0
  C  C49  1  0.01084000  0.27809000  0.23774000  1.0
  S  S50  1  0.71213000  0.71639000  0.18798000  1.0
  S  S51  1  0.28783000  0.28357000  0.81194000  1.0
  S  S52  1  0.85132000  0.70695000  0.88905000  1.0
  S  S53  1  0.14860000  0.29294000  0.11116000  1.0
  N  N54  1  0.44894000  0.77977000  0.38090000  1.0
  N  N55  1  0.55093000  0.22016000  0.61905000  1.0
  N  N56  1  0.46326000  0.76136000  0.72765000  1.0
  N  N57  1  0.53684000  0.23851000  0.27229000  1.0
  N  N58  1  0.08257000  0.79287000  0.31855000  1.0
  N  N59  1  0.91740000  0.20702000  0.68139000  1.0
  N  N60  1  0.09264000  0.73578000  0.66961000  1.0
  N  N61  1  0.90716000  0.26448000  0.33050000  1.0
  O  O62  1  0.26204000  0.01943000  0.51635000  1.0
  O  O63  1  0.73794000  0.98039000  0.48359000  1.0
  O  O64  1  0.02854000  0.80401000  0.43078000  1.0
  O  O65  1  0.97134000  0.19583000  0.56918000  1.0
  O  O66  1  0.51942000  0.76114000  0.61372000  1.0
  O  O67  1  0.48072000  0.23871000  0.38623000  1.0
  O  O68  1  0.27295000  0.50129000  0.52858000  1.0
  O  O69  1  0.72627000  0.49936000  0.47179000  1.0
