# generated using pymatgen
data_Cu4H8C21N8
_symmetry_space_group_name_H-M   'P 1'
_cell_length_a   20.88680000
_cell_length_b   21.05350000
_cell_length_c   21.27320000
_cell_angle_alpha   89.72500000
_cell_angle_beta   90.05540000
_cell_angle_gamma   89.78780000
_symmetry_Int_Tables_number   1
_chemical_formula_structural   Cu4H8C21N8
_chemical_formula_sum   'Cu12 H24 C63 N24'
_cell_volume   9354.50571260
_cell_formula_units_Z   3
loop_
 _symmetry_equiv_pos_site_id
 _symmetry_equiv_pos_as_xyz
  1  'x, y, z'
loop_
 _atom_site_type_symbol
 _atom_site_label
 _atom_site_symmetry_multiplicity
 _atom_site_fract_x
 _atom_site_fract_y
 _atom_site_fract_z
 _atom_site_occupancy
  Cu  Cu0  1  0.75699000  0.75611000  0.85751000  1.0
  Cu  Cu1  1  0.86673000  0.75685000  0.75473000  1.0
  Cu  Cu2  1  0.75940000  0.86605000  0.75547000  1.0
  Cu  Cu3  1  0.75754000  0.24227000  0.13838000  1.0
  Cu  Cu4  1  0.86444000  0.24434000  0.24458000  1.0
  Cu  Cu5  1  0.75906000  0.13496000  0.24368000  1.0
  Cu  Cu6  1  0.24064000  0.75954000  0.13525000  1.0
  Cu  Cu7  1  0.13072000  0.76305000  0.23779000  1.0
  Cu  Cu8  1  0.24499000  0.86333000  0.24309000  1.0
  Cu  Cu9  1  0.23979000  0.23934000  0.86661000  1.0
  Cu  Cu10  1  0.13100000  0.23864000  0.76258000  1.0
  Cu  Cu11  1  0.24448000  0.13640000  0.75837000  1.0
  H  H12  1  0.80359000  0.64291000  0.94487000  1.0
  H  H13  1  0.95532000  0.64387000  0.80612000  1.0
  H  H14  1  0.64800000  0.95591000  0.80742000  1.0
  H  H15  1  0.64437000  0.80380000  0.94528000  1.0
  H  H16  1  0.95532000  0.80660000  0.64408000  1.0
  H  H17  1  0.81016000  0.95414000  0.64537000  1.0
  H  H18  1  0.80519000  0.35462000  0.05059000  1.0
  H  H19  1  0.95104000  0.35843000  0.19544000  1.0
  H  H20  1  0.64772000  0.04516000  0.19369000  1.0
  H  H21  1  0.64645000  0.19188000  0.05017000  1.0
  H  H22  1  0.95316000  0.19612000  0.35655000  1.0
  H  H23  1  0.80997000  0.04773000  0.35496000  1.0
  H  H24  1  0.19296000  0.64586000  0.04980000  1.0
  H  H25  1  0.04011000  0.65261000  0.18724000  1.0
  H  H26  1  0.36128000  0.94842000  0.19535000  1.0
  H  H27  1  0.35277000  0.80809000  0.04731000  1.0
  H  H28  1  0.04242000  0.81536000  0.34744000  1.0
  H  H29  1  0.20053000  0.94750000  0.35861000  1.0
  H  H30  1  0.19224000  0.35282000  0.95239000  1.0
  H  H31  1  0.04122000  0.35066000  0.81265000  1.0
  H  H32  1  0.36064000  0.04995000  0.80614000  1.0
  H  H33  1  0.35071000  0.18853000  0.95575000  1.0
  H  H34  1  0.04289000  0.18741000  0.65245000  1.0
  H  H35  1  0.20026000  0.05318000  0.64236000  1.0
  C  C36  1  0.83487000  0.65126000  0.90506000  1.0
  C  C37  1  0.89397000  0.62252000  0.89069000  1.0
  C  C38  1  0.91259000  0.65181000  0.83398000  1.0
  C  C39  1  0.65521000  0.91306000  0.83506000  1.0
  C  C40  1  0.62546000  0.89448000  0.89157000  1.0
  C  C41  1  0.65332000  0.83513000  0.90568000  1.0
  C  C42  1  0.91408000  0.83682000  0.65241000  1.0
  C  C43  1  0.89763000  0.89510000  0.62381000  1.0
  C  C44  1  0.83974000  0.91239000  0.65306000  1.0
  C  C45  1  0.83505000  0.34743000  0.09173000  1.0
  C  C46  1  0.89266000  0.37762000  0.10820000  1.0
  C  C47  1  0.90975000  0.34932000  0.16595000  1.0
  C  C48  1  0.65549000  0.08682000  0.16453000  1.0
  C  C49  1  0.62636000  0.10362000  0.10707000  1.0
  C  C50  1  0.65481000  0.16198000  0.09102000  1.0
  C  C51  1  0.91234000  0.16563000  0.34809000  1.0
  C  C52  1  0.89655000  0.10735000  0.37680000  1.0
  C  C53  1  0.83900000  0.08964000  0.34728000  1.0
  C  C54  1  0.16135000  0.65571000  0.08899000  1.0
  C  C55  1  0.10215000  0.62782000  0.10416000  1.0
  C  C56  1  0.08307000  0.65922000  0.15941000  1.0
  C  C57  1  0.35093000  0.90847000  0.16505000  1.0
  C  C58  1  0.37830000  0.89272000  0.10668000  1.0
  C  C59  1  0.34662000  0.83661000  0.08919000  1.0
  C  C60  1  0.08653000  0.84181000  0.34195000  1.0
  C  C61  1  0.10738000  0.89608000  0.37444000  1.0
  C  C62  1  0.16749000  0.90950000  0.34771000  1.0
  C  C63  1  0.16108000  0.34404000  0.91262000  1.0
  C  C64  1  0.10235000  0.37311000  0.89703000  1.0
  C  C65  1  0.08373000  0.34291000  0.84102000  1.0
  C  C66  1  0.34994000  0.08955000  0.83684000  1.0
  C  C67  1  0.37689000  0.10454000  0.89560000  1.0
  C  C68  1  0.34489000  0.16055000  0.91348000  1.0
  C  C69  1  0.08682000  0.16039000  0.65823000  1.0
  C  C70  1  0.10750000  0.10581000  0.62593000  1.0
  C  C71  1  0.16740000  0.09161000  0.65305000  1.0
  C  C72  1  0.00367000  0.00120000  0.50025000  1.0
  C  C73  1  0.99860000  0.50037000  0.00094000  1.0
  C  C74  1  0.50259000  0.99840000  0.00074000  1.0
  C  C75  1  0.92818000  0.57757000  0.92679000  1.0
  C  C76  1  0.95840000  0.54071000  0.95951000  1.0
  C  C77  1  0.92709000  0.42295000  0.07316000  1.0
  C  C78  1  0.95790000  0.46017000  0.04169000  1.0
  C  C79  1  0.06848000  0.58131000  0.07027000  1.0
  C  C80  1  0.03866000  0.54251000  0.04006000  1.0
  C  C81  1  0.06868000  0.41950000  0.93133000  1.0
  C  C82  1  0.03900000  0.45809000  0.96212000  1.0
  C  C83  1  0.58069000  0.92870000  0.92757000  1.0
  C  C84  1  0.54371000  0.95884000  0.95995000  1.0
  C  C85  1  0.42277000  0.06983000  0.93021000  1.0
  C  C86  1  0.46068000  0.03903000  0.96129000  1.0
  C  C87  1  0.58138000  0.06880000  0.07211000  1.0
  C  C88  1  0.54408000  0.03812000  0.04077000  1.0
  C  C89  1  0.42405000  0.92706000  0.07195000  1.0
  C  C90  1  0.46161000  0.95776000  0.04071000  1.0
  C  C91  1  0.93248000  0.92971000  0.57862000  1.0
  C  C92  1  0.96330000  0.96065000  0.54105000  1.0
  C  C93  1  0.07405000  0.93062000  0.42065000  1.0
  C  C94  1  0.04400000  0.96121000  0.45899000  1.0
  C  C95  1  0.07413000  0.07154000  0.57966000  1.0
  C  C96  1  0.04406000  0.04110000  0.54134000  1.0
  C  C97  1  0.93174000  0.07293000  0.42215000  1.0
  C  C98  1  0.96288000  0.04190000  0.45965000  1.0
  N  N99  1  0.86811000  0.69487000  0.81645000  1.0
  N  N100  1  0.81994000  0.69448000  0.86053000  1.0
  N  N101  1  0.69640000  0.81996000  0.86115000  1.0
  N  N102  1  0.69761000  0.86825000  0.81738000  1.0
  N  N103  1  0.82343000  0.86795000  0.69579000  1.0
  N  N104  1  0.86952000  0.82108000  0.69540000  1.0
  N  N105  1  0.86587000  0.30550000  0.18211000  1.0
  N  N106  1  0.81956000  0.30436000  0.13610000  1.0
  N  N107  1  0.69768000  0.17820000  0.13536000  1.0
  N  N108  1  0.69813000  0.13162000  0.18093000  1.0
  N  N109  1  0.82231000  0.13381000  0.30427000  1.0
  N  N110  1  0.86777000  0.18094000  0.30476000  1.0
  N  N111  1  0.12750000  0.70239000  0.17550000  1.0
  N  N112  1  0.17599000  0.70020000  0.13184000  1.0
  N  N113  1  0.30362000  0.82069000  0.13359000  1.0
  N  N114  1  0.30625000  0.86524000  0.18062000  1.0
  N  N115  1  0.18095000  0.86668000  0.30275000  1.0
  N  N116  1  0.13075000  0.82471000  0.29920000  1.0
  N  N117  1  0.12792000  0.29918000  0.82499000  1.0
  N  N118  1  0.17586000  0.29991000  0.86937000  1.0
  N  N119  1  0.30216000  0.17718000  0.86890000  1.0
  N  N120  1  0.30523000  0.13317000  0.82140000  1.0
  N  N121  1  0.18091000  0.13428000  0.69807000  1.0
  N  N122  1  0.13095000  0.17693000  0.70126000  1.0
