# generated using pymatgen
data_La2B5H7(C2O7)2
_symmetry_space_group_name_H-M   'P 1'
_cell_length_a   6.46552000
_cell_length_b   10.99400000
_cell_length_c   11.53610000
_cell_angle_alpha   61.56320000
_cell_angle_beta   89.66710000
_cell_angle_gamma   89.29890000
_symmetry_Int_Tables_number   1
_chemical_formula_structural   La2B5H7(C2O7)2
_chemical_formula_sum   'La4 B10 H14 C8 O28'
_cell_volume   721.01442603
_cell_formula_units_Z   2
loop_
 _symmetry_equiv_pos_site_id
 _symmetry_equiv_pos_as_xyz
  1  'x, y, z'
loop_
 _atom_site_type_symbol
 _atom_site_label
 _atom_site_symmetry_multiplicity
 _atom_site_fract_x
 _atom_site_fract_y
 _atom_site_fract_z
 _atom_site_occupancy
  La  La0  1  0.82463000  0.38387000  0.48558000  1.0
  La  La1  1  0.32469000  0.86947000  0.51439000  1.0
  La  La2  1  0.66036000  0.79021000  0.13401000  1.0
  La  La3  1  0.16038000  0.92436000  0.86607000  1.0
  B  B4  1  0.31393000  0.58592000  0.41695000  1.0
  B  B5  1  0.81396000  0.00294000  0.58311000  1.0
  B  B6  1  0.20922000  0.78154000  0.19456000  1.0
  B  B7  1  0.70921000  0.97630000  0.80554000  1.0
  B  B8  1  0.96534000  0.69156000  0.38421000  1.0
  B  B9  1  0.46532000  0.07584000  0.61586000  1.0
  B  B10  1  0.36235000  0.32709000  0.48214000  1.0
  B  B11  1  0.86241000  0.80920000  0.51795000  1.0
  B  B12  1  0.62486000  0.63701000  0.51309000  1.0
  B  B13  1  0.12481000  0.15010000  0.48694000  1.0
  H  H14  1  0.05969000  0.34890000  0.19315000  1.0
  H  H15  1  0.55999000  0.54249000  0.80656000  1.0
  H  H16  1  0.25306000  0.48018000  0.14013000  1.0
  H  H17  1  0.75317000  0.62091000  0.85963000  1.0
  H  H18  1  0.09369000  0.46988000  0.02121000  1.0
  H  H19  1  0.59408000  0.49150000  0.97852000  1.0
  H  H20  1  0.74131000  0.24923000  0.11323000  1.0
  H  H21  1  0.24147000  0.36272000  0.88677000  1.0
  H  H22  1  0.67624000  0.19098000  0.28277000  1.0
  H  H23  1  0.17631000  0.47397000  0.71717000  1.0
  H  H24  1  0.47796000  0.25031000  0.15958000  1.0
  H  H25  1  0.97816000  0.41016000  0.84043000  1.0
  H  H26  1  0.80288000  0.49941000  0.67179000  1.0
  H  H27  1  0.30276000  0.17118000  0.32816000  1.0
  C  C28  1  0.94874000  0.55766000  0.13173000  1.0
  C  C29  1  0.44864000  0.68957000  0.86821000  1.0
  C  C30  1  0.09594000  0.45581000  0.12197000  1.0
  C  C31  1  0.59616000  0.57821000  0.87779000  1.0
  C  C32  1  0.59885000  0.04850000  0.21121000  1.0
  C  C33  1  0.09882000  0.25998000  0.78877000  1.0
  C  C34  1  0.62676000  0.19412000  0.19034000  1.0
  C  C35  1  0.12700000  0.38474000  0.80961000  1.0
  O  O36  1  0.42792000  0.45653000  0.44896000  1.0
  O  O37  1  0.92797000  0.90544000  0.55120000  1.0
  O  O38  1  0.34999000  0.67900000  0.27407000  1.0
  O  O39  1  0.85005000  0.95338000  0.72596000  1.0
  O  O40  1  0.09105000  0.56426000  0.44093000  1.0
  O  O41  1  0.59106000  0.00516000  0.55919000  1.0
  O  O42  1  0.27999000  0.87416000  0.07500000  1.0
  O  O43  1  0.77993000  0.94914000  0.92518000  1.0
  O  O44  1  0.01097000  0.78028000  0.24198000  1.0
  O  O45  1  0.51097000  0.02250000  0.75809000  1.0
  O  O46  1  0.51093000  0.22657000  0.54601000  1.0
  O  O47  1  0.01095000  0.77254000  0.45404000  1.0
  O  O48  1  0.74434000  0.65934000  0.39283000  1.0
  O  O49  1  0.24429000  0.05224000  0.60722000  1.0
  O  O50  1  0.67452000  0.74580000  0.55169000  1.0
  O  O51  1  0.17447000  0.29744000  0.44836000  1.0
  O  O52  1  0.68506000  0.49710000  0.62110000  1.0
  O  O53  1  0.18511000  0.11810000  0.37897000  1.0
  O  O54  1  0.40436000  0.64743000  0.49343000  1.0
  O  O55  1  0.90427000  0.14089000  0.50656000  1.0
  O  O56  1  0.95214000  0.68384000  0.04215000  1.0
  O  O57  1  0.45211000  0.72615000  0.95786000  1.0
  O  O58  1  0.82136000  0.51805000  0.22879000  1.0
  O  O59  1  0.32106000  0.74689000  0.77127000  1.0
  O  O60  1  0.69342000  0.01187000  0.13712000  1.0
  O  O61  1  0.19297000  0.14913000  0.86303000  1.0
  O  O62  1  0.47824000  0.96785000  0.30450000  1.0
  O  O63  1  0.97840000  0.27271000  0.69537000  1.0
