# generated using pymatgen
data_UH8C12(NO4)2
_symmetry_space_group_name_H-M   'P 1'
_cell_length_a   6.99473000
_cell_length_b   13.42010000
_cell_length_c   14.91760000
_cell_angle_alpha   90.00000000
_cell_angle_beta   90.00000000
_cell_angle_gamma   90.00000000
_symmetry_Int_Tables_number   1
_chemical_formula_structural   UH8C12(NO4)2
_chemical_formula_sum   'U4 H32 C48 N8 O32'
_cell_volume   1400.31475507
_cell_formula_units_Z   4
loop_
 _symmetry_equiv_pos_site_id
 _symmetry_equiv_pos_as_xyz
  1  'x, y, z'
loop_
 _atom_site_type_symbol
 _atom_site_label
 _atom_site_symmetry_multiplicity
 _atom_site_fract_x
 _atom_site_fract_y
 _atom_site_fract_z
 _atom_site_occupancy
  U  U0  1  0.94425000  0.48893000  0.49922000  1.0
  U  U1  1  0.55573000  0.51107000  0.99921000  1.0
  U  U2  1  0.05573000  0.98893000  0.00079000  1.0
  U  U3  1  0.44427000  0.01106000  0.50079000  1.0
  H  H4  1  0.74166000  0.57023000  0.23606000  1.0
  H  H5  1  0.75834000  0.42976000  0.73606000  1.0
  H  H6  1  0.25834000  0.07024000  0.26394000  1.0
  H  H7  1  0.24166000  0.92977000  0.76394000  1.0
  H  H8  1  0.79447000  0.73405000  0.47034000  1.0
  H  H9  1  0.70553000  0.26595000  0.97034000  1.0
  H  H10  1  0.20553000  0.23405000  0.02966000  1.0
  H  H11  1  0.29447000  0.76595000  0.52966000  1.0
  H  H12  1  0.84728000  0.71512000  0.14132000  1.0
  H  H13  1  0.65272000  0.28488000  0.64132000  1.0
  H  H14  1  0.15272000  0.21512000  0.35868000  1.0
  H  H15  1  0.34728000  0.78488000  0.85868000  1.0
  H  H16  1  0.89393000  0.88899000  0.38408000  1.0
  H  H17  1  0.60607000  0.11101000  0.88409000  1.0
  H  H18  1  0.10607000  0.38899000  0.11591000  1.0
  H  H19  1  0.39393000  0.61101000  0.61591000  1.0
  H  H20  1  0.00064000  0.58194000  0.83107000  1.0
  H  H21  1  0.49936000  0.41806000  0.33107000  1.0
  H  H22  1  0.99936000  0.08194000  0.66893000  1.0
  H  H23  1  0.50065000  0.91807000  0.16893000  1.0
  H  H24  1  0.97003000  0.70713000  0.95723000  1.0
  H  H25  1  0.52997000  0.29287000  0.45723000  1.0
  H  H26  1  0.02996000  0.20713000  0.54277000  1.0
  H  H27  1  0.47004000  0.79287000  0.04277000  1.0
  H  H28  1  0.73553000  0.91958000  0.78703000  1.0
  H  H29  1  0.76448000  0.08042000  0.28703000  1.0
  H  H30  1  0.26447000  0.41958000  0.71297000  1.0
  H  H31  1  0.23553000  0.58042000  0.21297000  1.0
  H  H32  1  0.76205000  0.80493000  0.65367000  1.0
  H  H33  1  0.73796000  0.19507000  0.15367000  1.0
  H  H34  1  0.23795000  0.30493000  0.84633000  1.0
  H  H35  1  0.26205000  0.69507000  0.34633000  1.0
  C  C36  1  0.89483000  0.61333000  0.65572000  1.0
  C  C37  1  0.60517000  0.38666000  0.15571000  1.0
  C  C38  1  0.10516000  0.11334000  0.84429000  1.0
  C  C39  1  0.39484000  0.88666000  0.34428000  1.0
  C  C40  1  0.77912000  0.64224000  0.26379000  1.0
  C  C41  1  0.72088000  0.35776000  0.76379000  1.0
  C  C42  1  0.22088000  0.14224000  0.23621000  1.0
  C  C43  1  0.27912000  0.85776000  0.73621000  1.0
  C  C44  1  0.80879000  0.73664000  0.39784000  1.0
  C  C45  1  0.69121000  0.26336000  0.89784000  1.0
  C  C46  1  0.19121000  0.23664000  0.10216000  1.0
  C  C47  1  0.30880000  0.76336000  0.60216000  1.0
  C  C48  1  0.83687000  0.72343000  0.21371000  1.0
  C  C49  1  0.66314000  0.27656000  0.71371000  1.0
  C  C50  1  0.16314000  0.22344000  0.28629000  1.0
  C  C51  1  0.33687000  0.77657000  0.78629000  1.0
  C  C52  1  0.86349000  0.81952000  0.34931000  1.0
  C  C53  1  0.63651000  0.18047000  0.84931000  1.0
  C  C54  1  0.13651000  0.31953000  0.15069000  1.0
  C  C55  1  0.36349000  0.68048000  0.65069000  1.0
  C  C56  1  0.88241000  0.81318000  0.25617000  1.0
  C  C57  1  0.61759000  0.18682000  0.75618000  1.0
  C  C58  1  0.11759000  0.31318000  0.24383000  1.0
  C  C59  1  0.38241000  0.68682000  0.74383000  1.0
  C  C60  1  0.94395000  0.65617000  0.81835000  1.0
  C  C61  1  0.55605000  0.34384000  0.31834000  1.0
  C  C62  1  0.05604000  0.15617000  0.68166000  1.0
  C  C63  1  0.44396000  0.84384000  0.18165000  1.0
  C  C64  1  0.88333000  0.68400000  0.73249000  1.0
  C  C65  1  0.61667000  0.31600000  0.23249000  1.0
  C  C66  1  0.11666000  0.18400000  0.76751000  1.0
  C  C67  1  0.38333000  0.81601000  0.26751000  1.0
  C  C68  1  0.95117000  0.90210000  0.20426000  1.0
  C  C69  1  0.54883000  0.09790000  0.70425000  1.0
  C  C70  1  0.04883000  0.40210000  0.29575000  1.0
  C  C71  1  0.45116000  0.59790000  0.79574000  1.0
  C  C72  1  0.92886000  0.72294000  0.88851000  1.0
  C  C73  1  0.57114000  0.27706000  0.38851000  1.0
  C  C74  1  0.07114000  0.22294000  0.61149000  1.0
  C  C75  1  0.42886000  0.77706000  0.11149000  1.0
  C  C76  1  0.79599000  0.84493000  0.79098000  1.0
  C  C77  1  0.70400000  0.15507000  0.29097000  1.0
  C  C78  1  0.20400000  0.34493000  0.70903000  1.0
  C  C79  1  0.29599000  0.65507000  0.20903000  1.0
  C  C80  1  0.81046000  0.78000000  0.71942000  1.0
  C  C81  1  0.68954000  0.22000000  0.21942000  1.0
  C  C82  1  0.18954000  0.28000000  0.78058000  1.0
  C  C83  1  0.31047000  0.72000000  0.28058000  1.0
  N  N84  1  0.77274000  0.64935000  0.35453000  1.0
  N  N85  1  0.72726000  0.35065000  0.85453000  1.0
  N  N86  1  0.22726000  0.14935000  0.14547000  1.0
  N  N87  1  0.27274000  0.85065000  0.64547000  1.0
  N  N88  1  0.85399000  0.81500000  0.87363000  1.0
  N  N89  1  0.64601000  0.18500000  0.37363000  1.0
  N  N90  1  0.14601000  0.31500000  0.62637000  1.0
  N  N91  1  0.35399000  0.68500000  0.12637000  1.0
  O  O92  1  0.75398000  0.40694000  0.53730000  1.0
  O  O93  1  0.74601000  0.59306000  0.03730000  1.0
  O  O94  1  0.24601000  0.90694000  0.96270000  1.0
  O  O95  1  0.25399000  0.09305000  0.46270000  1.0
  O  O96  1  0.72927000  0.56798000  0.40193000  1.0
  O  O97  1  0.77073000  0.43202000  0.90193000  1.0
  O  O98  1  0.27072000  0.06798000  0.09807000  1.0
  O  O99  1  0.22928000  0.93202000  0.59807000  1.0
  O  O100  1  0.99085000  0.53275000  0.66277000  1.0
  O  O101  1  0.50916000  0.46724000  0.16277000  1.0
  O  O102  1  0.00915000  0.03276000  0.83723000  1.0
  O  O103  1  0.49085000  0.96724000  0.33723000  1.0
  O  O104  1  0.13186000  0.57322000  0.46276000  1.0
  O  O105  1  0.36812000  0.42678000  0.96276000  1.0
  O  O106  1  0.86811000  0.07322000  0.03724000  1.0
  O  O107  1  0.63188000  0.92678000  0.53724000  1.0
  O  O108  1  0.80939000  0.63494000  0.58264000  1.0
  O  O109  1  0.69062000  0.36506000  0.08264000  1.0
  O  O110  1  0.19061000  0.13494000  0.91736000  1.0
  O  O111  1  0.30939000  0.86506000  0.41736000  1.0
  O  O112  1  0.99816000  0.88407000  0.12148000  1.0
  O  O113  1  0.50184000  0.11593000  0.62147000  1.0
  O  O114  1  0.00184000  0.38407000  0.37853000  1.0
  O  O115  1  0.49815000  0.61593000  0.87852000  1.0
  O  O116  1  0.96264000  0.98428000  0.24231000  1.0
  O  O117  1  0.53736000  0.01571000  0.74231000  1.0
  O  O118  1  0.03736000  0.48429000  0.25769000  1.0
  O  O119  1  0.46263000  0.51572000  0.75769000  1.0
  O  O120  1  0.83135000  0.87734000  0.94198000  1.0
  O  O121  1  0.66865000  0.12266000  0.44198000  1.0
  O  O122  1  0.16864000  0.37734000  0.55802000  1.0
  O  O123  1  0.33135000  0.62266000  0.05802000  1.0
