# generated using pymatgen
data_FeH14C20(N2O)2
_symmetry_space_group_name_H-M   'P 1'
_cell_length_a   7.73644000
_cell_length_b   8.10248000
_cell_length_c   13.05660000
_cell_angle_alpha   90.00080000
_cell_angle_beta   90.00130000
_cell_angle_gamma   83.76560000
_symmetry_Int_Tables_number   1
_chemical_formula_structural   FeH14C20(N2O)2
_chemical_formula_sum   'Fe2 H28 C40 N8 O4'
_cell_volume   813.60416119
_cell_formula_units_Z   2
loop_
 _symmetry_equiv_pos_site_id
 _symmetry_equiv_pos_as_xyz
  1  'x, y, z'
loop_
 _atom_site_type_symbol
 _atom_site_label
 _atom_site_symmetry_multiplicity
 _atom_site_fract_x
 _atom_site_fract_y
 _atom_site_fract_z
 _atom_site_occupancy
  Fe  Fe0  1  0.00000000  0.00000000  0.50000000  1.0
  Fe  Fe1  1  0.50000000  0.50000000  0.00000000  1.0
  H  H2  1  0.65051000  0.27183000  0.57828000  1.0
  H  H3  1  0.84952000  0.22815000  0.07827000  1.0
  H  H4  1  0.34950000  0.72816000  0.42172000  1.0
  H  H5  1  0.15048000  0.77186000  0.92173000  1.0
  H  H6  1  0.61696000  0.57354000  0.48199000  1.0
  H  H7  1  0.88303000  0.92645000  0.98195000  1.0
  H  H8  1  0.38303000  0.42645000  0.51801000  1.0
  H  H9  1  0.11697000  0.07356000  0.01805000  1.0
  H  H10  1  0.88078000  0.56537000  0.34598000  1.0
  H  H11  1  0.61919000  0.93465000  0.84594000  1.0
  H  H12  1  0.11921000  0.43462000  0.65401000  1.0
  H  H13  1  0.38080000  0.06535000  0.15406000  1.0
  H  H14  1  0.46058000  0.25073000  0.35273000  1.0
  H  H15  1  0.03939000  0.24935000  0.85276000  1.0
  H  H16  1  0.53942000  0.74927000  0.64727000  1.0
  H  H17  1  0.96061000  0.75065000  0.14724000  1.0
  H  H18  1  0.60835000  0.36172000  0.20258000  1.0
  H  H19  1  0.89163000  0.13836000  0.70262000  1.0
  H  H20  1  0.39164000  0.63828000  0.79742000  1.0
  H  H21  1  0.10837000  0.86164000  0.29738000  1.0
  H  H22  1  0.14165000  0.47847000  0.04989000  1.0
  H  H23  1  0.35832000  0.02159000  0.54990000  1.0
  H  H24  1  0.85835000  0.52153000  0.95011000  1.0
  H  H25  1  0.64169000  0.97841000  0.45010000  1.0
  H  H26  1  0.97206000  0.38154000  0.19623000  1.0
  H  H27  1  0.52789000  0.11853000  0.69622000  1.0
  H  H28  1  0.02794000  0.61846000  0.80377000  1.0
  H  H29  1  0.47211000  0.88148000  0.30378000  1.0
  C  C30  1  0.73218000  0.31418000  0.51804000  1.0
  C  C31  1  0.76784000  0.18582000  0.01802000  1.0
  C  C32  1  0.26783000  0.68581000  0.48196000  1.0
  C  C33  1  0.23216000  0.81419000  0.98198000  1.0
  C  C34  1  0.71491000  0.47041000  0.46674000  1.0
  C  C35  1  0.78509000  0.02960000  0.96671000  1.0
  C  C36  1  0.28510000  0.52958000  0.53325000  1.0
  C  C37  1  0.21491000  0.97041000  0.03330000  1.0
  C  C38  1  0.84972000  0.46629000  0.39609000  1.0
  C  C39  1  0.65028000  0.03372000  0.89607000  1.0
  C  C40  1  0.15028000  0.53371000  0.60391000  1.0
  C  C41  1  0.34972000  0.96629000  0.10394000  1.0
  C  C42  1  0.94603000  0.30774000  0.40656000  1.0
  C  C43  1  0.55396000  0.19226000  0.90656000  1.0
  C  C44  1  0.05397000  0.69226000  0.59343000  1.0
  C  C45  1  0.44604000  0.80774000  0.09344000  1.0
  C  C46  1  0.10550000  0.23144000  0.36910000  1.0
  C  C47  1  0.39448000  0.26858000  0.86910000  1.0
  C  C48  1  0.89451000  0.76855000  0.63090000  1.0
  C  C49  1  0.60551000  0.73143000  0.13090000  1.0
  C  C50  1  0.20223000  0.30381000  0.28663000  1.0
  C  C51  1  0.29773000  0.19625000  0.78664000  1.0
  C  C52  1  0.79777000  0.69619000  0.71336000  1.0
  C  C53  1  0.70227000  0.80376000  0.21336000  1.0
  C  C54  1  0.38409000  0.29968000  0.28730000  1.0
  C  C55  1  0.11587000  0.20041000  0.78732000  1.0
  C  C56  1  0.61592000  0.70032000  0.71270000  1.0
  C  C57  1  0.88412000  0.79959000  0.21268000  1.0
  C  C58  1  0.46786000  0.36098000  0.20377000  1.0
  C  C59  1  0.03212000  0.13907000  0.70380000  1.0
  C  C60  1  0.53214000  0.63903000  0.79623000  1.0
  C  C61  1  0.96788000  0.86092000  0.29620000  1.0
  C  C62  1  0.20603000  0.42889000  0.11912000  1.0
  C  C63  1  0.29393000  0.07113000  0.61914000  1.0
  C  C64  1  0.79397000  0.57111000  0.88088000  1.0
  C  C65  1  0.70607000  0.92887000  0.38087000  1.0
  C  C66  1  0.11325000  0.37388000  0.20058000  1.0
  C  C67  1  0.38671000  0.12618000  0.70058000  1.0
  C  C68  1  0.88676000  0.62612000  0.79942000  1.0
  C  C69  1  0.61330000  0.87382000  0.29942000  1.0
  N  N70  1  0.87076000  0.21737000  0.48205000  1.0
  N  N71  1  0.62924000  0.28263000  0.98205000  1.0
  N  N72  1  0.12924000  0.78262000  0.51795000  1.0
  N  N73  1  0.37076000  0.71738000  0.01796000  1.0
  N  N74  1  0.38165000  0.42230000  0.11924000  1.0
  N  N75  1  0.11831000  0.07771000  0.61927000  1.0
  N  N76  1  0.61835000  0.57771000  0.88076000  1.0
  N  N77  1  0.88169000  0.92228000  0.38073000  1.0
  O  O78  1  0.16733000  0.09012000  0.40838000  1.0
  O  O79  1  0.33263000  0.40989000  0.90838000  1.0
  O  O80  1  0.83267000  0.90988000  0.59162000  1.0
  O  O81  1  0.66737000  0.59011000  0.09162000  1.0
