# generated using pymatgen
data_ZnH16C25N2O5
_symmetry_space_group_name_H-M   'P 1'
_cell_length_a   17.00250000
_cell_length_b   17.00270000
_cell_length_c   32.95810000
_cell_angle_alpha   88.06120000
_cell_angle_beta   88.06120000
_cell_angle_gamma   69.97890000
_symmetry_Int_Tables_number   1
_chemical_formula_structural   ZnH16C25N2O5
_chemical_formula_sum   'Zn8 H128 C200 N16 O40'
_cell_volume   8944.37060364
_cell_formula_units_Z   8
loop_
 _symmetry_equiv_pos_site_id
 _symmetry_equiv_pos_as_xyz
  1  'x, y, z'
loop_
 _atom_site_type_symbol
 _atom_site_label
 _atom_site_symmetry_multiplicity
 _atom_site_fract_x
 _atom_site_fract_y
 _atom_site_fract_z
 _atom_site_occupancy
  Zn  Zn0  1  0.31458000  0.85447000  0.44280000  1.0
  Zn  Zn1  1  0.85446000  0.31458000  0.94280000  1.0
  Zn  Zn2  1  0.68542000  0.14554000  0.55720000  1.0
  Zn  Zn3  1  0.14554000  0.68542000  0.05720000  1.0
  Zn  Zn4  1  0.86455000  0.79483000  0.18765000  1.0
  Zn  Zn5  1  0.79483000  0.86454000  0.68765000  1.0
  Zn  Zn6  1  0.13546000  0.20516000  0.81235000  1.0
  Zn  Zn7  1  0.20516000  0.13546000  0.31235000  1.0
  H  H8  1  0.28762000  0.77951000  0.29013000  1.0
  H  H9  1  0.77950000  0.28762000  0.79013000  1.0
  H  H10  1  0.71238000  0.22049000  0.70987000  1.0
  H  H11  1  0.22049000  0.71238000  0.20987000  1.0
  H  H12  1  0.44454000  0.78060000  0.29450000  1.0
  H  H13  1  0.78060000  0.44453000  0.79450000  1.0
  H  H14  1  0.55547000  0.21939000  0.70550000  1.0
  H  H15  1  0.21940000  0.55547000  0.20550000  1.0
  H  H16  1  0.63411000  0.81866000  0.41437000  1.0
  H  H17  1  0.81867000  0.63410000  0.91437000  1.0
  H  H18  1  0.36589000  0.18133000  0.58563000  1.0
  H  H19  1  0.18134000  0.36589000  0.08562000  1.0
  H  H20  1  0.60985000  0.84822000  0.49368000  1.0
  H  H21  1  0.84822000  0.60984000  0.99368000  1.0
  H  H22  1  0.39015000  0.15178000  0.50632000  1.0
  H  H23  1  0.15179000  0.39015000  0.00632000  1.0
  H  H24  1  0.35397000  0.88811000  0.59968000  1.0
  H  H25  1  0.88810000  0.35398000  0.09968000  1.0
  H  H26  1  0.64602000  0.11191000  0.40032000  1.0
  H  H27  1  0.11190000  0.64602000  0.90032000  1.0
  H  H28  1  0.19673000  0.88645000  0.59476000  1.0
  H  H29  1  0.88645000  0.19673000  0.09476000  1.0
  H  H30  1  0.80327000  0.11356000  0.40524000  1.0
  H  H31  1  0.11356000  0.80327000  0.90524000  1.0
  H  H32  1  0.01361000  0.83563000  0.47722000  1.0
  H  H33  1  0.83563000  0.01362000  0.97723000  1.0
  H  H34  1  0.98639000  0.16437000  0.52277000  1.0
  H  H35  1  0.16437000  0.98638000  0.02277000  1.0
  H  H36  1  0.03650000  0.80915000  0.39689000  1.0
  H  H37  1  0.80915000  0.03651000  0.89690000  1.0
  H  H38  1  0.96350000  0.19085000  0.60310000  1.0
  H  H39  1  0.19085000  0.96350000  0.10310000  1.0
  H  H40  1  0.07317000  0.92148000  0.32514000  1.0
  H  H41  1  0.92148000  0.07317000  0.82514000  1.0
  H  H42  1  0.92683000  0.07852000  0.67486000  1.0
  H  H43  1  0.07852000  0.92683000  0.17486000  1.0
  H  H44  1  0.98928000  0.88972000  0.27098000  1.0
  H  H45  1  0.88972000  0.98927000  0.77098000  1.0
  H  H46  1  0.01073000  0.11028000  0.72902000  1.0
  H  H47  1  0.11028000  0.01072000  0.22902000  1.0
  H  H48  1  0.13208000  0.62745000  0.28379000  1.0
  H  H49  1  0.62744000  0.13207000  0.78380000  1.0
  H  H50  1  0.86793000  0.37255000  0.71621000  1.0
  H  H51  1  0.37255000  0.86793000  0.21621000  1.0
  H  H52  1  0.21568000  0.65917000  0.33796000  1.0
  H  H53  1  0.65917000  0.21568000  0.83796000  1.0
  H  H54  1  0.78432000  0.34083000  0.66204000  1.0
  H  H55  1  0.34083000  0.78432000  0.16204000  1.0
  H  H56  1  0.99349000  0.65003000  0.20694000  1.0
  H  H57  1  0.65003000  0.99348000  0.70695000  1.0
  H  H58  1  0.00652000  0.34996000  0.79306000  1.0
  H  H59  1  0.34996000  0.00651000  0.29306000  1.0
  H  H60  1  0.49311000  0.91380000  0.31316000  1.0
  H  H61  1  0.91381000  0.49310000  0.81316000  1.0
  H  H62  1  0.50690000  0.08619000  0.68684000  1.0
  H  H63  1  0.08619000  0.50690000  0.18683000  1.0
  H  H64  1  0.60722000  0.89712000  0.26343000  1.0
  H  H65  1  0.89714000  0.60721000  0.76344000  1.0
  H  H66  1  0.39279000  0.10286000  0.73657000  1.0
  H  H67  1  0.10287000  0.39280000  0.23657000  1.0
  H  H68  1  0.75277000  0.66494000  0.32345000  1.0
  H  H69  1  0.66495000  0.75276000  0.82345000  1.0
  H  H70  1  0.24723000  0.33505000  0.67655000  1.0
  H  H71  1  0.33505000  0.24724000  0.17656000  1.0
  H  H72  1  0.63462000  0.68287000  0.37360000  1.0
  H  H73  1  0.68288000  0.63462000  0.87360000  1.0
  H  H74  1  0.36538000  0.31712000  0.62640000  1.0
  H  H75  1  0.31713000  0.36538000  0.12640000  1.0
  H  H76  1  0.70788000  0.87511000  0.23477000  1.0
  H  H77  1  0.87512000  0.70788000  0.73477000  1.0
  H  H78  1  0.29213000  0.12488000  0.76523000  1.0
  H  H79  1  0.12487000  0.29213000  0.26523000  1.0
  H  H80  1  0.42688000  0.00479000  0.56062000  1.0
  H  H81  1  0.00479000  0.42687000  0.06062000  1.0
  H  H82  1  0.57313000  0.99521000  0.43938000  1.0
  H  H83  1  0.99521000  0.57313000  0.93938000  1.0
  H  H84  1  0.51046000  0.02105000  0.61826000  1.0
  H  H85  1  0.02105000  0.51046000  0.11827000  1.0
  H  H86  1  0.48954000  0.97895000  0.38174000  1.0
  H  H87  1  0.97895000  0.48955000  0.88174000  1.0
  H  H88  1  0.65562000  0.75889000  0.61555000  1.0
  H  H89  1  0.75888000  0.65561000  0.11555000  1.0
  H  H90  1  0.34437000  0.24111000  0.38445000  1.0
  H  H91  1  0.24111000  0.34438000  0.88445000  1.0
  H  H92  1  0.57140000  0.74200000  0.55774000  1.0
  H  H93  1  0.74199000  0.57140000  0.05774000  1.0
  H  H94  1  0.42859000  0.25801000  0.44226000  1.0
  H  H95  1  0.25801000  0.42859000  0.94225000  1.0
  H  H96  1  0.02511000  0.99756000  0.53424000  1.0
  H  H97  1  0.99756000  0.02511000  0.03424000  1.0
  H  H98  1  0.97489000  0.00245000  0.46576000  1.0
  H  H99  1  0.00244000  0.97489000  0.96576000  1.0
  H  H100  1  0.91044000  0.00501000  0.58449000  1.0
  H  H101  1  0.00501000  0.91044000  0.08449000  1.0
  H  H102  1  0.08956000  0.99500000  0.41551000  1.0
  H  H103  1  0.99500000  0.08956000  0.91551000  1.0
  H  H104  1  0.02506000  0.74189000  0.61214000  1.0
  H  H105  1  0.74189000  0.02506000  0.11214000  1.0
  H  H106  1  0.97494000  0.25812000  0.38786000  1.0
  H  H107  1  0.25811000  0.97493000  0.88786000  1.0
  H  H108  1  0.13801000  0.73350000  0.55977000  1.0
  H  H109  1  0.73350000  0.13801000  0.05977000  1.0
  H  H110  1  0.86199000  0.26651000  0.44023000  1.0
  H  H111  1  0.26651000  0.86199000  0.94022000  1.0
  H  H112  1  0.23131000  0.01383000  0.40803000  1.0
  H  H113  1  0.01383000  0.23131000  0.90803000  1.0
  H  H114  1  0.76869000  0.98618000  0.59197000  1.0
  H  H115  1  0.98617000  0.76869000  0.09196000  1.0
  H  H116  1  0.28544000  0.10347000  0.43587000  1.0
  H  H117  1  0.10347000  0.28545000  0.93587000  1.0
  H  H118  1  0.71455000  0.89654000  0.56413000  1.0
  H  H119  1  0.89654000  0.71456000  0.06413000  1.0
  H  H120  1  0.34240000  0.02256000  0.47010000  1.0
  H  H121  1  0.02256000  0.34241000  0.97010000  1.0
  H  H122  1  0.65759000  0.97744000  0.52990000  1.0
  H  H123  1  0.97744000  0.65760000  0.02990000  1.0
  H  H124  1  0.15047000  0.10573000  0.47302000  1.0
  H  H125  1  0.10573000  0.15047000  0.97302000  1.0
  H  H126  1  0.84953000  0.89427000  0.52698000  1.0
  H  H127  1  0.89426000  0.84953000  0.02698000  1.0
  H  H128  1  0.21206000  0.03142000  0.50887000  1.0
  H  H129  1  0.03142000  0.21206000  0.00887000  1.0
  H  H130  1  0.78794000  0.96858000  0.49113000  1.0
  H  H131  1  0.96858000  0.78794000  0.99113000  1.0
  H  H132  1  0.21718000  0.19521000  0.49420000  1.0
  H  H133  1  0.19521000  0.21718000  0.99420000  1.0
  H  H134  1  0.78282000  0.80479000  0.50580000  1.0
  H  H135  1  0.80479000  0.78283000  0.00580000  1.0
  C  C136  1  0.16181000  0.82323000  0.40682000  1.0
  C  C137  1  0.82323000  0.16181000  0.90683000  1.0
  C  C138  1  0.83818000  0.17678000  0.59318000  1.0
  C  C139  1  0.17677000  0.83818000  0.09318000  1.0
  C  C140  1  0.19921000  0.80951000  0.36773000  1.0
  C  C141  1  0.80951000  0.19921000  0.86773000  1.0
  C  C142  1  0.80079000  0.19050000  0.63227000  1.0
  C  C143  1  0.19049000  0.80079000  0.13227000  1.0
  C  C144  1  0.28081000  0.80679000  0.35704000  1.0
  C  C145  1  0.80679000  0.28081000  0.85704000  1.0
  C  C146  1  0.71919000  0.19321000  0.64296000  1.0
  C  C147  1  0.19321000  0.71919000  0.14296000  1.0
  C  C148  1  0.31820000  0.79036000  0.31669000  1.0
  C  C149  1  0.79036000  0.31819000  0.81669000  1.0
  C  C150  1  0.68181000  0.20964000  0.68331000  1.0
  C  C151  1  0.20964000  0.68181000  0.18331000  1.0
  C  C152  1  0.39792000  0.79125000  0.31891000  1.0
  C  C153  1  0.79125000  0.39792000  0.81891000  1.0
  C  C154  1  0.60208000  0.20875000  0.68109000  1.0
  C  C155  1  0.20875000  0.60208000  0.18109000  1.0
  C  C156  1  0.40957000  0.80867000  0.36064000  1.0
  C  C157  1  0.80867000  0.40957000  0.86065000  1.0
  C  C158  1  0.59043000  0.19133000  0.63936000  1.0
  C  C159  1  0.19133000  0.59043000  0.13935000  1.0
  C  C160  1  0.48522000  0.81045000  0.37617000  1.0
  C  C161  1  0.81045000  0.48521000  0.87617000  1.0
  C  C162  1  0.51478000  0.18955000  0.62383000  1.0
  C  C163  1  0.18955000  0.51478000  0.12383000  1.0
  C  C164  1  0.49978000  0.82148000  0.41717000  1.0
  C  C165  1  0.82147000  0.49978000  0.91717000  1.0
  C  C166  1  0.50022000  0.17852000  0.58283000  1.0
  C  C167  1  0.17853000  0.50022000  0.08283000  1.0
  C  C168  1  0.57765000  0.82497000  0.43230000  1.0
  C  C169  1  0.82497000  0.57764000  0.93230000  1.0
  C  C170  1  0.42235000  0.17503000  0.56770000  1.0
  C  C171  1  0.17504000  0.42236000  0.06770000  1.0
  C  C172  1  0.56526000  0.83999000  0.47290000  1.0
  C  C173  1  0.83999000  0.56525000  0.97290000  1.0
  C  C174  1  0.43474000  0.16001000  0.52710000  1.0
  C  C175  1  0.16002000  0.43475000  0.02710000  1.0
  C  C176  1  0.47993000  0.84561000  0.48285000  1.0
  C  C177  1  0.84561000  0.47992000  0.98285000  1.0
  C  C178  1  0.52007000  0.15439000  0.51715000  1.0
  C  C179  1  0.15439000  0.52007000  0.01715000  1.0
  C  C180  1  0.44195000  0.86211000  0.52173000  1.0
  C  C181  1  0.86211000  0.44195000  0.02173000  1.0
  C  C182  1  0.55805000  0.13789000  0.47827000  1.0
  C  C183  1  0.13789000  0.55805000  0.97827000  1.0
  C  C184  1  0.35886000  0.86858000  0.53202000  1.0
  C  C185  1  0.86857000  0.35886000  0.03202000  1.0
  C  C186  1  0.64113000  0.13143000  0.46798000  1.0
  C  C187  1  0.13143000  0.64114000  0.96798000  1.0
  C  C188  1  0.32245000  0.88073000  0.57274000  1.0
  C  C189  1  0.88072000  0.32245000  0.07274000  1.0
  C  C190  1  0.67755000  0.11929000  0.42726000  1.0
  C  C191  1  0.11928000  0.67755000  0.92726000  1.0
  C  C192  1  0.24276000  0.87963000  0.57029000  1.0
  C  C193  1  0.87962000  0.24276000  0.07029000  1.0
  C  C194  1  0.75723000  0.12039000  0.42971000  1.0
  C  C195  1  0.12038000  0.75724000  0.92971000  1.0
  C  C196  1  0.23030000  0.86656000  0.52813000  1.0
  C  C197  1  0.86656000  0.23030000  0.02813000  1.0
  C  C198  1  0.76970000  0.13345000  0.47187000  1.0
  C  C199  1  0.13345000  0.76970000  0.97187000  1.0
  C  C200  1  0.15669000  0.85955000  0.51310000  1.0
  C  C201  1  0.85954000  0.15669000  0.01310000  1.0
  C  C202  1  0.84331000  0.14046000  0.48690000  1.0
  C  C203  1  0.14046000  0.84331000  0.98690000  1.0
  C  C204  1  0.14298000  0.84521000  0.47262000  1.0
  C  C205  1  0.84521000  0.14298000  0.97262000  1.0
  C  C206  1  0.85702000  0.15480000  0.52738000  1.0
  C  C207  1  0.15480000  0.85702000  0.02738000  1.0
  C  C208  1  0.06785000  0.83402000  0.45845000  1.0
  C  C209  1  0.83402000  0.06786000  0.95845000  1.0
  C  C210  1  0.93215000  0.16598000  0.54155000  1.0
  C  C211  1  0.16598000  0.93214000  0.04155000  1.0
  C  C212  1  0.07944000  0.82055000  0.41766000  1.0
  C  C213  1  0.82054000  0.07945000  0.91766000  1.0
  C  C214  1  0.92056000  0.17946000  0.58234000  1.0
  C  C215  1  0.17946000  0.92056000  0.08234000  1.0
  C  C216  1  0.14929000  0.79216000  0.33508000  1.0
  C  C217  1  0.79216000  0.14929000  0.83508000  1.0
  C  C218  1  0.85071000  0.20784000  0.66492000  1.0
  C  C219  1  0.20784000  0.85071000  0.16492000  1.0
  C  C220  1  0.08541000  0.85715000  0.31611000  1.0
  C  C221  1  0.85714000  0.08541000  0.81612000  1.0
  C  C222  1  0.91459000  0.14285000  0.68389000  1.0
  C  C223  1  0.14285000  0.91459000  0.18388000  1.0
  C  C224  1  0.03880000  0.83970000  0.28598000  1.0
  C  C225  1  0.83970000  0.03880000  0.78599000  1.0
  C  C226  1  0.96120000  0.16030000  0.71401000  1.0
  C  C227  1  0.16030000  0.96120000  0.21401000  1.0
  C  C228  1  0.05542000  0.75677000  0.27441000  1.0
  C  C229  1  0.75677000  0.05541000  0.77442000  1.0
  C  C230  1  0.94459000  0.24323000  0.72559000  1.0
  C  C231  1  0.24323000  0.94459000  0.22559000  1.0
  C  C232  1  0.11966000  0.69158000  0.29302000  1.0
  C  C233  1  0.69158000  0.11965000  0.79302000  1.0
  C  C234  1  0.88035000  0.30842000  0.70698000  1.0
  C  C235  1  0.30842000  0.88035000  0.20698000  1.0
  C  C236  1  0.16605000  0.70941000  0.32308000  1.0
  C  C237  1  0.70941000  0.16605000  0.82308000  1.0
  C  C238  1  0.83396000  0.29059000  0.67692000  1.0
  C  C239  1  0.29059000  0.83395000  0.17692000  1.0
  C  C240  1  0.00503000  0.73874000  0.24270000  1.0
  C  C241  1  0.73874000  0.00501000  0.74271000  1.0
  C  C242  1  0.99499000  0.26126000  0.75729000  1.0
  C  C243  1  0.26126000  0.99498000  0.25729000  1.0
  C  C244  1  0.55591000  0.79939000  0.34662000  1.0
  C  C245  1  0.79940000  0.55590000  0.84662000  1.0
  C  C246  1  0.44410000  0.20060000  0.65338000  1.0
  C  C247  1  0.20061000  0.44410000  0.15338000  1.0
  C  C248  1  0.54967000  0.85883000  0.31506000  1.0
  C  C249  1  0.85884000  0.54966000  0.81506000  1.0
  C  C250  1  0.45033000  0.14117000  0.68494000  1.0
  C  C251  1  0.14117000  0.45034000  0.18494000  1.0
  C  C252  1  0.61561000  0.84884000  0.28732000  1.0
  C  C253  1  0.84885000  0.61560000  0.78732000  1.0
  C  C254  1  0.38439000  0.15115000  0.71268000  1.0
  C  C255  1  0.15115000  0.38440000  0.21268000  1.0
  C  C256  1  0.68946000  0.77900000  0.29028000  1.0
  C  C257  1  0.77901000  0.68946000  0.79028000  1.0
  C  C258  1  0.31054000  0.22099000  0.70972000  1.0
  C  C259  1  0.22100000  0.31055000  0.20972000  1.0
  C  C260  1  0.69559000  0.71924000  0.32166000  1.0
  C  C261  1  0.71925000  0.69558000  0.82166000  1.0
  C  C262  1  0.30441000  0.28075000  0.67834000  1.0
  C  C263  1  0.28076000  0.30442000  0.17834000  1.0
  C  C264  1  0.62985000  0.72957000  0.34945000  1.0
  C  C265  1  0.72958000  0.62984000  0.84945000  1.0
  C  C266  1  0.37016000  0.27042000  0.65055000  1.0
  C  C267  1  0.27043000  0.37016000  0.15055000  1.0
  C  C268  1  0.76223000  0.76385000  0.26220000  1.0
  C  C269  1  0.76386000  0.76222000  0.76221000  1.0
  C  C270  1  0.23777000  0.23614000  0.73779000  1.0
  C  C271  1  0.23614000  0.23778000  0.23780000  1.0
  C  C272  1  0.49355000  0.87220000  0.55544000  1.0
  C  C273  1  0.87220000  0.49354000  0.05545000  1.0
  C  C274  1  0.50645000  0.12780000  0.44456000  1.0
  C  C275  1  0.12780000  0.50645000  0.94455000  1.0
  C  C276  1  0.47636000  0.95065000  0.57290000  1.0
  C  C277  1  0.95065000  0.47636000  0.07291000  1.0
  C  C278  1  0.52364000  0.04935000  0.42710000  1.0
  C  C279  1  0.04935000  0.52364000  0.92709000  1.0
  C  C280  1  0.52267000  0.95989000  0.60527000  1.0
  C  C281  1  0.95989000  0.52267000  0.10527000  1.0
  C  C282  1  0.47732000  0.04011000  0.39473000  1.0
  C  C283  1  0.04011000  0.47733000  0.89473000  1.0
  C  C284  1  0.58725000  0.89075000  0.62080000  1.0
  C  C285  1  0.89075000  0.58724000  0.12080000  1.0
  C  C286  1  0.41274000  0.10925000  0.37921000  1.0
  C  C287  1  0.10925000  0.41276000  0.87920000  1.0
  C  C288  1  0.60514000  0.81224000  0.60332000  1.0
  C  C289  1  0.81223000  0.60514000  0.10332000  1.0
  C  C290  1  0.39485000  0.18776000  0.39669000  1.0
  C  C291  1  0.18776000  0.39486000  0.89668000  1.0
  C  C292  1  0.55858000  0.80316000  0.57100000  1.0
  C  C293  1  0.80316000  0.55858000  0.07101000  1.0
  C  C294  1  0.44141000  0.19684000  0.42900000  1.0
  C  C295  1  0.19684000  0.44142000  0.92899000  1.0
  C  C296  1  0.63909000  0.90184000  0.65416000  1.0
  C  C297  1  0.90184000  0.63909000  0.15416000  1.0
  C  C298  1  0.36090000  0.09815000  0.34585000  1.0
  C  C299  1  0.09816000  0.36091000  0.84584000  1.0
  C  C300  1  0.08806000  0.86475000  0.54340000  1.0
  C  C301  1  0.86475000  0.08807000  0.04340000  1.0
  C  C302  1  0.91193000  0.13526000  0.45660000  1.0
  C  C303  1  0.13526000  0.91193000  0.95660000  1.0
  C  C304  1  0.02421000  0.94119000  0.55067000  1.0
  C  C305  1  0.94119000  0.02421000  0.05067000  1.0
  C  C306  1  0.97579000  0.05882000  0.44933000  1.0
  C  C307  1  0.05882000  0.97579000  0.94933000  1.0
  C  C308  1  0.96033000  0.94562000  0.57904000  1.0
  C  C309  1  0.94562000  0.96034000  0.07904000  1.0
  C  C310  1  0.03966000  0.05439000  0.42096000  1.0
  C  C311  1  0.05439000  0.03966000  0.92096000  1.0
  C  C312  1  0.96088000  0.87353000  0.60115000  1.0
  C  C313  1  0.87352000  0.96088000  0.10115000  1.0
  C  C314  1  0.03912000  0.12648000  0.39885000  1.0
  C  C315  1  0.12648000  0.03912000  0.89885000  1.0
  C  C316  1  0.02536000  0.79711000  0.59444000  1.0
  C  C317  1  0.79711000  0.02536000  0.09444000  1.0
  C  C318  1  0.97464000  0.20290000  0.40556000  1.0
  C  C319  1  0.20289000  0.97464000  0.90556000  1.0
  C  C320  1  0.08795000  0.79273000  0.56544000  1.0
  C  C321  1  0.79273000  0.08795000  0.06544000  1.0
  C  C322  1  0.91205000  0.20727000  0.43456000  1.0
  C  C323  1  0.20727000  0.91204000  0.93455000  1.0
  C  C324  1  0.89389000  0.87782000  0.63182000  1.0
  C  C325  1  0.87781000  0.89389000  0.13182000  1.0
  C  C326  1  0.10611000  0.12219000  0.36818000  1.0
  C  C327  1  0.12218000  0.10611000  0.86818000  1.0
  C  C328  1  0.28174000  0.05071000  0.45536000  1.0
  C  C329  1  0.05070000  0.28175000  0.95536000  1.0
  C  C330  1  0.71825000  0.94930000  0.54464000  1.0
  C  C331  1  0.94930000  0.71826000  0.04464000  1.0
  C  C332  1  0.21206000  0.08243000  0.48755000  1.0
  C  C333  1  0.08243000  0.21206000  0.98755000  1.0
  C  C334  1  0.78794000  0.91757000  0.51245000  1.0
  C  C335  1  0.91757000  0.78794000  0.01245000  1.0
  N  N336  1  0.33746000  0.81816000  0.38297000  1.0
  N  N337  1  0.81815000  0.33746000  0.88297000  1.0
  N  N338  1  0.66254000  0.18185000  0.61703000  1.0
  N  N339  1  0.18185000  0.66254000  0.11703000  1.0
  N  N340  1  0.44163000  0.83442000  0.44845000  1.0
  N  N341  1  0.83442000  0.44162000  0.94845000  1.0
  N  N342  1  0.55837000  0.16558000  0.55155000  1.0
  N  N343  1  0.16558000  0.55837000  0.05155000  1.0
  N  N344  1  0.30150000  0.86067000  0.50558000  1.0
  N  N345  1  0.86066000  0.30151000  0.00559000  1.0
  N  N346  1  0.69849000  0.13934000  0.49442000  1.0
  N  N347  1  0.13934000  0.69849000  0.99441000  1.0
  N  N348  1  0.19881000  0.83845000  0.44066000  1.0
  N  N349  1  0.83845000  0.19881000  0.94067000  1.0
  N  N350  1  0.80119000  0.16156000  0.55934000  1.0
  N  N351  1  0.16156000  0.80119000  0.05934000  1.0
  O  O352  1  0.02539000  0.66107000  0.23260000  1.0
  O  O353  1  0.66107000  0.02537000  0.73260000  1.0
  O  O354  1  0.97462000  0.33892000  0.76740000  1.0
  O  O355  1  0.33893000  0.97462000  0.26740000  1.0
  O  O356  1  0.94589000  0.79870000  0.22740000  1.0
  O  O357  1  0.79871000  0.94587000  0.72741000  1.0
  O  O358  1  0.05412000  0.20129000  0.77260000  1.0
  O  O359  1  0.20129000  0.05412000  0.27260000  1.0
  O  O360  1  0.82540000  0.70229000  0.26213000  1.0
  O  O361  1  0.70230000  0.82539000  0.76214000  1.0
  O  O362  1  0.17460000  0.29769000  0.73787000  1.0
  O  O363  1  0.29770000  0.17461000  0.23787000  1.0
  O  O364  1  0.75871000  0.82599000  0.23296000  1.0
  O  O365  1  0.82600000  0.75869000  0.73296000  1.0
  O  O366  1  0.24130000  0.17400000  0.76704000  1.0
  O  O367  1  0.17400000  0.24131000  0.26704000  1.0
  O  O368  1  0.70612000  0.83946000  0.66203000  1.0
  O  O369  1  0.83947000  0.70612000  0.16203000  1.0
  O  O370  1  0.29387000  0.16053000  0.33797000  1.0
  O  O371  1  0.16053000  0.29388000  0.83797000  1.0
  O  O372  1  0.61650000  0.97117000  0.67206000  1.0
  O  O373  1  0.97117000  0.61650000  0.17205000  1.0
  O  O374  1  0.38348000  0.02882000  0.32795000  1.0
  O  O375  1  0.02882000  0.38349000  0.82795000  1.0
  O  O376  1  0.90641000  0.81806000  0.65872000  1.0
  O  O377  1  0.81806000  0.90641000  0.15872000  1.0
  O  O378  1  0.09358000  0.18194000  0.34128000  1.0
  O  O379  1  0.18194000  0.09358000  0.84127000  1.0
  O  O380  1  0.82499000  0.93945000  0.63198000  1.0
  O  O381  1  0.93945000  0.82499000  0.13198000  1.0
  O  O382  1  0.17500000  0.06055000  0.36802000  1.0
  O  O383  1  0.06055000  0.17500000  0.86802000  1.0
  O  O384  1  0.27012000  0.98803000  0.43073000  1.0
  O  O385  1  0.98802000  0.27013000  0.93073000  1.0
  O  O386  1  0.72988000  0.01198000  0.56926000  1.0
  O  O387  1  0.01198000  0.72988000  0.06926000  1.0
  O  O388  1  0.22524000  0.14571000  0.51154000  1.0
  O  O389  1  0.14571000  0.22524000  0.01154000  1.0
  O  O390  1  0.77476000  0.85429000  0.48846000  1.0
  O  O391  1  0.85429000  0.77476000  0.98846000  1.0
