# generated using pymatgen
data_ZnH16C16N4O7
_symmetry_space_group_name_H-M   'P 1'
_cell_length_a   6.85186000
_cell_length_b   9.10218000
_cell_length_c   14.67700000
_cell_angle_alpha   84.69900000
_cell_angle_beta   79.60810000
_cell_angle_gamma   69.92960000
_symmetry_Int_Tables_number   1
_chemical_formula_structural   ZnH16C16N4O7
_chemical_formula_sum   'Zn2 H32 C32 N8 O14'
_cell_volume   845.20688062
_cell_formula_units_Z   2
loop_
 _symmetry_equiv_pos_site_id
 _symmetry_equiv_pos_as_xyz
  1  'x, y, z'
loop_
 _atom_site_type_symbol
 _atom_site_label
 _atom_site_symmetry_multiplicity
 _atom_site_fract_x
 _atom_site_fract_y
 _atom_site_fract_z
 _atom_site_occupancy
  Zn  Zn0  1  0.00000000  0.50000000  0.50000000  1.0
  Zn  Zn1  1  0.50000000  0.50000000  0.00000000  1.0
  H  H2  1  0.12883000  0.93018000  0.42946000  1.0
  H  H3  1  0.87119000  0.06983000  0.57054000  1.0
  H  H4  1  0.24008000  0.00537000  0.09765000  1.0
  H  H5  1  0.75992000  0.99464000  0.90235000  1.0
  H  H6  1  0.94791000  0.52654000  0.29981000  1.0
  H  H7  1  0.05207000  0.47345000  0.70020000  1.0
  H  H8  1  0.83306000  0.73365000  0.18138000  1.0
  H  H9  1  0.16690000  0.26634000  0.81863000  1.0
  H  H10  1  0.60073000  0.06453000  0.40282000  1.0
  H  H11  1  0.39929000  0.93547000  0.59718000  1.0
  H  H12  1  0.71377000  0.83814000  0.51232000  1.0
  H  H13  1  0.28625000  0.16187000  0.48769000  1.0
  H  H14  1  0.34643000  0.43617000  0.19770000  1.0
  H  H15  1  0.65357000  0.56382000  0.80229000  1.0
  H  H16  1  0.42216000  0.22027000  0.31381000  1.0
  H  H17  1  0.57783000  0.77973000  0.68619000  1.0
  H  H18  1  0.83606000  0.92372000  0.09289000  1.0
  H  H19  1  0.16394000  0.07628000  0.90712000  1.0
  H  H20  1  0.74447000  0.15911000  0.98696000  1.0
  H  H21  1  0.25554000  0.84088000  0.01305000  1.0
  H  H22  1  0.71580000  0.37935000  0.61813000  1.0
  H  H23  1  0.28420000  0.62065000  0.38186000  1.0
  H  H24  1  0.70329000  0.38447000  0.51315000  1.0
  H  H25  1  0.29673000  0.61553000  0.48684000  1.0
  H  H26  1  0.12591000  0.47312000  0.06435000  1.0
  H  H27  1  0.87409000  0.52688000  0.93565000  1.0
  H  H28  1  0.07455000  0.62445000  0.99969000  1.0
  H  H29  1  0.92546000  0.37555000  0.00031000  1.0
  H  H30  1  0.66905000  0.53790000  0.14714000  1.0
  H  H31  1  0.33095000  0.46210000  0.85286000  1.0
  H  H32  1  0.46138000  0.69347000  0.14912000  1.0
  H  H33  1  0.53862000  0.30653000  0.85087000  1.0
  C  C34  1  0.14311000  0.95549000  0.35479000  1.0
  C  C35  1  0.85690000  0.04451000  0.64521000  1.0
  C  C36  1  0.05649000  0.10915000  0.31883000  1.0
  C  C37  1  0.94353000  0.89086000  0.68117000  1.0
  C  C38  1  0.08395000  0.12858000  0.22253000  1.0
  C  C39  1  0.91606000  0.87142000  0.77747000  1.0
  C  C40  1  0.20340000  0.99406000  0.17278000  1.0
  C  C41  1  0.79660000  0.00595000  0.82722000  1.0
  C  C42  1  0.95042000  0.23852000  0.38700000  1.0
  C  C43  1  0.04959000  0.76148000  0.61300000  1.0
  C  C44  1  0.99168000  0.28154000  0.16952000  1.0
  C  C45  1  0.00833000  0.71847000  0.83048000  1.0
  C  C46  1  0.86794000  0.64731000  0.31957000  1.0
  C  C47  1  0.13204000  0.35270000  0.68045000  1.0
  C  C48  1  0.80202000  0.76528000  0.25364000  1.0
  C  C49  1  0.19795000  0.23472000  0.74637000  1.0
  C  C50  1  0.70129000  0.91971000  0.28164000  1.0
  C  C51  1  0.29870000  0.08028000  0.71837000  1.0
  C  C52  1  0.66624000  0.94653000  0.37683000  1.0
  C  C53  1  0.33377000  0.05347000  0.62318000  1.0
  C  C54  1  0.73408000  0.82171000  0.43829000  1.0
  C  C55  1  0.26593000  0.17830000  0.56171000  1.0
  C  C56  1  0.45399000  0.32035000  0.17770000  1.0
  C  C57  1  0.54601000  0.67965000  0.82230000  1.0
  C  C58  1  0.49954000  0.19779000  0.24250000  1.0
  C  C59  1  0.50045000  0.80222000  0.75750000  1.0
  C  C60  1  0.64043000  0.05086000  0.21422000  1.0
  C  C61  1  0.35958000  0.94913000  0.78578000  1.0
  C  C62  1  0.72602000  0.03468000  0.11966000  1.0
  C  C63  1  0.27399000  0.96531000  0.88035000  1.0
  C  C64  1  0.67455000  0.16417000  0.05983000  1.0
  C  C65  1  0.32545000  0.83582000  0.94018000  1.0
  N  N66  1  0.27899000  0.85115000  0.21076000  1.0
  N  N67  1  0.72101000  0.14885000  0.78923000  1.0
  N  N68  1  0.24584000  0.83066000  0.30319000  1.0
  N  N69  1  0.75417000  0.16934000  0.69680000  1.0
  N  N70  1  0.83664000  0.67437000  0.41055000  1.0
  N  N71  1  0.16335000  0.32563000  0.58946000  1.0
  N  N72  1  0.54192000  0.30488000  0.08811000  1.0
  N  N73  1  0.45808000  0.69512000  0.91189000  1.0
  O  O74  1  0.06056000  0.32372000  0.39462000  1.0
  O  O75  1  0.93946000  0.67627000  0.60538000  1.0
  O  O76  1  0.77623000  0.24183000  0.43386000  1.0
  O  O77  1  0.22378000  0.75818000  0.56613000  1.0
  O  O78  1  0.07716000  0.28862000  0.08479000  1.0
  O  O79  1  0.92284000  0.71139000  0.91521000  1.0
  O  O80  1  0.83875000  0.38607000  0.21206000  1.0
  O  O81  1  0.16126000  0.61394000  0.78794000  1.0
  O  O82  1  0.71029000  0.45039000  0.56290000  1.0
  O  O83  1  0.28972000  0.54961000  0.43710000  1.0
  O  O84  1  0.15595000  0.57312000  0.05092000  1.0
  O  O85  1  0.84406000  0.42687000  0.94908000  1.0
  O  O86  1  0.57290000  0.61372000  0.10790000  1.0
  O  O87  1  0.42711000  0.38628000  0.89209000  1.0
