# generated using pymatgen
data_ZnH20C12(SO5)2
_symmetry_space_group_name_H-M   'P 1'
_cell_length_a   5.26194000
_cell_length_b   10.18980000
_cell_length_c   16.06020000
_cell_angle_alpha   80.63430000
_cell_angle_beta   90.00070000
_cell_angle_gamma   90.00010000
_symmetry_Int_Tables_number   1
_chemical_formula_structural   ZnH20C12(SO5)2
_chemical_formula_sum   'Zn2 H40 C24 S4 O20'
_cell_volume   849.63876434
_cell_formula_units_Z   2
loop_
 _symmetry_equiv_pos_site_id
 _symmetry_equiv_pos_as_xyz
  1  'x, y, z'
loop_
 _atom_site_type_symbol
 _atom_site_label
 _atom_site_symmetry_multiplicity
 _atom_site_fract_x
 _atom_site_fract_y
 _atom_site_fract_z
 _atom_site_occupancy
  Zn  Zn0  1  0.49999000  0.50000000  0.50000000  1.0
  Zn  Zn1  1  0.00001000  0.00000000  0.00001000  1.0
  H  H2  1  0.48224000  0.02255000  0.61568000  1.0
  H  H3  1  0.98225000  0.47743000  0.88431000  1.0
  H  H4  1  0.51775000  0.97743000  0.38431000  1.0
  H  H5  1  0.01776000  0.52255000  0.11568000  1.0
  H  H6  1  0.09605000  0.76373000  0.55773000  1.0
  H  H7  1  0.59599000  0.73625000  0.94226000  1.0
  H  H8  1  0.90398000  0.23625000  0.44226000  1.0
  H  H9  1  0.40396000  0.26373000  0.05773000  1.0
  H  H10  1  0.30157000  0.26283000  0.33916000  1.0
  H  H11  1  0.80161000  0.23717000  0.16084000  1.0
  H  H12  1  0.69838000  0.73718000  0.66084000  1.0
  H  H13  1  0.19843000  0.76284000  0.83916000  1.0
  H  H14  1  0.25382000  0.37367000  0.24076000  1.0
  H  H15  1  0.75382000  0.12634000  0.25924000  1.0
  H  H16  1  0.74617000  0.62634000  0.75925000  1.0
  H  H17  1  0.24618000  0.87369000  0.74075000  1.0
  H  H18  1  0.19697000  0.43135000  0.34066000  1.0
  H  H19  1  0.69697000  0.06866000  0.15934000  1.0
  H  H20  1  0.80302000  0.56867000  0.65935000  1.0
  H  H21  1  0.30304000  0.93135000  0.84066000  1.0
  H  H22  1  0.46355000  0.63583000  0.28492000  1.0
  H  H23  1  0.96349000  0.86416000  0.21508000  1.0
  H  H24  1  0.53651000  0.36417000  0.71507000  1.0
  H  H25  1  0.03650000  0.13585000  0.78493000  1.0
  H  H26  1  0.56639000  0.57930000  0.18889000  1.0
  H  H27  1  0.06635000  0.92068000  0.31111000  1.0
  H  H28  1  0.43364000  0.42068000  0.81111000  1.0
  H  H29  1  0.93364000  0.07933000  0.68890000  1.0
  H  H30  1  0.79729000  0.62906000  0.25954000  1.0
  H  H31  1  0.29723000  0.87092000  0.24046000  1.0
  H  H32  1  0.20276000  0.37091000  0.74045000  1.0
  H  H33  1  0.70276000  0.12908000  0.75955000  1.0
  H  H34  1  0.94133000  0.38272000  0.55350000  1.0
  H  H35  1  0.44135000  0.11728000  0.94651000  1.0
  H  H36  1  0.05865000  0.61728000  0.44651000  1.0
  H  H37  1  0.55867000  0.88272000  0.05349000  1.0
  H  H38  1  0.69188000  0.30362000  0.59038000  1.0
  H  H39  1  0.19188000  0.19638000  0.90963000  1.0
  H  H40  1  0.30811000  0.69638000  0.40963000  1.0
  H  H41  1  0.80812000  0.80362000  0.09038000  1.0
  C  C42  1  0.05267000  0.86732000  0.53324000  1.0
  C  C43  1  0.55258000  0.63268000  0.96676000  1.0
  C  C44  1  0.94742000  0.13268000  0.46675000  1.0
  C  C45  1  0.44732000  0.36732000  0.03325000  1.0
  C  C46  1  0.14773000  0.10259000  0.52395000  1.0
  C  C47  1  0.64764000  0.39741000  0.97604000  1.0
  C  C48  1  0.85233000  0.89741000  0.47604000  1.0
  C  C49  1  0.35227000  0.60258000  0.02395000  1.0
  C  C50  1  0.30692000  0.21158000  0.54734000  1.0
  C  C51  1  0.80693000  0.28840000  0.95264000  1.0
  C  C52  1  0.69306000  0.78840000  0.45264000  1.0
  C  C53  1  0.19309000  0.71157000  0.04735000  1.0
  C  C54  1  0.20181000  0.96769000  0.55730000  1.0
  C  C55  1  0.70176000  0.53234000  0.94268000  1.0
  C  C56  1  0.79823000  0.03233000  0.44267000  1.0
  C  C57  1  0.29820000  0.46769000  0.05731000  1.0
  C  C58  1  0.31053000  0.36623000  0.30721000  1.0
  C  C59  1  0.81054000  0.13378000  0.19279000  1.0
  C  C60  1  0.68944000  0.63378000  0.69280000  1.0
  C  C61  1  0.18948000  0.86624000  0.80720000  1.0
  C  C62  1  0.61057000  0.58298000  0.25526000  1.0
  C  C63  1  0.11051000  0.91700000  0.24474000  1.0
  C  C64  1  0.38948000  0.41700000  0.74473000  1.0
  C  C65  1  0.88949000  0.08301000  0.75527000  1.0
  S  S66  1  0.63646000  0.41499000  0.31050000  1.0
  S  S67  1  0.13645000  0.08499000  0.18952000  1.0
  S  S68  1  0.36353000  0.58499000  0.68952000  1.0
  S  S69  1  0.86356000  0.91502000  0.81049000  1.0
  O  O70  1  0.69748000  0.42539000  0.40217000  1.0
  O  O71  1  0.19749000  0.07460000  0.09784000  1.0
  O  O72  1  0.30251000  0.57460000  0.59784000  1.0
  O  O73  1  0.80252000  0.92540000  0.90217000  1.0
  O  O74  1  0.77649000  0.39372000  0.58149000  1.0
  O  O75  1  0.27650000  0.10628000  0.91852000  1.0
  O  O76  1  0.22349000  0.60628000  0.41851000  1.0
  O  O77  1  0.72350000  0.89372000  0.08149000  1.0
  O  O78  1  0.39823000  0.93384000  0.61183000  1.0
  O  O79  1  0.89821000  0.56617000  0.88815000  1.0
  O  O80  1  0.60179000  0.06617000  0.38815000  1.0
  O  O81  1  0.10177000  0.43384000  0.11184000  1.0
  O  O82  1  0.49801000  0.17861000  0.59631000  1.0
  O  O83  1  0.99800000  0.32142000  0.90368000  1.0
  O  O84  1  0.50199000  0.82140000  0.40369000  1.0
  O  O85  1  0.00201000  0.67862000  0.09631000  1.0
  O  O86  1  0.24921000  0.33217000  0.51819000  1.0
  O  O87  1  0.74915000  0.16781000  0.98183000  1.0
  O  O88  1  0.75083000  0.66781000  0.48183000  1.0
  O  O89  1  0.25078000  0.83216000  0.01819000  1.0
