# generated using pymatgen
data_ZnH9C13(NO2)2
_symmetry_space_group_name_H-M   'P 1'
_cell_length_a   7.74554000
_cell_length_b   11.14040000
_cell_length_c   16.11920000
_cell_angle_alpha   72.52100000
_cell_angle_beta   90.00100000
_cell_angle_gamma   90.00020000
_symmetry_Int_Tables_number   1
_chemical_formula_structural   ZnH9C13(NO2)2
_chemical_formula_sum   'Zn4 H36 C52 N8 O16'
_cell_volume   1326.67830549
_cell_formula_units_Z   4
loop_
 _symmetry_equiv_pos_site_id
 _symmetry_equiv_pos_as_xyz
  1  'x, y, z'
loop_
 _atom_site_type_symbol
 _atom_site_label
 _atom_site_symmetry_multiplicity
 _atom_site_fract_x
 _atom_site_fract_y
 _atom_site_fract_z
 _atom_site_occupancy
  Zn  Zn0  1  0.49995000  0.31585000  0.80857000  1.0
  Zn  Zn1  1  0.99995000  0.68417000  0.69143000  1.0
  Zn  Zn2  1  0.50004000  0.68416000  0.19143000  1.0
  Zn  Zn3  1  0.00006000  0.31583000  0.30857000  1.0
  H  H4  1  0.98385000  0.51490000  0.35720000  1.0
  H  H5  1  0.48383000  0.48509000  0.14281000  1.0
  H  H6  1  0.01615000  0.48510000  0.64280000  1.0
  H  H7  1  0.51617000  0.51491000  0.85720000  1.0
  H  H8  1  0.83812000  0.53087000  0.27888000  1.0
  H  H9  1  0.33811000  0.46912000  0.22113000  1.0
  H  H10  1  0.16188000  0.46913000  0.72112000  1.0
  H  H11  1  0.66189000  0.53089000  0.77888000  1.0
  H  H12  1  0.89962000  0.43311000  0.51042000  1.0
  H  H13  1  0.39959000  0.56691000  0.98959000  1.0
  H  H14  1  0.10039000  0.56690000  0.48959000  1.0
  H  H15  1  0.60040000  0.43309000  0.01041000  1.0
  H  H16  1  0.37649000  0.30325000  0.56304000  1.0
  H  H17  1  0.87646000  0.69675000  0.93697000  1.0
  H  H18  1  0.62352000  0.69675000  0.43697000  1.0
  H  H19  1  0.12354000  0.30325000  0.06303000  1.0
  H  H20  1  0.57381000  0.40395000  0.30126000  1.0
  H  H21  1  0.07377000  0.59603000  0.19875000  1.0
  H  H22  1  0.42620000  0.59605000  0.69875000  1.0
  H  H23  1  0.92623000  0.40397000  0.80125000  1.0
  H  H24  1  0.77564000  0.16198000  0.76828000  1.0
  H  H25  1  0.27564000  0.83802000  0.73172000  1.0
  H  H26  1  0.22435000  0.83802000  0.23172000  1.0
  H  H27  1  0.72435000  0.16198000  0.26828000  1.0
  H  H28  1  0.77200000  0.04096000  0.08666000  1.0
  H  H29  1  0.27202000  0.95902000  0.41333000  1.0
  H  H30  1  0.22797000  0.95902000  0.91334000  1.0
  H  H31  1  0.72798000  0.04098000  0.58666000  1.0
  H  H32  1  0.02397000  0.04144000  0.84637000  1.0
  H  H33  1  0.52398000  0.95856000  0.65362000  1.0
  H  H34  1  0.97601000  0.95854000  0.15363000  1.0
  H  H35  1  0.47603000  0.04145000  0.34637000  1.0
  H  H36  1  0.53283000  0.16083000  0.99681000  1.0
  H  H37  1  0.03283000  0.83917000  0.50318000  1.0
  H  H38  1  0.46714000  0.83917000  0.00319000  1.0
  H  H39  1  0.96716000  0.16083000  0.49682000  1.0
  C  C40  1  0.64104000  0.36583000  0.54641000  1.0
  C  C41  1  0.14103000  0.63417000  0.95360000  1.0
  C  C42  1  0.35896000  0.63416000  0.45359000  1.0
  C  C43  1  0.85898000  0.36583000  0.04640000  1.0
  C  C44  1  0.66565000  0.35267000  0.64122000  1.0
  C  C45  1  0.16564000  0.64735000  0.85879000  1.0
  C  C46  1  0.33436000  0.64733000  0.35879000  1.0
  C  C47  1  0.83437000  0.35265000  0.14122000  1.0
  C  C48  1  0.74894000  0.42795000  0.39849000  1.0
  C  C49  1  0.24893000  0.57203000  0.10152000  1.0
  C  C50  1  0.25107000  0.57205000  0.60151000  1.0
  C  C51  1  0.75108000  0.42797000  0.89848000  1.0
  C  C52  1  0.77518000  0.41161000  0.48689000  1.0
  C  C53  1  0.27516000  0.58839000  0.01312000  1.0
  C  C54  1  0.22482000  0.58839000  0.51312000  1.0
  C  C55  1  0.72484000  0.41161000  0.98688000  1.0
  C  C56  1  0.48171000  0.33619000  0.51728000  1.0
  C  C57  1  0.98168000  0.66380000  0.98272000  1.0
  C  C58  1  0.51830000  0.66380000  0.48272000  1.0
  C  C59  1  0.01832000  0.33620000  0.01728000  1.0
  C  C60  1  0.28043000  0.32460000  0.39992000  1.0
  C  C61  1  0.78040000  0.67538000  0.10008000  1.0
  C  C62  1  0.71958000  0.67539000  0.60008000  1.0
  C  C63  1  0.21960000  0.32461000  0.89992000  1.0
  C  C64  1  0.45541000  0.35189000  0.42879000  1.0
  C  C65  1  0.95538000  0.64808000  0.07121000  1.0
  C  C66  1  0.54460000  0.64810000  0.57121000  1.0
  C  C67  1  0.04461000  0.35191000  0.92879000  1.0
  C  C68  1  0.58965000  0.39639000  0.36973000  1.0
  C  C69  1  0.08961000  0.60359000  0.13027000  1.0
  C  C70  1  0.41036000  0.60360000  0.63027000  1.0
  C  C71  1  0.91039000  0.39641000  0.86973000  1.0
  C  C72  1  0.77860000  0.12972000  0.83906000  1.0
  C  C73  1  0.27860000  0.87028000  0.66094000  1.0
  C  C74  1  0.22138000  0.87029000  0.16093000  1.0
  C  C75  1  0.72140000  0.12972000  0.33906000  1.0
  C  C76  1  0.77961000  0.06355000  0.01627000  1.0
  C  C77  1  0.27962000  0.93645000  0.48372000  1.0
  C  C78  1  0.22037000  0.93645000  0.98372000  1.0
  C  C79  1  0.72038000  0.06355000  0.51627000  1.0
  C  C80  1  0.91836000  0.06327000  0.88386000  1.0
  C  C81  1  0.41836000  0.93674000  0.61613000  1.0
  C  C82  1  0.08165000  0.93673000  0.11613000  1.0
  C  C83  1  0.58165000  0.06326000  0.38387000  1.0
  C  C84  1  0.92409000  0.03131000  0.97500000  1.0
  C  C85  1  0.42410000  0.96869000  0.52500000  1.0
  C  C86  1  0.07589000  0.96869000  0.02501000  1.0
  C  C87  1  0.57590000  0.03130000  0.47500000  1.0
  C  C88  1  0.64395000  0.12973000  0.96732000  1.0
  C  C89  1  0.14394000  0.87027000  0.53267000  1.0
  C  C90  1  0.35606000  0.87027000  0.03268000  1.0
  C  C91  1  0.85605000  0.12973000  0.46733000  1.0
  N  N92  1  0.88483000  0.46915000  0.33618000  1.0
  N  N93  1  0.38480000  0.53085000  0.16383000  1.0
  N  N94  1  0.11518000  0.53086000  0.66382000  1.0
  N  N95  1  0.61519000  0.46916000  0.83617000  1.0
  N  N96  1  0.64404000  0.16453000  0.87963000  1.0
  N  N97  1  0.14403000  0.83548000  0.62036000  1.0
  N  N98  1  0.35595000  0.83547000  0.12037000  1.0
  N  N99  1  0.85597000  0.16452000  0.37964000  1.0
  O  O100  1  0.25690000  0.33596000  0.31755000  1.0
  O  O101  1  0.75688000  0.66401000  0.18246000  1.0
  O  O102  1  0.74311000  0.66404000  0.68246000  1.0
  O  O103  1  0.24311000  0.33599000  0.81754000  1.0
  O  O104  1  0.53315000  0.30688000  0.68987000  1.0
  O  O105  1  0.03315000  0.69315000  0.81013000  1.0
  O  O106  1  0.46685000  0.69313000  0.31013000  1.0
  O  O107  1  0.96685000  0.30685000  0.18988000  1.0
  O  O108  1  0.16021000  0.29354000  0.45425000  1.0
  O  O109  1  0.66017000  0.70642000  0.04576000  1.0
  O  O110  1  0.83980000  0.70645000  0.54575000  1.0
  O  O111  1  0.33982000  0.29357000  0.95424000  1.0
  O  O112  1  0.80525000  0.38433000  0.66829000  1.0
  O  O113  1  0.30524000  0.61569000  0.83172000  1.0
  O  O114  1  0.19477000  0.61567000  0.33171000  1.0
  O  O115  1  0.69477000  0.38433000  0.16828000  1.0
