# generated using pymatgen
data_CuH4C10S4(N2Cl)2
_symmetry_space_group_name_H-M   'P 1'
_cell_length_a   3.76733000
_cell_length_b   7.86226000
_cell_length_c   11.40700000
_cell_angle_alpha   94.50090000
_cell_angle_beta   96.91820000
_cell_angle_gamma   94.87280000
_symmetry_Int_Tables_number   1
_chemical_formula_structural   CuH4C10S4(N2Cl)2
_chemical_formula_sum   'Cu1 H4 C10 S4 N4 Cl2'
_cell_volume   332.85331408
_cell_formula_units_Z   1
loop_
 _symmetry_equiv_pos_site_id
 _symmetry_equiv_pos_as_xyz
  1  'x, y, z'
loop_
 _atom_site_type_symbol
 _atom_site_label
 _atom_site_symmetry_multiplicity
 _atom_site_fract_x
 _atom_site_fract_y
 _atom_site_fract_z
 _atom_site_occupancy
  Cu  Cu0  1  0.00002000  0.00000000  0.00000000  1.0
  H  H1  1  0.90173000  0.35761000  0.03236000  1.0
  H  H2  1  0.09829000  0.64239000  0.96764000  1.0
  H  H3  1  0.90782000  0.59834000  0.19204000  1.0
  H  H4  1  0.09214000  0.40166000  0.80796000  1.0
  C  C5  1  0.16004000  0.15827000  0.26402000  1.0
  C  C6  1  0.83997000  0.84173000  0.73598000  1.0
  C  C7  1  0.18252000  0.29887000  0.35260000  1.0
  C  C8  1  0.81748000  0.70113000  0.64740000  1.0
  C  C9  1  0.41457000  0.04823000  0.46005000  1.0
  C  C10  1  0.58544000  0.95177000  0.53995000  1.0
  C  C11  1  0.98027000  0.34086000  0.12519000  1.0
  C  C12  1  0.01974000  0.65913000  0.87480000  1.0
  C  C13  1  0.98678000  0.47291000  0.21365000  1.0
  C  C14  1  0.01319000  0.52708000  0.78635000  1.0
  S  S15  1  0.33963000  0.26077000  0.49736000  1.0
  S  S16  1  0.66036000  0.73924000  0.50265000  1.0
  S  S17  1  0.25645000  0.96240000  0.31467000  1.0
  S  S18  1  0.74357000  0.03760000  0.68534000  1.0
  N  N19  1  0.06230000  0.18178000  0.15007000  1.0
  N  N20  1  0.93772000  0.81822000  0.84993000  1.0
  N  N21  1  0.08963000  0.45221000  0.32859000  1.0
  N  N22  1  0.91035000  0.54779000  0.67141000  1.0
  Cl  Cl23  1  0.62400000  0.82998000  0.09069000  1.0
  Cl  Cl24  1  0.37600000  0.17003000  0.90930000  1.0
