# generated using pymatgen
data_ZnH7C10NO3
_symmetry_space_group_name_H-M   'P 1'
_cell_length_a   5.11450000
_cell_length_b   10.77500000
_cell_length_c   17.63960000
_cell_angle_alpha   90.00000000
_cell_angle_beta   90.00000000
_cell_angle_gamma   90.00000000
_symmetry_Int_Tables_number   1
_chemical_formula_structural   ZnH7C10NO3
_chemical_formula_sum   'Zn4 H28 C40 N4 O12'
_cell_volume   972.09608601
_cell_formula_units_Z   4
loop_
 _symmetry_equiv_pos_site_id
 _symmetry_equiv_pos_as_xyz
  1  'x, y, z'
loop_
 _atom_site_type_symbol
 _atom_site_label
 _atom_site_symmetry_multiplicity
 _atom_site_fract_x
 _atom_site_fract_y
 _atom_site_fract_z
 _atom_site_occupancy
  Zn  Zn0  1  0.42121000  0.10120000  0.51603000  1.0
  Zn  Zn1  1  0.92121000  0.89880000  0.48397000  1.0
  Zn  Zn2  1  0.42121000  0.60120000  0.98397000  1.0
  Zn  Zn3  1  0.92121000  0.39880000  0.01603000  1.0
  H  H4  1  0.38782000  0.91064000  0.43134000  1.0
  H  H5  1  0.88782000  0.08936000  0.56866000  1.0
  H  H6  1  0.38782000  0.41064000  0.06866000  1.0
  H  H7  1  0.88782000  0.58936000  0.93134000  1.0
  H  H8  1  0.95045000  0.05184000  0.71867000  1.0
  H  H9  1  0.45045000  0.94816000  0.28133000  1.0
  H  H10  1  0.95045000  0.55184000  0.78133000  1.0
  H  H11  1  0.45045000  0.44816000  0.21867000  1.0
  H  H12  1  0.41384000  0.37511000  0.76550000  1.0
  H  H13  1  0.91384000  0.62489000  0.23450000  1.0
  H  H14  1  0.41384000  0.87511000  0.73450000  1.0
  H  H15  1  0.91384000  0.12489000  0.26549000  1.0
  H  H16  1  0.21124000  0.39626000  0.89243000  1.0
  H  H17  1  0.71124000  0.60375000  0.10757000  1.0
  H  H18  1  0.21124000  0.89625000  0.60757000  1.0
  H  H19  1  0.71124000  0.10375000  0.39243000  1.0
  H  H20  1  0.57111000  0.18554000  0.02484000  1.0
  H  H21  1  0.07111000  0.81446000  0.97516000  1.0
  H  H22  1  0.57111000  0.68554000  0.47516000  1.0
  H  H23  1  0.07111000  0.31446000  0.52484000  1.0
  H  H24  1  0.44817000  0.99839000  0.94772000  1.0
  H  H25  1  0.94817000  0.00161000  0.05228000  1.0
  H  H26  1  0.44817000  0.49839000  0.55228000  1.0
  H  H27  1  0.94817000  0.50161000  0.44772000  1.0
  H  H28  1  0.65498000  0.96584000  0.82242000  1.0
  H  H29  1  0.15497000  0.03417000  0.17758000  1.0
  H  H30  1  0.65498000  0.46583000  0.67758000  1.0
  H  H31  1  0.15498000  0.53416000  0.32242000  1.0
  C  C32  1  0.00679000  0.12676000  0.75683000  1.0
  C  C33  1  0.50679000  0.87324000  0.24317000  1.0
  C  C34  1  0.00679000  0.62676000  0.74317000  1.0
  C  C35  1  0.50679000  0.37324000  0.25683000  1.0
  C  C36  1  0.19021000  0.21319000  0.73387000  1.0
  C  C37  1  0.69021000  0.78681000  0.26613000  1.0
  C  C38  1  0.19021000  0.71319000  0.76613000  1.0
  C  C39  1  0.69021000  0.28681000  0.23387000  1.0
  C  C40  1  0.26523000  0.30954000  0.78416000  1.0
  C  C41  1  0.76523000  0.69046000  0.21584000  1.0
  C  C42  1  0.26523000  0.80954000  0.71584000  1.0
  C  C43  1  0.76523000  0.19046000  0.28416000  1.0
  C  C44  1  0.15281000  0.32130000  0.85466000  1.0
  C  C45  1  0.65281000  0.67870000  0.14534000  1.0
  C  C46  1  0.15281000  0.82130000  0.64534000  1.0
  C  C47  1  0.65281000  0.17870000  0.35466000  1.0
  C  C48  1  0.66181000  0.16811000  0.96984000  1.0
  C  C49  1  0.16181000  0.83189000  0.03016000  1.0
  C  C50  1  0.66181000  0.66811000  0.53016000  1.0
  C  C51  1  0.16181000  0.33189000  0.46984000  1.0
  C  C52  1  0.59068000  0.06436000  0.92606000  1.0
  C  C53  1  0.09068000  0.93564000  0.07394000  1.0
  C  C54  1  0.59068000  0.56436000  0.57394000  1.0
  C  C55  1  0.09068000  0.43564000  0.42606000  1.0
  C  C56  1  0.70506000  0.04739000  0.85603000  1.0
  C  C57  1  0.20506000  0.95261000  0.14397000  1.0
  C  C58  1  0.70506000  0.54739000  0.64397000  1.0
  C  C59  1  0.20506000  0.45261000  0.35603000  1.0
  C  C60  1  0.88986000  0.13479000  0.82944000  1.0
  C  C61  1  0.38986000  0.86521000  0.17056000  1.0
  C  C62  1  0.88986000  0.63479000  0.67055000  1.0
  C  C63  1  0.38986000  0.36521000  0.32945000  1.0
  C  C64  1  0.95986000  0.23560000  0.87840000  1.0
  C  C65  1  0.45986000  0.76440000  0.12160000  1.0
  C  C66  1  0.95986000  0.73560000  0.62160000  1.0
  C  C67  1  0.45986000  0.26440000  0.37840000  1.0
  C  C68  1  0.31415000  0.20652000  0.65677000  1.0
  C  C69  1  0.81414000  0.79348000  0.34323000  1.0
  C  C70  1  0.31415000  0.70652000  0.84323000  1.0
  C  C71  1  0.81414000  0.29348000  0.15677000  1.0
  N  N72  1  0.84193000  0.24974000  0.94779000  1.0
  N  N73  1  0.34193000  0.75026000  0.05221000  1.0
  N  N74  1  0.84193000  0.74974000  0.55221000  1.0
  N  N75  1  0.34193000  0.25026000  0.44779000  1.0
  O  O76  1  0.50126000  0.27565000  0.64016000  1.0
  O  O77  1  0.00126000  0.72435000  0.35984000  1.0
  O  O78  1  0.50126000  0.77565000  0.85984000  1.0
  O  O79  1  0.00126000  0.22435000  0.14016000  1.0
  O  O80  1  0.21327000  0.12472000  0.61064000  1.0
  O  O81  1  0.71327000  0.87528000  0.38936000  1.0
  O  O82  1  0.21327000  0.62472000  0.88936000  1.0
  O  O83  1  0.71327000  0.37528000  0.11064000  1.0
  O  O84  1  0.27679000  0.95064000  0.46936000  1.0
  O  O85  1  0.77679000  0.04936000  0.53064000  1.0
  O  O86  1  0.27679000  0.45064000  0.03064000  1.0
  O  O87  1  0.77679000  0.54936000  0.96936000  1.0
