# generated using pymatgen
data_H8PbC6Br2(NO)2
_symmetry_space_group_name_H-M   'P 1'
_cell_length_a   7.94507000
_cell_length_b   8.14264000
_cell_length_c   18.46960000
_cell_angle_alpha   90.00670000
_cell_angle_beta   90.00250000
_cell_angle_gamma   66.99700000
_symmetry_Int_Tables_number   1
_chemical_formula_structural   H8PbC6Br2(NO)2
_chemical_formula_sum   'H32 Pb4 C24 Br8 N8 O8'
_cell_volume   1099.85866032
_cell_formula_units_Z   4
loop_
 _symmetry_equiv_pos_site_id
 _symmetry_equiv_pos_as_xyz
  1  'x, y, z'
loop_
 _atom_site_type_symbol
 _atom_site_label
 _atom_site_symmetry_multiplicity
 _atom_site_fract_x
 _atom_site_fract_y
 _atom_site_fract_z
 _atom_site_occupancy
  H  H0  1  0.96261000  0.82025000  0.71319000  1.0
  H  H1  1  0.53739000  0.17988000  0.21325000  1.0
  H  H2  1  0.03708000  0.17997000  0.28677000  1.0
  H  H3  1  0.46275000  0.82016000  0.78679000  1.0
  H  H4  1  0.13094000  0.85002000  0.65750000  1.0
  H  H5  1  0.36918000  0.14995000  0.15761000  1.0
  H  H6  1  0.86885000  0.15015000  0.34240000  1.0
  H  H7  1  0.63087000  0.85017000  0.84242000  1.0
  H  H8  1  0.13438000  0.78987000  0.52166000  1.0
  H  H9  1  0.36579000  0.20957000  0.02176000  1.0
  H  H10  1  0.86568000  0.20957000  0.47827000  1.0
  H  H11  1  0.63430000  0.79039000  0.97830000  1.0
  H  H12  1  0.87440000  0.74409000  0.43068000  1.0
  H  H13  1  0.62573000  0.25515000  0.93073000  1.0
  H  H14  1  0.12579000  0.25499000  0.56928000  1.0
  H  H15  1  0.37425000  0.74486000  0.06929000  1.0
  H  H16  1  0.73769000  0.69668000  0.65024000  1.0
  H  H17  1  0.76227000  0.30339000  0.15025000  1.0
  H  H18  1  0.26208000  0.30344000  0.34976000  1.0
  H  H19  1  0.23780000  0.69676000  0.84975000  1.0
  H  H20  1  0.49990000  0.82071000  0.48562000  1.0
  H  H21  1  0.00003000  0.17917000  0.98557000  1.0
  H  H22  1  0.50002000  0.17912000  0.51441000  1.0
  H  H23  1  0.99991000  0.82095000  0.01434000  1.0
  H  H24  1  0.53399000  0.65057000  0.55262000  1.0
  H  H25  1  0.96594000  0.34929000  0.05258000  1.0
  H  H26  1  0.46588000  0.34921000  0.44739000  1.0
  H  H27  1  0.03412000  0.65071000  0.94737000  1.0
  H  H28  1  0.63355000  0.59394000  0.46403000  1.0
  H  H29  1  0.86621000  0.40591000  0.96403000  1.0
  H  H30  1  0.36622000  0.40589000  0.53596000  1.0
  H  H31  1  0.13368000  0.59423000  0.03595000  1.0
  Pb  Pb32  1  0.50057000  0.25454000  0.74947000  1.0
  Pb  Pb33  1  0.99968000  0.74562000  0.24946000  1.0
  Pb  Pb34  1  0.49973000  0.74574000  0.25055000  1.0
  Pb  Pb35  1  0.00041000  0.25449000  0.75053000  1.0
  C  C36  1  0.19945000  0.58240000  0.69555000  1.0
  C  C37  1  0.30059000  0.41770000  0.19556000  1.0
  C  C38  1  0.80042000  0.41782000  0.30446000  1.0
  C  C39  1  0.69961000  0.58240000  0.80449000  1.0
  C  C40  1  0.06003000  0.76085000  0.66881000  1.0
  C  C41  1  0.44004000  0.23912000  0.16888000  1.0
  C  C42  1  0.93977000  0.23932000  0.33117000  1.0
  C  C43  1  0.56010000  0.76090000  0.83117000  1.0
  C  C44  1  0.01400000  0.76367000  0.53393000  1.0
  C  C45  1  0.48613000  0.23586000  0.03399000  1.0
  C  C46  1  0.98605000  0.23582000  0.46603000  1.0
  C  C47  1  0.51390000  0.76422000  0.96605000  1.0
  C  C48  1  0.88742000  0.74173000  0.48911000  1.0
  C  C49  1  0.61260000  0.25789000  0.98914000  1.0
  C  C50  1  0.11261000  0.25775000  0.51087000  1.0
  C  C51  1  0.38741000  0.74211000  0.01088000  1.0
  C  C52  1  0.80766000  0.71705000  0.60280000  1.0
  C  C53  1  0.69233000  0.28286000  0.10282000  1.0
  C  C54  1  0.19218000  0.28290000  0.39719000  1.0
  C  C55  1  0.30773000  0.71725000  0.89718000  1.0
  C  C56  1  0.59610000  0.69334000  0.50743000  1.0
  C  C57  1  0.90379000  0.30648000  0.00742000  1.0
  C  C58  1  0.40377000  0.30643000  0.49258000  1.0
  C  C59  1  0.09616000  0.69358000  0.99254000  1.0
  Br  Br60  1  0.37633000  0.99986000  0.66738000  1.0
  Br  Br61  1  0.12382000  0.00023000  0.16733000  1.0
  Br  Br62  1  0.62367000  0.00035000  0.33267000  1.0
  Br  Br63  1  0.87638000  0.99974000  0.83263000  1.0
  Br  Br64  1  0.73808000  0.27445000  0.62729000  1.0
  Br  Br65  1  0.76195000  0.72566000  0.12719000  1.0
  Br  Br66  1  0.26200000  0.72588000  0.37274000  1.0
  Br  Br67  1  0.23803000  0.27461000  0.87282000  1.0
  N  N68  1  0.96135000  0.74852000  0.60420000  1.0
  N  N69  1  0.53875000  0.25127000  0.10426000  1.0
  N  N70  1  0.03856000  0.25133000  0.39577000  1.0
  N  N71  1  0.46134000  0.74881000  0.89577000  1.0
  N  N72  1  0.76027000  0.71370000  0.53322000  1.0
  N  N73  1  0.73973000  0.28601000  0.03323000  1.0
  N  N74  1  0.23963000  0.28601000  0.46677000  1.0
  N  N75  1  0.26030000  0.71402000  0.96676000  1.0
  O  O76  1  0.31469000  0.59185000  0.74129000  1.0
  O  O77  1  0.18544000  0.40833000  0.24136000  1.0
  O  O78  1  0.68528000  0.40849000  0.25866000  1.0
  O  O79  1  0.81482000  0.59173000  0.75872000  1.0
  O  O80  1  0.19516000  0.43678000  0.67258000  1.0
  O  O81  1  0.30482000  0.56329000  0.17253000  1.0
  O  O82  1  0.80475000  0.56339000  0.32749000  1.0
  O  O83  1  0.69531000  0.43683000  0.82751000  1.0
