# generated using pymatgen
data_Al2H17C24(NO4)3
_symmetry_space_group_name_H-M   'P 1'
_cell_length_a   6.79938000
_cell_length_b   11.08260318
_cell_length_c   16.77370000
_cell_angle_alpha   104.54616889
_cell_angle_beta   95.81930000
_cell_angle_gamma   106.76876551
_symmetry_Int_Tables_number   1
_chemical_formula_structural   Al2H17C24(NO4)3
_chemical_formula_sum   'Al2 H17 C24 N3 O12'
_cell_volume   1150.64222863
_cell_formula_units_Z   1
loop_
 _symmetry_equiv_pos_site_id
 _symmetry_equiv_pos_as_xyz
  1  'x, y, z'
loop_
 _atom_site_type_symbol
 _atom_site_label
 _atom_site_symmetry_multiplicity
 _atom_site_fract_x
 _atom_site_fract_y
 _atom_site_fract_z
 _atom_site_occupancy
  Al  Al0  1  0.99990000  0.49645000  0.50092000  1.0
  Al  Al1  1  0.50020000  0.49390000  0.50125000  1.0
  H  H2  1  0.16954000  0.38233000  0.40051000  1.0
  H  H3  1  0.84505000  0.65880000  0.56612000  1.0
  H  H4  1  0.65385000  0.58725000  0.75091000  1.0
  H  H5  1  0.72260000  0.58168000  0.89949000  1.0
  H  H6  1  0.05985000  0.43756000  0.88972000  1.0
  H  H7  1  0.94301000  0.57432000  0.11598000  1.0
  H  H8  1  0.28023000  0.41746000  0.10159000  1.0
  H  H9  1  0.34648000  0.40455000  0.24834000  1.0
  H  H10  1  0.24972000  0.11155000  0.47829000  1.0
  H  H11  1  0.88484000  0.11242000  0.51227000  1.0
  H  H12  1  0.12764000  0.87377000  0.47960000  1.0
  H  H13  1  0.81699000  0.39651000  0.77216000  1.0
  H  H14  1  0.89261000  0.34137000  0.67446000  1.0
  H  H15  1  0.88502000  0.50232000  0.70738000  1.0
  H  H16  1  0.12464000  0.50541000  0.29289000  1.0
  H  H17  1  0.10013000  0.66125000  0.33266000  1.0
  H  H18  1  0.18295000  0.62102000  0.23459000  1.0
  C  C19  1  0.64564000  0.26718000  0.49622000  1.0
  C  C20  1  0.70013000  0.47540000  0.35300000  1.0
  C  C21  1  0.35682000  0.72407000  0.50497000  1.0
  C  C22  1  0.29892000  0.51503000  0.64749000  1.0
  C  C23  1  0.32019000  0.51443000  0.73675000  1.0
  C  C24  1  0.52523000  0.55456000  0.78247000  1.0
  C  C25  1  0.56410000  0.55161000  0.86436000  1.0
  C  C26  1  0.39303000  0.50695000  0.90224000  1.0
  C  C27  1  0.18850000  0.47042000  0.85788000  1.0
  C  C28  1  0.14660000  0.47238000  0.77486000  1.0
  C  C29  1  0.81376000  0.53716000  0.14647000  1.0
  C  C30  1  0.60987000  0.49846000  0.10109000  1.0
  C  C31  1  0.43828000  0.44883000  0.13741000  1.0
  C  C32  1  0.47614000  0.44197000  0.21843000  1.0
  C  C33  1  0.68039000  0.48309000  0.26513000  1.0
  C  C34  1  0.85446000  0.53180000  0.22878000  1.0
  C  C35  1  0.43309000  0.86261000  0.50000000  1.0
  C  C36  1  0.57374000  0.12671000  0.49723000  1.0
  C  C37  1  0.64515000  0.93103000  0.50690000  1.0
  C  C38  1  0.35991000  0.05952000  0.48724000  1.0
  C  C39  1  0.71873000  0.06134000  0.50654000  1.0
  C  C40  1  0.29202000  0.92944000  0.48872000  1.0
  C  C41  1  0.92316000  0.42597000  0.73033000  1.0
  C  C42  1  0.07761000  0.58254000  0.27433000  1.0
  N  N43  1  0.40969000  0.49476000  0.98429000  1.0
  N  N44  1  0.59400000  0.51227000  0.01944000  1.0
  N  N45  1  0.79731000  0.86056000  0.50827000  1.0
  O  O46  1  0.84044000  0.32190000  0.50146000  1.0
  O  O47  1  0.54222000  0.47839000  0.38801000  1.0
  O  O48  1  0.49626000  0.67061000  0.51477000  1.0
  O  O49  1  0.13281000  0.52709000  0.61279000  1.0
  O  O50  1  0.16176000  0.67258000  0.50024000  1.0
  O  O51  1  0.45295000  0.50429000  0.61194000  1.0
  O  O52  1  0.50349000  0.31937000  0.48963000  1.0
  O  O53  1  0.86865000  0.46444000  0.38682000  1.0
  O  O54  1  0.20780000  0.42973000  0.45981000  1.0
  O  O55  1  0.79248000  0.56362000  0.54063000  1.0
  O  O56  1  0.81799000  0.79952000  0.43864000  1.0
  O  O57  1  0.89822000  0.87070000  0.57675000  1.0
