# generated using pymatgen
data_ZnH16C24N2(O4F)2
_symmetry_space_group_name_H-M   'P 1'
_cell_length_a   10.53350000
_cell_length_b   11.80140000
_cell_length_c   23.62360000
_cell_angle_alpha   90.34560000
_cell_angle_beta   90.01010000
_cell_angle_gamma   89.91900000
_symmetry_Int_Tables_number   1
_chemical_formula_structural   ZnH16C24N2(O4F)2
_chemical_formula_sum   'Zn2 H32 C48 N4 O16 F4'
_cell_volume   2936.59442572
_cell_formula_units_Z   2
loop_
 _symmetry_equiv_pos_site_id
 _symmetry_equiv_pos_as_xyz
  1  'x, y, z'
loop_
 _atom_site_type_symbol
 _atom_site_label
 _atom_site_symmetry_multiplicity
 _atom_site_fract_x
 _atom_site_fract_y
 _atom_site_fract_z
 _atom_site_occupancy
  Zn  Zn0  1  0.38151000  0.49966000  0.50129000  1.0
  Zn  Zn1  1  0.63827000  0.49775000  0.50121000  1.0
  H  H2  1  0.48276000  0.78237000  0.05429000  1.0
  H  H3  1  0.51935000  0.21118000  0.94844000  1.0
  H  H4  1  0.53853000  0.21410000  0.05523000  1.0
  H  H5  1  0.50221000  0.78133000  0.94748000  1.0
  H  H6  1  0.72257000  0.23730000  0.61731000  1.0
  H  H7  1  0.55960000  0.26769000  0.62960000  1.0
  H  H8  1  0.73826000  0.15069000  0.71387000  1.0
  H  H9  1  0.57627000  0.18062000  0.72642000  1.0
  H  H10  1  0.51398000  0.05334000  0.64423000  1.0
  H  H11  1  0.60444000  0.97789000  0.69495000  1.0
  H  H12  1  0.67646000  0.02323000  0.63107000  1.0
  H  H13  1  0.69163000  0.77960000  0.38322000  1.0
  H  H14  1  0.53237000  0.73751000  0.36959000  1.0
  H  H15  1  0.70595000  0.85906000  0.28497000  1.0
  H  H16  1  0.54742000  0.81826000  0.27145000  1.0
  H  H17  1  0.47110000  0.94769000  0.35052000  1.0
  H  H18  1  0.55722000  0.02423000  0.29871000  1.0
  H  H19  1  0.63001000  0.98946000  0.36412000  1.0
  H  H20  1  0.43739000  0.74208000  0.64834000  1.0
  H  H21  1  0.35206000  0.76363000  0.71309000  1.0
  H  H22  1  0.23260000  0.73930000  0.59520000  1.0
  H  H23  1  0.14797000  0.76435000  0.65917000  1.0
  H  H24  1  0.26574000  0.95235000  0.67060000  1.0
  H  H25  1  0.17738000  0.94666000  0.60669000  1.0
  H  H26  1  0.34403000  0.92587000  0.60516000  1.0
  H  H27  1  0.46880000  0.24853000  0.35665000  1.0
  H  H28  1  0.39407000  0.22010000  0.28991000  1.0
  H  H29  1  0.31357000  0.10141000  0.37127000  1.0
  H  H30  1  0.25971000  0.22594000  0.40510000  1.0
  H  H31  1  0.11253000  0.26324000  0.32105000  1.0
  H  H32  1  0.07928000  0.13079000  0.35327000  1.0
  H  H33  1  0.16614000  0.13561000  0.28894000  1.0
  C  C34  1  0.51113000  0.71718000  0.50524000  1.0
  C  C35  1  0.50908000  0.28050000  0.49234000  1.0
  C  C36  1  0.50891000  0.48497000  0.60914000  1.0
  C  C37  1  0.50748000  0.51142000  0.39321000  1.0
  C  C38  1  0.53266000  0.39457000  0.12363000  1.0
  C  C39  1  0.51976000  0.60142000  0.87915000  1.0
  C  C40  1  0.48581000  0.60437000  0.12304000  1.0
  C  C41  1  0.49941000  0.38828000  0.87966000  1.0
  C  C42  1  0.49768000  0.60237000  0.06060000  1.0
  C  C43  1  0.51112000  0.39150000  0.94210000  1.0
  C  C44  1  0.52206000  0.39426000  0.06106000  1.0
  C  C45  1  0.50901000  0.60068000  0.94169000  1.0
  C  C46  1  0.50995000  0.49774000  0.03151000  1.0
  C  C47  1  0.51006000  0.49665000  0.97121000  1.0
  C  C48  1  0.49285000  0.70329000  0.03065000  1.0
  C  C49  1  0.51922000  0.29078000  0.97207000  1.0
  C  C50  1  0.52801000  0.29234000  0.03140000  1.0
  C  C51  1  0.50182000  0.70258000  0.97133000  1.0
  C  C52  1  0.60207000  0.43106000  0.76172000  1.0
  C  C53  1  0.59398000  0.57191000  0.24080000  1.0
  C  C54  1  0.41652000  0.54894000  0.76077000  1.0
  C  C55  1  0.42338000  0.43738000  0.24197000  1.0
  C  C56  1  0.60088000  0.42305000  0.70266000  1.0
  C  C57  1  0.59186000  0.58029000  0.29981000  1.0
  C  C58  1  0.41464000  0.54761000  0.70154000  1.0
  C  C59  1  0.42176000  0.43879000  0.30120000  1.0
  C  C60  1  0.50733000  0.48362000  0.67261000  1.0
  C  C61  1  0.50597000  0.51167000  0.32975000  1.0
  C  C62  1  0.51001000  0.49245000  0.79160000  1.0
  C  C63  1  0.50953000  0.50215000  0.21110000  1.0
  C  C64  1  0.50789000  0.83861000  0.50088000  1.0
  C  C65  1  0.50708000  0.15870000  0.48998000  1.0
  C  C66  1  0.50655000  0.94163000  0.49588000  1.0
  C  C67  1  0.50608000  0.05526000  0.49198000  1.0
  C  C68  1  0.94513000  0.49739000  0.50178000  1.0
  C  C69  1  0.07473000  0.49888000  0.50199000  1.0
  C  C70  1  0.65215000  0.25503000  0.65052000  1.0
  C  C71  1  0.64528000  0.15892000  0.69302000  1.0
  C  C72  1  0.60803000  0.04732000  0.66424000  1.0
  C  C73  1  0.62498000  0.75478000  0.34959000  1.0
  C  C74  1  0.61275000  0.84677000  0.30505000  1.0
  C  C75  1  0.56522000  0.95810000  0.33103000  1.0
  C  C76  1  0.34574000  0.72798000  0.66988000  1.0
  C  C77  1  0.23776000  0.78107000  0.63691000  1.0
  C  C78  1  0.25739000  0.90849000  0.62954000  1.0
  C  C79  1  0.37829000  0.25273000  0.33322000  1.0
  C  C80  1  0.27524000  0.18676000  0.36326000  1.0
  C  C81  1  0.15134000  0.17873000  0.32983000  1.0
  N  N82  1  0.50951000  0.50010000  0.15078000  1.0
  N  N83  1  0.50993000  0.49426000  0.85193000  1.0
  N  N84  1  0.83497000  0.49647000  0.50144000  1.0
  N  N85  1  0.18487000  0.50039000  0.50200000  1.0
  O  O86  1  0.40830000  0.66885000  0.51994000  1.0
  O  O87  1  0.61450000  0.32509000  0.50660000  1.0
  O  O88  1  0.40550000  0.33108000  0.48077000  1.0
  O  O89  1  0.61690000  0.67030000  0.49340000  1.0
  O  O90  1  0.40670000  0.45865000  0.58356000  1.0
  O  O91  1  0.61105000  0.48181000  0.41652000  1.0
  O  O92  1  0.40556000  0.53966000  0.41855000  1.0
  O  O93  1  0.61278000  0.51370000  0.58577000  1.0
  O  O94  1  0.55953000  0.31003000  0.15110000  1.0
  O  O95  1  0.53610000  0.68803000  0.85172000  1.0
  O  O96  1  0.45746000  0.68979000  0.15003000  1.0
  O  O97  1  0.48169000  0.30064000  0.85268000  1.0
  O  O98  1  0.69351000  0.36088000  0.67637000  1.0
  O  O99  1  0.67692000  0.64981000  0.32661000  1.0
  O  O100  1  0.32316000  0.60660000  0.67291000  1.0
  O  O101  1  0.33916000  0.37119000  0.33031000  1.0
  F  F102  1  0.69480000  0.37775000  0.79094000  1.0
  F  F103  1  0.68007000  0.63281000  0.21137000  1.0
  F  F104  1  0.32389000  0.60568000  0.78894000  1.0
  F  F105  1  0.33816000  0.37201000  0.21391000  1.0
