# generated using pymatgen
data_Ag3H12C16S2N8Cl3O14
_symmetry_space_group_name_H-M   'P 1'
_cell_length_a   7.99226000
_cell_length_b   14.30580000
_cell_length_c   24.85030000
_cell_angle_alpha   89.99980000
_cell_angle_beta   90.00010000
_cell_angle_gamma   90.00000000
_symmetry_Int_Tables_number   1
_chemical_formula_structural   Ag3H12C16S2N8Cl3O14
_chemical_formula_sum   'Ag12 H48 C64 S8 N32 Cl12 O56'
_cell_volume   2841.27577741
_cell_formula_units_Z   4
loop_
 _symmetry_equiv_pos_site_id
 _symmetry_equiv_pos_as_xyz
  1  'x, y, z'
loop_
 _atom_site_type_symbol
 _atom_site_label
 _atom_site_symmetry_multiplicity
 _atom_site_fract_x
 _atom_site_fract_y
 _atom_site_fract_z
 _atom_site_occupancy
  Ag  Ag0  1  0.31199000  0.50112000  0.25000000  1.0
  Ag  Ag1  1  0.18800000  0.00112000  0.75000000  1.0
  Ag  Ag2  1  0.68800000  0.49888000  0.75000000  1.0
  Ag  Ag3  1  0.81200000  0.99888000  0.25000000  1.0
  Ag  Ag4  1  0.79434000  0.33030000  0.47790000  1.0
  Ag  Ag5  1  0.70566000  0.83030000  0.52210000  1.0
  Ag  Ag6  1  0.20567000  0.66970000  0.97790000  1.0
  Ag  Ag7  1  0.29433000  0.16970000  0.02210000  1.0
  Ag  Ag8  1  0.20566000  0.66970000  0.52210000  1.0
  Ag  Ag9  1  0.29434000  0.16970000  0.47790000  1.0
  Ag  Ag10  1  0.79433000  0.33030000  0.02210000  1.0
  Ag  Ag11  1  0.70567000  0.83030000  0.97790000  1.0
  H  H12  1  0.78571000  0.49758000  0.40304000  1.0
  H  H13  1  0.71430000  0.99758000  0.59696000  1.0
  H  H14  1  0.21429000  0.50242000  0.90304000  1.0
  H  H15  1  0.28570000  0.00242000  0.09696000  1.0
  H  H16  1  0.21430000  0.50242000  0.59696000  1.0
  H  H17  1  0.28570000  0.00242000  0.40304000  1.0
  H  H18  1  0.78571000  0.49758000  0.09696000  1.0
  H  H19  1  0.71430000  0.99758000  0.90304000  1.0
  H  H20  1  0.41545000  0.28591000  0.30561000  1.0
  H  H21  1  0.08455000  0.78591000  0.69439000  1.0
  H  H22  1  0.58455000  0.71409000  0.80561000  1.0
  H  H23  1  0.91545000  0.21409000  0.19439000  1.0
  H  H24  1  0.58455000  0.71408000  0.69439000  1.0
  H  H25  1  0.91544000  0.21409000  0.30561000  1.0
  H  H26  1  0.41545000  0.28591000  0.19439000  1.0
  H  H27  1  0.08455000  0.78591000  0.80561000  1.0
  H  H28  1  0.60147000  0.22740000  0.38050000  1.0
  H  H29  1  0.89853000  0.72740000  0.61950000  1.0
  H  H30  1  0.39853000  0.77260000  0.88050000  1.0
  H  H31  1  0.10147000  0.27260000  0.11950000  1.0
  H  H32  1  0.39853000  0.77260000  0.61950000  1.0
  H  H33  1  0.10147000  0.27260000  0.38050000  1.0
  H  H34  1  0.60147000  0.22740000  0.11950000  1.0
  H  H35  1  0.89853000  0.72740000  0.88050000  1.0
  H  H36  1  0.48529000  0.66203000  0.43499000  1.0
  H  H37  1  0.01471000  0.16203000  0.56501000  1.0
  H  H38  1  0.51470000  0.33797000  0.93499000  1.0
  H  H39  1  0.98530000  0.83797000  0.06501000  1.0
  H  H40  1  0.51471000  0.33797000  0.56501000  1.0
  H  H41  1  0.98529000  0.83797000  0.43499000  1.0
  H  H42  1  0.48530000  0.66203000  0.06501000  1.0
  H  H43  1  0.01470000  0.16203000  0.93499000  1.0
  H  H44  1  0.96652000  0.64420000  0.42135000  1.0
  H  H45  1  0.53348000  0.14420000  0.57865000  1.0
  H  H46  1  0.03348000  0.35580000  0.92135000  1.0
  H  H47  1  0.46652000  0.85579000  0.07865000  1.0
  H  H48  1  0.03348000  0.35580000  0.57865000  1.0
  H  H49  1  0.46651000  0.85580000  0.42135000  1.0
  H  H50  1  0.96652000  0.64420000  0.07865000  1.0
  H  H51  1  0.53348000  0.14420000  0.92135000  1.0
  H  H52  1  0.99521000  0.59512000  0.32428000  1.0
  H  H53  1  0.50479000  0.09512000  0.67572000  1.0
  H  H54  1  0.00479000  0.40488000  0.82428000  1.0
  H  H55  1  0.49521000  0.90488000  0.17572000  1.0
  H  H56  1  0.00479000  0.40488000  0.67572000  1.0
  H  H57  1  0.49521000  0.90488000  0.32428000  1.0
  H  H58  1  0.99521000  0.59512000  0.17572000  1.0
  H  H59  1  0.50479000  0.09512000  0.82428000  1.0
  C  C60  1  0.70359000  0.44989000  0.38157000  1.0
  C  C61  1  0.79641000  0.94989000  0.61843000  1.0
  C  C62  1  0.29640000  0.55011000  0.88157000  1.0
  C  C63  1  0.20359000  0.05011000  0.11843000  1.0
  C  C64  1  0.29641000  0.55011000  0.61843000  1.0
  C  C65  1  0.20359000  0.05011000  0.38157000  1.0
  C  C66  1  0.70360000  0.44989000  0.11843000  1.0
  C  C67  1  0.79641000  0.94989000  0.88157000  1.0
  C  C68  1  0.59481000  0.48060000  0.34180000  1.0
  C  C69  1  0.90519000  0.98060000  0.65820000  1.0
  C  C70  1  0.40518000  0.51940000  0.84180000  1.0
  C  C71  1  0.09482000  0.01941000  0.15820000  1.0
  C  C72  1  0.40519000  0.51940000  0.65820000  1.0
  C  C73  1  0.09481000  0.01940000  0.34180000  1.0
  C  C74  1  0.59481000  0.48059000  0.15820000  1.0
  C  C75  1  0.90518000  0.98060000  0.84180000  1.0
  C  C76  1  0.49650000  0.33342000  0.32789000  1.0
  C  C77  1  0.00349000  0.83342000  0.67211000  1.0
  C  C78  1  0.50350000  0.66658000  0.82789000  1.0
  C  C79  1  0.99650000  0.16658000  0.17211000  1.0
  C  C80  1  0.50350000  0.66658000  0.67211000  1.0
  C  C81  1  0.99650000  0.16658000  0.32789000  1.0
  C  C82  1  0.49650000  0.33342000  0.17210000  1.0
  C  C83  1  0.00350000  0.83342000  0.82789000  1.0
  C  C84  1  0.60080000  0.30084000  0.36891000  1.0
  C  C85  1  0.89920000  0.80084000  0.63109000  1.0
  C  C86  1  0.39920000  0.69915000  0.86891000  1.0
  C  C87  1  0.10080000  0.19916000  0.13109000  1.0
  C  C88  1  0.39920000  0.69916000  0.63109000  1.0
  C  C89  1  0.10080000  0.19916000  0.36891000  1.0
  C  C90  1  0.60080000  0.30084000  0.13109000  1.0
  C  C91  1  0.89920000  0.80085000  0.86891000  1.0
  C  C92  1  0.38750000  0.62050000  0.35677000  1.0
  C  C93  1  0.11250000  0.12050000  0.64323000  1.0
  C  C94  1  0.61249000  0.37950000  0.85677000  1.0
  C  C95  1  0.88751000  0.87950000  0.14323000  1.0
  C  C96  1  0.61250000  0.37950000  0.64323000  1.0
  C  C97  1  0.88751000  0.87950000  0.35677000  1.0
  C  C98  1  0.38751000  0.62050000  0.14323000  1.0
  C  C99  1  0.11250000  0.12050000  0.85677000  1.0
  C  C100  1  0.37530000  0.64860000  0.41020000  1.0
  C  C101  1  0.12471000  0.14860000  0.58980000  1.0
  C  C102  1  0.62469000  0.35140000  0.91020000  1.0
  C  C103  1  0.87530000  0.85140000  0.08980000  1.0
  C  C104  1  0.62471000  0.35140000  0.58980000  1.0
  C  C105  1  0.87530000  0.85140000  0.41020000  1.0
  C  C106  1  0.37531000  0.64860000  0.08980000  1.0
  C  C107  1  0.12470000  0.14860000  0.91020000  1.0
  C  C108  1  0.08886000  0.63802000  0.40243000  1.0
  C  C109  1  0.41115000  0.13802000  0.59757000  1.0
  C  C110  1  0.91113000  0.36197000  0.90243000  1.0
  C  C111  1  0.58887000  0.86197000  0.09757000  1.0
  C  C112  1  0.91115000  0.36198000  0.59757000  1.0
  C  C113  1  0.58886000  0.86198000  0.40243000  1.0
  C  C114  1  0.08887000  0.63803000  0.09757000  1.0
  C  C115  1  0.41113000  0.13803000  0.90243000  1.0
  C  C116  1  0.10456000  0.61067000  0.34878000  1.0
  C  C117  1  0.39544000  0.11067000  0.65122000  1.0
  C  C118  1  0.89544000  0.38933000  0.84878000  1.0
  C  C119  1  0.60456000  0.88933000  0.15122000  1.0
  C  C120  1  0.89544000  0.38933000  0.65122000  1.0
  C  C121  1  0.60456000  0.88933000  0.34878000  1.0
  C  C122  1  0.10456000  0.61067000  0.15122000  1.0
  C  C123  1  0.39545000  0.11067000  0.84878000  1.0
  S  S124  1  0.59069000  0.60505000  0.32467000  1.0
  S  S125  1  0.90931000  0.10505000  0.67533000  1.0
  S  S126  1  0.40930000  0.39494000  0.82467000  1.0
  S  S127  1  0.09070000  0.89495000  0.17533000  1.0
  S  S128  1  0.40931000  0.39494000  0.67533000  1.0
  S  S129  1  0.09069000  0.89495000  0.32467000  1.0
  S  S130  1  0.59070000  0.60505000  0.17533000  1.0
  S  S131  1  0.90930000  0.10505000  0.82467000  1.0
  N  N132  1  0.70251000  0.35922000  0.39599000  1.0
  N  N133  1  0.79749000  0.85922000  0.60401000  1.0
  N  N134  1  0.29749000  0.64078000  0.89599000  1.0
  N  N135  1  0.20251000  0.14079000  0.10401000  1.0
  N  N136  1  0.29749000  0.64078000  0.60401000  1.0
  N  N137  1  0.20251000  0.14078000  0.39599000  1.0
  N  N138  1  0.70251000  0.35921000  0.10401000  1.0
  N  N139  1  0.79749000  0.85922000  0.89599000  1.0
  N  N140  1  0.49212000  0.42433000  0.31501000  1.0
  N  N141  1  0.00788000  0.92433000  0.68499000  1.0
  N  N142  1  0.50787000  0.57566000  0.81501000  1.0
  N  N143  1  0.99213000  0.07567000  0.18499000  1.0
  N  N144  1  0.50788000  0.57566000  0.68499000  1.0
  N  N145  1  0.99213000  0.07567000  0.31501000  1.0
  N  N146  1  0.49213000  0.42433000  0.18499000  1.0
  N  N147  1  0.00787000  0.92433000  0.81501000  1.0
  N  N148  1  0.22356000  0.65642000  0.43301000  1.0
  N  N149  1  0.27644000  0.15642000  0.56699000  1.0
  N  N150  1  0.77644000  0.34358000  0.93301000  1.0
  N  N151  1  0.72356000  0.84358000  0.06699000  1.0
  N  N152  1  0.77644000  0.34358000  0.56699000  1.0
  N  N153  1  0.72356000  0.84358000  0.43301000  1.0
  N  N154  1  0.22356000  0.65642000  0.06699000  1.0
  N  N155  1  0.27644000  0.15642000  0.93301000  1.0
  N  N156  1  0.25553000  0.60160000  0.32578000  1.0
  N  N157  1  0.24447000  0.10160000  0.67422000  1.0
  N  N158  1  0.74446000  0.39840000  0.82578000  1.0
  N  N159  1  0.75554000  0.89840000  0.17422000  1.0
  N  N160  1  0.74447000  0.39840000  0.67422000  1.0
  N  N161  1  0.75553000  0.89840000  0.32578000  1.0
  N  N162  1  0.25555000  0.60160000  0.17422000  1.0
  N  N163  1  0.24446000  0.10160000  0.82578000  1.0
  Cl  Cl164  1  0.74286000  0.10015000  0.47099000  1.0
  Cl  Cl165  1  0.75714000  0.60015000  0.52900000  1.0
  Cl  Cl166  1  0.25714000  0.89985000  0.97099000  1.0
  Cl  Cl167  1  0.24286000  0.39985000  0.02901000  1.0
  Cl  Cl168  1  0.25714000  0.89985000  0.52901000  1.0
  Cl  Cl169  1  0.24286000  0.39985000  0.47099000  1.0
  Cl  Cl170  1  0.74286000  0.10015000  0.02900000  1.0
  Cl  Cl171  1  0.75714000  0.60015000  0.97099000  1.0
  Cl  Cl172  1  0.94354000  0.41138000  0.25000000  1.0
  Cl  Cl173  1  0.55645000  0.91138000  0.75000000  1.0
  Cl  Cl174  1  0.05645000  0.58862000  0.75000000  1.0
  Cl  Cl175  1  0.44355000  0.08862000  0.25000000  1.0
  O  O176  1  0.71885000  0.65153000  0.35923000  1.0
  O  O177  1  0.78115000  0.15154000  0.64077000  1.0
  O  O178  1  0.28115000  0.34846000  0.85923000  1.0
  O  O179  1  0.21885000  0.84847000  0.14077000  1.0
  O  O180  1  0.28115000  0.34846000  0.64077000  1.0
  O  O181  1  0.21885000  0.84847000  0.35923000  1.0
  O  O182  1  0.71885000  0.65153000  0.14077000  1.0
  O  O183  1  0.78116000  0.15154000  0.85923000  1.0
  O  O184  1  0.90688000  0.14253000  0.48094000  1.0
  O  O185  1  0.59312000  0.64253000  0.51906000  1.0
  O  O186  1  0.09312000  0.85747000  0.98094000  1.0
  O  O187  1  0.40688000  0.35747000  0.01906000  1.0
  O  O188  1  0.09312000  0.85746000  0.51906000  1.0
  O  O189  1  0.40688000  0.35747000  0.48094000  1.0
  O  O190  1  0.90687000  0.14253000  0.01906000  1.0
  O  O191  1  0.59312000  0.64253000  0.98094000  1.0
  O  O192  1  0.73192000  0.06909000  0.41542000  1.0
  O  O193  1  0.76809000  0.56909000  0.58457000  1.0
  O  O194  1  0.26808000  0.93091000  0.91542000  1.0
  O  O195  1  0.23192000  0.43091000  0.08457000  1.0
  O  O196  1  0.26808000  0.93091000  0.58458000  1.0
  O  O197  1  0.23191000  0.43091000  0.41543000  1.0
  O  O198  1  0.73191000  0.06909000  0.08458000  1.0
  O  O199  1  0.76808000  0.56909000  0.91542000  1.0
  O  O200  1  0.61344000  0.17255000  0.48088000  1.0
  O  O201  1  0.88656000  0.67255000  0.51911000  1.0
  O  O202  1  0.38656000  0.82745000  0.98088000  1.0
  O  O203  1  0.11344000  0.32745000  0.01912000  1.0
  O  O204  1  0.38656000  0.82745000  0.51912000  1.0
  O  O205  1  0.11344000  0.32745000  0.48088000  1.0
  O  O206  1  0.61344000  0.17255000  0.01911000  1.0
  O  O207  1  0.88656000  0.67255000  0.98088000  1.0
  O  O208  1  0.71534000  0.02270000  0.50793000  1.0
  O  O209  1  0.78466000  0.52270000  0.49207000  1.0
  O  O210  1  0.28466000  0.97730000  0.00793000  1.0
  O  O211  1  0.21534000  0.47730000  0.99207000  1.0
  O  O212  1  0.28466000  0.97730000  0.49207000  1.0
  O  O213  1  0.21534000  0.47730000  0.50793000  1.0
  O  O214  1  0.71534000  0.02270000  0.99207000  1.0
  O  O215  1  0.78466000  0.52270000  0.00793000  1.0
  O  O216  1  0.81716000  0.33753000  0.25000000  1.0
  O  O217  1  0.68284000  0.83753000  0.75000000  1.0
  O  O218  1  0.18283000  0.66248000  0.75000000  1.0
  O  O219  1  0.31716000  0.16247000  0.25000000  1.0
  O  O220  1  0.86111000  0.50337000  0.25000000  1.0
  O  O221  1  0.63888000  0.00336000  0.75000000  1.0
  O  O222  1  0.13889000  0.49664000  0.75000000  1.0
  O  O223  1  0.36111000  0.99664000  0.25000000  1.0
  O  O224  1  0.04872000  0.40319000  0.29815000  1.0
  O  O225  1  0.45128000  0.90318000  0.70185000  1.0
  O  O226  1  0.95128000  0.59681000  0.79815000  1.0
  O  O227  1  0.54872000  0.09681000  0.20185000  1.0
  O  O228  1  0.95128000  0.59682000  0.70185000  1.0
  O  O229  1  0.54872000  0.09682000  0.29815000  1.0
  O  O230  1  0.04872000  0.40319000  0.20185000  1.0
  O  O231  1  0.45128000  0.90318000  0.79815000  1.0
