# generated using pymatgen
data_NiHC4O3
_symmetry_space_group_name_H-M   'P 1'
_cell_length_a   6.74338000
_cell_length_b   15.03400000
_cell_length_c   15.03450000
_cell_angle_alpha   117.80500000
_cell_angle_beta   98.61450000
_cell_angle_gamma   98.59360000
_symmetry_Int_Tables_number   1
_chemical_formula_structural   NiHC4O3
_chemical_formula_sum   'Ni6 H6 C24 O18'
_cell_volume   1290.41770860
_cell_formula_units_Z   6
loop_
 _symmetry_equiv_pos_site_id
 _symmetry_equiv_pos_as_xyz
  1  'x, y, z'
loop_
 _atom_site_type_symbol
 _atom_site_label
 _atom_site_symmetry_multiplicity
 _atom_site_fract_x
 _atom_site_fract_y
 _atom_site_fract_z
 _atom_site_occupancy
  Ni  Ni0  1  0.97276000  0.59154000  0.26757000  1.0
  Ni  Ni1  1  0.38109000  0.67603000  0.40838000  1.0
  Ni  Ni2  1  0.70508000  0.73235000  0.32397000  1.0
  Ni  Ni3  1  0.02724000  0.40846000  0.73243000  1.0
  Ni  Ni4  1  0.61891000  0.32397000  0.59162000  1.0
  Ni  Ni5  1  0.29492000  0.26765000  0.67603000  1.0
  H  H6  1  0.14499000  0.01997000  0.46460000  1.0
  H  H7  1  0.12516000  0.44451000  0.98013000  1.0
  H  H8  1  0.68041000  0.53541000  0.55526000  1.0
  H  H9  1  0.85501000  0.98003000  0.53540000  1.0
  H  H10  1  0.87484000  0.55549000  0.01987000  1.0
  H  H11  1  0.31959000  0.46459000  0.44474000  1.0
  C  C12  1  0.13940000  0.82596000  0.39991000  1.0
  C  C13  1  0.31359000  0.57388000  0.17405000  1.0
  C  C14  1  0.73958000  0.60008000  0.42600000  1.0
  C  C15  1  0.86060000  0.17404000  0.60010000  1.0
  C  C16  1  0.68640000  0.42612000  0.82595000  1.0
  C  C17  1  0.26042000  0.39992000  0.57400000  1.0
  C  C18  1  0.32934000  0.91199000  0.45142000  1.0
  C  C19  1  0.41753000  0.53940000  0.08805000  1.0
  C  C20  1  0.87801000  0.54857000  0.46050000  1.0
  C  C21  1  0.67066000  0.08801000  0.54858000  1.0
  C  C22  1  0.58247000  0.46060000  0.91194000  1.0
  C  C23  1  0.12200000  0.45143000  0.53950000  1.0
  C  C24  1  0.53473000  0.89881000  0.47150000  1.0
  C  C25  1  0.63604000  0.57275000  0.10119000  1.0
  C  C26  1  0.06327000  0.52846000  0.42727000  1.0
  C  C27  1  0.46528000  0.10119000  0.52850000  1.0
  C  C28  1  0.36396000  0.42725000  0.89881000  1.0
  C  C29  1  0.93673000  0.47154000  0.57273000  1.0
  C  C30  1  0.30166000  0.01141000  0.48054000  1.0
  C  C31  1  0.29036000  0.46904000  0.98864000  1.0
  C  C32  1  0.82120000  0.51949000  0.53084000  1.0
  C  C33  1  0.69834000  0.98860000  0.51946000  1.0
  C  C34  1  0.70964000  0.53095000  0.01136000  1.0
  C  C35  1  0.17880000  0.48051000  0.46916000  1.0
  O  O36  1  0.96403000  0.84235000  0.37812000  1.0
  O  O37  1  0.12187000  0.53561000  0.15763000  1.0
  O  O38  1  0.58609000  0.62192000  0.46420000  1.0
  O  O39  1  0.03597000  0.15766000  0.62188000  1.0
  O  O40  1  0.87813000  0.46439000  0.84237000  1.0
  O  O41  1  0.41391000  0.37808000  0.53581000  1.0
  O  O42  1  0.15398000  0.73350000  0.37863000  1.0
  O  O43  1  0.42047000  0.64521000  0.26648000  1.0
  O  O44  1  0.77537000  0.62128000  0.35476000  1.0
  O  O45  1  0.84602000  0.26650000  0.62137000  1.0
  O  O46  1  0.57953000  0.35479000  0.73352000  1.0
  O  O47  1  0.22463000  0.37872000  0.64524000  1.0
  O  O48  1  0.58408000  0.80874000  0.45027000  1.0
  O  O49  1  0.77556000  0.64155000  0.19127000  1.0
  O  O50  1  0.13397000  0.54970000  0.35847000  1.0
  O  O51  1  0.41592000  0.19126000  0.54973000  1.0
  O  O52  1  0.22443000  0.35845000  0.80873000  1.0
  O  O53  1  0.86602000  0.45029000  0.64153000  1.0
