# generated using pymatgen
data_ZnH10C16NO4
_symmetry_space_group_name_H-M   'P 1'
_cell_length_a   10.84070000
_cell_length_b   10.84070000
_cell_length_c   18.52310000
_cell_angle_alpha   90.00000000
_cell_angle_beta   89.99990000
_cell_angle_gamma   115.95600000
_symmetry_Int_Tables_number   1
_chemical_formula_structural   ZnH10C16NO4
_chemical_formula_sum   'Zn4 H40 C64 N4 O16'
_cell_volume   1957.27125437
_cell_formula_units_Z   4
loop_
 _symmetry_equiv_pos_site_id
 _symmetry_equiv_pos_as_xyz
  1  'x, y, z'
loop_
 _atom_site_type_symbol
 _atom_site_label
 _atom_site_symmetry_multiplicity
 _atom_site_fract_x
 _atom_site_fract_y
 _atom_site_fract_z
 _atom_site_occupancy
  Zn  Zn0  1  0.67051000  0.32949000  0.75000000  1.0
  Zn  Zn1  1  0.82949000  0.17051000  0.75000000  1.0
  Zn  Zn2  1  0.32949000  0.67051000  0.25000000  1.0
  Zn  Zn3  1  0.17051000  0.82949000  0.25000000  1.0
  H  H4  1  0.37562000  0.10437000  0.92861000  1.0
  H  H5  1  0.12438000  0.39563000  0.92861000  1.0
  H  H6  1  0.89563000  0.62438000  0.57139000  1.0
  H  H7  1  0.60437000  0.87562000  0.57139000  1.0
  H  H8  1  0.62438000  0.89563000  0.07139000  1.0
  H  H9  1  0.87562000  0.60437000  0.07139000  1.0
  H  H10  1  0.10437000  0.37561000  0.42861000  1.0
  H  H11  1  0.39563000  0.12438000  0.42861000  1.0
  H  H12  1  0.70637000  0.98970000  0.94762000  1.0
  H  H13  1  0.79363000  0.51030000  0.94762000  1.0
  H  H14  1  0.01030000  0.29363000  0.55238000  1.0
  H  H15  1  0.48970000  0.20637000  0.55238000  1.0
  H  H16  1  0.29363000  0.01030000  0.05238000  1.0
  H  H17  1  0.20637000  0.48970000  0.05238000  1.0
  H  H18  1  0.98970000  0.70637000  0.44762000  1.0
  H  H19  1  0.51030000  0.79363000  0.44762000  1.0
  H  H20  1  0.41752000  0.30827000  0.82190000  1.0
  H  H21  1  0.08248000  0.19173000  0.82190000  1.0
  H  H22  1  0.69173000  0.58248000  0.67810000  1.0
  H  H23  1  0.80827000  0.91752000  0.67810000  1.0
  H  H24  1  0.58248000  0.69173000  0.17810000  1.0
  H  H25  1  0.91752000  0.80827000  0.17810000  1.0
  H  H26  1  0.30827000  0.41752000  0.32190000  1.0
  H  H27  1  0.19173000  0.08248000  0.32190000  1.0
  H  H28  1  0.27300000  0.43732000  0.82401000  1.0
  H  H29  1  0.22700000  0.06268000  0.82401000  1.0
  H  H30  1  0.56268000  0.72700000  0.67599000  1.0
  H  H31  1  0.93732000  0.77300000  0.67599000  1.0
  H  H32  1  0.72700000  0.56268000  0.17599000  1.0
  H  H33  1  0.77300000  0.93732000  0.17599000  1.0
  H  H34  1  0.43732000  0.27300000  0.32401000  1.0
  H  H35  1  0.06268000  0.22700000  0.32401000  1.0
  H  H36  1  0.12859000  0.49499000  0.74999000  1.0
  H  H37  1  0.37141000  0.00501000  0.74999000  1.0
  H  H38  1  0.50502000  0.87141000  0.75001000  1.0
  H  H39  1  0.99499000  0.62859000  0.75001000  1.0
  H  H40  1  0.87141000  0.50501000  0.25001000  1.0
  H  H41  1  0.62859000  0.99499000  0.25001000  1.0
  H  H42  1  0.49499000  0.12859000  0.24999000  1.0
  H  H43  1  0.00501000  0.37141000  0.24999000  1.0
  C  C44  1  0.59881000  0.11132000  0.85787000  1.0
  C  C45  1  0.90119000  0.38868000  0.85787000  1.0
  C  C46  1  0.88868000  0.40119000  0.64213000  1.0
  C  C47  1  0.61132000  0.09881000  0.64213000  1.0
  C  C48  1  0.40119000  0.88868000  0.14213000  1.0
  C  C49  1  0.09880000  0.61132000  0.14213000  1.0
  C  C50  1  0.11132000  0.59880000  0.35787000  1.0
  C  C51  1  0.38868000  0.90120000  0.35787000  1.0
  C  C52  1  0.54541000  0.05163000  0.93064000  1.0
  C  C53  1  0.95459000  0.44837000  0.93064000  1.0
  C  C54  1  0.94837000  0.45459000  0.56936000  1.0
  C  C55  1  0.55164000  0.04541000  0.56936000  1.0
  C  C56  1  0.45459000  0.94836000  0.06936000  1.0
  C  C57  1  0.04541000  0.55163000  0.06936000  1.0
  C  C58  1  0.05164000  0.54541000  0.43064000  1.0
  C  C59  1  0.44837000  0.95459000  0.43064000  1.0
  C  C60  1  0.42940000  0.05818000  0.96016000  1.0
  C  C61  1  0.07060000  0.44182000  0.96016000  1.0
  C  C62  1  0.94182000  0.57060000  0.53984000  1.0
  C  C63  1  0.55818000  0.92940000  0.53984000  1.0
  C  C64  1  0.57060000  0.94182000  0.03984000  1.0
  C  C65  1  0.92940000  0.55818000  0.03984000  1.0
  C  C66  1  0.05818000  0.42940000  0.46016000  1.0
  C  C67  1  0.44182000  0.07060000  0.46016000  1.0
  C  C68  1  0.61579000  0.99311000  0.97109000  1.0
  C  C69  1  0.88421000  0.50689000  0.97109000  1.0
  C  C70  1  0.00689000  0.38420000  0.52891000  1.0
  C  C71  1  0.49311000  0.11579000  0.52891000  1.0
  C  C72  1  0.38421000  0.00689000  0.02891000  1.0
  C  C73  1  0.11580000  0.49311000  0.02891000  1.0
  C  C74  1  0.99311000  0.61579000  0.47109000  1.0
  C  C75  1  0.50689000  0.88421000  0.47109000  1.0
  C  C76  1  0.44382000  0.40072000  0.78987000  1.0
  C  C77  1  0.05618000  0.09928000  0.78987000  1.0
  C  C78  1  0.59928000  0.55618000  0.71013000  1.0
  C  C79  1  0.90072000  0.94382000  0.71013000  1.0
  C  C80  1  0.55618000  0.59928000  0.21013000  1.0
  C  C81  1  0.94382000  0.90072000  0.21013000  1.0
  C  C82  1  0.40072000  0.44382000  0.28987000  1.0
  C  C83  1  0.09928000  0.05618000  0.28987000  1.0
  C  C84  1  0.36507000  0.47283000  0.79074000  1.0
  C  C85  1  0.13493000  0.02717000  0.79074000  1.0
  C  C86  1  0.52717000  0.63493000  0.70926000  1.0
  C  C87  1  0.97283000  0.86507000  0.70926000  1.0
  C  C88  1  0.63492000  0.52717000  0.20926000  1.0
  C  C89  1  0.86507000  0.97283000  0.20926000  1.0
  C  C90  1  0.47282000  0.36507000  0.29074000  1.0
  C  C91  1  0.02717000  0.13493000  0.29074000  1.0
  C  C92  1  0.40630000  0.59370000  0.75000000  1.0
  C  C93  1  0.09370000  0.90630000  0.75000000  1.0
  C  C94  1  0.59370000  0.40630000  0.25000000  1.0
  C  C95  1  0.90630000  0.09370000  0.25000000  1.0
  C  C96  1  0.32635000  0.67365000  0.75000000  1.0
  C  C97  1  0.17365000  0.82635000  0.75000000  1.0
  C  C98  1  0.67365000  0.32635000  0.25000000  1.0
  C  C99  1  0.82635000  0.17365000  0.25000000  1.0
  C  C100  1  0.18227000  0.60667000  0.75036000  1.0
  C  C101  1  0.31773000  0.89333000  0.75036000  1.0
  C  C102  1  0.39333000  0.81773000  0.74964000  1.0
  C  C103  1  0.10667000  0.68227000  0.74964000  1.0
  C  C104  1  0.81773000  0.39332000  0.24964000  1.0
  C  C105  1  0.68227000  0.10668000  0.24964000  1.0
  C  C106  1  0.60667000  0.18227000  0.25036000  1.0
  C  C107  1  0.89333000  0.31773000  0.25036000  1.0
  N  N108  1  0.55901000  0.44099000  0.75000000  1.0
  N  N109  1  0.94099000  0.05901000  0.75000000  1.0
  N  N110  1  0.44098000  0.55901000  0.25000000  1.0
  N  N111  1  0.05901000  0.94099000  0.25000000  1.0
  O  O112  1  0.54905000  0.18557000  0.82797000  1.0
  O  O113  1  0.95095000  0.31443000  0.82797000  1.0
  O  O114  1  0.81443000  0.45095000  0.67203000  1.0
  O  O115  1  0.68557000  0.04905000  0.67203000  1.0
  O  O116  1  0.45095000  0.81442000  0.17203000  1.0
  O  O117  1  0.04905000  0.68557000  0.17203000  1.0
  O  O118  1  0.18558000  0.54904000  0.32797000  1.0
  O  O119  1  0.31443000  0.95095000  0.32797000  1.0
  O  O120  1  0.69354000  0.08493000  0.83181000  1.0
  O  O121  1  0.80647000  0.41507000  0.83181000  1.0
  O  O122  1  0.91507000  0.30646000  0.66819000  1.0
  O  O123  1  0.58493000  0.19354000  0.66819000  1.0
  O  O124  1  0.30647000  0.91507000  0.16819000  1.0
  O  O125  1  0.19354000  0.58493000  0.16819000  1.0
  O  O126  1  0.08493000  0.69353000  0.33181000  1.0
  O  O127  1  0.41507000  0.80646000  0.33181000  1.0
