# generated using pymatgen
data_Zn4H30C48O13
_symmetry_space_group_name_H-M   'P 1'
_cell_length_a   27.32180000
_cell_length_b   27.71940000
_cell_length_c   27.71967883
_cell_angle_alpha   90.31159810
_cell_angle_beta   119.51587927
_cell_angle_gamma   119.30500000
_symmetry_Int_Tables_number   1
_chemical_formula_structural   Zn4H30C48O13
_chemical_formula_sum   'Zn8 H60 C96 O26'
_cell_volume   15066.41671810
_cell_formula_units_Z   2
loop_
 _symmetry_equiv_pos_site_id
 _symmetry_equiv_pos_as_xyz
  1  'x, y, z'
loop_
 _atom_site_type_symbol
 _atom_site_label
 _atom_site_symmetry_multiplicity
 _atom_site_fract_x
 _atom_site_fract_y
 _atom_site_fract_z
 _atom_site_occupancy
  Zn  Zn0  1  0.06127000  0.09378000  0.03194000  1.0
  Zn  Zn1  1  0.06042000  0.97595000  0.03433000  1.0
  Zn  Zn2  1  0.94456000  0.97846000  0.92077000  1.0
  Zn  Zn3  1  0.94597000  0.98025000  0.03474000  1.0
  Zn  Zn4  1  0.94559000  0.41992000  0.47674000  1.0
  Zn  Zn5  1  0.94898000  0.53955000  0.47642000  1.0
  Zn  Zn6  1  0.06137000  0.53411000  0.47535000  1.0
  Zn  Zn7  1  0.06486000  0.53585000  0.58920000  1.0
  H  H8  1  0.27421000  0.20841000  0.11324000  1.0
  H  H9  1  0.40037000  0.26900000  0.17862000  1.0
  H  H10  1  0.49967000  0.21225000  0.28402000  1.0
  H  H11  1  0.50840000  0.31076000  0.23045000  1.0
  H  H12  1  0.61619000  0.39773000  0.27449000  1.0
  H  H13  1  0.74306000  0.45588000  0.34138000  1.0
  H  H14  1  0.73123000  0.30613000  0.39120000  1.0
  H  H15  1  0.60506000  0.24845000  0.32728000  1.0
  H  H16  1  0.39366000  0.12727000  0.24572000  1.0
  H  H17  1  0.26682000  0.06586000  0.17712000  1.0
  H  H18  1  0.06327000  0.21379000  0.93758000  1.0
  H  H19  1  0.05879000  0.27174000  0.86970000  1.0
  H  H20  1  0.96480000  0.20086000  0.70460000  1.0
  H  H21  1  0.04438000  0.31314000  0.80492000  1.0
  H  H22  1  0.07425000  0.40006000  0.78452000  1.0
  H  H23  1  0.06949000  0.45742000  0.71534000  1.0
  H  H24  1  0.93942000  0.29913000  0.57100000  1.0
  H  H25  1  0.94440000  0.24134000  0.63908000  1.0
  H  H26  1  0.93888000  0.11449000  0.72547000  1.0
  H  H27  1  0.94300000  0.05693000  0.79447000  1.0
  H  H28  1  0.08554000  0.21634000  0.14764000  1.0
  H  H29  1  0.08131000  0.27701000  0.20965000  1.0
  H  H30  1  0.93009000  0.21497000  0.22285000  1.0
  H  H31  1  0.08104000  0.31305000  0.27903000  1.0
  H  H32  1  0.12598000  0.39877000  0.34743000  1.0
  H  H33  1  0.11978000  0.45325000  0.41377000  1.0
  H  H34  1  0.92455000  0.30096000  0.35791000  1.0
  H  H35  1  0.92920000  0.24617000  0.29115000  1.0
  H  H36  1  0.88465000  0.12815000  0.15838000  1.0
  H  H37  1  0.89076000  0.06754000  0.09743000  1.0
  H  H38  1  0.07394000  0.86435000  0.94161000  1.0
  H  H39  1  0.06879000  0.80174000  0.87266000  1.0
  H  H40  1  0.94009000  0.74929000  0.70622000  1.0
  H  H41  1  0.07373000  0.76762000  0.80626000  1.0
  H  H42  1  0.11506000  0.72149000  0.78384000  1.0
  H  H43  1  0.10909000  0.65906000  0.71330000  1.0
  H  H44  1  0.93118000  0.64387000  0.57136000  1.0
  H  H45  1  0.93574000  0.70537000  0.64061000  1.0
  H  H46  1  0.90572000  0.80347000  0.72713000  1.0
  H  H47  1  0.91119000  0.86576000  0.79735000  1.0
  H  H48  1  0.06618000  0.86167000  0.13246000  1.0
  H  H49  1  0.06102000  0.79725000  0.19403000  1.0
  H  H50  1  0.96056000  0.76899000  0.26229000  1.0
  H  H51  1  0.04626000  0.73990000  0.24324000  1.0
  H  H52  1  0.07408000  0.67959000  0.29063000  1.0
  H  H53  1  0.06710000  0.61539000  0.35303000  1.0
  H  H54  1  0.93748000  0.64746000  0.37114000  1.0
  H  H55  1  0.94275000  0.71068000  0.30851000  1.0
  H  H56  1  0.93397000  0.83030000  0.21739000  1.0
  H  H57  1  0.93999000  0.89504000  0.15535000  1.0
  H  H58  1  0.73321000  0.89729000  0.80391000  1.0
  H  H59  1  0.60698000  0.83179000  0.74254000  1.0
  H  H60  1  0.50726000  0.73097000  0.80052000  1.0
  H  H61  1  0.50011000  0.78172000  0.70051000  1.0
  H  H62  1  0.39223000  0.73876000  0.61325000  1.0
  H  H63  1  0.26514000  0.67263000  0.55491000  1.0
  H  H64  1  0.27718000  0.62204000  0.70441000  1.0
  H  H65  1  0.40333000  0.68672000  0.76292000  1.0
  H  H66  1  0.61299000  0.77038000  0.88688000  1.0
  H  H67  1  0.74007000  0.83812000  0.94852000  1.0
  C  C68  1  0.18699000  0.09633000  0.09926000  1.0
  C  C69  1  0.26280000  0.13317000  0.14057000  1.0
  C  C70  1  0.30112000  0.19094000  0.14209000  1.0
  C  C71  1  0.37182000  0.22464000  0.17897000  1.0
  C  C72  1  0.40682000  0.20226000  0.21670000  1.0
  C  C73  1  0.48085000  0.23468000  0.25537000  1.0
  C  C74  1  0.52685000  0.28778000  0.25847000  1.0
  C  C75  1  0.60085000  0.31914000  0.29663000  1.0
  C  C76  1  0.64137000  0.37773000  0.30066000  1.0
  C  C77  1  0.71213000  0.41033000  0.33769000  1.0
  C  C78  1  0.74495000  0.38476000  0.37080000  1.0
  C  C79  1  0.70535000  0.32592000  0.36595000  1.0
  C  C80  1  0.63467000  0.29392000  0.33002000  1.0
  C  C81  1  0.82091000  0.41992000  0.41089000  1.0
  C  C82  1  0.36750000  0.14490000  0.21608000  1.0
  C  C83  1  0.29677000  0.11051000  0.17813000  1.0
  C  C84  1  0.00450000  0.09665000  0.91066000  1.0
  C  C85  1  0.00317000  0.13178000  0.87012000  1.0
  C  C86  1  0.03602000  0.19257000  0.89093000  1.0
  C  C87  1  0.03323000  0.22468000  0.85258000  1.0
  C  C88  1  0.99788000  0.19726000  0.79205000  1.0
  C  C89  1  0.99214000  0.22821000  0.74941000  1.0
  C  C90  1  0.01655000  0.28570000  0.76002000  1.0
  C  C91  1  0.01048000  0.31657000  0.71731000  1.0
  C  C92  1  0.04481000  0.37784000  0.73763000  1.0
  C  C93  1  0.04233000  0.41007000  0.69935000  1.0
  C  C94  1  0.00452000  0.38189000  0.63904000  1.0
  C  C95  1  0.96908000  0.32075000  0.61797000  1.0
  C  C96  1  0.97219000  0.28871000  0.65641000  1.0
  C  C97  1  0.00302000  0.41702000  0.59842000  1.0
  C  C98  1  0.96606000  0.13638000  0.77205000  1.0
  C  C99  1  0.96822000  0.10403000  0.81022000  1.0
  C  C100  1  0.99409000  0.10070000  0.08593000  1.0
  C  C101  1  0.98909000  0.13796000  0.11976000  1.0
  C  C102  1  0.04208000  0.19746000  0.15083000  1.0
  C  C103  1  0.03944000  0.23104000  0.18560000  1.0
  C  C104  1  0.98342000  0.20639000  0.19018000  1.0
  C  C105  1  0.97976000  0.23777000  0.22918000  1.0
  C  C106  1  0.03127000  0.28977000  0.27256000  1.0
  C  C107  1  0.02717000  0.31903000  0.31286000  1.0
  C  C108  1  0.08146000  0.37728000  0.34936000  1.0
  C  C109  1  0.07845000  0.40789000  0.38652000  1.0
  C  C110  1  0.02131000  0.38075000  0.38909000  1.0
  C  C111  1  0.96814000  0.32199000  0.35482000  1.0
  C  C112  1  0.97098000  0.29176000  0.31731000  1.0
  C  C113  1  0.01628000  0.41508000  0.42583000  1.0
  C  C114  1  0.92904000  0.14745000  0.15635000  1.0
  C  C115  1  0.93202000  0.11349000  0.12223000  1.0
  C  C116  1  0.99727000  0.90861000  0.91443000  1.0
  C  C117  1  0.99351000  0.86959000  0.87361000  1.0
  C  C118  1  0.03759000  0.85101000  0.89446000  1.0
  C  C119  1  0.03465000  0.81622000  0.85555000  1.0
  C  C120  1  0.98786000  0.79908000  0.79439000  1.0
  C  C121  1  0.98406000  0.76467000  0.75123000  1.0
  C  C122  1  0.02929000  0.75162000  0.76139000  1.0
  C  C123  1  0.02520000  0.71724000  0.71796000  1.0
  C  C124  1  0.07445000  0.70430000  0.73719000  1.0
  C  C125  1  0.07150000  0.66960000  0.69815000  1.0
  C  C126  1  0.01930000  0.64700000  0.63817000  1.0
  C  C127  1  0.97107000  0.66096000  0.61810000  1.0
  C  C128  1  0.97394000  0.69537000  0.65726000  1.0
  C  C129  1  0.01468000  0.60749000  0.59709000  1.0
  C  C130  1  0.94277000  0.81686000  0.77424000  1.0
  C  C131  1  0.94555000  0.85160000  0.81303000  1.0
  C  C132  1  0.00532000  0.91983000  0.10203000  1.0
  C  C133  1  0.00322000  0.88212000  0.14004000  1.0
  C  C134  1  0.03738000  0.85438000  0.15139000  1.0
  C  C135  1  0.03413000  0.81831000  0.18580000  1.0
  C  C136  1  0.99650000  0.80860000  0.21007000  1.0
  C  C137  1  0.99015000  0.77065000  0.24571000  1.0
  C  C138  1  0.01640000  0.73824000  0.25950000  1.0
  C  C139  1  0.00956000  0.70039000  0.29521000  1.0
  C  C140  1  0.04382000  0.67240000  0.30811000  1.0
  C  C141  1  0.04025000  0.63664000  0.34287000  1.0
  C  C142  1  0.00216000  0.62777000  0.36604000  1.0
  C  C143  1  0.96712000  0.65484000  0.35307000  1.0
  C  C144  1  0.97056000  0.69032000  0.31815000  1.0
  C  C145  1  0.00042000  0.59117000  0.40505000  1.0
  C  C146  1  0.96306000  0.83719000  0.19874000  1.0
  C  C147  1  0.96619000  0.87331000  0.16429000  1.0
  C  C148  1  0.81976000  0.91297000  0.91688000  1.0
  C  C149  1  0.74412000  0.87211000  0.88004000  1.0
  C  C150  1  0.70608000  0.86953000  0.82161000  1.0
  C  C151  1  0.63549000  0.83275000  0.78761000  1.0
  C  C152  1  0.60047000  0.79670000  0.81063000  1.0
  C  C153  1  0.52655000  0.75846000  0.77774000  1.0
  C  C154  1  0.48120000  0.75468000  0.72372000  1.0
  C  C155  1  0.40735000  0.71689000  0.69198000  1.0
  C  C156  1  0.36699000  0.71286000  0.63321000  1.0
  C  C157  1  0.29626000  0.67623000  0.60050000  1.0
  C  C158  1  0.26368000  0.64303000  0.62603000  1.0
  C  C159  1  0.30317000  0.64760000  0.68493000  1.0
  C  C160  1  0.37372000  0.68374000  0.71726000  1.0
  C  C161  1  0.18812000  0.60296000  0.59097000  1.0
  C  C162  1  0.63944000  0.79862000  0.86883000  1.0
  C  C163  1  0.71013000  0.83610000  0.90332000  1.0
  O  O164  1  0.00502000  0.00805000  0.00644000  1.0
  O  O165  1  0.15702000  0.04109000  0.08919000  1.0
  O  O166  1  0.15833000  0.12303000  0.07715000  1.0
  O  O167  1  0.85193000  0.47545000  0.42336000  1.0
  O  O168  1  0.84854000  0.39186000  0.42957000  1.0
  O  O169  1  0.96852000  0.04115000  0.88704000  1.0
  O  O170  1  0.04101000  0.12435000  0.96543000  1.0
  O  O171  1  0.04175000  0.47263000  0.62241000  1.0
  O  O172  1  0.96381000  0.38926000  0.54342000  1.0
  O  O173  1  0.94794000  0.04570000  0.06515000  1.0
  O  O174  1  0.04421000  0.12624000  0.08093000  1.0
  O  O175  1  0.06400000  0.46970000  0.45072000  1.0
  O  O176  1  0.96482000  0.38814000  0.42902000  1.0
  O  O177  1  0.95231000  0.92014000  0.89093000  1.0
  O  O178  1  0.04479000  0.92773000  0.96904000  1.0
  O  O179  1  0.05888000  0.59511000  0.62016000  1.0
  O  O180  1  0.96701000  0.58875000  0.54258000  1.0
  O  O181  1  0.97379000  0.94421000  0.09462000  1.0
  O  O182  1  0.03804000  0.92465000  0.07962000  1.0
  O  O183  1  0.03016000  0.56518000  0.41176000  1.0
  O  O184  1  0.97007000  0.58889000  0.42917000  1.0
  O  O185  1  0.85076000  0.91867000  0.97148000  1.0
  O  O186  1  0.84806000  0.93952000  0.89119000  1.0
  O  O187  1  0.15553000  0.59842000  0.53676000  1.0
  O  O188  1  0.16121000  0.57569000  0.61734000  1.0
  O  O189  1  0.00243000  0.50574000  0.50366000  1.0
