# generated using pymatgen
data_CuH8C14(N3O)2
_symmetry_space_group_name_H-M   'P 1'
_cell_length_a   4.22521000
_cell_length_b   6.94162000
_cell_length_c   11.38160000
_cell_angle_alpha   88.23360000
_cell_angle_beta   89.73950000
_cell_angle_gamma   78.66000000
_symmetry_Int_Tables_number   1
_chemical_formula_structural   CuH8C14(N3O)2
_chemical_formula_sum   'Cu1 H8 C14 N6 O2'
_cell_volume   327.14719367
_cell_formula_units_Z   1
loop_
 _symmetry_equiv_pos_site_id
 _symmetry_equiv_pos_as_xyz
  1  'x, y, z'
loop_
 _atom_site_type_symbol
 _atom_site_label
 _atom_site_symmetry_multiplicity
 _atom_site_fract_x
 _atom_site_fract_y
 _atom_site_fract_z
 _atom_site_occupancy
  Cu  Cu0  1  0.99999000  0.50000000  0.50000000  1.0
  H  H1  1  0.11646000  0.95002000  0.91892000  1.0
  H  H2  1  0.88355000  0.04998000  0.08108000  1.0
  H  H3  1  0.30433000  0.07001000  0.72451000  1.0
  H  H4  1  0.69568000  0.92999000  0.27549000  1.0
  H  H5  1  0.25206000  0.87776000  0.54589000  1.0
  H  H6  1  0.74794000  0.12224000  0.45411000  1.0
  H  H7  1  0.85218000  0.65724000  0.92379000  1.0
  H  H8  1  0.14781000  0.34277000  0.07621000  1.0
  C  C9  1  0.75540000  0.44844000  0.72864000  1.0
  C  C10  1  0.24460000  0.55157000  0.27136000  1.0
  C  C11  1  0.91776000  0.61397000  0.73724000  1.0
  C  C12  1  0.08223000  0.38603000  0.26276000  1.0
  C  C13  1  0.08690000  0.87443000  0.83860000  1.0
  C  C14  1  0.91311000  0.12556000  0.16141000  1.0
  C  C15  1  0.19317000  0.94143000  0.73165000  1.0
  C  C16  1  0.80683000  0.05857000  0.26835000  1.0
  C  C17  1  0.16173000  0.83750000  0.63119000  1.0
  C  C18  1  0.83828000  0.16250000  0.36881000  1.0
  C  C19  1  0.94558000  0.70947000  0.84195000  1.0
  C  C20  1  0.05441000  0.29053000  0.15805000  1.0
  C  C21  1  0.62202000  0.36400000  0.82708000  1.0
  C  C22  1  0.37797000  0.63600000  0.17292000  1.0
  N  N23  1  0.71823000  0.38647000  0.62043000  1.0
  N  N24  1  0.28177000  0.61354000  0.37956000  1.0
  N  N25  1  0.03021000  0.67647000  0.63382000  1.0
  N  N26  1  0.96979000  0.32353000  0.36618000  1.0
  N  N27  1  0.51518000  0.28767000  0.90681000  1.0
  N  N28  1  0.48483000  0.71233000  0.09318000  1.0
  O  O29  1  0.53974000  0.26223000  0.60173000  1.0
  O  O30  1  0.46025000  0.73778000  0.39828000  1.0
