# generated using pymatgen
data_ZnH23C30(NO)4
_symmetry_space_group_name_H-M   'P 1'
_cell_length_a   8.51971000
_cell_length_b   16.95340000
_cell_length_c   18.21460000
_cell_angle_alpha   89.99930000
_cell_angle_beta   89.99940000
_cell_angle_gamma   93.23900000
_symmetry_Int_Tables_number   1
_chemical_formula_structural   ZnH23C30(NO)4
_chemical_formula_sum   'Zn4 H92 C120 N16 O16'
_cell_volume   2626.67859556
_cell_formula_units_Z   4
loop_
 _symmetry_equiv_pos_site_id
 _symmetry_equiv_pos_as_xyz
  1  'x, y, z'
loop_
 _atom_site_type_symbol
 _atom_site_label
 _atom_site_symmetry_multiplicity
 _atom_site_fract_x
 _atom_site_fract_y
 _atom_site_fract_z
 _atom_site_occupancy
  Zn  Zn0  1  0.86056000  0.92141000  0.18797000  1.0
  Zn  Zn1  1  0.63944000  0.57859000  0.68798000  1.0
  Zn  Zn2  1  0.13943000  0.07860000  0.81203000  1.0
  Zn  Zn3  1  0.36057000  0.42141000  0.31203000  1.0
  H  H4  1  0.29188000  0.81754000  0.08378000  1.0
  H  H5  1  0.20812000  0.68246000  0.58379000  1.0
  H  H6  1  0.70810000  0.18245000  0.91621000  1.0
  H  H7  1  0.79190000  0.31753000  0.41622000  1.0
  H  H8  1  0.15959000  0.58318000  0.16566000  1.0
  H  H9  1  0.34041000  0.91682000  0.66565000  1.0
  H  H10  1  0.84043000  0.41680000  0.83435000  1.0
  H  H11  1  0.65958000  0.08319000  0.33432000  1.0
  H  H12  1  0.60415000  0.69703000  0.22514000  1.0
  H  H13  1  0.89584000  0.80298000  0.72513000  1.0
  H  H14  1  0.39584000  0.30299000  0.77487000  1.0
  H  H15  1  0.10415000  0.19702000  0.27486000  1.0
  H  H16  1  0.83425000  0.66798000  0.06112000  1.0
  H  H17  1  0.66575000  0.83201000  0.56111000  1.0
  H  H18  1  0.16575000  0.33199000  0.93890000  1.0
  H  H19  1  0.33423000  0.16799000  0.43887000  1.0
  H  H20  1  0.91005000  0.62602000  0.14099000  1.0
  H  H21  1  0.58994000  0.87399000  0.64097000  1.0
  H  H22  1  0.08996000  0.37397000  0.85904000  1.0
  H  H23  1  0.41004000  0.12603000  0.35901000  1.0
  H  H24  1  0.15731000  0.62458000  0.97398000  1.0
  H  H25  1  0.34269000  0.87540000  0.47396000  1.0
  H  H26  1  0.84267000  0.37540000  0.02604000  1.0
  H  H27  1  0.65730000  0.12460000  0.52601000  1.0
  H  H28  1  0.79770000  0.49627000  0.09810000  1.0
  H  H29  1  0.70227000  0.00372000  0.59808000  1.0
  H  H30  1  0.20226000  0.50369000  0.90192000  1.0
  H  H31  1  0.29771000  0.99628000  0.40189000  1.0
  H  H32  1  0.87427000  0.75480000  0.22734000  1.0
  H  H33  1  0.62574000  0.74520000  0.72733000  1.0
  H  H34  1  0.12570000  0.24521000  0.77268000  1.0
  H  H35  1  0.37425000  0.25480000  0.27266000  1.0
  H  H36  1  0.04226000  0.66656000  0.29821000  1.0
  H  H37  1  0.45776000  0.83345000  0.79820000  1.0
  H  H38  1  0.95773000  0.33347000  0.70180000  1.0
  H  H39  1  0.54223000  0.16655000  0.20179000  1.0
  H  H40  1  0.37346000  0.86727000  0.32653000  1.0
  H  H41  1  0.12652000  0.63275000  0.82652000  1.0
  H  H42  1  0.62653000  0.13274000  0.67348000  1.0
  H  H43  1  0.87348000  0.36725000  0.17348000  1.0
  H  H44  1  0.18730000  0.94779000  0.25537000  1.0
  H  H45  1  0.31269000  0.55223000  0.75536000  1.0
  H  H46  1  0.81270000  0.05223000  0.74465000  1.0
  H  H47  1  0.68731000  0.44777000  0.24465000  1.0
  H  H48  1  0.43171000  0.74596000  0.38403000  1.0
  H  H49  1  0.06829000  0.75405000  0.88403000  1.0
  H  H50  1  0.56829000  0.25405000  0.61598000  1.0
  H  H51  1  0.93171000  0.24595000  0.11597000  1.0
  H  H52  1  0.15744000  0.61960000  0.39577000  1.0
  H  H53  1  0.34257000  0.88041000  0.89575000  1.0
  H  H54  1  0.84255000  0.38042000  0.60424000  1.0
  H  H55  1  0.65741000  0.11960000  0.10423000  1.0
  H  H56  1  0.17570000  0.54643000  0.51415000  1.0
  H  H57  1  0.32431000  0.95357000  0.01415000  1.0
  H  H58  1  0.82429000  0.45357000  0.48584000  1.0
  H  H59  1  0.67567000  0.04642000  0.98585000  1.0
  H  H60  1  0.33752000  0.51011000  0.62252000  1.0
  H  H61  1  0.16250000  0.98989000  0.12251000  1.0
  H  H62  1  0.66246000  0.48989000  0.37749000  1.0
  H  H63  1  0.83752000  0.01011000  0.87749000  1.0
  H  H64  1  0.73420000  0.63085000  0.54001000  1.0
  H  H65  1  0.76581000  0.86915000  0.04001000  1.0
  H  H66  1  0.26578000  0.36915000  0.46000000  1.0
  H  H67  1  0.23420000  0.13086000  0.95999000  1.0
  H  H68  1  0.59693000  0.67033000  0.42774000  1.0
  H  H69  1  0.90309000  0.82969000  0.92773000  1.0
  H  H70  1  0.40307000  0.32968000  0.57227000  1.0
  H  H71  1  0.09689000  0.17032000  0.07226000  1.0
  H  H72  1  0.04410000  0.75502000  0.05535000  1.0
  H  H73  1  0.45590000  0.74497000  0.55536000  1.0
  H  H74  1  0.95588000  0.24495000  0.94465000  1.0
  H  H75  1  0.54410000  0.25503000  0.44464000  1.0
  H  H76  1  0.94097000  0.71449000  0.48730000  1.0
  H  H77  1  0.55904000  0.78551000  0.98729000  1.0
  H  H78  1  0.05901000  0.28551000  0.51271000  1.0
  H  H79  1  0.44100000  0.21449000  0.01269000  1.0
  H  H80  1  0.04070000  0.84587000  0.52976000  1.0
  H  H81  1  0.45932000  0.65411000  0.02974000  1.0
  H  H82  1  0.95931000  0.15412000  0.47024000  1.0
  H  H83  1  0.54069000  0.34588000  0.97023000  1.0
  H  H84  1  0.65957000  0.81080000  0.32870000  1.0
  H  H85  1  0.84050000  0.68919000  0.82871000  1.0
  H  H86  1  0.34042000  0.18920000  0.67131000  1.0
  H  H87  1  0.15960000  0.31078000  0.17129000  1.0
  H  H88  1  0.90381000  0.03604000  0.43790000  1.0
  H  H89  1  0.59622000  0.46394000  0.93788000  1.0
  H  H90  1  0.09620000  0.96395000  0.56212000  1.0
  H  H91  1  0.40380000  0.53604000  0.06209000  1.0
  H  H92  1  0.74514000  0.94762000  0.36519000  1.0
  H  H93  1  0.75494000  0.55237000  0.86520000  1.0
  H  H94  1  0.25486000  0.05239000  0.63482000  1.0
  H  H95  1  0.24510000  0.44761000  0.13479000  1.0
  C  C96  1  0.57063000  0.83648000  0.14670000  1.0
  C  C97  1  0.92936000  0.66353000  0.64670000  1.0
  C  C98  1  0.42935000  0.16353000  0.85330000  1.0
  C  C99  1  0.07065000  0.33647000  0.35330000  1.0
  C  C100  1  0.45839000  0.76472000  0.15319000  1.0
  C  C101  1  0.04160000  0.73528000  0.65319000  1.0
  C  C102  1  0.54159000  0.23528000  0.84681000  1.0
  C  C103  1  0.95841000  0.26472000  0.34681000  1.0
  C  C104  1  0.31618000  0.76524000  0.11557000  1.0
  C  C105  1  0.18382000  0.73476000  0.61557000  1.0
  C  C106  1  0.68381000  0.23475000  0.88443000  1.0
  C  C107  1  0.81619000  0.26524000  0.38443000  1.0
  C  C108  1  0.20487000  0.70062000  0.11884000  1.0
  C  C109  1  0.29513000  0.79938000  0.61884000  1.0
  C  C110  1  0.79513000  0.29937000  0.88116000  1.0
  C  C111  1  0.70486000  0.20063000  0.38115000  1.0
  C  C112  1  0.24193000  0.63434000  0.16082000  1.0
  C  C113  1  0.25807000  0.86566000  0.66082000  1.0
  C  C114  1  0.75808000  0.36565000  0.83919000  1.0
  C  C115  1  0.74193000  0.13434000  0.33918000  1.0
  C  C116  1  0.38500000  0.63382000  0.19879000  1.0
  C  C117  1  0.11499000  0.86619000  0.69878000  1.0
  C  C118  1  0.61501000  0.36618000  0.80122000  1.0
  C  C119  1  0.88501000  0.13382000  0.30121000  1.0
  C  C120  1  0.49397000  0.69863000  0.19515000  1.0
  C  C121  1  0.00601000  0.80138000  0.69515000  1.0
  C  C122  1  0.50602000  0.30138000  0.80486000  1.0
  C  C123  1  0.99399000  0.19862000  0.30485000  1.0
  C  C124  1  0.41994000  0.56395000  0.24568000  1.0
  C  C125  1  0.08006000  0.93606000  0.74568000  1.0
  C  C126  1  0.58008000  0.43606000  0.75433000  1.0
  C  C127  1  0.91994000  0.06395000  0.25431000  1.0
  C  C128  1  0.94028000  0.64288000  0.08389000  1.0
  C  C129  1  0.55972000  0.85712000  0.58387000  1.0
  C  C130  1  0.05972000  0.35710000  0.91614000  1.0
  C  C131  1  0.44026000  0.14289000  0.41611000  1.0
  C  C132  1  0.97479000  0.56884000  0.04111000  1.0
  C  C133  1  0.52520000  0.93115000  0.54108000  1.0
  C  C134  1  0.02518000  0.43114000  0.95891000  1.0
  C  C135  1  0.47479000  0.06885000  0.45888000  1.0
  C  C136  1  0.08744000  0.56996000  0.98523000  1.0
  C  C137  1  0.41257000  0.93002000  0.48519000  1.0
  C  C138  1  0.91254000  0.43001000  0.01480000  1.0
  C  C139  1  0.58743000  0.06998000  0.51477000  1.0
  C  C140  1  0.88804000  0.49795000  0.05549000  1.0
  C  C141  1  0.61193000  0.00204000  0.55546000  1.0
  C  C142  1  0.11192000  0.50202000  0.94454000  1.0
  C  C143  1  0.38806000  0.99796000  0.44450000  1.0
  C  C144  1  0.98639000  0.77665000  0.25037000  1.0
  C  C145  1  0.51362000  0.72335000  0.75036000  1.0
  C  C146  1  0.01359000  0.22337000  0.74965000  1.0
  C  C147  1  0.48638000  0.27664000  0.24964000  1.0
  C  C148  1  0.08057000  0.72826000  0.29007000  1.0
  C  C149  1  0.41944000  0.77175000  0.79006000  1.0
  C  C150  1  0.91942000  0.27177000  0.70994000  1.0
  C  C151  1  0.58057000  0.22825000  0.20994000  1.0
  C  C152  1  0.22129000  0.76024000  0.32084000  1.0
  C  C153  1  0.27871000  0.73977000  0.82082000  1.0
  C  C154  1  0.77870000  0.23978000  0.67918000  1.0
  C  C155  1  0.72129000  0.26023000  0.17917000  1.0
  C  C156  1  0.26356000  0.83998000  0.30555000  1.0
  C  C157  1  0.23642000  0.66004000  0.80553000  1.0
  C  C158  1  0.73643000  0.16004000  0.69447000  1.0
  C  C159  1  0.76357000  0.33997000  0.19446000  1.0
  C  C160  1  0.16243000  0.88496000  0.26584000  1.0
  C  C161  1  0.33757000  0.61505000  0.76583000  1.0
  C  C162  1  0.83756000  0.11506000  0.73418000  1.0
  C  C163  1  0.66243000  0.38495000  0.23417000  1.0
  C  C164  1  0.31804000  0.71666000  0.37024000  1.0
  C  C165  1  0.18197000  0.78335000  0.87024000  1.0
  C  C166  1  0.68196000  0.28335000  0.62976000  1.0
  C  C167  1  0.81803000  0.21666000  0.12975000  1.0
  C  C168  1  0.27349000  0.64855000  0.40515000  1.0
  C  C169  1  0.22653000  0.85146000  0.90515000  1.0
  C  C170  1  0.72651000  0.35146000  0.59485000  1.0
  C  C171  1  0.77346000  0.14855000  0.09485000  1.0
  C  C172  1  0.36853000  0.61583000  0.46270000  1.0
  C  C173  1  0.13148000  0.88418000  0.96269000  1.0
  C  C174  1  0.63146000  0.38418000  0.53731000  1.0
  C  C175  1  0.86851000  0.11582000  0.03730000  1.0
  C  C176  1  0.29939000  0.56636000  0.51716000  1.0
  C  C177  1  0.20062000  0.93365000  0.01715000  1.0
  C  C178  1  0.70060000  0.43365000  0.48285000  1.0
  C  C179  1  0.79935000  0.06635000  0.98285000  1.0
  C  C180  1  0.38723000  0.54673000  0.57811000  1.0
  C  C181  1  0.11279000  0.95326000  0.07811000  1.0
  C  C182  1  0.61276000  0.45327000  0.42189000  1.0
  C  C183  1  0.88721000  0.04673000  0.92189000  1.0
  C  C184  1  0.60946000  0.61526000  0.53207000  1.0
  C  C185  1  0.89055000  0.88474000  0.03206000  1.0
  C  C186  1  0.39053000  0.38474000  0.46794000  1.0
  C  C187  1  0.10945000  0.11526000  0.96793000  1.0
  C  C188  1  0.53018000  0.63695000  0.46971000  1.0
  C  C189  1  0.96983000  0.86306000  0.96970000  1.0
  C  C190  1  0.46982000  0.36305000  0.53030000  1.0
  C  C191  1  0.03015000  0.13694000  0.03029000  1.0
  C  C192  1  0.89872000  0.76753000  0.46143000  1.0
  C  C193  1  0.60132000  0.73247000  0.96142000  1.0
  C  C194  1  0.10128000  0.23247000  0.53858000  1.0
  C  C195  1  0.39873000  0.26752000  0.03856000  1.0
  C  C196  1  0.95514000  0.84171000  0.48526000  1.0
  C  C197  1  0.54490000  0.65828000  0.98525000  1.0
  C  C198  1  0.04486000  0.15828000  0.51475000  1.0
  C  C199  1  0.45514000  0.34170000  0.01473000  1.0
  C  C200  1  0.90056000  0.90962000  0.45126000  1.0
  C  C201  1  0.59949000  0.59037000  0.95125000  1.0
  C  C202  1  0.09946000  0.09038000  0.54875000  1.0
  C  C203  1  0.40055000  0.40961000  0.04873000  1.0
  C  C204  1  0.74132000  0.82081000  0.37449000  1.0
  C  C205  1  0.75874000  0.67918000  0.87449000  1.0
  C  C206  1  0.25869000  0.17919000  0.62552000  1.0
  C  C207  1  0.24133000  0.32080000  0.12550000  1.0
  C  C208  1  0.95137000  0.98989000  0.47185000  1.0
  C  C209  1  0.54867000  0.51010000  0.97184000  1.0
  C  C210  1  0.04866000  0.01010000  0.52816000  1.0
  C  C211  1  0.45135000  0.48989000  0.02814000  1.0
  C  C212  1  0.79032000  0.89749000  0.39435000  1.0
  C  C213  1  0.70974000  0.60250000  0.89435000  1.0
  C  C214  1  0.20970000  0.10251000  0.60565000  1.0
  C  C215  1  0.29030000  0.39748000  0.10563000  1.0
  N  N216  1  0.06395000  0.70455000  0.08272000  1.0
  N  N217  1  0.43605000  0.79544000  0.58273000  1.0
  N  N218  1  0.93604000  0.29543000  0.91728000  1.0
  N  N219  1  0.56394000  0.20456000  0.41726000  1.0
  N  N220  1  0.02411000  0.85416000  0.23959000  1.0
  N  N221  1  0.47589000  0.64584000  0.73959000  1.0
  N  N222  1  0.97588000  0.14586000  0.76042000  1.0
  N  N223  1  0.52410000  0.35415000  0.26041000  1.0
  N  N224  1  0.53866000  0.57271000  0.58682000  1.0
  N  N225  1  0.96135000  0.92728000  0.08682000  1.0
  N  N226  1  0.46133000  0.42728000  0.41318000  1.0
  N  N227  1  0.03864000  0.07272000  0.91318000  1.0
  N  N228  1  0.79303000  0.75599000  0.40694000  1.0
  N  N229  1  0.70703000  0.74401000  0.90694000  1.0
  N  N230  1  0.20697000  0.24402000  0.59307000  1.0
  N  N231  1  0.29304000  0.25598000  0.09305000  1.0
  O  O232  1  0.69161000  0.83651000  0.19027000  1.0
  O  O233  1  0.80838000  0.66349000  0.69028000  1.0
  O  O234  1  0.30836000  0.16350000  0.80973000  1.0
  O  O235  1  0.19162000  0.33651000  0.30972000  1.0
  O  O236  1  0.54574000  0.88959000  0.10115000  1.0
  O  O237  1  0.95426000  0.61042000  0.60115000  1.0
  O  O238  1  0.45424000  0.11041000  0.89884000  1.0
  O  O239  1  0.04577000  0.38958000  0.39885000  1.0
  O  O240  1  0.55374000  0.55724000  0.27263000  1.0
  O  O241  1  0.94626000  0.94278000  0.77262000  1.0
  O  O242  1  0.44629000  0.44278000  0.72739000  1.0
  O  O243  1  0.05374000  0.05724000  0.22736000  1.0
  O  O244  1  0.30151000  0.51267000  0.25558000  1.0
  O  O245  1  0.19850000  0.98734000  0.75557000  1.0
  O  O246  1  0.69853000  0.48733000  0.74443000  1.0
  O  O247  1  0.80150000  0.01268000  0.24441000  1.0
