# generated using pymatgen
data_UH8C10NO7
_symmetry_space_group_name_H-M   'P 1'
_cell_length_a   10.08350000
_cell_length_b   10.48380000
_cell_length_c   12.13190000
_cell_angle_alpha   75.28700000
_cell_angle_beta   89.99950000
_cell_angle_gamma   89.99980000
_symmetry_Int_Tables_number   1
_chemical_formula_structural   UH8C10NO7
_chemical_formula_sum   'U4 H32 C40 N4 O28'
_cell_volume   1240.45124151
_cell_formula_units_Z   4
loop_
 _symmetry_equiv_pos_site_id
 _symmetry_equiv_pos_as_xyz
  1  'x, y, z'
loop_
 _atom_site_type_symbol
 _atom_site_label
 _atom_site_symmetry_multiplicity
 _atom_site_fract_x
 _atom_site_fract_y
 _atom_site_fract_z
 _atom_site_occupancy
  U  U0  1  0.46964000  0.73885000  0.84194000  1.0
  U  U1  1  0.96964000  0.76115000  0.65805000  1.0
  U  U2  1  0.53037000  0.26117000  0.15806000  1.0
  U  U3  1  0.03035000  0.23885000  0.34194000  1.0
  H  H4  1  0.54353000  0.72627000  0.60220000  1.0
  H  H5  1  0.04353000  0.77372000  0.89780000  1.0
  H  H6  1  0.45647000  0.27373000  0.39780000  1.0
  H  H7  1  0.95646000  0.22627000  0.10221000  1.0
  H  H8  1  0.65552000  0.81315000  0.65268000  1.0
  H  H9  1  0.15553000  0.68684000  0.84732000  1.0
  H  H10  1  0.34448000  0.18684000  0.34732000  1.0
  H  H11  1  0.84448000  0.31316000  0.15268000  1.0
  H  H12  1  0.05085000  0.32571000  0.61732000  1.0
  H  H13  1  0.55086000  0.17429000  0.88268000  1.0
  H  H14  1  0.94913000  0.67429000  0.38268000  1.0
  H  H15  1  0.44914000  0.82572000  0.11732000  1.0
  H  H16  1  0.11427000  0.45638000  0.75350000  1.0
  H  H17  1  0.61428000  0.04361000  0.74649000  1.0
  H  H18  1  0.88571000  0.54362000  0.24649000  1.0
  H  H19  1  0.38572000  0.95639000  0.25351000  1.0
  H  H20  1  0.25263000  0.35272000  0.92355000  1.0
  H  H21  1  0.75264000  0.14726000  0.57645000  1.0
  H  H22  1  0.74735000  0.64729000  0.07644000  1.0
  H  H23  1  0.24735000  0.85272000  0.42355000  1.0
  H  H24  1  0.33383000  0.12368000  0.95010000  1.0
  H  H25  1  0.83383000  0.37631000  0.54989000  1.0
  H  H26  1  0.66618000  0.87633000  0.04990000  1.0
  H  H27  1  0.16616000  0.62368000  0.45009000  1.0
  H  H28  1  0.37907000  0.52233000  0.66792000  1.0
  H  H29  1  0.87907000  0.97766000  0.83209000  1.0
  H  H30  1  0.62092000  0.47766000  0.33208000  1.0
  H  H31  1  0.12094000  0.02233000  0.16792000  1.0
  H  H32  1  0.63904000  0.68426000  0.40349000  1.0
  H  H33  1  0.13904000  0.81574000  0.09651000  1.0
  H  H34  1  0.36095000  0.31574000  0.59652000  1.0
  H  H35  1  0.86094000  0.18424000  0.90350000  1.0
  C  C36  1  0.31158000  0.96817000  0.81190000  1.0
  C  C37  1  0.81158000  0.53182000  0.68809000  1.0
  C  C38  1  0.68842000  0.03183000  0.18809000  1.0
  C  C39  1  0.18842000  0.46817000  0.31191000  1.0
  C  C40  1  0.24085000  0.09607000  0.79803000  1.0
  C  C41  1  0.74085000  0.40392000  0.70196000  1.0
  C  C42  1  0.75916000  0.90393000  0.20197000  1.0
  C  C43  1  0.25915000  0.59608000  0.29803000  1.0
  C  C44  1  0.15730000  0.15217000  0.70470000  1.0
  C  C45  1  0.65731000  0.34782000  0.79530000  1.0
  C  C46  1  0.84270000  0.84784000  0.29531000  1.0
  C  C47  1  0.34269000  0.65218000  0.20469000  1.0
  C  C48  1  0.10160000  0.07476000  0.62777000  1.0
  C  C49  1  0.60160000  0.42524000  0.87222000  1.0
  C  C50  1  0.89841000  0.92525000  0.37223000  1.0
  C  C51  1  0.39841000  0.57476000  0.12777000  1.0
  C  C52  1  0.11379000  0.28242000  0.68998000  1.0
  C  C53  1  0.61379000  0.21758000  0.81001000  1.0
  C  C54  1  0.88621000  0.71759000  0.31002000  1.0
  C  C55  1  0.38621000  0.78243000  0.18998000  1.0
  C  C56  1  0.14872000  0.35523000  0.76718000  1.0
  C  C57  1  0.64873000  0.14476000  0.73281000  1.0
  C  C58  1  0.85128000  0.64477000  0.23281000  1.0
  C  C59  1  0.35128000  0.85524000  0.26719000  1.0
  C  C60  1  0.22658000  0.29755000  0.86168000  1.0
  C  C61  1  0.72659000  0.20244000  0.63831000  1.0
  C  C62  1  0.77341000  0.70246000  0.13832000  1.0
  C  C63  1  0.27342000  0.79755000  0.36169000  1.0
  C  C64  1  0.27220000  0.16852000  0.87673000  1.0
  C  C65  1  0.77221000  0.33147000  0.62326000  1.0
  C  C66  1  0.72779000  0.83148000  0.12328000  1.0
  C  C67  1  0.22779000  0.66852000  0.37673000  1.0
  C  C68  1  0.43363000  0.51158000  0.59311000  1.0
  C  C69  1  0.93363000  0.98841000  0.90690000  1.0
  C  C70  1  0.56636000  0.48841000  0.40690000  1.0
  C  C71  1  0.06637000  0.01158000  0.09310000  1.0
  C  C72  1  0.57649000  0.60190000  0.44631000  1.0
  C  C73  1  0.07650000  0.89810000  0.05370000  1.0
  C  C74  1  0.42350000  0.39809000  0.55369000  1.0
  C  C75  1  0.92350000  0.10190000  0.94631000  1.0
  N  N76  1  0.51017000  0.61286000  0.53908000  1.0
  N  N77  1  0.01016000  0.88713000  0.96093000  1.0
  N  N78  1  0.48983000  0.38714000  0.46093000  1.0
  N  N79  1  0.98983000  0.11286000  0.03908000  1.0
  O  O80  1  0.37173000  0.94288000  0.72735000  1.0
  O  O81  1  0.87174000  0.55712000  0.77264000  1.0
  O  O82  1  0.62827000  0.05714000  0.27264000  1.0
  O  O83  1  0.12827000  0.44288000  0.22735000  1.0
  O  O84  1  0.32225000  0.88777000  0.91094000  1.0
  O  O85  1  0.82223000  0.61224000  0.58906000  1.0
  O  O86  1  0.67777000  0.11226000  0.08907000  1.0
  O  O87  1  0.17777000  0.38775000  0.41093000  1.0
  O  O88  1  0.09431000  0.95011000  0.66278000  1.0
  O  O89  1  0.59431000  0.54989000  0.83722000  1.0
  O  O90  1  0.90568000  0.04989000  0.33723000  1.0
  O  O91  1  0.40569000  0.45011000  0.16278000  1.0
  O  O92  1  0.05576000  0.13817000  0.53127000  1.0
  O  O93  1  0.55576000  0.36183000  0.96873000  1.0
  O  O94  1  0.94425000  0.86182000  0.46873000  1.0
  O  O95  1  0.44425000  0.63818000  0.03127000  1.0
  O  O96  1  0.56083000  0.78861000  0.65432000  1.0
  O  O97  1  0.06083000  0.71139000  0.84569000  1.0
  O  O98  1  0.43917000  0.21139000  0.34568000  1.0
  O  O99  1  0.93917000  0.28861000  0.15432000  1.0
  O  O100  1  0.61218000  0.82625000  0.87651000  1.0
  O  O101  1  0.11215000  0.67374000  0.62346000  1.0
  O  O102  1  0.38785000  0.17374000  0.12347000  1.0
  O  O103  1  0.88784000  0.32627000  0.37653000  1.0
  O  O104  1  0.32419000  0.65054000  0.81021000  1.0
  O  O105  1  0.82418000  0.84946000  0.68980000  1.0
  O  O106  1  0.67582000  0.34947000  0.18980000  1.0
  O  O107  1  0.17581000  0.15054000  0.31021000  1.0
