# generated using pymatgen
data_LaH29C33NO11
_symmetry_space_group_name_H-M   'P 1'
_cell_length_a   9.45937000
_cell_length_b   12.13143243
_cell_length_c   16.09780000
_cell_angle_alpha   91.34575139
_cell_angle_beta   100.03730000
_cell_angle_gamma   112.94072175
_symmetry_Int_Tables_number   1
_chemical_formula_structural   LaH29C33NO11
_chemical_formula_sum   'La2 H58 C66 N2 O22'
_cell_volume   1666.63536549
_cell_formula_units_Z   2
loop_
 _symmetry_equiv_pos_site_id
 _symmetry_equiv_pos_as_xyz
  1  'x, y, z'
loop_
 _atom_site_type_symbol
 _atom_site_label
 _atom_site_symmetry_multiplicity
 _atom_site_fract_x
 _atom_site_fract_y
 _atom_site_fract_z
 _atom_site_occupancy
  La  La0  1  0.77134000  0.95745000  0.51056000  1.0
  La  La1  1  0.22866000  0.04255000  0.48945000  1.0
  H  H2  1  0.10174000  0.78331000  0.35627000  1.0
  H  H3  1  0.89826000  0.21670000  0.64372000  1.0
  H  H4  1  0.12155000  0.61920000  0.26798000  1.0
  H  H5  1  0.87844000  0.38079000  0.73202000  1.0
  H  H6  1  0.89443000  0.42608000  0.22675000  1.0
  H  H7  1  0.10558000  0.57392000  0.77326000  1.0
  H  H8  1  0.63986000  0.39536000  0.26977000  1.0
  H  H9  1  0.36013000  0.60463000  0.73024000  1.0
  H  H10  1  0.62322000  0.55640000  0.36064000  1.0
  H  H11  1  0.37678000  0.44360000  0.63937000  1.0
  H  H12  1  0.64248000  0.94151000  0.21506000  1.0
  H  H13  1  0.35753000  0.05847000  0.78494000  1.0
  H  H14  1  0.47992000  0.26830000  0.66547000  1.0
  H  H15  1  0.52007000  0.73171000  0.33452000  1.0
  H  H16  1  0.51970000  0.37763000  0.80597000  1.0
  H  H17  1  0.48028000  0.62238000  0.19402000  1.0
  H  H18  1  0.67418000  0.33498000  0.93385000  1.0
  H  H19  1  0.32582000  0.66504000  0.06614000  1.0
  H  H20  1  0.78421000  0.18135000  0.92113000  1.0
  H  H21  1  0.21580000  0.81867000  0.07886000  1.0
  H  H22  1  0.74841000  0.07505000  0.77908000  1.0
  H  H23  1  0.25160000  0.92497000  0.22091000  1.0
  H  H24  1  0.59273000  0.93311000  0.05731000  1.0
  H  H25  1  0.40727000  0.06687000  0.94270000  1.0
  H  H26  1  0.08851000  0.12054000  0.06768000  1.0
  H  H27  1  0.91149000  0.87947000  0.93233000  1.0
  H  H28  1  0.13654000  0.12535000  0.22543000  1.0
  H  H29  1  0.86347000  0.87465000  0.77458000  1.0
  H  H30  1  0.81721000  0.02184000  0.98373000  1.0
  H  H31  1  0.18280000  0.97816000  0.01628000  1.0
  H  H32  1  0.65641000  0.11621000  0.39519000  1.0
  H  H33  1  0.34360000  0.88379000  0.60481000  1.0
  H  H34  1  0.61182000  0.13395000  0.48374000  1.0
  H  H35  1  0.38818000  0.86605000  0.51626000  1.0
  H  H36  1  0.62812000  0.83655000  0.65331000  1.0
  H  H37  1  0.37188000  0.16346000  0.34670000  1.0
  H  H38  1  0.60223000  0.71598000  0.60108000  1.0
  H  H39  1  0.39776000  0.28402000  0.39893000  1.0
  H  H40  1  0.11570000  0.26816000  0.37143000  1.0
  H  H41  1  0.88431000  0.73185000  0.62857000  1.0
  H  H42  1  0.90877000  0.30212000  0.43071000  1.0
  H  H43  1  0.09123000  0.69788000  0.56929000  1.0
  H  H44  1  0.44069000  0.61451000  0.45567000  1.0
  H  H45  1  0.55932000  0.38549000  0.54434000  1.0
  H  H46  1  0.24785000  0.66607000  0.51764000  1.0
  H  H47  1  0.75215000  0.33394000  0.48236000  1.0
  H  H48  1  0.35516000  0.38903000  0.28544000  1.0
  H  H49  1  0.64485000  0.61098000  0.71456000  1.0
  H  H50  1  0.01490000  0.40331000  0.89582000  1.0
  H  H51  1  0.98508000  0.59667000  0.10418000  1.0
  H  H52  1  0.02381000  0.41760000  0.05256000  1.0
  H  H53  1  0.97618000  0.58238000  0.94743000  1.0
  H  H54  1  0.43698000  0.34240000  0.09536000  1.0
  H  H55  1  0.56306000  0.65764000  0.90463000  1.0
  H  H56  1  0.21405000  0.35389000  0.84006000  1.0
  H  H57  1  0.78593000  0.64609000  0.15993000  1.0
  H  H58  1  0.42443000  0.32235000  0.93958000  1.0
  H  H59  1  0.57557000  0.67766000  0.06041000  1.0
  C  C60  1  0.00201000  0.69762000  0.33767000  1.0
  C  C61  1  0.99798000  0.30238000  0.66233000  1.0
  C  C62  1  0.01235000  0.60650000  0.28788000  1.0
  C  C63  1  0.98766000  0.39351000  0.71212000  1.0
  C  C64  1  0.88308000  0.49692000  0.26439000  1.0
  C  C65  1  0.11692000  0.50308000  0.73561000  1.0
  C  C66  1  0.74208000  0.47972000  0.28922000  1.0
  C  C67  1  0.25792000  0.52028000  0.71078000  1.0
  C  C68  1  0.73131000  0.57053000  0.33912000  1.0
  C  C69  1  0.26869000  0.42947000  0.66089000  1.0
  C  C70  1  0.86211000  0.67939000  0.36474000  1.0
  C  C71  1  0.13789000  0.32061000  0.63525000  1.0
  C  C72  1  0.92251000  0.03610000  0.32448000  1.0
  C  C73  1  0.07749000  0.96389000  0.67552000  1.0
  C  C74  1  0.73912000  0.98016000  0.18210000  1.0
  C  C75  1  0.26088000  0.01982000  0.81790000  1.0
  C  C76  1  0.89239000  0.03318000  0.22974000  1.0
  C  C77  1  0.10762000  0.96681000  0.77027000  1.0
  C  C78  1  0.59650000  0.10575000  0.62878000  1.0
  C  C79  1  0.40349000  0.89425000  0.37121000  1.0
  C  C80  1  0.61207000  0.16537000  0.71396000  1.0
  C  C81  1  0.38793000  0.83464000  0.28603000  1.0
  C  C82  1  0.54733000  0.25049000  0.72164000  1.0
  C  C83  1  0.45265000  0.74951000  0.27836000  1.0
  C  C84  1  0.56905000  0.31077000  0.80062000  1.0
  C  C85  1  0.43094000  0.68924000  0.19938000  1.0
  C  C86  1  0.65447000  0.28600000  0.87229000  1.0
  C  C87  1  0.34552000  0.71401000  0.12771000  1.0
  C  C88  1  0.71698000  0.19981000  0.86513000  1.0
  C  C89  1  0.28303000  0.80020000  0.13487000  1.0
  C  C90  1  0.69669000  0.13999000  0.78616000  1.0
  C  C91  1  0.30331000  0.86002000  0.21384000  1.0
  C  C92  1  0.71216000  0.97592000  0.09390000  1.0
  C  C93  1  0.28784000  0.02406000  0.90610000  1.0
  C  C94  1  0.99093000  0.07996000  0.09984000  1.0
  C  C95  1  0.00908000  0.92004000  0.90016000  1.0
  C  C96  1  0.01800000  0.08309000  0.18792000  1.0
  C  C97  1  0.98201000  0.91691000  0.81209000  1.0
  C  C98  1  0.85188000  0.77102000  0.42374000  1.0
  C  C99  1  0.14812000  0.22898000  0.57626000  1.0
  C  C100  1  0.83793000  0.02565000  0.05274000  1.0
  C  C101  1  0.16207000  0.97434000  0.94726000  1.0
  C  C102  1  0.13490000  0.35414000  0.40345000  1.0
  C  C103  1  0.86510000  0.64586000  0.59655000  1.0
  C  C104  1  0.02284000  0.37611000  0.43705000  1.0
  C  C105  1  0.97716000  0.62389000  0.56295000  1.0
  C  C106  1  0.32048000  0.55118000  0.45241000  1.0
  C  C107  1  0.67953000  0.44883000  0.54760000  1.0
  C  C108  1  0.05827000  0.48816000  0.48075000  1.0
  C  C109  1  0.94174000  0.51185000  0.51925000  1.0
  C  C110  1  0.21079000  0.57611000  0.48637000  1.0
  C  C111  1  0.78921000  0.42389000  0.51364000  1.0
  C  C112  1  0.23025000  0.38049000  0.08301000  1.0
  C  C113  1  0.76976000  0.61951000  0.91698000  1.0
  C  C114  1  0.23261000  0.39026000  0.17559000  1.0
  C  C115  1  0.76736000  0.60974000  0.82441000  1.0
  C  C116  1  0.10676000  0.38948000  0.93968000  1.0
  C  C117  1  0.89321000  0.61049000  0.06032000  1.0
  C  C118  1  0.11149000  0.39794000  0.02668000  1.0
  C  C119  1  0.88850000  0.60205000  0.97331000  1.0
  C  C120  1  0.34398000  0.35438000  0.05127000  1.0
  C  C121  1  0.65602000  0.64562000  0.94872000  1.0
  C  C122  1  0.21901000  0.36159000  0.90820000  1.0
  C  C123  1  0.78097000  0.63839000  0.09179000  1.0
  C  C124  1  0.33728000  0.34416000  0.96413000  1.0
  C  C125  1  0.66273000  0.65585000  0.03586000  1.0
  N  N126  1  0.28203000  0.44041000  0.41279000  1.0
  N  N127  1  0.71798000  0.55960000  0.58722000  1.0
  O  O128  1  0.66971000  0.03819000  0.62257000  1.0
  O  O129  1  0.33029000  0.96182000  0.37742000  1.0
  O  O130  1  0.51322000  0.12739000  0.56453000  1.0
  O  O131  1  0.48678000  0.87262000  0.43547000  1.0
  O  O132  1  0.72132000  0.75244000  0.44516000  1.0
  O  O133  1  0.27868000  0.24756000  0.55485000  1.0
  O  O134  1  0.80585000  0.00056000  0.36127000  1.0
  O  O135  1  0.19416000  0.99943000  0.63873000  1.0
  O  O136  1  0.06572000  0.07569000  0.36334000  1.0
  O  O137  1  0.93429000  0.92431000  0.63667000  1.0
  O  O138  1  0.97392000  0.86730000  0.45377000  1.0
  O  O139  1  0.02608000  0.13270000  0.54624000  1.0
  O  O140  1  0.69931000  0.13580000  0.45572000  1.0
  O  O141  1  0.30069000  0.86420000  0.54428000  1.0
  O  O142  1  0.59032000  0.79455000  0.59643000  1.0
  O  O143  1  0.40968000  0.20545000  0.40358000  1.0
  O  O144  1  0.39177000  0.41679000  0.38375000  1.0
  O  O145  1  0.60825000  0.58322000  0.61625000  1.0
  O  O146  1  0.35125000  0.37057000  0.22239000  1.0
  O  O147  1  0.64875000  0.62942000  0.77760000  1.0
  O  O148  1  0.13723000  0.41496000  0.20675000  1.0
  O  O149  1  0.86277000  0.58505000  0.79324000  1.0
