# generated using pymatgen
data_KH12C15NO5
_symmetry_space_group_name_H-M   'P 1'
_cell_length_a   7.02655000
_cell_length_b   13.19450000
_cell_length_c   14.95610000
_cell_angle_alpha   90.00040000
_cell_angle_beta   89.99960000
_cell_angle_gamma   89.99990000
_symmetry_Int_Tables_number   1
_chemical_formula_structural   KH12C15NO5
_chemical_formula_sum   'K4 H48 C60 N4 O20'
_cell_volume   1386.60716092
_cell_formula_units_Z   4
loop_
 _symmetry_equiv_pos_site_id
 _symmetry_equiv_pos_as_xyz
  1  'x, y, z'
loop_
 _atom_site_type_symbol
 _atom_site_label
 _atom_site_symmetry_multiplicity
 _atom_site_fract_x
 _atom_site_fract_y
 _atom_site_fract_z
 _atom_site_occupancy
  K  K0  1  0.21204000  0.69720000  0.58079000  1.0
  K  K1  1  0.28797000  0.30280000  0.08079000  1.0
  K  K2  1  0.78797000  0.19720000  0.91921000  1.0
  K  K3  1  0.71204000  0.80280000  0.41921000  1.0
  H  H4  1  0.32888000  0.17760000  0.24079000  1.0
  H  H5  1  0.17110000  0.82240000  0.74079000  1.0
  H  H6  1  0.67112000  0.67760000  0.25921000  1.0
  H  H7  1  0.82890000  0.32239000  0.75921000  1.0
  H  H8  1  0.31298000  0.00536000  0.30871000  1.0
  H  H9  1  0.18701000  0.99464000  0.80871000  1.0
  H  H10  1  0.68702000  0.50536000  0.19129000  1.0
  H  H11  1  0.81300000  0.49464000  0.69130000  1.0
  H  H12  1  0.30117000  0.98615000  0.47362000  1.0
  H  H13  1  0.19882000  0.01385000  0.97362000  1.0
  H  H14  1  0.69882000  0.48615000  0.02638000  1.0
  H  H15  1  0.80119000  0.51385000  0.52638000  1.0
  H  H16  1  0.28716000  0.06247000  0.62349000  1.0
  H  H17  1  0.21285000  0.93753000  0.12349000  1.0
  H  H18  1  0.71283000  0.56247000  0.87651000  1.0
  H  H19  1  0.78717000  0.43753000  0.37651000  1.0
  H  H20  1  0.29359000  0.21547000  0.72075000  1.0
  H  H21  1  0.20642000  0.78454000  0.22075000  1.0
  H  H22  1  0.70640000  0.71546000  0.77925000  1.0
  H  H23  1  0.79359000  0.28453000  0.27925000  1.0
  H  H24  1  0.29598000  0.38909000  0.65031000  1.0
  H  H25  1  0.20402000  0.61091000  0.15031000  1.0
  H  H26  1  0.70400000  0.88909000  0.84969000  1.0
  H  H27  1  0.79598000  0.11091000  0.34969000  1.0
  H  H28  1  0.36777000  0.53396000  0.27762000  1.0
  H  H29  1  0.13223000  0.46604000  0.77762000  1.0
  H  H30  1  0.63223000  0.03397000  0.22238000  1.0
  H  H31  1  0.86777000  0.96603000  0.72237000  1.0
  H  H32  1  0.02178000  0.52281000  0.28923000  1.0
  H  H33  1  0.47822000  0.47720000  0.78923000  1.0
  H  H34  1  0.97822000  0.02280000  0.21076000  1.0
  H  H35  1  0.52178000  0.97720000  0.71077000  1.0
  H  H36  1  0.08932000  0.65158000  0.30375000  1.0
  H  H37  1  0.41069000  0.34843000  0.80375000  1.0
  H  H38  1  0.91069000  0.15157000  0.19625000  1.0
  H  H39  1  0.58931000  0.84843000  0.69625000  1.0
  H  H40  1  0.02324000  0.57832000  0.39805000  1.0
  H  H41  1  0.47676000  0.42169000  0.89806000  1.0
  H  H42  1  0.97676000  0.07831000  0.10194000  1.0
  H  H43  1  0.52324000  0.92169000  0.60194000  1.0
  H  H44  1  0.68503000  0.71146000  0.60803000  1.0
  H  H45  1  0.81497000  0.28854000  0.10803000  1.0
  H  H46  1  0.31497000  0.21146000  0.89197000  1.0
  H  H47  1  0.18503000  0.78854000  0.39197000  1.0
  H  H48  1  0.59415000  0.62593000  0.54976000  1.0
  H  H49  1  0.90586000  0.37407000  0.04977000  1.0
  H  H50  1  0.40586000  0.12593000  0.95023000  1.0
  H  H51  1  0.09414000  0.87407000  0.45023000  1.0
  C  C52  1  0.33051000  0.35752000  0.32653000  1.0
  C  C53  1  0.16948000  0.64248000  0.82654000  1.0
  C  C54  1  0.66949000  0.85752000  0.17347000  1.0
  C  C55  1  0.83052000  0.14248000  0.67346000  1.0
  C  C56  1  0.31904000  0.25584000  0.36680000  1.0
  C  C57  1  0.18094000  0.74416000  0.86680000  1.0
  C  C58  1  0.68095000  0.75584000  0.13320000  1.0
  C  C59  1  0.81906000  0.24416000  0.63320000  1.0
  C  C60  1  0.30936000  0.24548000  0.46095000  1.0
  C  C61  1  0.19063000  0.75452000  0.96095000  1.0
  C  C62  1  0.69063000  0.74548000  0.03905000  1.0
  C  C63  1  0.80938000  0.25452000  0.53905000  1.0
  C  C64  1  0.30273000  0.33188000  0.51699000  1.0
  C  C65  1  0.19725000  0.66812000  0.01699000  1.0
  C  C66  1  0.69725000  0.83188000  0.98301000  1.0
  C  C67  1  0.80275000  0.16811000  0.48301000  1.0
  C  C68  1  0.29233000  0.43343000  0.47711000  1.0
  C  C69  1  0.20765000  0.56658000  0.97710000  1.0
  C  C70  1  0.70766000  0.93343000  0.02290000  1.0
  C  C71  1  0.79235000  0.06657000  0.52289000  1.0
  C  C72  1  0.32088000  0.16966000  0.31313000  1.0
  C  C73  1  0.17911000  0.83034000  0.81313000  1.0
  C  C74  1  0.67912000  0.66966000  0.18687000  1.0
  C  C75  1  0.82090000  0.33033000  0.68687000  1.0
  C  C76  1  0.31352000  0.07237000  0.35135000  1.0
  C  C77  1  0.18647000  0.92763000  0.85135000  1.0
  C  C78  1  0.68648000  0.57237000  0.14866000  1.0
  C  C79  1  0.81354000  0.42763000  0.64866000  1.0
  C  C80  1  0.30703000  0.06102000  0.44324000  1.0
  C  C81  1  0.19297000  0.93898000  0.94324000  1.0
  C  C82  1  0.69297000  0.56102000  0.05676000  1.0
  C  C83  1  0.80705000  0.43897000  0.55676000  1.0
  C  C84  1  0.30497000  0.14676000  0.50014000  1.0
  C  C85  1  0.19503000  0.85324000  0.00014000  1.0
  C  C86  1  0.69502000  0.64676000  0.99986000  1.0
  C  C87  1  0.80498000  0.35324000  0.49987000  1.0
  C  C88  1  0.29771000  0.13815000  0.59469000  1.0
  C  C89  1  0.20230000  0.86186000  0.09469000  1.0
  C  C90  1  0.70228000  0.63815000  0.90531000  1.0
  C  C91  1  0.79772000  0.36185000  0.40531000  1.0
  C  C92  1  0.29832000  0.22367000  0.64823000  1.0
  C  C93  1  0.20168000  0.77633000  0.14822000  1.0
  C  C94  1  0.70166000  0.72367000  0.85178000  1.0
  C  C95  1  0.79833000  0.27633000  0.35178000  1.0
  C  C96  1  0.29953000  0.32086000  0.60933000  1.0
  C  C97  1  0.20046000  0.67914000  0.10933000  1.0
  C  C98  1  0.70045000  0.82086000  0.89067000  1.0
  C  C99  1  0.79954000  0.17914000  0.39067000  1.0
  C  C100  1  0.30375000  0.54301000  0.34427000  1.0
  C  C101  1  0.19625000  0.45699000  0.84427000  1.0
  C  C102  1  0.69625000  0.04301000  0.15573000  1.0
  C  C103  1  0.80376000  0.95699000  0.65572000  1.0
  C  C104  1  0.09693000  0.57582000  0.33345000  1.0
  C  C105  1  0.40307000  0.42419000  0.83346000  1.0
  C  C106  1  0.90307000  0.07581000  0.16654000  1.0
  C  C107  1  0.59693000  0.92419000  0.66654000  1.0
  C  C108  1  0.43299000  0.61901000  0.39450000  1.0
  C  C109  1  0.06700000  0.38099000  0.89450000  1.0
  C  C110  1  0.56701000  0.11901000  0.10549000  1.0
  C  C111  1  0.93300000  0.88099000  0.60549000  1.0
  N  N112  1  0.31446000  0.44089000  0.38444000  1.0
  N  N113  1  0.18553000  0.55911000  0.88444000  1.0
  N  N114  1  0.68554000  0.94089000  0.11556000  1.0
  N  N115  1  0.81447000  0.05911000  0.61556000  1.0
  O  O116  1  0.35123000  0.37168000  0.24522000  1.0
  O  O117  1  0.14877000  0.62832000  0.74522000  1.0
  O  O118  1  0.64878000  0.87168000  0.25478000  1.0
  O  O119  1  0.85123000  0.12831000  0.75478000  1.0
  O  O120  1  0.26323000  0.51082000  0.52197000  1.0
  O  O121  1  0.23676000  0.48917000  0.02198000  1.0
  O  O122  1  0.73676000  0.01082000  0.97802000  1.0
  O  O123  1  0.76324000  0.98917000  0.47802000  1.0
  O  O124  1  0.36944000  0.70851000  0.40656000  1.0
  O  O125  1  0.13056000  0.29149000  0.90656000  1.0
  O  O126  1  0.63056000  0.20850000  0.09343000  1.0
  O  O127  1  0.86944000  0.79149000  0.59343000  1.0
  O  O128  1  0.59880000  0.59031000  0.41605000  1.0
  O  O129  1  0.90120000  0.40968000  0.91606000  1.0
  O  O130  1  0.40120000  0.09032000  0.08395000  1.0
  O  O131  1  0.09880000  0.90968000  0.58394000  1.0
  O  O132  1  0.58282000  0.65944000  0.60815000  1.0
  O  O133  1  0.91719000  0.34056000  0.10815000  1.0
  O  O134  1  0.41719000  0.15944000  0.89185000  1.0
  O  O135  1  0.08281000  0.84056000  0.39185000  1.0
