# generated using pymatgen
data_Zn2H32C51(NO2)4
_symmetry_space_group_name_H-M   'P 1'
_cell_length_a   14.70610000
_cell_length_b   15.80270000
_cell_length_c   16.03670000
_cell_angle_alpha   89.52390000
_cell_angle_beta   73.29600000
_cell_angle_gamma   80.81710000
_symmetry_Int_Tables_number   1
_chemical_formula_structural   Zn2H32C51(NO2)4
_chemical_formula_sum   'Zn2 H32 C51 N4 O8'
_cell_volume   3521.07197180
_cell_formula_units_Z   1
loop_
 _symmetry_equiv_pos_site_id
 _symmetry_equiv_pos_as_xyz
  1  'x, y, z'
loop_
 _atom_site_type_symbol
 _atom_site_label
 _atom_site_symmetry_multiplicity
 _atom_site_fract_x
 _atom_site_fract_y
 _atom_site_fract_z
 _atom_site_occupancy
  Zn  Zn0  1  0.59710000  0.51557000  0.47384000  1.0
  Zn  Zn1  1  0.40414000  0.48586000  0.52324000  1.0
  H  H2  1  0.61676000  0.39367000  0.04489000  1.0
  H  H3  1  0.73723000  0.25420000  0.51858000  1.0
  H  H4  1  0.61844000  0.38964000  0.89848000  1.0
  H  H5  1  0.61237000  0.86017000  0.56777000  1.0
  H  H6  1  0.34907000  0.14999000  0.55526000  1.0
  H  H7  1  0.19270000  0.90908000  0.56508000  1.0
  H  H8  1  0.98028000  0.32497000  0.64701000  1.0
  H  H9  1  0.76773000  0.46220000  0.52563000  1.0
  H  H10  1  0.69281000  0.65318000  0.36975000  1.0
  H  H11  1  0.02376000  0.67284000  0.34740000  1.0
  H  H12  1  0.14733000  0.30144000  0.66385000  1.0
  H  H13  1  0.65517000  0.49111000  0.88492000  1.0
  H  H14  1  0.30907000  0.34861000  0.62886000  1.0
  H  H15  1  0.23776000  0.53244000  0.46470000  1.0
  H  H16  1  0.86103000  0.40325000  0.58328000  1.0
  H  H17  1  0.14357000  0.59309000  0.40950000  1.0
  H  H18  1  0.85578000  0.69839000  0.33286000  1.0
  H  H19  1  0.45144000  0.37568000  0.94965000  1.0
  H  H20  1  0.43323000  0.38821000  0.09787000  1.0
  H  H21  1  0.35206000  0.48505000  0.10861000  1.0
  H  H22  1  0.52774000  0.62716000  0.91088000  1.0
  H  H23  1  0.40506000  0.61822000  0.94754000  1.0
  H  H24  1  0.65590000  0.49412000  0.03095000  1.0
  H  H25  1  0.53517000  0.63065000  0.05500000  1.0
  H  H26  1  0.32916000  0.46242000  0.90143000  1.0
  H  H27  1  0.29665000  0.52442000  0.99043000  1.0
  H  H28  1  0.41073000  0.62700000  0.09176000  1.0
  H  H29  1  0.72536000  0.95836000  0.57018000  1.0
  H  H30  1  0.53364000  0.78208000  0.53159000  1.0
  H  H31  1  0.24541000  0.74969000  0.55206000  1.0
  H  H32  1  0.23120000  0.05479000  0.57132000  1.0
  H  H33  1  0.77205000  0.09865000  0.55040000  1.0
  C  C34  1  0.58044000  0.33900000  0.48494000  1.0
  C  C35  1  0.39348000  0.75850000  0.54043000  1.0
  C  C36  1  0.70407000  0.12570000  0.53837000  1.0
  C  C37  1  0.49673000  0.49055000  0.66236000  1.0
  C  C38  1  0.68593000  0.21108000  0.52006000  1.0
  C  C39  1  0.53213000  0.19132000  0.50090000  1.0
  C  C40  1  0.54491000  0.10461000  0.52812000  1.0
  C  C41  1  0.63553000  0.07122000  0.54222000  1.0
  C  C42  1  0.47288000  0.04898000  0.54089000  1.0
  C  C43  1  0.50021000  0.95942000  0.54814000  1.0
  C  C44  1  0.59322000  0.92805000  0.55727000  1.0
  C  C45  1  0.60082000  0.45852000  0.02199000  1.0
  C  C46  1  0.65652000  0.98243000  0.55836000  1.0
  C  C47  1  0.37343000  0.08126000  0.55222000  1.0
  C  C48  1  0.30680000  0.02785000  0.56152000  1.0
  C  C49  1  0.42709000  0.66372000  0.52640000  1.0
  C  C50  1  0.33421000  0.93711000  0.55682000  1.0
  C  C51  1  0.43211000  0.90209000  0.54975000  1.0
  C  C52  1  0.26737000  0.88116000  0.55875000  1.0
  C  C53  1  0.29594000  0.79341000  0.55125000  1.0
  C  C54  1  0.45932000  0.81217000  0.54094000  1.0
  C  C55  1  0.16403000  0.35347000  0.61980000  1.0
  C  C56  1  0.50121000  0.50246000  0.08023000  1.0
  C  C57  1  0.25294000  0.37853000  0.60106000  1.0
  C  C58  1  0.21228000  0.48289000  0.50884000  1.0
  C  C59  1  0.11886000  0.46323000  0.52434000  1.0
  C  C60  1  0.09398000  0.39624000  0.58255000  1.0
  C  C61  1  0.50123000  0.50792000  0.33663000  1.0
  C  C62  1  0.04908000  0.50913000  0.48552000  1.0
  C  C63  1  0.95564000  0.48699000  0.50693000  1.0
  C  C64  1  0.93305000  0.41984000  0.56588000  1.0
  C  C65  1  0.99938000  0.37581000  0.60202000  1.0
  C  C66  1  0.07153000  0.57659000  0.42696000  1.0
  C  C67  1  0.47957000  0.59437000  0.04845000  1.0
  C  C68  1  0.00485000  0.62145000  0.39172000  1.0
  C  C69  1  0.91016000  0.60128000  0.41147000  1.0
  C  C70  1  0.88569000  0.53329000  0.46854000  1.0
  C  C71  1  0.83933000  0.64564000  0.37599000  1.0
  C  C72  1  0.74993000  0.62142000  0.39546000  1.0
  C  C73  1  0.60094000  0.45590000  0.92562000  1.0
  C  C74  1  0.79225000  0.51367000  0.48382000  1.0
  C  C75  1  0.42485000  0.44286000  0.97360000  1.0
  C  C76  1  0.42308000  0.45155000  0.07010000  1.0
  C  C77  1  0.50239000  0.50858000  0.24614000  1.0
  C  C78  1  0.47641000  0.59027000  0.95303000  1.0
  C  C79  1  0.50087000  0.49603000  0.91739000  1.0
  C  C80  1  0.45569000  0.22135000  0.46376000  1.0
  C  C81  1  0.50134000  0.50631000  0.17066000  1.0
  C  C82  1  0.50038000  0.49297000  0.82725000  1.0
  C  C83  1  0.49791000  0.49021000  0.75219000  1.0
  C  C84  1  0.60030000  0.24472000  0.50052000  1.0
  N  N85  1  0.27580000  0.44314000  0.54662000  1.0
  N  N86  1  0.72768000  0.55542000  0.44827000  1.0
  N  N87  1  0.39617000  0.23886000  0.42844000  1.0
  N  N88  1  0.32767000  0.46390000  0.96557000  1.0
  O  O89  1  0.64960000  0.38140000  0.46861000  1.0
  O  O90  1  0.49279000  0.36962000  0.49355000  1.0
  O  O91  1  0.57325000  0.50546000  0.60650000  1.0
  O  O92  1  0.41985000  0.47645000  0.64743000  1.0
  O  O93  1  0.51759000  0.63857000  0.49772000  1.0
  O  O94  1  0.36263000  0.61571000  0.54388000  1.0
  O  O95  1  0.58116000  0.51023000  0.35238000  1.0
  O  O96  1  0.42047000  0.50472000  0.39229000  1.0
