# generated using pymatgen
data_H9RuC9(NO2)2
_symmetry_space_group_name_H-M   'P 1'
_cell_length_a   8.62182000
_cell_length_b   10.25190000
_cell_length_c   19.14080000
_cell_angle_alpha   76.25400000
_cell_angle_beta   89.99800000
_cell_angle_gamma   65.17600000
_symmetry_Int_Tables_number   1
_chemical_formula_structural   H9RuC9(NO2)2
_chemical_formula_sum   'H36 Ru4 C36 N8 O16'
_cell_volume   1481.97842645
_cell_formula_units_Z   4
loop_
 _symmetry_equiv_pos_site_id
 _symmetry_equiv_pos_as_xyz
  1  'x, y, z'
loop_
 _atom_site_type_symbol
 _atom_site_label
 _atom_site_symmetry_multiplicity
 _atom_site_fract_x
 _atom_site_fract_y
 _atom_site_fract_z
 _atom_site_occupancy
  H  H0  1  0.28124000  0.70280000  0.41751000  1.0
  H  H1  1  0.98455000  0.29671000  0.08254000  1.0
  H  H2  1  0.71875000  0.29718000  0.58248000  1.0
  H  H3  1  0.01548000  0.70328000  0.91745000  1.0
  H  H4  1  0.25574000  0.65137000  0.33589000  1.0
  H  H5  1  0.90747000  0.34832000  0.16410000  1.0
  H  H6  1  0.74426000  0.34863000  0.66409000  1.0
  H  H7  1  0.09254000  0.65169000  0.83589000  1.0
  H  H8  1  0.09952000  0.81818000  0.35308000  1.0
  H  H9  1  0.91814000  0.18131000  0.14702000  1.0
  H  H10  1  0.90048000  0.18181000  0.64691000  1.0
  H  H11  1  0.08187000  0.81869000  0.85297000  1.0
  H  H12  1  0.11597000  0.38576000  0.29478000  1.0
  H  H13  1  0.50193000  0.61398000  0.20530000  1.0
  H  H14  1  0.88401000  0.61425000  0.70521000  1.0
  H  H15  1  0.49809000  0.38600000  0.79471000  1.0
  H  H16  1  0.05958000  0.54102000  0.39981000  1.0
  H  H17  1  0.60104000  0.45866000  0.10032000  1.0
  H  H18  1  0.94041000  0.45899000  0.60018000  1.0
  H  H19  1  0.39897000  0.54134000  0.89968000  1.0
  H  H20  1  0.20761000  0.31542000  0.57016000  1.0
  H  H21  1  0.52313000  0.68417000  0.93001000  1.0
  H  H22  1  0.79238000  0.68459000  0.42984000  1.0
  H  H23  1  0.47686000  0.31583000  0.07000000  1.0
  H  H24  1  0.20575000  0.48848000  0.52181000  1.0
  H  H25  1  0.69428000  0.51125000  0.97833000  1.0
  H  H26  1  0.79423000  0.51153000  0.47819000  1.0
  H  H27  1  0.30573000  0.48875000  0.02167000  1.0
  H  H28  1  0.40453000  0.32615000  0.55221000  1.0
  H  H29  1  0.73072000  0.67370000  0.94776000  1.0
  H  H30  1  0.59546000  0.67387000  0.44778000  1.0
  H  H31  1  0.26929000  0.32630000  0.05224000  1.0
  H  H32  1  0.52733000  0.09596000  0.54516000  1.0
  H  H33  1  0.62320000  0.90416000  0.95481000  1.0
  H  H34  1  0.47264000  0.90405000  0.45485000  1.0
  H  H35  1  0.37684000  0.09583000  0.04520000  1.0
  Ru  Ru36  1  0.44099000  0.07894000  0.29991000  1.0
  Ru  Ru37  1  0.51983000  0.92104000  0.20012000  1.0
  Ru  Ru38  1  0.55900000  0.92106000  0.70010000  1.0
  Ru  Ru39  1  0.48018000  0.07897000  0.79988000  1.0
  C  C40  1  0.49119000  0.22575000  0.24616000  1.0
  C  C41  1  0.71679000  0.77433000  0.25377000  1.0
  C  C42  1  0.50878000  0.77426000  0.75384000  1.0
  C  C43  1  0.28321000  0.22568000  0.74623000  1.0
  C  C44  1  0.66022000  0.99312000  0.34545000  1.0
  C  C45  1  0.65318000  0.00702000  0.15452000  1.0
  C  C46  1  0.33977000  0.00689000  0.65455000  1.0
  C  C47  1  0.34683000  0.99298000  0.84548000  1.0
  C  C48  1  0.33053000  0.83107000  0.32139000  1.0
  C  C49  1  0.16185000  0.16871000  0.17866000  1.0
  C  C50  1  0.66947000  0.16892000  0.67861000  1.0
  C  C51  1  0.83816000  0.83129000  0.82133000  1.0
  C  C52  1  0.23761000  0.74362000  0.35930000  1.0
  C  C53  1  0.98161000  0.25601000  0.14075000  1.0
  C  C54  1  0.76238000  0.25637000  0.64069000  1.0
  C  C55  1  0.01840000  0.74399000  0.85924000  1.0
  C  C56  1  0.35355000  0.19797000  0.44649000  1.0
  C  C57  1  0.55171000  0.80193000  0.05356000  1.0
  C  C58  1  0.64642000  0.80203000  0.55352000  1.0
  C  C59  1  0.44833000  0.19806000  0.94645000  1.0
  C  C60  1  0.17699000  0.34970000  0.34974000  1.0
  C  C61  1  0.52690000  0.65010000  0.15034000  1.0
  C  C62  1  0.82299000  0.65031000  0.65026000  1.0
  C  C63  1  0.47313000  0.34989000  0.84967000  1.0
  C  C64  1  0.14800000  0.42786000  0.40136000  1.0
  C  C65  1  0.57621000  0.57189000  0.09876000  1.0
  C  C66  1  0.85198000  0.57215000  0.59864000  1.0
  C  C67  1  0.42381000  0.42811000  0.90125000  1.0
  C  C68  1  0.27012000  0.36745000  0.53040000  1.0
  C  C69  1  0.63770000  0.63231000  0.96970000  1.0
  C  C70  1  0.72987000  0.63256000  0.46960000  1.0
  C  C71  1  0.36231000  0.36769000  0.03031000  1.0
  C  C72  1  0.47504000  0.07180000  0.50048000  1.0
  C  C73  1  0.54687000  0.92822000  0.99953000  1.0
  C  C74  1  0.52493000  0.92821000  0.49952000  1.0
  C  C75  1  0.45317000  0.07177000  0.00049000  1.0
  N  N76  1  0.30487000  0.20854000  0.37751000  1.0
  N  N77  1  0.51351000  0.79135000  0.12254000  1.0
  N  N78  1  0.69510000  0.79147000  0.62250000  1.0
  N  N79  1  0.48653000  0.20863000  0.87747000  1.0
  N  N80  1  0.26086000  0.33304000  0.46145000  1.0
  N  N81  1  0.59423000  0.66677000  0.03865000  1.0
  N  N82  1  0.73911000  0.66698000  0.53855000  1.0
  N  N83  1  0.40579000  0.33322000  0.96136000  1.0
  O  O84  1  0.52073000  0.32161000  0.21092000  1.0
  O  O85  1  0.84227000  0.67853000  0.28888000  1.0
  O  O86  1  0.47924000  0.67840000  0.78907000  1.0
  O  O87  1  0.15775000  0.32148000  0.71112000  1.0
  O  O88  1  0.80287000  0.94113000  0.37236000  1.0
  O  O89  1  0.74383000  0.05908000  0.12757000  1.0
  O  O90  1  0.19712000  0.05887000  0.62764000  1.0
  O  O91  1  0.25618000  0.94092000  0.87244000  1.0
  O  O92  1  0.36637000  0.82198000  0.25759000  1.0
  O  O93  1  0.18864000  0.17794000  0.24243000  1.0
  O  O94  1  0.63364000  0.17801000  0.74241000  1.0
  O  O95  1  0.81135000  0.82205000  0.75756000  1.0
  O  O96  1  0.36603000  0.91006000  0.35538000  1.0
  O  O97  1  0.27621000  0.08970000  0.14468000  1.0
  O  O98  1  0.63396000  0.08993000  0.64462000  1.0
  O  O99  1  0.72380000  0.91029000  0.85532000  1.0
