# generated using pymatgen
data_MnH8C9O5
_symmetry_space_group_name_H-M   'P 1'
_cell_length_a   7.16407000
_cell_length_b   10.03450000
_cell_length_c   14.37180000
_cell_angle_alpha   103.91300000
_cell_angle_beta   89.99950000
_cell_angle_gamma   89.99980000
_symmetry_Int_Tables_number   1
_chemical_formula_structural   MnH8C9O5
_chemical_formula_sum   'Mn4 H32 C36 O20'
_cell_volume   1002.84711319
_cell_formula_units_Z   4
loop_
 _symmetry_equiv_pos_site_id
 _symmetry_equiv_pos_as_xyz
  1  'x, y, z'
loop_
 _atom_site_type_symbol
 _atom_site_label
 _atom_site_symmetry_multiplicity
 _atom_site_fract_x
 _atom_site_fract_y
 _atom_site_fract_z
 _atom_site_occupancy
  Mn  Mn0  1  0.76889000  0.94689000  0.72957000  1.0
  Mn  Mn1  1  0.26889000  0.05309000  0.77042000  1.0
  Mn  Mn2  1  0.23112000  0.05310000  0.27042000  1.0
  Mn  Mn3  1  0.73111000  0.94692000  0.22957000  1.0
  H  H4  1  0.90802000  0.87606000  0.55663000  1.0
  H  H5  1  0.40801000  0.12395000  0.94337000  1.0
  H  H6  1  0.09198000  0.12395000  0.44336000  1.0
  H  H7  1  0.59199000  0.87606000  0.05663000  1.0
  H  H8  1  0.04849000  0.81493000  0.62155000  1.0
  H  H9  1  0.54848000  0.18507000  0.87845000  1.0
  H  H10  1  0.95152000  0.18507000  0.37844000  1.0
  H  H11  1  0.45152000  0.81494000  0.12156000  1.0
  H  H12  1  0.20064000  0.34584000  0.76170000  1.0
  H  H13  1  0.70065000  0.65415000  0.73831000  1.0
  H  H14  1  0.79936000  0.65415000  0.23831000  1.0
  H  H15  1  0.29936000  0.34585000  0.26169000  1.0
  H  H16  1  0.27385000  0.59124000  0.82711000  1.0
  H  H17  1  0.77386000  0.40875000  0.67289000  1.0
  H  H18  1  0.72614000  0.40876000  0.17288000  1.0
  H  H19  1  0.22615000  0.59125000  0.32711000  1.0
  H  H20  1  0.75316000  0.64599000  0.98182000  1.0
  H  H21  1  0.25318000  0.35401000  0.51819000  1.0
  H  H22  1  0.24684000  0.35401000  0.01819000  1.0
  H  H23  1  0.74682000  0.64600000  0.48181000  1.0
  H  H24  1  0.68105000  0.39966000  0.91855000  1.0
  H  H25  1  0.18106000  0.60033000  0.58145000  1.0
  H  H26  1  0.31895000  0.60034000  0.08146000  1.0
  H  H27  1  0.81894000  0.39967000  0.41855000  1.0
  H  H28  1  0.97603000  0.83016000  0.00947000  1.0
  H  H29  1  0.47604000  0.16983000  0.49053000  1.0
  H  H30  1  0.02397000  0.16984000  0.99053000  1.0
  H  H31  1  0.52397000  0.83016000  0.50946000  1.0
  H  H32  1  0.21076000  0.79543000  0.97494000  1.0
  H  H33  1  0.71076000  0.20455000  0.52506000  1.0
  H  H34  1  0.78924000  0.20457000  0.02505000  1.0
  H  H35  1  0.28922000  0.79544000  0.47494000  1.0
  C  C36  1  0.89725000  0.20792000  0.80087000  1.0
  C  C37  1  0.39726000  0.79207000  0.69913000  1.0
  C  C38  1  0.10275000  0.79208000  0.19913000  1.0
  C  C39  1  0.60274000  0.20793000  0.30087000  1.0
  C  C40  1  0.93672000  0.35560000  0.83693000  1.0
  C  C41  1  0.43673000  0.64439000  0.66308000  1.0
  C  C42  1  0.06328000  0.64440000  0.16308000  1.0
  C  C43  1  0.56328000  0.35561000  0.33692000  1.0
  C  C44  1  0.10303000  0.41128000  0.81040000  1.0
  C  C45  1  0.60304000  0.58871000  0.68960000  1.0
  C  C46  1  0.89697000  0.58871000  0.18960000  1.0
  C  C47  1  0.39697000  0.41129000  0.31040000  1.0
  C  C48  1  0.14281000  0.54956000  0.84660000  1.0
  C  C49  1  0.64282000  0.45043000  0.65341000  1.0
  C  C50  1  0.85719000  0.45044000  0.15340000  1.0
  C  C51  1  0.35718000  0.54957000  0.34659000  1.0
  C  C52  1  0.01796000  0.63576000  0.90848000  1.0
  C  C53  1  0.51796000  0.36424000  0.59152000  1.0
  C  C54  1  0.98204000  0.36424000  0.09152000  1.0
  C  C55  1  0.48203000  0.63576000  0.40848000  1.0
  C  C56  1  0.85031000  0.58054000  0.93274000  1.0
  C  C57  1  0.35031000  0.41945000  0.56727000  1.0
  C  C58  1  0.14969000  0.41946000  0.06727000  1.0
  C  C59  1  0.64968000  0.58055000  0.43273000  1.0
  C  C60  1  0.81040000  0.44192000  0.89792000  1.0
  C  C61  1  0.31040000  0.55807000  0.60208000  1.0
  C  C62  1  0.18960000  0.55808000  0.10208000  1.0
  C  C63  1  0.68959000  0.44193000  0.39791000  1.0
  C  C64  1  0.06665000  0.78415000  0.94835000  1.0
  C  C65  1  0.56666000  0.21584000  0.55165000  1.0
  C  C66  1  0.93335000  0.21585000  0.05164000  1.0
  C  C67  1  0.43333000  0.78416000  0.44836000  1.0
  C  C68  1  0.04370000  0.87342000  0.87693000  1.0
  C  C69  1  0.54371000  0.12657000  0.62307000  1.0
  C  C70  1  0.95630000  0.12658000  0.12306000  1.0
  C  C71  1  0.45630000  0.87344000  0.37693000  1.0
  O  O72  1  0.00977000  0.13101000  0.74136000  1.0
  O  O73  1  0.50979000  0.86897000  0.75864000  1.0
  O  O74  1  0.99022000  0.86898000  0.25864000  1.0
  O  O75  1  0.49022000  0.13103000  0.24136000  1.0
  O  O76  1  0.75032000  0.15296000  0.82677000  1.0
  O  O77  1  0.25033000  0.84703000  0.67324000  1.0
  O  O78  1  0.24968000  0.84704000  0.17324000  1.0
  O  O79  1  0.74967000  0.15297000  0.32676000  1.0
  O  O80  1  0.15895000  0.97202000  0.88287000  1.0
  O  O81  1  0.65895000  0.02797000  0.61713000  1.0
  O  O82  1  0.84104000  0.02798000  0.11713000  1.0
  O  O83  1  0.34105000  0.97204000  0.38287000  1.0
  O  O84  1  0.90908000  0.84546000  0.81782000  1.0
  O  O85  1  0.40908000  0.15453000  0.68218000  1.0
  O  O86  1  0.09092000  0.15454000  0.18218000  1.0
  O  O87  1  0.59092000  0.84547000  0.31781000  1.0
  O  O88  1  0.91394000  0.81886000  0.60262000  1.0
  O  O89  1  0.41393000  0.18115000  0.89738000  1.0
  O  O90  1  0.08607000  0.18115000  0.39738000  1.0
  O  O91  1  0.58607000  0.81886000  0.10262000  1.0
