# generated using pymatgen
data_CoH10(C7N2)2
_symmetry_space_group_name_H-M   'P 1'
_cell_length_a   14.11340000
_cell_length_b   14.11330000
_cell_length_c   14.11260000
_cell_angle_alpha   107.14200000
_cell_angle_beta   107.14400000
_cell_angle_gamma   107.14500000
_symmetry_Int_Tables_number   1
_chemical_formula_structural   CoH10(C7N2)2
_chemical_formula_sum   'Co6 H60 C84 N24'
_cell_volume   2331.82664975
_cell_formula_units_Z   6
loop_
 _symmetry_equiv_pos_site_id
 _symmetry_equiv_pos_as_xyz
  1  'x, y, z'
loop_
 _atom_site_type_symbol
 _atom_site_label
 _atom_site_symmetry_multiplicity
 _atom_site_fract_x
 _atom_site_fract_y
 _atom_site_fract_z
 _atom_site_occupancy
  Co  Co0  1  0.01184000  0.27216000  0.73938000  1.0
  Co  Co1  1  0.27218000  0.73938000  0.01184000  1.0
  Co  Co2  1  0.73940000  0.01183000  0.27218000  1.0
  Co  Co3  1  0.98816000  0.72784000  0.26063000  1.0
  Co  Co4  1  0.72782000  0.26061000  0.98816000  1.0
  Co  Co5  1  0.26060000  0.98816000  0.72782000  1.0
  H  H6  1  0.08949000  0.50442000  0.91524000  1.0
  H  H7  1  0.50449000  0.91525000  0.08954000  1.0
  H  H8  1  0.91523000  0.08951000  0.50444000  1.0
  H  H9  1  0.91050000  0.49558000  0.08476000  1.0
  H  H10  1  0.49551000  0.08475000  0.91047000  1.0
  H  H11  1  0.08477000  0.91048000  0.49557000  1.0
  H  H12  1  0.19163000  0.30683000  0.62943000  1.0
  H  H13  1  0.30687000  0.62947000  0.19165000  1.0
  H  H14  1  0.62944000  0.19165000  0.30684000  1.0
  H  H15  1  0.80837000  0.69316000  0.37056000  1.0
  H  H16  1  0.69314000  0.37054000  0.80836000  1.0
  H  H17  1  0.37057000  0.80835000  0.69316000  1.0
  H  H18  1  0.35929000  0.40987000  0.61456000  1.0
  H  H19  1  0.40989000  0.61459000  0.35931000  1.0
  H  H20  1  0.61455000  0.35929000  0.40986000  1.0
  H  H21  1  0.64070000  0.59015000  0.38544000  1.0
  H  H22  1  0.59010000  0.38541000  0.64069000  1.0
  H  H23  1  0.38545000  0.64070000  0.59013000  1.0
  H  H24  1  0.78830000  0.24532000  0.77630000  1.0
  H  H25  1  0.24533000  0.77635000  0.78829000  1.0
  H  H26  1  0.77632000  0.78830000  0.24532000  1.0
  H  H27  1  0.21170000  0.75468000  0.22370000  1.0
  H  H28  1  0.75466000  0.22365000  0.21171000  1.0
  H  H29  1  0.22368000  0.21170000  0.75468000  1.0
  H  H30  1  0.18797000  0.34476000  0.97168000  1.0
  H  H31  1  0.34477000  0.97167000  0.18798000  1.0
  H  H32  1  0.97169000  0.18799000  0.34477000  1.0
  H  H33  1  0.81203000  0.65523000  0.02831000  1.0
  H  H34  1  0.65523000  0.02832000  0.81202000  1.0
  H  H35  1  0.02831000  0.81201000  0.65523000  1.0
  H  H36  1  0.26383000  0.38278000  0.16920000  1.0
  H  H37  1  0.38277000  0.16917000  0.26382000  1.0
  H  H38  1  0.16919000  0.26383000  0.38278000  1.0
  H  H39  1  0.73618000  0.61722000  0.83080000  1.0
  H  H40  1  0.61724000  0.83082000  0.73618000  1.0
  H  H41  1  0.83081000  0.73617000  0.61722000  1.0
  H  H42  1  0.94673000  0.32040000  0.17391000  1.0
  H  H43  1  0.32043000  0.17394000  0.94675000  1.0
  H  H44  1  0.17390000  0.94672000  0.32040000  1.0
  H  H45  1  0.05327000  0.67960000  0.82609000  1.0
  H  H46  1  0.67958000  0.82606000  0.05326000  1.0
  H  H47  1  0.82609000  0.05328000  0.67960000  1.0
  H  H48  1  0.14433000  0.36796000  0.26730000  1.0
  H  H49  1  0.36797000  0.26730000  0.14435000  1.0
  H  H50  1  0.26728000  0.14432000  0.36796000  1.0
  H  H51  1  0.85567000  0.63204000  0.73270000  1.0
  H  H52  1  0.63203000  0.73269000  0.85565000  1.0
  H  H53  1  0.73272000  0.85567000  0.63203000  1.0
  H  H54  1  0.42332000  0.70764000  0.87521000  1.0
  H  H55  1  0.70767000  0.87521000  0.42336000  1.0
  H  H56  1  0.87521000  0.42333000  0.70763000  1.0
  H  H57  1  0.57667000  0.29237000  0.12478000  1.0
  H  H58  1  0.29232000  0.12480000  0.57665000  1.0
  H  H59  1  0.12478000  0.57666000  0.29236000  1.0
  H  H60  1  0.47252000  0.60541000  0.73491000  1.0
  H  H61  1  0.60542000  0.73492000  0.47255000  1.0
  H  H62  1  0.73491000  0.47252000  0.60539000  1.0
  H  H63  1  0.52747000  0.39461000  0.26508000  1.0
  H  H64  1  0.39457000  0.26509000  0.52745000  1.0
  H  H65  1  0.26508000  0.52747000  0.39461000  1.0
  C  C66  1  0.14358000  0.50523000  0.87412000  1.0
  C  C67  1  0.50527000  0.87413000  0.14359000  1.0
  C  C68  1  0.87412000  0.14359000  0.50524000  1.0
  C  C69  1  0.85642000  0.49477000  0.12588000  1.0
  C  C70  1  0.49473000  0.12587000  0.85641000  1.0
  C  C71  1  0.12588000  0.85640000  0.49476000  1.0
  C  C72  1  0.21474000  0.45005000  0.76301000  1.0
  C  C73  1  0.45010000  0.76304000  0.21477000  1.0
  C  C74  1  0.76302000  0.21476000  0.45005000  1.0
  C  C75  1  0.78526000  0.54995000  0.23698000  1.0
  C  C76  1  0.54990000  0.23697000  0.78524000  1.0
  C  C77  1  0.23699000  0.78524000  0.54995000  1.0
  C  C78  1  0.24160000  0.39319000  0.68315000  1.0
  C  C79  1  0.39323000  0.68317000  0.24163000  1.0
  C  C80  1  0.68314000  0.24161000  0.39319000  1.0
  C  C81  1  0.75840000  0.60681000  0.31685000  1.0
  C  C82  1  0.60677000  0.31683000  0.75837000  1.0
  C  C83  1  0.31686000  0.75838000  0.60680000  1.0
  C  C84  1  0.33490000  0.45173000  0.67471000  1.0
  C  C85  1  0.45176000  0.67474000  0.33493000  1.0
  C  C86  1  0.67470000  0.33490000  0.45171000  1.0
  C  C87  1  0.66510000  0.54828000  0.32528000  1.0
  C  C88  1  0.54824000  0.32527000  0.66508000  1.0
  C  C89  1  0.32530000  0.66510000  0.54828000  1.0
  C  C90  1  0.85785000  0.26674000  0.85044000  1.0
  C  C91  1  0.26676000  0.85047000  0.85785000  1.0
  C  C92  1  0.85045000  0.85785000  0.26674000  1.0
  C  C93  1  0.14215000  0.73327000  0.14956000  1.0
  C  C94  1  0.73324000  0.14953000  0.14215000  1.0
  C  C95  1  0.14955000  0.14215000  0.73327000  1.0
  C  C96  1  0.02384000  0.31052000  0.96222000  1.0
  C  C97  1  0.31054000  0.96223000  0.02386000  1.0
  C  C98  1  0.96223000  0.02385000  0.31053000  1.0
  C  C99  1  0.97616000  0.68948000  0.03778000  1.0
  C  C100  1  0.68947000  0.03776000  0.97615000  1.0
  C  C101  1  0.03777000  0.97615000  0.68947000  1.0
  C  C102  1  0.13562000  0.33902000  0.01508000  1.0
  C  C103  1  0.33904000  0.01510000  0.13564000  1.0
  C  C104  1  0.01508000  0.13563000  0.33902000  1.0
  C  C105  1  0.86438000  0.66098000  0.98492000  1.0
  C  C106  1  0.66097000  0.98490000  0.86437000  1.0
  C  C107  1  0.98492000  0.86437000  0.66098000  1.0
  C  C108  1  0.17710000  0.35998000  0.12533000  1.0
  C  C109  1  0.35999000  0.12533000  0.17710000  1.0
  C  C110  1  0.12532000  0.17710000  0.35999000  1.0
  C  C111  1  0.82291000  0.64002000  0.87467000  1.0
  C  C112  1  0.64002000  0.87467000  0.82290000  1.0
  C  C113  1  0.87467000  0.82290000  0.64001000  1.0
  C  C114  1  0.95609000  0.30442000  0.01914000  1.0
  C  C115  1  0.30444000  0.01914000  0.95610000  1.0
  C  C116  1  0.01914000  0.95610000  0.30442000  1.0
  C  C117  1  0.04391000  0.69558000  0.98086000  1.0
  C  C118  1  0.69557000  0.98085000  0.04390000  1.0
  C  C119  1  0.98086000  0.04390000  0.69558000  1.0
  C  C120  1  0.99845000  0.32525000  0.12985000  1.0
  C  C121  1  0.32528000  0.12986000  0.99846000  1.0
  C  C122  1  0.12984000  0.99844000  0.32525000  1.0
  C  C123  1  0.00156000  0.67475000  0.87015000  1.0
  C  C124  1  0.67473000  0.87013000  0.00154000  1.0
  C  C125  1  0.87015000  0.00155000  0.67475000  1.0
  C  C126  1  0.10938000  0.35243000  0.18146000  1.0
  C  C127  1  0.35243000  0.18147000  0.10940000  1.0
  C  C128  1  0.18145000  0.10938000  0.35242000  1.0
  C  C129  1  0.89062000  0.64757000  0.81855000  1.0
  C  C130  1  0.64758000  0.81853000  0.89061000  1.0
  C  C131  1  0.81855000  0.89062000  0.64757000  1.0
  C  C132  1  0.27864000  0.56322000  0.83071000  1.0
  C  C133  1  0.56324000  0.83073000  0.27867000  1.0
  C  C134  1  0.83072000  0.27865000  0.56322000  1.0
  C  C135  1  0.72135000  0.43678000  0.16928000  1.0
  C  C136  1  0.43675000  0.16928000  0.72134000  1.0
  C  C137  1  0.16929000  0.72135000  0.43678000  1.0
  C  C138  1  0.37260000  0.62122000  0.82220000  1.0
  C  C139  1  0.62125000  0.82222000  0.37263000  1.0
  C  C140  1  0.82220000  0.37261000  0.62121000  1.0
  C  C141  1  0.62739000  0.37878000  0.17779000  1.0
  C  C142  1  0.37875000  0.17780000  0.62738000  1.0
  C  C143  1  0.17780000  0.62739000  0.37879000  1.0
  C  C144  1  0.39955000  0.56326000  0.74363000  1.0
  C  C145  1  0.56329000  0.74364000  0.39959000  1.0
  C  C146  1  0.74363000  0.39956000  0.56324000  1.0
  C  C147  1  0.60045000  0.43675000  0.25636000  1.0
  C  C148  1  0.43671000  0.25637000  0.60042000  1.0
  C  C149  1  0.25638000  0.60044000  0.43675000  1.0
  N  N150  1  0.13005000  0.41533000  0.79344000  1.0
  N  N151  1  0.41537000  0.79347000  0.13007000  1.0
  N  N152  1  0.79345000  0.13007000  0.41534000  1.0
  N  N153  1  0.86995000  0.58466000  0.20656000  1.0
  N  N154  1  0.58462000  0.20653000  0.86994000  1.0
  N  N155  1  0.20655000  0.86992000  0.58466000  1.0
  N  N156  1  0.95893000  0.28590000  0.85487000  1.0
  N  N157  1  0.28593000  0.85489000  0.95893000  1.0
  N  N158  1  0.85489000  0.95895000  0.28591000  1.0
  N  N159  1  0.04107000  0.71409000  0.14514000  1.0
  N  N160  1  0.71408000  0.14511000  0.04107000  1.0
  N  N161  1  0.14511000  0.04105000  0.71409000  1.0
  N  N162  1  0.85084000  0.27684000  0.94600000  1.0
  N  N163  1  0.27686000  0.94601000  0.85085000  1.0
  N  N164  1  0.94600000  0.85084000  0.27684000  1.0
  N  N165  1  0.14916000  0.72316000  0.05400000  1.0
  N  N166  1  0.72315000  0.05399000  0.14915000  1.0
  N  N167  1  0.05400000  0.14916000  0.72317000  1.0
  N  N168  1  0.23041000  0.59613000  0.89969000  1.0
  N  N169  1  0.59613000  0.89969000  0.23042000  1.0
  N  N170  1  0.89970000  0.23042000  0.59613000  1.0
  N  N171  1  0.76958000  0.40387000  0.10031000  1.0
  N  N172  1  0.40386000  0.10032000  0.76958000  1.0
  N  N173  1  0.10031000  0.76958000  0.40387000  1.0
