# generated using pymatgen
data_Zn4H18C27O13
_symmetry_space_group_name_H-M   'P 1'
_cell_length_a   18.27750000
_cell_length_b   18.36140000
_cell_length_c   18.34077679
_cell_angle_alpha   119.60776760
_cell_angle_beta   119.85403485
_cell_angle_gamma   60.30800000
_symmetry_Int_Tables_number   1
_chemical_formula_structural   Zn4H18C27O13
_chemical_formula_sum   'Zn8 H36 C54 O26'
_cell_volume   4380.10765412
_cell_formula_units_Z   2
loop_
 _symmetry_equiv_pos_site_id
 _symmetry_equiv_pos_as_xyz
  1  'x, y, z'
loop_
 _atom_site_type_symbol
 _atom_site_label
 _atom_site_symmetry_multiplicity
 _atom_site_fract_x
 _atom_site_fract_y
 _atom_site_fract_z
 _atom_site_occupancy
  Zn  Zn0  1  0.15048000  0.93821000  0.04243000  1.0
  Zn  Zn1  1  0.97738000  0.93288000  0.04149000  1.0
  Zn  Zn2  1  0.97785000  0.93209000  0.86674000  1.0
  Zn  Zn3  1  0.97252000  0.10781000  0.03802000  1.0
  Zn  Zn4  1  0.39175000  0.52189000  0.45518000  1.0
  Zn  Zn5  1  0.56555000  0.51970000  0.45357000  1.0
  Zn  Zn6  1  0.56125000  0.34537000  0.45171000  1.0
  Zn  Zn7  1  0.56482000  0.51962000  0.62818000  1.0
  H  H8  1  0.33322000  0.82277000  0.24906000  1.0
  H  H9  1  0.42688000  0.72210000  0.34163000  1.0
  H  H10  1  0.18033000  0.61792000  0.27418000  1.0
  H  H11  1  0.14220000  0.59487000  0.15712000  1.0
  H  H12  1  0.24930000  0.52997000  0.21207000  1.0
  H  H13  1  0.12183000  0.71810000  0.13671000  1.0
  H  H14  1  0.34063000  0.75457000  0.91077000  1.0
  H  H15  1  0.43309000  0.66006000  0.81045000  1.0
  H  H16  1  0.17980000  0.66777000  0.51700000  1.0
  H  H17  1  0.11895000  0.78299000  0.55513000  1.0
  H  H18  1  0.22297000  0.74696000  0.54141000  1.0
  H  H19  1  0.11227000  0.82316000  0.69004000  1.0
  H  H20  1  0.32515000  0.07809000  0.17733000  1.0
  H  H21  1  0.42032000  0.17610000  0.27810000  1.0
  H  H22  1  0.16727000  0.46702000  0.34059000  1.0
  H  H23  1  0.11688000  0.42392000  0.36542000  1.0
  H  H24  1  0.22328000  0.43742000  0.43732000  1.0
  H  H25  1  0.10211000  0.29396000  0.25218000  1.0
  H  H26  1  0.79623000  0.79350000  0.90541000  1.0
  H  H27  1  0.70225000  0.69429000  0.80519000  1.0
  H  H28  1  0.73932000  0.62220000  0.51682000  1.0
  H  H29  1  0.85739000  0.59906000  0.56375000  1.0
  H  H30  1  0.80859000  0.52805000  0.55058000  1.0
  H  H31  1  0.88700000  0.71342000  0.69331000  1.0
  H  H32  1  0.84362000  0.06853000  0.22861000  1.0
  H  H33  1  0.74410000  0.16835000  0.32189000  1.0
  H  H34  1  0.67190000  0.45553000  0.28269000  1.0
  H  H35  1  0.64460000  0.40992000  0.16476000  1.0
  H  H36  1  0.57575000  0.42408000  0.21656000  1.0
  H  H37  1  0.75911000  0.27947000  0.13428000  1.0
  H  H38  1  0.78205000  0.06597000  0.67967000  1.0
  H  H39  1  0.68801000  0.16582000  0.58612000  1.0
  H  H40  1  0.72766000  0.45317000  0.84013000  1.0
  H  H41  1  0.84636000  0.40655000  0.88070000  1.0
  H  H42  1  0.78981000  0.42285000  0.77515000  1.0
  H  H43  1  0.87469000  0.27765000  0.89833000  1.0
  C  C44  1  0.16268000  0.83834000  0.13528000  1.0
  C  C45  1  0.22124000  0.77714000  0.18898000  1.0
  C  C46  1  0.30799000  0.77790000  0.24537000  1.0
  C  C47  1  0.35963000  0.72196000  0.29629000  1.0
  C  C48  1  0.32640000  0.66459000  0.29154000  1.0
  C  C49  1  0.38456000  0.61099000  0.35289000  1.0
  C  C50  1  0.24004000  0.66064000  0.23214000  1.0
  C  C51  1  0.20090000  0.59738000  0.21798000  1.0
  C  C52  1  0.18897000  0.71845000  0.18247000  1.0
  C  C53  1  0.16265000  0.84801000  0.86264000  1.0
  C  C54  1  0.22041000  0.79347000  0.80541000  1.0
  C  C55  1  0.31139000  0.74849000  0.84062000  1.0
  C  C56  1  0.36239000  0.69628000  0.78488000  1.0
  C  C57  1  0.32453000  0.68777000  0.69410000  1.0
  C  C58  1  0.38392000  0.62656000  0.63859000  1.0
  C  C59  1  0.23291000  0.73469000  0.65806000  1.0
  C  C60  1  0.18607000  0.73322000  0.56288000  1.0
  C  C61  1  0.18297000  0.78663000  0.71559000  1.0
  C  C62  1  0.15008000  0.12396000  0.14523000  1.0
  C  C63  1  0.20753000  0.18135000  0.20786000  1.0
  C  C64  1  0.29780000  0.14675000  0.21574000  1.0
  C  C65  1  0.35020000  0.20113000  0.27152000  1.0
  C  C66  1  0.31416000  0.29010000  0.31985000  1.0
  C  C67  1  0.37451000  0.34479000  0.37249000  1.0
  C  C68  1  0.22372000  0.32524000  0.31491000  1.0
  C  C69  1  0.18052000  0.41828000  0.36755000  1.0
  C  C70  1  0.17212000  0.26908000  0.25805000  1.0
  C  C71  1  0.89545000  0.82505000  0.86029000  1.0
  C  C72  1  0.84492000  0.76094000  0.80377000  1.0
  C  C73  1  0.79495000  0.75429000  0.83708000  1.0
  C  C74  1  0.74318000  0.69924000  0.78152000  1.0
  C  C75  1  0.74027000  0.65022000  0.69280000  1.0
  C  C76  1  0.67551000  0.60010000  0.63582000  1.0
  C  C77  1  0.79428000  0.65256000  0.65973000  1.0
  C  C78  1  0.80037000  0.59744000  0.56785000  1.0
  C  C79  1  0.84551000  0.70895000  0.71682000  1.0
  C  C80  1  0.86954000  0.11208000  0.12366000  1.0
  C  C81  1  0.80817000  0.16915000  0.17718000  1.0
  C  C82  1  0.80357000  0.13652000  0.22903000  1.0
  C  C83  1  0.74848000  0.19202000  0.28069000  1.0
  C  C84  1  0.69815000  0.28023000  0.28228000  1.0
  C  C85  1  0.64589000  0.33689000  0.34485000  1.0
  C  C86  1  0.70016000  0.31341000  0.22829000  1.0
  C  C87  1  0.64510000  0.40551000  0.22256000  1.0
  C  C88  1  0.75579000  0.25612000  0.17652000  1.0
  C  C89  1  0.88602000  0.11070000  0.85373000  1.0
  C  C90  1  0.83230000  0.16722000  0.79527000  1.0
  C  C91  1  0.78103000  0.13412000  0.70658000  1.0
  C  C92  1  0.72897000  0.18957000  0.65510000  1.0
  C  C93  1  0.72686000  0.27789000  0.69076000  1.0
  C  C94  1  0.66419000  0.33460000  0.63255000  1.0
  C  C95  1  0.78086000  0.31127000  0.77922000  1.0
  C  C96  1  0.78667000  0.40326000  0.82094000  1.0
  C  C97  1  0.83262000  0.25421000  0.82974000  1.0
  O  O98  1  0.01959000  0.97760000  0.99726000  1.0
  O  O99  1  0.07907000  0.85044000  0.10396000  1.0
  O  O100  1  0.20085000  0.87358000  0.12527000  1.0
  O  O101  1  0.46879000  0.59554000  0.38139000  1.0
  O  O102  1  0.34550000  0.58618000  0.37374000  1.0
  O  O103  1  0.07861000  0.87683000  0.82313000  1.0
  O  O104  1  0.20183000  0.86101000  0.94619000  1.0
  O  O105  1  0.46835000  0.60175000  0.67924000  1.0
  O  O106  1  0.34581000  0.60230000  0.55426000  1.0
  O  O107  1  0.06587000  0.16091000  0.13061000  1.0
  O  O108  1  0.19032000  0.04216000  0.11053000  1.0
  O  O109  1  0.45865000  0.30332000  0.39435000  1.0
  O  O110  1  0.33740000  0.42871000  0.38957000  1.0
  O  O111  1  0.92579000  0.84023000  0.82146000  1.0
  O  O112  1  0.90289000  0.86050000  0.94249000  1.0
  O  O113  1  0.65224000  0.57858000  0.67570000  1.0
  O  O114  1  0.64638000  0.58496000  0.55206000  1.0
  O  O115  1  0.87930000  0.14957000  0.08757000  1.0
  O  O116  1  0.90801000  0.03044000  0.11882000  1.0
  O  O117  1  0.61950000  0.29762000  0.36388000  1.0
  O  O118  1  0.63351000  0.41993000  0.37596000  1.0
  O  O119  1  0.92122000  0.14903000  0.93652000  1.0
  O  O120  1  0.89208000  0.02883000  0.81675000  1.0
  O  O121  1  0.64641000  0.29527000  0.54855000  1.0
  O  O122  1  0.63183000  0.41750000  0.67123000  1.0
  O  O123  1  0.52219000  0.47588000  0.49756000  1.0
