# generated using pymatgen
data_Zn2H26C26N12ClO6
_symmetry_space_group_name_H-M   'P 1'
_cell_length_a   10.19830000
_cell_length_b   10.25520000
_cell_length_c   17.38000000
_cell_angle_alpha   93.33570000
_cell_angle_beta   98.75870000
_cell_angle_gamma   111.12700000
_symmetry_Int_Tables_number   1
_chemical_formula_structural   Zn2H26C26N12ClO6
_chemical_formula_sum   'Zn4 H52 C52 N24 Cl2 O12'
_cell_volume   1663.09487878
_cell_formula_units_Z   2
loop_
 _symmetry_equiv_pos_site_id
 _symmetry_equiv_pos_as_xyz
  1  'x, y, z'
loop_
 _atom_site_type_symbol
 _atom_site_label
 _atom_site_symmetry_multiplicity
 _atom_site_fract_x
 _atom_site_fract_y
 _atom_site_fract_z
 _atom_site_occupancy
  Zn  Zn0  1  0.52223000  0.10979000  0.19976000  1.0
  Zn  Zn1  1  0.47778000  0.89022000  0.80024000  1.0
  Zn  Zn2  1  0.88625000  0.44567000  0.62545000  1.0
  Zn  Zn3  1  0.11375000  0.55433000  0.37455000  1.0
  H  H4  1  0.94693000  0.78745000  0.20913000  1.0
  H  H5  1  0.05307000  0.21255000  0.79087000  1.0
  H  H6  1  0.94478000  0.62688000  0.16434000  1.0
  H  H7  1  0.05522000  0.37312000  0.83567000  1.0
  H  H8  1  0.74302000  0.67543000  0.09211000  1.0
  H  H9  1  0.25698000  0.32458000  0.90789000  1.0
  H  H10  1  0.86894000  0.68296000  0.03151000  1.0
  H  H11  1  0.13106000  0.31704000  0.96849000  1.0
  H  H12  1  0.97280000  0.95182000  0.06346000  1.0
  H  H13  1  0.02720000  0.04818000  0.93654000  1.0
  H  H14  1  0.79644000  0.87644000  0.00713000  1.0
  H  H15  1  0.20356000  0.12356000  0.99287000  1.0
  H  H16  1  0.20015000  0.96347000  0.24813000  1.0
  H  H17  1  0.79985000  0.03653000  0.75187000  1.0
  H  H18  1  0.35404000  0.87192000  0.04710000  1.0
  H  H19  1  0.64596000  0.12808000  0.95290000  1.0
  H  H20  1  0.83220000  0.11608000  0.28579000  1.0
  H  H21  1  0.16779000  0.88392000  0.71421000  1.0
  H  H22  1  0.60736000  0.94165000  0.05592000  1.0
  H  H23  1  0.39264000  0.05834000  0.94408000  1.0
  H  H24  1  0.58733000  0.32928000  0.93872000  1.0
  H  H25  1  0.41267000  0.67072000  0.06128000  1.0
  H  H26  1  0.43097000  0.47181000  0.13091000  1.0
  H  H27  1  0.56903000  0.52819000  0.86909000  1.0
  H  H28  1  0.68703000  0.04017000  0.41809000  1.0
  H  H29  1  0.31298000  0.95982000  0.58191000  1.0
  H  H30  1  0.29590000  0.07443000  0.45893000  1.0
  H  H31  1  0.70411000  0.92557000  0.54107000  1.0
  H  H32  1  0.50974000  0.45018000  0.32198000  1.0
  H  H33  1  0.49026000  0.54982000  0.67802000  1.0
  H  H34  1  0.65671000  0.40298000  0.31124000  1.0
  H  H35  1  0.34330000  0.59701000  0.68876000  1.0
  H  H36  1  0.80730000  0.64882000  0.29737000  1.0
  H  H37  1  0.19270000  0.35117000  0.70263000  1.0
  H  H38  1  0.65042000  0.57479000  0.22466000  1.0
  H  H39  1  0.34958000  0.42521000  0.77534000  1.0
  H  H40  1  0.69840000  0.79068000  0.36762000  1.0
  H  H41  1  0.30160000  0.20932000  0.63238000  1.0
  H  H42  1  0.69574000  0.82373000  0.26838000  1.0
  H  H43  1  0.30427000  0.17627000  0.73162000  1.0
  H  H44  1  0.70825000  0.67125000  0.58567000  1.0
  H  H45  1  0.29175000  0.32875000  0.41433000  1.0
  H  H46  1  0.80028000  0.38640000  0.43765000  1.0
  H  H47  1  0.19971000  0.61360000  0.56235000  1.0
  H  H48  1  0.18717000  0.58615000  0.19462000  1.0
  H  H49  1  0.81284000  0.41385000  0.80538000  1.0
  H  H50  1  0.46344000  0.70790000  0.41475000  1.0
  H  H51  1  0.53656000  0.29210000  0.58526000  1.0
  H  H52  1  0.98635000  0.98528000  0.64116000  1.0
  H  H53  1  0.01365000  0.01473000  0.35883000  1.0
  H  H54  1  0.96668000  0.20150000  0.43807000  1.0
  H  H55  1  0.03331000  0.79850000  0.56192000  1.0
  C  C56  1  0.95833000  0.73580000  0.15500000  1.0
  C  C57  1  0.04167000  0.26421000  0.84501000  1.0
  C  C58  1  0.85176000  0.73676000  0.08336000  1.0
  C  C59  1  0.14824000  0.26324000  0.91664000  1.0
  C  C60  1  0.86186000  0.88354000  0.06469000  1.0
  C  C61  1  0.13814000  0.11646000  0.93531000  1.0
  C  C62  1  0.20998000  0.91803000  0.19223000  1.0
  C  C63  1  0.79002000  0.08197000  0.80777000  1.0
  C  C64  1  0.28507000  0.86880000  0.08959000  1.0
  C  C65  1  0.71494000  0.13120000  0.91042000  1.0
  C  C66  1  0.80401000  0.06184000  0.22672000  1.0
  C  C67  1  0.19599000  0.93816000  0.77328000  1.0
  C  C68  1  0.68666000  0.97669000  0.11022000  1.0
  C  C69  1  0.31333000  0.02330000  0.88978000  1.0
  C  C70  1  0.51089000  0.38819000  0.03957000  1.0
  C  C71  1  0.48912000  0.61180000  0.96043000  1.0
  C  C72  1  0.54934000  0.40412000  0.96563000  1.0
  C  C73  1  0.45066000  0.59588000  0.03437000  1.0
  C  C74  1  0.46118000  0.48456000  0.07358000  1.0
  C  C75  1  0.53882000  0.51544000  0.92642000  1.0
  C  C76  1  0.52054000  0.26812000  0.08183000  1.0
  C  C77  1  0.47946000  0.73188000  0.91817000  1.0
  C  C78  1  0.49056000  0.06433000  0.43159000  1.0
  C  C79  1  0.50944000  0.93567000  0.56842000  1.0
  C  C80  1  0.60557000  0.02193000  0.45437000  1.0
  C  C81  1  0.39444000  0.97807000  0.54563000  1.0
  C  C82  1  0.38519000  0.04220000  0.47778000  1.0
  C  C83  1  0.61482000  0.95780000  0.52223000  1.0
  C  C84  1  0.47429000  0.12431000  0.35554000  1.0
  C  C85  1  0.52571000  0.87569000  0.64446000  1.0
  C  C86  1  0.62719000  0.48980000  0.33182000  1.0
  C  C87  1  0.37281000  0.51020000  0.66818000  1.0
  C  C88  1  0.69015000  0.61474000  0.28725000  1.0
  C  C89  1  0.30985000  0.38526000  0.71275000  1.0
  C  C90  1  0.65343000  0.74350000  0.30661000  1.0
  C  C91  1  0.34657000  0.25650000  0.69339000  1.0
  C  C92  1  0.71232000  0.60779000  0.53426000  1.0
  C  C93  1  0.28768000  0.39221000  0.46574000  1.0
  C  C94  1  0.76045000  0.46285000  0.46036000  1.0
  C  C95  1  0.23955000  0.53715000  0.53964000  1.0
  C  C96  1  0.28305000  0.62586000  0.23966000  1.0
  C  C97  1  0.71695000  0.37414000  0.76034000  1.0
  C  C98  1  0.41925000  0.68733000  0.35250000  1.0
  C  C99  1  0.58075000  0.31266000  0.64750000  1.0
  C  C100  1  0.97523000  0.10413000  0.54433000  1.0
  C  C101  1  0.02476000  0.89588000  0.45566000  1.0
  C  C102  1  0.99401000  0.99088000  0.57944000  1.0
  C  C103  1  0.00598000  0.00913000  0.42055000  1.0
  C  C104  1  0.98138000  0.11279000  0.46459000  1.0
  C  C105  1  0.01861000  0.88722000  0.53540000  1.0
  C  C106  1  0.94519000  0.21260000  0.59233000  1.0
  C  C107  1  0.05480000  0.78741000  0.40766000  1.0
  N  N108  1  0.10533000  0.81110000  0.14492000  1.0
  N  N109  1  0.89467000  0.18890000  0.85508000  1.0
  N  N110  1  0.15095000  0.77817000  0.07916000  1.0
  N  N111  1  0.84905000  0.22183000  0.92084000  1.0
  N  N112  1  0.32623000  0.95699000  0.15857000  1.0
  N  N113  1  0.67378000  0.04301000  0.84143000  1.0
  N  N114  1  0.81024000  0.95553000  0.12068000  1.0
  N  N115  1  0.18975000  0.04447000  0.87931000  1.0
  N  N116  1  0.88721000  0.00936000  0.19464000  1.0
  N  N117  1  0.11279000  0.99064000  0.80536000  1.0
  N  N118  1  0.67961000  0.04405000  0.17683000  1.0
  N  N119  1  0.32039000  0.95595000  0.82317000  1.0
  N  N120  1  0.67991000  0.51933000  0.41652000  1.0
  N  N121  1  0.32009000  0.48066000  0.58348000  1.0
  N  N122  1  0.64789000  0.61210000  0.46273000  1.0
  N  N123  1  0.35211000  0.38790000  0.53727000  1.0
  N  N124  1  0.78285000  0.51663000  0.53558000  1.0
  N  N125  1  0.21714000  0.48337000  0.46442000  1.0
  N  N126  1  0.49924000  0.70748000  0.29652000  1.0
  N  N127  1  0.50076000  0.29252000  0.70348000  1.0
  N  N128  1  0.41421000  0.66872000  0.22392000  1.0
  N  N129  1  0.58579000  0.33128000  0.77608000  1.0
  N  N130  1  0.28109000  0.63532000  0.31822000  1.0
  N  N131  1  0.71891000  0.36468000  0.68178000  1.0
  Cl  Cl132  1  0.07241000  0.60109000  0.70708000  1.0
  Cl  Cl133  1  0.92759000  0.39891000  0.29292000  1.0
  O  O134  1  0.52576000  0.28413000  0.15672000  1.0
  O  O135  1  0.47424000  0.71587000  0.84328000  1.0
  O  O136  1  0.52067000  0.15903000  0.04447000  1.0
  O  O137  1  0.47933000  0.84097000  0.95553000  1.0
  O  O138  1  0.56920000  0.12267000  0.31335000  1.0
  O  O139  1  0.43081000  0.87734000  0.68665000  1.0
  O  O140  1  0.37464000  0.16635000  0.33582000  1.0
  O  O141  1  0.62536000  0.83365000  0.66419000  1.0
  O  O142  1  0.92431000  0.31149000  0.55479000  1.0
  O  O143  1  0.07568000  0.68851000  0.44521000  1.0
  O  O144  1  0.94173000  0.20534000  0.66376000  1.0
  O  O145  1  0.05827000  0.79467000  0.33623000  1.0
