# generated using pymatgen
data_ZnH8C23I2(NO3)2
_symmetry_space_group_name_H-M   'P 1'
_cell_length_a   13.83280000
_cell_length_b   15.31790000
_cell_length_c   16.11450000
_cell_angle_alpha   90.64110000
_cell_angle_beta   90.10650000
_cell_angle_gamma   90.88500000
_symmetry_Int_Tables_number   1
_chemical_formula_structural   ZnH8C23I2(NO3)2
_chemical_formula_sum   'Zn2 H16 C46 I4 N4 O12'
_cell_volume   3413.86441390
_cell_formula_units_Z   2
loop_
 _symmetry_equiv_pos_site_id
 _symmetry_equiv_pos_as_xyz
  1  'x, y, z'
loop_
 _atom_site_type_symbol
 _atom_site_label
 _atom_site_symmetry_multiplicity
 _atom_site_fract_x
 _atom_site_fract_y
 _atom_site_fract_z
 _atom_site_occupancy
  Zn  Zn0  1  0.59968000  0.49973000  0.49995000  1.0
  Zn  Zn1  1  0.40032000  0.50027000  0.50005000  1.0
  H  H2  1  0.41482000  0.36943000  0.94651000  1.0
  H  H3  1  0.58518000  0.63057000  0.05349000  1.0
  H  H4  1  0.58086000  0.36944000  0.05054000  1.0
  H  H5  1  0.41914000  0.63056000  0.94946000  1.0
  H  H6  1  0.33257000  0.50001000  0.05009000  1.0
  H  H7  1  0.66743000  0.49999000  0.94991000  1.0
  H  H8  1  0.40822000  0.77381000  0.59811000  1.0
  H  H9  1  0.59178000  0.22619000  0.40188000  1.0
  H  H10  1  0.64729000  0.92626000  0.32855000  1.0
  H  H11  1  0.35271000  0.07374000  0.67145000  1.0
  H  H12  1  0.75262000  0.60232000  0.58337000  1.0
  H  H13  1  0.24738000  0.39768000  0.41664000  1.0
  H  H14  1  0.74900000  0.40172000  0.40967000  1.0
  H  H15  1  0.25100000  0.59828000  0.59033000  1.0
  H  H16  1  0.08877000  0.33202000  0.36125000  1.0
  H  H17  1  0.91123000  0.66798000  0.63876000  1.0
  C  C18  1  0.49809000  0.32913000  0.50294000  1.0
  C  C19  1  0.50191000  0.67086000  0.49706000  1.0
  C  C20  1  0.50133000  0.50239000  0.66213000  1.0
  C  C21  1  0.49867000  0.49761000  0.33787000  1.0
  C  C22  1  0.54503000  0.42738000  0.02709000  1.0
  C  C23  1  0.45497000  0.57262000  0.97291000  1.0
  C  C24  1  0.45251000  0.42741000  0.97126000  1.0
  C  C25  1  0.54749000  0.57259000  0.02875000  1.0
  C  C26  1  0.50064000  0.50140000  0.75147000  1.0
  C  C27  1  0.49936000  0.49860000  0.24853000  1.0
  C  C28  1  0.59316000  0.50004000  0.97300000  1.0
  C  C29  1  0.40684000  0.49996000  0.02700000  1.0
  C  C30  1  0.50088000  0.50008000  0.91478000  1.0
  C  C31  1  0.49912000  0.49992000  0.08522000  1.0
  C  C32  1  0.50041000  0.50045000  0.82709000  1.0
  C  C33  1  0.49958000  0.49955000  0.17291000  1.0
  C  C34  1  0.44909000  0.81245000  0.55345000  1.0
  C  C35  1  0.55091000  0.18755000  0.44655000  1.0
  C  C36  1  0.50273000  0.76888000  0.49303000  1.0
  C  C37  1  0.49728000  0.23112000  0.50696000  1.0
  C  C38  1  0.55355000  0.81671000  0.43323000  1.0
  C  C39  1  0.44645000  0.18329000  0.56676000  1.0
  C  C40  1  0.55354000  0.90914000  0.43485000  1.0
  C  C41  1  0.44646000  0.09086000  0.56514000  1.0
  C  C42  1  0.50001000  0.95342000  0.49863000  1.0
  C  C43  1  0.49999000  0.04658000  0.50136000  1.0
  C  C44  1  0.44650000  0.90358000  0.55824000  1.0
  C  C45  1  0.55350000  0.09642000  0.44175000  1.0
  C  C46  1  0.60644000  0.96046000  0.37622000  1.0
  C  C47  1  0.39356000  0.03954000  0.62378000  1.0
  C  C48  1  0.60737000  0.04951000  0.38001000  1.0
  C  C49  1  0.39264000  0.95049000  0.61999000  1.0
  C  C50  1  0.79635000  0.55807000  0.54608000  1.0
  C  C51  1  0.20365000  0.44193000  0.45392000  1.0
  C  C52  1  0.79453000  0.44451000  0.44789000  1.0
  C  C53  1  0.20546000  0.55549000  0.55211000  1.0
  C  C54  1  0.89600000  0.44113000  0.44522000  1.0
  C  C55  1  0.10400000  0.55886000  0.55479000  1.0
  C  C56  1  0.94866000  0.50007000  0.49840000  1.0
  C  C57  1  0.05133000  0.49993000  0.50161000  1.0
  C  C58  1  0.89755000  0.56045000  0.54900000  1.0
  C  C59  1  0.10245000  0.43955000  0.45100000  1.0
  C  C60  1  0.95147000  0.38106000  0.39577000  1.0
  C  C61  1  0.04853000  0.61894000  0.60424000  1.0
  C  C62  1  0.05007000  0.37935000  0.39911000  1.0
  C  C63  1  0.94993000  0.62065000  0.60090000  1.0
  I  I64  1  0.62366000  0.74893000  0.33600000  1.0
  I  I65  1  0.37635000  0.25106000  0.66400000  1.0
  I  I66  1  0.69358000  0.11810000  0.29370000  1.0
  I  I67  1  0.30642000  0.88190000  0.70629000  1.0
  N  N68  1  0.74813000  0.50097000  0.49745000  1.0
  N  N69  1  0.25187000  0.49902000  0.50255000  1.0
  N  N70  1  0.90383000  0.31956000  0.33655000  1.0
  N  N71  1  0.09617000  0.68044000  0.66347000  1.0
  O  O72  1  0.58099000  0.36600000  0.50216000  1.0
  O  O73  1  0.41901000  0.63400000  0.49784000  1.0
  O  O74  1  0.41688000  0.36629000  0.49831000  1.0
  O  O75  1  0.58313000  0.63371000  0.50169000  1.0
  O  O76  1  0.58384000  0.50226000  0.62690000  1.0
  O  O77  1  0.41615000  0.49774000  0.37310000  1.0
  O  O78  1  0.41917000  0.50311000  0.62598000  1.0
  O  O79  1  0.58083000  0.49689000  0.37402000  1.0
  O  O80  1  0.82982000  0.34478000  0.30113000  1.0
  O  O81  1  0.94243000  0.24813000  0.32503000  1.0
  O  O82  1  0.17018000  0.65521000  0.69888000  1.0
  O  O83  1  0.05757000  0.75186000  0.67499000  1.0
