# generated using pymatgen
data_DyH6C9O7
_symmetry_space_group_name_H-M   'P 1'
_cell_length_a   7.04605000
_cell_length_b   7.59835000
_cell_length_c   10.23650000
_cell_angle_alpha   75.79390000
_cell_angle_beta   71.42020000
_cell_angle_gamma   88.38300000
_symmetry_Int_Tables_number   1
_chemical_formula_structural   DyH6C9O7
_chemical_formula_sum   'Dy2 H12 C18 O14'
_cell_volume   502.85017344
_cell_formula_units_Z   2
loop_
 _symmetry_equiv_pos_site_id
 _symmetry_equiv_pos_as_xyz
  1  'x, y, z'
loop_
 _atom_site_type_symbol
 _atom_site_label
 _atom_site_symmetry_multiplicity
 _atom_site_fract_x
 _atom_site_fract_y
 _atom_site_fract_z
 _atom_site_occupancy
  Dy  Dy0  1  0.31132000  0.21547000  0.01691000  1.0
  Dy  Dy1  1  0.68868000  0.78453000  0.98309000  1.0
  H  H2  1  0.17588000  0.13424000  0.59894000  1.0
  H  H3  1  0.82412000  0.86576000  0.40106000  1.0
  H  H4  1  0.71346000  0.88688000  0.65160000  1.0
  H  H5  1  0.28654000  0.11312000  0.34840000  1.0
  H  H6  1  0.69428000  0.29340000  0.58995000  1.0
  H  H7  1  0.30572000  0.70660000  0.41005000  1.0
  H  H8  1  0.05930000  0.69487000  0.64858000  1.0
  H  H9  1  0.94070000  0.30513000  0.35142000  1.0
  H  H10  1  0.99966000  0.91329000  0.16791000  1.0
  H  H11  1  0.00034000  0.08671000  0.83209000  1.0
  H  H12  1  0.21842000  0.84046000  0.16720000  1.0
  H  H13  1  0.78158000  0.15954000  0.83280000  1.0
  C  C14  1  0.37557000  0.03290000  0.79004000  1.0
  C  C15  1  0.62443000  0.96710000  0.20996000  1.0
  C  C16  1  0.43699000  0.01042000  0.64215000  1.0
  C  C17  1  0.56301000  0.98958000  0.35786000  1.0
  C  C18  1  0.31750000  0.07512000  0.55572000  1.0
  C  C19  1  0.68249000  0.92488000  0.44428000  1.0
  C  C20  1  0.62023000  0.93597000  0.58512000  1.0
  C  C21  1  0.37977000  0.06403000  0.41489000  1.0
  C  C22  1  0.71469000  0.48241000  0.77831000  1.0
  C  C23  1  0.28531000  0.51759000  0.22169000  1.0
  C  C24  1  0.86134000  0.49299000  0.63394000  1.0
  C  C25  1  0.13866000  0.50701000  0.36606000  1.0
  C  C26  1  0.82909000  0.38280000  0.55046000  1.0
  C  C27  1  0.17092000  0.61721000  0.44954000  1.0
  C  C28  1  0.03310000  0.61089000  0.58287000  1.0
  C  C29  1  0.96690000  0.38911000  0.41713000  1.0
  C  C30  1  0.91815000  0.43287000  0.05950000  1.0
  C  C31  1  0.08185000  0.56713000  0.94050000  1.0
  O  O32  1  0.47079000  0.96239000  0.87588000  1.0
  O  O33  1  0.52921000  0.03761000  0.12412000  1.0
  O  O34  1  0.23341000  0.13786000  0.82840000  1.0
  O  O35  1  0.76659000  0.86214000  0.17160000  1.0
  O  O36  1  0.62008000  0.32869000  0.84767000  1.0
  O  O37  1  0.37992000  0.67131000  0.15233000  1.0
  O  O38  1  0.69397000  0.62204000  0.82634000  1.0
  O  O39  1  0.30602000  0.37796000  0.17366000  1.0
  O  O40  1  0.96925000  0.27200000  0.09872000  1.0
  O  O41  1  0.03074000  0.72801000  0.90128000  1.0
  O  O42  1  0.74900000  0.49499000  0.10725000  1.0
  O  O43  1  0.25100000  0.50501000  0.89274000  1.0
  O  O44  1  0.13656000  0.94929000  0.16386000  1.0
  O  O45  1  0.86344000  0.05071000  0.83614000  1.0
