# generated using pymatgen
data_PrH14C15O7
_symmetry_space_group_name_H-M   'P 1'
_cell_length_a   10.47590000
_cell_length_b   12.05240000
_cell_length_c   12.40550000
_cell_angle_alpha   105.96400000
_cell_angle_beta   97.62950000
_cell_angle_gamma   92.15060000
_symmetry_Int_Tables_number   1
_chemical_formula_structural   PrH14C15O7
_chemical_formula_sum   'Pr4 H56 C60 O28'
_cell_volume   1488.06609211
_cell_formula_units_Z   4
loop_
 _symmetry_equiv_pos_site_id
 _symmetry_equiv_pos_as_xyz
  1  'x, y, z'
loop_
 _atom_site_type_symbol
 _atom_site_label
 _atom_site_symmetry_multiplicity
 _atom_site_fract_x
 _atom_site_fract_y
 _atom_site_fract_z
 _atom_site_occupancy
  Pr  Pr0  1  0.97172000  0.97314000  0.31873000  1.0
  Pr  Pr1  1  0.02828000  0.02686000  0.68127000  1.0
  Pr  Pr2  1  0.69263000  0.96106000  0.04573000  1.0
  Pr  Pr3  1  0.30737000  0.03894000  0.95427000  1.0
  H  H4  1  0.06813000  0.36523000  0.93993000  1.0
  H  H5  1  0.93187000  0.63477000  0.06007000  1.0
  H  H6  1  0.11459000  0.34422000  0.80628000  1.0
  H  H7  1  0.88541000  0.65578000  0.19372000  1.0
  H  H8  1  0.37992000  0.42288000  0.83165000  1.0
  H  H9  1  0.62008000  0.57712000  0.16836000  1.0
  H  H10  1  0.51259000  0.61105000  0.90874000  1.0
  H  H11  1  0.48741000  0.38895000  0.09126000  1.0
  H  H12  1  0.44149000  0.76887000  0.05570000  1.0
  H  H13  1  0.55851000  0.23114000  0.94430000  1.0
  H  H14  1  0.10800000  0.55099000  0.05852000  1.0
  H  H15  1  0.89201000  0.44901000  0.94148000  1.0
  H  H16  1  0.29449000  0.80713000  0.22530000  1.0
  H  H17  1  0.70551000  0.19287000  0.77470000  1.0
  H  H18  1  0.13927000  0.73676000  0.18775000  1.0
  H  H19  1  0.86073000  0.26325000  0.81225000  1.0
  H  H20  1  0.86484000  0.27651000  0.12690000  1.0
  H  H21  1  0.13516000  0.72349000  0.87310000  1.0
  H  H22  1  0.81184000  0.32158000  0.25793000  1.0
  H  H23  1  0.18816000  0.67842000  0.74207000  1.0
  H  H24  1  0.12852000  0.30559000  0.14018000  1.0
  H  H25  1  0.87149000  0.69441000  0.85982000  1.0
  H  H26  1  0.30236000  0.46423000  0.20352000  1.0
  H  H27  1  0.69764000  0.53577000  0.79647000  1.0
  H  H28  1  0.28490000  0.63650000  0.36526000  1.0
  H  H29  1  0.71510000  0.36350000  0.63474000  1.0
  H  H30  1  0.90655000  0.49914000  0.38634000  1.0
  H  H31  1  0.09345000  0.50085000  0.61366000  1.0
  H  H32  1  0.00451000  0.67586000  0.52817000  1.0
  H  H33  1  0.99549000  0.32414000  0.47183000  1.0
  H  H34  1  0.16939000  0.71721000  0.53719000  1.0
  H  H35  1  0.83061000  0.28279000  0.46281000  1.0
  H  H36  1  0.36152000  0.83651000  0.69991000  1.0
  H  H37  1  0.63847000  0.16349000  0.30009000  1.0
  H  H38  1  0.41378000  0.71031000  0.73221000  1.0
  H  H39  1  0.58622000  0.28969000  0.26780000  1.0
  H  H40  1  0.63421000  0.64150000  0.67378000  1.0
  H  H41  1  0.36579000  0.35849000  0.32622000  1.0
  H  H42  1  0.75633000  0.59480000  0.51278000  1.0
  H  H43  1  0.24367000  0.40520000  0.48722000  1.0
  H  H44  1  0.71171000  0.68934000  0.35718000  1.0
  H  H45  1  0.28829000  0.31066000  0.64282000  1.0
  H  H46  1  0.41865000  0.87524000  0.52811000  1.0
  H  H47  1  0.58135000  0.12476000  0.47189000  1.0
  H  H48  1  0.45212000  0.90084000  0.35456000  1.0
  H  H49  1  0.54788000  0.09916000  0.64545000  1.0
  H  H50  1  0.49408000  0.77591000  0.25820000  1.0
  H  H51  1  0.50592000  0.22409000  0.74181000  1.0
  H  H52  1  0.24975000  0.08051000  0.36916000  1.0
  H  H53  1  0.75025000  0.91948000  0.63084000  1.0
  H  H54  1  0.23446000  0.04450000  0.48075000  1.0
  H  H55  1  0.76554000  0.95550000  0.51924000  1.0
  H  H56  1  0.97222000  0.91032000  0.01998000  1.0
  H  H57  1  0.02778000  0.08968000  0.98002000  1.0
  H  H58  1  0.90678000  0.93915000  0.90721000  1.0
  H  H59  1  0.09322000  0.06085000  0.09279000  1.0
  C  C60  1  0.21636000  0.25471000  0.91196000  1.0
  C  C61  1  0.78364000  0.74529000  0.08804000  1.0
  C  C62  1  0.15375000  0.36146000  0.89645000  1.0
  C  C63  1  0.84625000  0.63854000  0.10356000  1.0
  C  C64  1  0.23454000  0.47442000  0.94031000  1.0
  C  C65  1  0.76546000  0.52558000  0.05969000  1.0
  C  C66  1  0.34762000  0.49258000  0.89670000  1.0
  C  C67  1  0.65238000  0.50742000  0.10330000  1.0
  C  C68  1  0.42174000  0.59797000  0.93880000  1.0
  C  C69  1  0.57826000  0.40204000  0.06120000  1.0
  C  C70  1  0.38293000  0.68690000  0.02358000  1.0
  C  C71  1  0.61708000  0.31310000  0.97642000  1.0
  C  C72  1  0.26811000  0.67189000  0.06602000  1.0
  C  C73  1  0.73189000  0.32811000  0.93398000  1.0
  C  C74  1  0.19575000  0.56501000  0.02393000  1.0
  C  C75  1  0.80425000  0.43499000  0.97607000  1.0
  C  C76  1  0.21895000  0.76832000  0.15231000  1.0
  C  C77  1  0.78105000  0.23168000  0.84769000  1.0
  C  C78  1  0.17819000  0.86887000  0.10738000  1.0
  C  C79  1  0.82181000  0.13113000  0.89261000  1.0
  C  C80  1  0.93164000  0.18198000  0.24119000  1.0
  C  C81  1  0.06836000  0.81802000  0.75881000  1.0
  C  C82  1  0.89836000  0.29574000  0.21852000  1.0
  C  C83  1  0.10164000  0.70426000  0.78148000  1.0
  C  C84  1  0.00513000  0.39147000  0.25858000  1.0
  C  C85  1  0.99487000  0.60853000  0.74142000  1.0
  C  C86  1  0.11736000  0.38296000  0.20766000  1.0
  C  C87  1  0.88264000  0.61704000  0.79234000  1.0
  C  C88  1  0.21657000  0.47126000  0.24534000  1.0
  C  C89  1  0.78343000  0.52874000  0.75466000  1.0
  C  C90  1  0.20622000  0.56822000  0.33512000  1.0
  C  C91  1  0.79378000  0.43178000  0.66488000  1.0
  C  C92  1  0.09420000  0.57917000  0.38630000  1.0
  C  C93  1  0.90580000  0.42083000  0.61370000  1.0
  C  C94  1  0.99446000  0.49058000  0.34704000  1.0
  C  C95  1  0.00554000  0.50942000  0.65296000  1.0
  C  C96  1  0.07930000  0.68800000  0.47706000  1.0
  C  C97  1  0.92070000  0.31200000  0.52294000  1.0
  C  C98  1  0.04337000  0.78781000  0.42984000  1.0
  C  C99  1  0.95663000  0.21219000  0.57015000  1.0
  C  C100  1  0.53018000  0.86125000  0.82239000  1.0
  C  C101  1  0.46982000  0.13875000  0.17761000  1.0
  C  C102  1  0.44760000  0.78979000  0.71331000  1.0
  C  C103  1  0.55240000  0.21020000  0.28669000  1.0
  C  C104  1  0.51774000  0.76103000  0.61219000  1.0
  C  C105  1  0.48226000  0.23897000  0.38781000  1.0
  C  C106  1  0.61282000  0.68202000  0.60590000  1.0
  C  C107  1  0.38717000  0.31798000  0.39410000  1.0
  C  C108  1  0.68217000  0.65620000  0.51487000  1.0
  C  C109  1  0.31783000  0.34380000  0.48513000  1.0
  C  C110  1  0.65713000  0.70930000  0.42837000  1.0
  C  C111  1  0.34287000  0.29069000  0.57163000  1.0
  C  C112  1  0.56208000  0.78878000  0.43255000  1.0
  C  C113  1  0.43792000  0.21122000  0.56745000  1.0
  C  C114  1  0.49318000  0.81375000  0.52484000  1.0
  C  C115  1  0.50682000  0.18625000  0.47516000  1.0
  C  C116  1  0.53079000  0.84314000  0.33783000  1.0
  C  C117  1  0.46921000  0.15686000  0.66217000  1.0
  C  C118  1  0.63811000  0.91319000  0.30736000  1.0
  C  C119  1  0.36189000  0.08681000  0.69264000  1.0
  O  O120  1  0.16426000  0.15544000  0.84715000  1.0
  O  O121  1  0.83574000  0.84456000  0.15285000  1.0
  O  O122  1  0.31140000  0.25864000  0.98714000  1.0
  O  O123  1  0.68859000  0.74136000  0.01286000  1.0
  O  O124  1  0.09218000  0.93275000  0.15253000  1.0
  O  O125  1  0.90782000  0.06725000  0.84746000  1.0
  O  O126  1  0.22902000  0.88653000  0.02652000  1.0
  O  O127  1  0.77097000  0.11347000  0.97348000  1.0
  O  O128  1  0.84432000  0.09493000  0.20588000  1.0
  O  O129  1  0.15568000  0.90507000  0.79412000  1.0
  O  O130  1  0.03846000  0.17073000  0.29575000  1.0
  O  O131  1  0.96154000  0.82927000  0.70425000  1.0
  O  O132  1  0.03685000  0.88874000  0.49801000  1.0
  O  O133  1  0.96315000  0.11126000  0.50199000  1.0
  O  O134  1  0.01969000  0.77266000  0.32395000  1.0
  O  O135  1  0.98031000  0.22734000  0.67605000  1.0
  O  O136  1  0.47352000  0.89635000  0.91148000  1.0
  O  O137  1  0.52648000  0.10365000  0.08852000  1.0
  O  O138  1  0.64980000  0.88229000  0.82824000  1.0
  O  O139  1  0.35021000  0.11771000  0.17176000  1.0
  O  O140  1  0.60893000  0.94133000  0.21664000  1.0
  O  O141  1  0.39107000  0.05867000  0.78336000  1.0
  O  O142  1  0.74762000  0.94031000  0.37181000  1.0
  O  O143  1  0.25238000  0.05969000  0.62819000  1.0
  O  O144  1  0.21140000  0.02014000  0.39645000  1.0
  O  O145  1  0.78861000  0.97986000  0.60355000  1.0
  O  O146  1  0.89508000  0.89471000  0.96180000  1.0
  O  O147  1  0.10491000  0.10529000  0.03820000  1.0
