# generated using pymatgen
data_HgTeH17C13S2NO2
_symmetry_space_group_name_H-M   'P 1'
_cell_length_a   7.31463000
_cell_length_b   10.28740000
_cell_length_c   22.03480000
_cell_angle_alpha   81.48480000
_cell_angle_beta   88.29870000
_cell_angle_gamma   73.08910000
_symmetry_Int_Tables_number   1
_chemical_formula_structural   HgTeH17C13S2NO2
_chemical_formula_sum   'Hg4 Te4 H68 C52 S8 N4 O8'
_cell_volume   1568.74337465
_cell_formula_units_Z   4
loop_
 _symmetry_equiv_pos_site_id
 _symmetry_equiv_pos_as_xyz
  1  'x, y, z'
loop_
 _atom_site_type_symbol
 _atom_site_label
 _atom_site_symmetry_multiplicity
 _atom_site_fract_x
 _atom_site_fract_y
 _atom_site_fract_z
 _atom_site_occupancy
  Hg  Hg0  1  0.25657000  0.47794000  0.71364000  1.0
  Hg  Hg1  1  0.74343000  0.52207000  0.28636000  1.0
  Hg  Hg2  1  0.71703000  0.55129000  0.74419000  1.0
  Hg  Hg3  1  0.28298000  0.44871000  0.25581000  1.0
  Te  Te4  1  0.02552000  0.30550000  0.74336000  1.0
  Te  Te5  1  0.97449000  0.69450000  0.25664000  1.0
  Te  Te6  1  0.43842000  0.49569000  0.82397000  1.0
  Te  Te7  1  0.56158000  0.50431000  0.17603000  1.0
  H  H8  1  0.78274000  0.46442000  0.51264000  1.0
  H  H9  1  0.21727000  0.53559000  0.48736000  1.0
  H  H10  1  0.84809000  0.57138000  0.55944000  1.0
  H  H11  1  0.15191000  0.42862000  0.44056000  1.0
  H  H12  1  0.90221000  0.68737000  0.45927000  1.0
  H  H13  1  0.09779000  0.31264000  0.54072000  1.0
  H  H14  1  0.72486000  0.63563000  0.42409000  1.0
  H  H15  1  0.27513000  0.36437000  0.57591000  1.0
  H  H16  1  0.55365000  0.87456000  0.43350000  1.0
  H  H17  1  0.44635000  0.12544000  0.56650000  1.0
  H  H18  1  0.65569000  0.85940000  0.50747000  1.0
  H  H19  1  0.34431000  0.14061000  0.49253000  1.0
  H  H20  1  0.35439000  0.81518000  0.53650000  1.0
  H  H21  1  0.64561000  0.18482000  0.46350000  1.0
  H  H22  1  0.35635000  0.72782000  0.47207000  1.0
  H  H23  1  0.64365000  0.27218000  0.52793000  1.0
  H  H24  1  0.22781000  0.83455000  0.70074000  1.0
  H  H25  1  0.77219000  0.16545000  0.29926000  1.0
  H  H26  1  0.06852000  0.98625000  0.72299000  1.0
  H  H27  1  0.93148000  0.01375000  0.27701000  1.0
  H  H28  1  0.22434000  0.09589000  0.64315000  1.0
  H  H29  1  0.77566000  0.90410000  0.35685000  1.0
  H  H30  1  0.29000000  0.94889000  0.60501000  1.0
  H  H31  1  0.71000000  0.05111000  0.39499000  1.0
  H  H32  1  0.02278000  0.09873000  0.53980000  1.0
  H  H33  1  0.97721000  0.90127000  0.46020000  1.0
  H  H34  1  0.89828000  0.16503000  0.60388000  1.0
  H  H35  1  0.10172000  0.83497000  0.39612000  1.0
  H  H36  1  0.74119000  0.99221000  0.59336000  1.0
  H  H37  1  0.25880000  0.00779000  0.40664000  1.0
  H  H38  1  0.95225000  0.87991000  0.56681000  1.0
  H  H39  1  0.04775000  0.12009000  0.43319000  1.0
  H  H40  1  0.12952000  0.35892000  0.97500000  1.0
  H  H41  1  0.87047000  0.64108000  0.02501000  1.0
  H  H42  1  0.33939000  0.12080000  0.00182000  1.0
  H  H43  1  0.66059000  0.87920000  0.99818000  1.0
  H  H44  1  0.41401000  0.96203000  0.92496000  1.0
  H  H45  1  0.58599000  0.03797000  0.07504000  1.0
  H  H46  1  0.40199000  0.84320000  0.78120000  1.0
  H  H47  1  0.59802000  0.15680000  0.21880000  1.0
  H  H48  1  0.30765000  0.83307000  0.85707000  1.0
  H  H49  1  0.69236000  0.16693000  0.14293000  1.0
  H  H50  1  0.52840000  0.87689000  0.84225000  1.0
  H  H51  1  0.47160000  0.12311000  0.15775000  1.0
  H  H52  1  0.82148000  0.65076000  0.88382000  1.0
  H  H53  1  0.17852000  0.34924000  0.11618000  1.0
  H  H54  1  0.04795000  0.57625000  0.92271000  1.0
  H  H55  1  0.95205000  0.42375000  0.07729000  1.0
  H  H56  1  0.84513000  0.51603000  0.94746000  1.0
  H  H57  1  0.15487000  0.48397000  0.05254000  1.0
  H  H58  1  0.80671000  0.97455000  0.80956000  1.0
  H  H59  1  0.19328000  0.02545000  0.19044000  1.0
  H  H60  1  0.93488000  0.92467000  0.91531000  1.0
  H  H61  1  0.06511000  0.07533000  0.08469000  1.0
  H  H62  1  0.84871000  0.09994000  0.98492000  1.0
  H  H63  1  0.15129000  0.90006000  0.01508000  1.0
  H  H64  1  0.60827000  0.41811000  0.03643000  1.0
  H  H65  1  0.39173000  0.58189000  0.96357000  1.0
  H  H66  1  0.82504000  0.28800000  0.02366000  1.0
  H  H67  1  0.17496000  0.71200000  0.97634000  1.0
  H  H68  1  0.60533000  0.24447000  0.03644000  1.0
  H  H69  1  0.39467000  0.75553000  0.96356000  1.0
  H  H70  1  0.52189000  0.16613000  0.67925000  1.0
  H  H71  1  0.47811000  0.83388000  0.32075000  1.0
  H  H72  1  0.56989000  0.02532000  0.74094000  1.0
  H  H73  1  0.43011000  0.97468000  0.25906000  1.0
  H  H74  1  0.75985000  0.09161000  0.70958000  1.0
  H  H75  1  0.24016000  0.90839000  0.29042000  1.0
  C  C76  1  0.75107000  0.57037000  0.52232000  1.0
  C  C77  1  0.24893000  0.42963000  0.47768000  1.0
  C  C78  1  0.75973000  0.67300000  0.46522000  1.0
  C  C79  1  0.24027000  0.32701000  0.53478000  1.0
  C  C80  1  0.60409000  0.80393000  0.47591000  1.0
  C  C81  1  0.39591000  0.19607000  0.52409000  1.0
  C  C82  1  0.44681000  0.74853000  0.50643000  1.0
  C  C83  1  0.55319000  0.25147000  0.49357000  1.0
  C  C84  1  0.11401000  0.92852000  0.68417000  1.0
  C  C85  1  0.88599000  0.07147000  0.31583000  1.0
  C  C86  1  0.17338000  0.01469000  0.62890000  1.0
  C  C87  1  0.82662000  0.98530000  0.37110000  1.0
  C  C88  1  0.99262000  0.07179000  0.58834000  1.0
  C  C89  1  0.00738000  0.92820000  0.41166000  1.0
  C  C90  1  0.89749000  0.95655000  0.59813000  1.0
  C  C91  1  0.10251000  0.04345000  0.40187000  1.0
  C  C92  1  0.48278000  0.55596000  0.59205000  1.0
  C  C93  1  0.51723000  0.44404000  0.40795000  1.0
  C  C94  1  0.87306000  0.80060000  0.69345000  1.0
  C  C95  1  0.12694000  0.19940000  0.30655000  1.0
  C  C96  1  0.12547000  0.24579000  0.83647000  1.0
  C  C97  1  0.87453000  0.75421000  0.16353000  1.0
  C  C98  1  0.08225000  0.33418000  0.88125000  1.0
  C  C99  1  0.91775000  0.66582000  0.11875000  1.0
  C  C100  1  0.15995000  0.28956000  0.94085000  1.0
  C  C101  1  0.84004000  0.71045000  0.05915000  1.0
  C  C102  1  0.27840000  0.15589000  0.95567000  1.0
  C  C103  1  0.72160000  0.84411000  0.04433000  1.0
  C  C104  1  0.31919000  0.06536000  0.91269000  1.0
  C  C105  1  0.68081000  0.93463000  0.08731000  1.0
  C  C106  1  0.24279000  0.11054000  0.85312000  1.0
  C  C107  1  0.75720000  0.88945000  0.14688000  1.0
  C  C108  1  0.38556000  0.88748000  0.82395000  1.0
  C  C109  1  0.61445000  0.11252000  0.17605000  1.0
  C  C110  1  0.91794000  0.55575000  0.90775000  1.0
  C  C111  1  0.08207000  0.44425000  0.09225000  1.0
  C  C112  1  0.60452000  0.28966000  0.85544000  1.0
  C  C113  1  0.39547000  0.71034000  0.14455000  1.0
  C  C114  1  0.64689000  0.18582000  0.81773000  1.0
  C  C115  1  0.35311000  0.81418000  0.18227000  1.0
  C  C116  1  0.76762000  0.05433000  0.83905000  1.0
  C  C117  1  0.23237000  0.94567000  0.16095000  1.0
  C  C118  1  0.83941000  0.02642000  0.89887000  1.0
  C  C119  1  0.16058000  0.97359000  0.10113000  1.0
  C  C120  1  0.79202000  0.12509000  0.93823000  1.0
  C  C121  1  0.20798000  0.87491000  0.06177000  1.0
  C  C122  1  0.67476000  0.25688000  0.91612000  1.0
  C  C123  1  0.32524000  0.74312000  0.08388000  1.0
  C  C124  1  0.66924000  0.32475000  0.01564000  1.0
  C  C125  1  0.33076000  0.67525000  0.98436000  1.0
  C  C126  1  0.60760000  0.11801000  0.72083000  1.0
  C  C127  1  0.39240000  0.88198000  0.27917000  1.0
  S  S128  1  0.24736000  0.63108000  0.61121000  1.0
  S  S129  1  0.75264000  0.36892000  0.38879000  1.0
  S  S130  1  0.61954000  0.40912000  0.63371000  1.0
  S  S131  1  0.38047000  0.59087000  0.36629000  1.0
  S  S132  1  0.95323000  0.72811000  0.76617000  1.0
  S  S133  1  0.04677000  0.27189000  0.23383000  1.0
  S  S134  1  0.69210000  0.75864000  0.65925000  1.0
  S  S135  1  0.30790000  0.24136000  0.34075000  1.0
  N  N136  1  0.55254000  0.61845000  0.54301000  1.0
  N  N137  1  0.44746000  0.38155000  0.45699000  1.0
  N  N138  1  0.95233000  0.89081000  0.66124000  1.0
  N  N139  1  0.04767000  0.10919000  0.33876000  1.0
  O  O140  1  0.96224000  0.46271000  0.86379000  1.0
  O  O141  1  0.03777000  0.53729000  0.13621000  1.0
  O  O142  1  0.27844000  0.02869000  0.80797000  1.0
  O  O143  1  0.72157000  0.97131000  0.19203000  1.0
  O  O144  1  0.56350000  0.21974000  0.76098000  1.0
  O  O145  1  0.43649000  0.78026000  0.23902000  1.0
  O  O146  1  0.62342000  0.36083000  0.95157000  1.0
  O  O147  1  0.37658000  0.63917000  0.04843000  1.0
