# generated using pymatgen
data_AgH11C15S(NO)3
_symmetry_space_group_name_H-M   'P 1'
_cell_length_a   7.51108000
_cell_length_b   9.77290000
_cell_length_c   10.23180000
_cell_angle_alpha   79.68290000
_cell_angle_beta   70.70120000
_cell_angle_gamma   80.23260000
_symmetry_Int_Tables_number   1
_chemical_formula_structural   AgH11C15S(NO)3
_chemical_formula_sum   'Ag2 H22 C30 S2 N6 O6'
_cell_volume   692.44843894
_cell_formula_units_Z   2
loop_
 _symmetry_equiv_pos_site_id
 _symmetry_equiv_pos_as_xyz
  1  'x, y, z'
loop_
 _atom_site_type_symbol
 _atom_site_label
 _atom_site_symmetry_multiplicity
 _atom_site_fract_x
 _atom_site_fract_y
 _atom_site_fract_z
 _atom_site_occupancy
  Ag  Ag0  1  0.23359000  0.65662000  0.12676000  1.0
  Ag  Ag1  1  0.76641000  0.34338000  0.87324000  1.0
  H  H2  1  0.16583000  0.89003000  0.89966000  1.0
  H  H3  1  0.83417000  0.10997000  0.10034000  1.0
  H  H4  1  0.30538000  0.95377000  0.64241000  1.0
  H  H5  1  0.69464000  0.04623000  0.35759000  1.0
  H  H6  1  0.54504000  0.78122000  0.50348000  1.0
  H  H7  1  0.45496000  0.21879000  0.49652000  1.0
  H  H8  1  0.46694000  0.49296000  0.88587000  1.0
  H  H9  1  0.53306000  0.50704000  0.11413000  1.0
  H  H10  1  0.01705000  0.14690000  0.64458000  1.0
  H  H11  1  0.98295000  0.85309000  0.35542000  1.0
  H  H12  1  0.19787000  0.07183000  0.40987000  1.0
  H  H13  1  0.80213000  0.92817000  0.59013000  1.0
  H  H14  1  0.17171000  0.22086000  0.19248000  1.0
  H  H15  1  0.82829000  0.77914000  0.80752000  1.0
  H  H16  1  0.95049000  0.44038000  0.19868000  1.0
  H  H17  1  0.04951000  0.55962000  0.80132000  1.0
  H  H18  1  0.36025000  0.86150000  0.23048000  1.0
  H  H19  1  0.63975000  0.13850000  0.76952000  1.0
  H  H20  1  0.85088000  0.97546000  0.88866000  1.0
  H  H21  1  0.14911000  0.02454000  0.11134000  1.0
  H  H22  1  0.68961000  0.61138000  0.39820000  1.0
  H  H23  1  0.31038000  0.38862000  0.60180000  1.0
  C  C24  1  0.26908000  0.81688000  0.83579000  1.0
  C  C25  1  0.73092000  0.18312000  0.16421000  1.0
  C  C26  1  0.34780000  0.85103000  0.69225000  1.0
  C  C27  1  0.65220000  0.14897000  0.30775000  1.0
  C  C28  1  0.48084000  0.75462000  0.61568000  1.0
  C  C29  1  0.51917000  0.24538000  0.38432000  1.0
  C  C30  1  0.53107000  0.62304000  0.68476000  1.0
  C  C31  1  0.46893000  0.37696000  0.31524000  1.0
  C  C32  1  0.44082000  0.59565000  0.82856000  1.0
  C  C33  1  0.55917000  0.40435000  0.17145000  1.0
  C  C34  1  0.67143000  0.51831000  0.60925000  1.0
  C  C35  1  0.32857000  0.48169000  0.39075000  1.0
  C  C36  1  0.87757000  0.33407000  0.55234000  1.0
  C  C37  1  0.12243000  0.66593000  0.44766000  1.0
  C  C38  1  0.99992000  0.20831000  0.54854000  1.0
  C  C39  1  0.00008000  0.79169000  0.45146000  1.0
  C  C40  1  0.10168000  0.16915000  0.41739000  1.0
  C  C41  1  0.89832000  0.83086000  0.58261000  1.0
  C  C42  1  0.08602000  0.25292000  0.29315000  1.0
  C  C43  1  0.91398000  0.74708000  0.70685000  1.0
  C  C44  1  0.96416000  0.37714000  0.29490000  1.0
  C  C45  1  0.03584000  0.62286000  0.70510000  1.0
  C  C46  1  0.85932000  0.41503000  0.42671000  1.0
  C  C47  1  0.14068000  0.58496000  0.57330000  1.0
  C  C48  1  0.61605000  0.90638000  0.06440000  1.0
  C  C49  1  0.38395000  0.09362000  0.93560000  1.0
  C  C50  1  0.41943000  0.92163000  0.12899000  1.0
  C  C51  1  0.58057000  0.07837000  0.87101000  1.0
  C  C52  1  0.69724000  0.98472000  0.93606000  1.0
  C  C53  1  0.30276000  0.01528000  0.06394000  1.0
  S  S54  1  0.76425000  0.78104000  0.14360000  1.0
  S  S55  1  0.23574000  0.21896000  0.85640000  1.0
  N  N56  1  0.31612000  0.69105000  0.90269000  1.0
  N  N57  1  0.68388000  0.30896000  0.09731000  1.0
  N  N58  1  0.76082000  0.40224000  0.66410000  1.0
  N  N59  1  0.23918000  0.59776000  0.33590000  1.0
  N  N60  1  0.72820000  0.52835000  0.46714000  1.0
  N  N61  1  0.27180000  0.47165000  0.53286000  1.0
  O  O62  1  0.92883000  0.85141000  0.13205000  1.0
  O  O63  1  0.07116000  0.14859000  0.86795000  1.0
  O  O64  1  0.64320000  0.75053000  0.29001000  1.0
  O  O65  1  0.35679000  0.24946000  0.70999000  1.0
  O  O66  1  0.81485000  0.66019000  0.06678000  1.0
  O  O67  1  0.18515000  0.33980000  0.93323000  1.0
