# generated using pymatgen
data_CuH17C13N5O2
_symmetry_space_group_name_H-M   'P 1'
_cell_length_a   7.11342000
_cell_length_b   10.01270000
_cell_length_c   10.75730000
_cell_angle_alpha   64.66000000
_cell_angle_beta   89.99960000
_cell_angle_gamma   89.99950000
_symmetry_Int_Tables_number   1
_chemical_formula_structural   CuH17C13N5O2
_chemical_formula_sum   'Cu2 H34 C26 N10 O4'
_cell_volume   692.46459581
_cell_formula_units_Z   2
loop_
 _symmetry_equiv_pos_site_id
 _symmetry_equiv_pos_as_xyz
  1  'x, y, z'
loop_
 _atom_site_type_symbol
 _atom_site_label
 _atom_site_symmetry_multiplicity
 _atom_site_fract_x
 _atom_site_fract_y
 _atom_site_fract_z
 _atom_site_occupancy
  Cu  Cu0  1  0.84553000  0.75249000  0.45144000  1.0
  Cu  Cu1  1  0.34553000  0.24752000  0.54856000  1.0
  H  H2  1  0.31617000  0.60480000  0.75505000  1.0
  H  H3  1  0.81616000  0.39520000  0.24494000  1.0
  H  H4  1  0.30662000  0.56808000  0.99678000  1.0
  H  H5  1  0.80661000  0.43193000  0.00321000  1.0
  H  H6  1  0.02536000  0.64646000  0.08982000  1.0
  H  H7  1  0.52535000  0.35355000  0.91018000  1.0
  H  H8  1  0.75136000  0.75618000  0.93599000  1.0
  H  H9  1  0.25135000  0.24382000  0.06401000  1.0
  H  H10  1  0.59605000  0.83429000  0.73252000  1.0
  H  H11  1  0.09605000  0.16570000  0.26749000  1.0
  H  H12  1  0.53359000  0.01072000  0.41812000  1.0
  H  H13  1  0.03359000  0.98928000  0.58188000  1.0
  H  H14  1  0.39442000  0.88161000  0.55320000  1.0
  H  H15  1  0.89443000  0.11838000  0.44681000  1.0
  H  H16  1  0.40953000  0.70175000  0.45729000  1.0
  H  H17  1  0.90952000  0.29824000  0.54272000  1.0
  H  H18  1  0.33661000  0.87185000  0.32419000  1.0
  H  H19  1  0.83660000  0.12815000  0.67582000  1.0
  H  H20  1  0.81538000  0.93144000  0.16284000  1.0
  H  H21  1  0.31538000  0.06856000  0.83715000  1.0
  H  H22  1  0.67098000  0.03506000  0.22443000  1.0
  H  H23  1  0.17098000  0.96494000  0.77557000  1.0
  H  H24  1  0.39639000  0.00473000  0.09505000  1.0
  H  H25  1  0.89639000  0.99526000  0.90495000  1.0
  H  H26  1  0.59071000  0.07864000  0.98230000  1.0
  H  H27  1  0.09072000  0.92136000  0.01770000  1.0
  H  H28  1  0.46502000  0.64315000  0.10668000  1.0
  H  H29  1  0.96501000  0.35685000  0.89332000  1.0
  H  H30  1  0.32179000  0.74873000  0.16813000  1.0
  H  H31  1  0.82178000  0.25126000  0.83188000  1.0
  H  H32  1  0.54756000  0.58484000  0.34981000  1.0
  H  H33  1  0.04754000  0.41516000  0.65019000  1.0
  H  H34  1  0.73846000  0.66401000  0.23428000  1.0
  H  H35  1  0.23845000  0.33599000  0.76571000  1.0
  C  C36  1  0.87554000  0.74157000  0.75926000  1.0
  C  C37  1  0.37554000  0.25842000  0.24074000  1.0
  C  C38  1  0.03898000  0.70027000  0.70412000  1.0
  C  C39  1  0.53899000  0.29973000  0.29588000  1.0
  C  C40  1  0.19326000  0.63874000  0.79517000  1.0
  C  C41  1  0.69325000  0.36126000  0.20483000  1.0
  C  C42  1  0.18691000  0.61924000  0.93047000  1.0
  C  C43  1  0.68691000  0.38076000  0.06952000  1.0
  C  C44  1  0.02840000  0.66142000  0.98335000  1.0
  C  C45  1  0.52839000  0.33859000  0.01665000  1.0
  C  C46  1  0.87582000  0.72185000  0.89765000  1.0
  C  C47  1  0.37582000  0.27815000  0.10235000  1.0
  C  C48  1  0.70955000  0.80410000  0.67960000  1.0
  C  C49  1  0.20955000  0.19590000  0.32040000  1.0
  C  C50  1  0.50951000  0.89205000  0.48115000  1.0
  C  C51  1  0.00951000  0.10795000  0.51885000  1.0
  C  C52  1  0.45538000  0.81479000  0.39157000  1.0
  C  C53  1  0.95538000  0.18520000  0.60844000  1.0
  C  C54  1  0.67155000  0.94411000  0.19300000  1.0
  C  C55  1  0.17155000  0.05589000  0.80700000  1.0
  C  C56  1  0.53978000  0.98040000  0.07082000  1.0
  C  C57  1  0.03978000  0.01960000  0.92919000  1.0
  C  C58  1  0.46679000  0.73085000  0.14193000  1.0
  C  C59  1  0.96678000  0.26915000  0.85807000  1.0
  C  C60  1  0.59830000  0.68558000  0.26433000  1.0
  C  C61  1  0.09829000  0.31442000  0.73567000  1.0
  N  N62  1  0.68339000  0.82655000  0.55299000  1.0
  N  N63  1  0.18339000  0.17344000  0.44700000  1.0
  N  N64  1  0.62143000  0.80318000  0.31256000  1.0
  N  N65  1  0.12143000  0.19681000  0.68744000  1.0
  N  N66  1  0.01017000  0.71238000  0.32351000  1.0
  N  N67  1  0.51017000  0.28763000  0.67649000  1.0
  N  N68  1  0.10669000  0.60348000  0.36647000  1.0
  N  N69  1  0.60668000  0.39652000  0.63353000  1.0
  N  N70  1  0.20538000  0.50004000  0.40089000  1.0
  N  N71  1  0.70538000  0.49998000  0.59911000  1.0
  O  O72  1  0.05559000  0.71699000  0.57729000  1.0
  O  O73  1  0.55559000  0.28300000  0.42270000  1.0
  O  O74  1  0.53242000  0.86260000  0.02899000  1.0
  O  O75  1  0.03242000  0.13740000  0.97101000  1.0
