# generated using pymatgen
data_H26Pd5(C11O8)2
_symmetry_space_group_name_H-M   'P 1'
_cell_length_a   9.25488000
_cell_length_b   9.63243000
_cell_length_c   10.65090000
_cell_angle_alpha   94.35040000
_cell_angle_beta   114.01300000
_cell_angle_gamma   114.22100000
_symmetry_Int_Tables_number   1
_chemical_formula_structural   H26Pd5(C11O8)2
_chemical_formula_sum   'H26 Pd5 C22 O16'
_cell_volume   756.62524853
_cell_formula_units_Z   1
loop_
 _symmetry_equiv_pos_site_id
 _symmetry_equiv_pos_as_xyz
  1  'x, y, z'
loop_
 _atom_site_type_symbol
 _atom_site_label
 _atom_site_symmetry_multiplicity
 _atom_site_fract_x
 _atom_site_fract_y
 _atom_site_fract_z
 _atom_site_occupancy
  H  H0  1  0.10786000  0.43140000  0.83479000  1.0
  H  H1  1  0.89214000  0.56860000  0.16521000  1.0
  H  H2  1  0.11101000  0.34808000  0.68012000  1.0
  H  H3  1  0.88899000  0.65192000  0.31988000  1.0
  H  H4  1  0.29641000  0.40892000  0.85493000  1.0
  H  H5  1  0.70359000  0.59108000  0.14506000  1.0
  H  H6  1  0.97949000  0.07367000  0.59814000  1.0
  H  H7  1  0.02051000  0.92633000  0.40186000  1.0
  H  H8  1  0.67384000  0.66477000  0.55698000  1.0
  H  H9  1  0.32616000  0.33523000  0.44302000  1.0
  H  H10  1  0.88179000  0.72717000  0.55474000  1.0
  H  H11  1  0.11821000  0.27283000  0.44526000  1.0
  H  H12  1  0.73907000  0.80656000  0.46370000  1.0
  H  H13  1  0.26093000  0.19343000  0.53630000  1.0
  H  H14  1  0.55776000  0.21606000  0.53606000  1.0
  H  H15  1  0.44224000  0.78394000  0.46394000  1.0
  H  H16  1  0.77772000  0.33170000  0.55490000  1.0
  H  H17  1  0.22228000  0.66830000  0.44510000  1.0
  H  H18  1  0.72831000  0.15814000  0.61281000  1.0
  H  H19  1  0.27169000  0.84186000  0.38719000  1.0
  H  H20  1  0.59794000  0.48801000  0.71114000  1.0
  H  H21  1  0.40206000  0.51199000  0.28886000  1.0
  H  H22  1  0.81462000  0.49576000  0.77043000  1.0
  H  H23  1  0.18538000  0.50424000  0.22957000  1.0
  H  H24  1  0.76686000  0.57543000  0.89346000  1.0
  H  H25  1  0.23314000  0.42457000  0.10655000  1.0
  Pd  Pd26  1  0.00000000  0.00000000  0.00000000  1.0
  Pd  Pd27  1  0.32333000  0.94969000  0.06647000  1.0
  Pd  Pd28  1  0.67667000  0.05030000  0.93353000  1.0
  Pd  Pd29  1  0.33206000  0.03846000  0.83585000  1.0
  Pd  Pd30  1  0.66794000  0.96154000  0.16415000  1.0
  C  C31  1  0.14840000  0.35453000  0.79282000  1.0
  C  C32  1  0.85160000  0.64547000  0.20718000  1.0
  C  C33  1  0.06451000  0.19306000  0.81192000  1.0
  C  C34  1  0.93549000  0.80694000  0.18808000  1.0
  C  C35  1  0.98450000  0.05544000  0.69906000  1.0
  C  C36  1  0.01550000  0.94456000  0.30094000  1.0
  C  C37  1  0.88415000  0.89745000  0.69604000  1.0
  C  C38  1  0.11585000  0.10255000  0.30396000  1.0
  C  C39  1  0.78710000  0.76660000  0.55861000  1.0
  C  C40  1  0.21290000  0.23340000  0.44139000  1.0
  C  C41  1  0.61098000  0.11511000  0.38386000  1.0
  C  C42  1  0.38902000  0.88489000  0.61613000  1.0
  C  C43  1  0.67114000  0.21055000  0.53126000  1.0
  C  C44  1  0.32886000  0.78945000  0.46874000  1.0
  C  C45  1  0.63523000  0.32195000  0.82776000  1.0
  C  C46  1  0.36477000  0.67805000  0.17224000  1.0
  C  C47  1  0.70700000  0.47844000  0.79666000  1.0
  C  C48  1  0.29300000  0.52156000  0.20334000  1.0
  C  C49  1  0.20511000  0.82961000  0.86246000  1.0
  C  C50  1  0.79489000  0.17039000  0.13754000  1.0
  C  C51  1  0.40433000  0.16002000  0.02929000  1.0
  C  C52  1  0.59568000  0.83998000  0.97071000  1.0
  O  O53  1  0.07572000  0.19564000  0.93676000  1.0
  O  O54  1  0.92428000  0.80436000  0.06324000  1.0
  O  O55  1  0.86989000  0.85086000  0.80235000  1.0
  O  O56  1  0.13011000  0.14914000  0.19766000  1.0
  O  O57  1  0.44942000  0.07049000  0.28826000  1.0
  O  O58  1  0.55058000  0.92952000  0.71174000  1.0
  O  O59  1  0.72741000  0.08809000  0.36744000  1.0
  O  O60  1  0.27259000  0.91191000  0.63255000  1.0
  O  O61  1  0.46901000  0.25518000  0.79804000  1.0
  O  O62  1  0.53099000  0.74482000  0.20196000  1.0
  O  O63  1  0.74624000  0.26983000  0.88292000  1.0
  O  O64  1  0.25376000  0.73017000  0.11708000  1.0
  O  O65  1  0.11440000  0.69599000  0.79107000  1.0
  O  O66  1  0.88561000  0.30401000  0.20893000  1.0
  O  O67  1  0.47900000  0.29426000  0.09581000  1.0
  O  O68  1  0.52101000  0.70574000  0.90419000  1.0
