# generated using pymatgen
data_NaCuH19C11NO9
_symmetry_space_group_name_H-M   'P 1'
_cell_length_a   9.16149000
_cell_length_b   10.25680000
_cell_length_c   10.83320000
_cell_angle_alpha   65.06290000
_cell_angle_beta   74.56180000
_cell_angle_gamma   86.14710000
_symmetry_Int_Tables_number   1
_chemical_formula_structural   NaCuH19C11NO9
_chemical_formula_sum   'Na2 Cu2 H38 C22 N2 O18'
_cell_volume   888.57737346
_cell_formula_units_Z   2
loop_
 _symmetry_equiv_pos_site_id
 _symmetry_equiv_pos_as_xyz
  1  'x, y, z'
loop_
 _atom_site_type_symbol
 _atom_site_label
 _atom_site_symmetry_multiplicity
 _atom_site_fract_x
 _atom_site_fract_y
 _atom_site_fract_z
 _atom_site_occupancy
  Na  Na0  1  0.06246000  0.18353000  0.40144000  1.0
  Na  Na1  1  0.93754000  0.81645000  0.59856000  1.0
  Cu  Cu2  1  0.45850000  0.14481000  0.40423000  1.0
  Cu  Cu3  1  0.54151000  0.85518000  0.59578000  1.0
  H  H4  1  0.55518000  0.35823000  0.43504000  1.0
  H  H5  1  0.44482000  0.64177000  0.56497000  1.0
  H  H6  1  0.66937000  0.43580000  0.04687000  1.0
  H  H7  1  0.33063000  0.56420000  0.95313000  1.0
  H  H8  1  0.50725000  0.44819000  0.17660000  1.0
  H  H9  1  0.49275000  0.55181000  0.82341000  1.0
  H  H10  1  0.81681000  0.33214000  0.22454000  1.0
  H  H11  1  0.18319000  0.66787000  0.77546000  1.0
  H  H12  1  0.74146000  0.49599000  0.21971000  1.0
  H  H13  1  0.25854000  0.50402000  0.78029000  1.0
  H  H14  1  0.47898000  0.31209000  0.00036000  1.0
  H  H15  1  0.52103000  0.68792000  0.99964000  1.0
  H  H16  1  0.34463000  0.33798000  0.14036000  1.0
  H  H17  1  0.65537000  0.66202000  0.85964000  1.0
  H  H18  1  0.23580000  0.95711000  0.33292000  1.0
  H  H19  1  0.76420000  0.04289000  0.66707000  1.0
  H  H20  1  0.24996000  0.16057000  0.08666000  1.0
  H  H21  1  0.75005000  0.83945000  0.91333000  1.0
  H  H22  1  0.40509000  0.04876000  0.11956000  1.0
  H  H23  1  0.59492000  0.95125000  0.88043000  1.0
  H  H24  1  0.66646000  0.15370000  0.04703000  1.0
  H  H25  1  0.33354000  0.84630000  0.95297000  1.0
  H  H26  1  0.77197000  0.18722000  0.14618000  1.0
  H  H27  1  0.22803000  0.81278000  0.85382000  1.0
  H  H28  1  0.53004000  0.93868000  0.26905000  1.0
  H  H29  1  0.46996000  0.06132000  0.73095000  1.0
  H  H30  1  0.72828000  0.92553000  0.24883000  1.0
  H  H31  1  0.27172000  0.07447000  0.75117000  1.0
  H  H32  1  0.75501000  0.25716000  0.50300000  1.0
  H  H33  1  0.24499000  0.74284000  0.49700000  1.0
  H  H34  1  0.82477000  0.28245000  0.61064000  1.0
  H  H35  1  0.17525000  0.71755000  0.38936000  1.0
  H  H36  1  0.11970000  0.39207000  0.69919000  1.0
  H  H37  1  0.88029000  0.60792000  0.30081000  1.0
  H  H38  1  0.20683000  0.97625000  0.60860000  1.0
  H  H39  1  0.79316000  0.02373000  0.39141000  1.0
  H  H40  1  0.04483000  0.99127000  0.69915000  1.0
  H  H41  1  0.95517000  0.00873000  0.30084000  1.0
  C  C42  1  0.60612000  0.38501000  0.15925000  1.0
  C  C43  1  0.39388000  0.61499000  0.84076000  1.0
  C  C44  1  0.71024000  0.38321000  0.24820000  1.0
  C  C45  1  0.28976000  0.61679000  0.75180000  1.0
  C  C46  1  0.42373000  0.26237000  0.11458000  1.0
  C  C47  1  0.57627000  0.73764000  0.88542000  1.0
  C  C48  1  0.33342000  0.12668000  0.15026000  1.0
  C  C49  1  0.66659000  0.87332000  0.84973000  1.0
  C  C50  1  0.66166000  0.14571000  0.15258000  1.0
  C  C51  1  0.33834000  0.85429000  0.84742000  1.0
  C  C52  1  0.63177000  0.99186000  0.26681000  1.0
  C  C53  1  0.36822000  0.00814000  0.73319000  1.0
  C  C54  1  0.06590000  0.43895000  0.61245000  1.0
  C  C55  1  0.93409000  0.56103000  0.38755000  1.0
  C  C56  1  0.14053000  0.43854000  0.48203000  1.0
  C  C57  1  0.85946000  0.56145000  0.51797000  1.0
  C  C58  1  0.28789000  0.36611000  0.46889000  1.0
  C  C59  1  0.71211000  0.63388000  0.53111000  1.0
  C  C60  1  0.92514000  0.49943000  0.63265000  1.0
  C  C61  1  0.07486000  0.50056000  0.36734000  1.0
  C  C62  1  0.84627000  0.49871000  0.77508000  1.0
  C  C63  1  0.15373000  0.50129000  0.22492000  1.0
  N  N64  1  0.54334000  0.24032000  0.19046000  1.0
  N  N65  1  0.45667000  0.75968000  0.80954000  1.0
  O  O66  1  0.64475000  0.30842000  0.39800000  1.0
  O  O67  1  0.35525000  0.69158000  0.60200000  1.0
  O  O68  1  0.25867000  0.06284000  0.29746000  1.0
  O  O69  1  0.74133000  0.93716000  0.70253000  1.0
  O  O70  1  0.09460000  0.97357000  0.61702000  1.0
  O  O71  1  0.90540000  0.02642000  0.38298000  1.0
  O  O72  1  0.61396000  0.00176000  0.39766000  1.0
  O  O73  1  0.38603000  0.99825000  0.60234000  1.0
  O  O74  1  0.82259000  0.21465000  0.56932000  1.0
  O  O75  1  0.17742000  0.78535000  0.43067000  1.0
  O  O76  1  0.29244000  0.27308000  0.41606000  1.0
  O  O77  1  0.70756000  0.72692000  0.58394000  1.0
  O  O78  1  0.39152000  0.39546000  0.51015000  1.0
  O  O79  1  0.60846000  0.60454000  0.48985000  1.0
  O  O80  1  0.73653000  0.40734000  0.84933000  1.0
  O  O81  1  0.26347000  0.59265000  0.15065000  1.0
  O  O82  1  0.89778000  0.59161000  0.80386000  1.0
  O  O83  1  0.10220000  0.40840000  0.19614000  1.0
