# generated using pymatgen
data_DyH8C9O8
_symmetry_space_group_name_H-M   'P 1'
_cell_length_a   7.74435000
_cell_length_b   8.15819000
_cell_length_c   18.94030000
_cell_angle_alpha   90.00000000
_cell_angle_beta   89.99990000
_cell_angle_gamma   105.90500000
_symmetry_Int_Tables_number   1
_chemical_formula_structural   DyH8C9O8
_chemical_formula_sum   'Dy4 H32 C36 O32'
_cell_volume   1150.83514048
_cell_formula_units_Z   4
loop_
 _symmetry_equiv_pos_site_id
 _symmetry_equiv_pos_as_xyz
  1  'x, y, z'
loop_
 _atom_site_type_symbol
 _atom_site_label
 _atom_site_symmetry_multiplicity
 _atom_site_fract_x
 _atom_site_fract_y
 _atom_site_fract_z
 _atom_site_occupancy
  Dy  Dy0  1  0.75793000  0.25135000  0.51787000  1.0
  Dy  Dy1  1  0.74207000  0.74865000  0.01787000  1.0
  Dy  Dy2  1  0.24207000  0.74865000  0.48212000  1.0
  Dy  Dy3  1  0.25793000  0.25135000  0.98212000  1.0
  H  H4  1  0.61064000  0.43628000  0.36950000  1.0
  H  H5  1  0.88935000  0.56372000  0.86950000  1.0
  H  H6  1  0.38935000  0.56372000  0.63050000  1.0
  H  H7  1  0.11064000  0.43628000  0.13050000  1.0
  H  H8  1  0.66034000  0.58398000  0.25213000  1.0
  H  H9  1  0.83966000  0.41602000  0.75213000  1.0
  H  H10  1  0.33966000  0.41602000  0.74787000  1.0
  H  H11  1  0.16034000  0.58398000  0.24787000  1.0
  H  H12  1  0.31265000  0.14108000  0.15397000  1.0
  H  H13  1  0.18736000  0.85892000  0.65397000  1.0
  H  H14  1  0.68736000  0.85892000  0.84603000  1.0
  H  H15  1  0.81264000  0.14108000  0.34603000  1.0
  H  H16  1  0.25766000  0.99480000  0.27205000  1.0
  H  H17  1  0.24234000  0.00519000  0.77205000  1.0
  H  H18  1  0.74234000  0.00519000  0.72795000  1.0
  H  H19  1  0.75766000  0.99480000  0.22795000  1.0
  H  H20  1  0.51909000  0.24916000  0.63880000  1.0
  H  H21  1  0.98091000  0.75084000  0.13880000  1.0
  H  H22  1  0.48091000  0.75084000  0.36120000  1.0
  H  H23  1  0.01909000  0.24916000  0.86120000  1.0
  H  H24  1  0.38294000  0.16117000  0.57745000  1.0
  H  H25  1  0.11706000  0.83883000  0.07745000  1.0
  H  H26  1  0.61706000  0.83883000  0.42255000  1.0
  H  H27  1  0.88294000  0.16117000  0.92255000  1.0
  H  H28  1  0.77742000  0.62050000  0.48320000  1.0
  H  H29  1  0.72258000  0.37950000  0.98320000  1.0
  H  H30  1  0.22258000  0.37950000  0.51680000  1.0
  H  H31  1  0.27742000  0.62050000  0.01680000  1.0
  H  H32  1  0.60648000  0.55111000  0.53311000  1.0
  H  H33  1  0.89352000  0.44889000  0.03311000  1.0
  H  H34  1  0.39352000  0.44889000  0.46689000  1.0
  H  H35  1  0.10648000  0.55111000  0.96689000  1.0
  C  C36  1  0.43150000  0.20655000  0.32722000  1.0
  C  C37  1  0.06850000  0.79345000  0.82722000  1.0
  C  C38  1  0.56850000  0.79345000  0.67278000  1.0
  C  C39  1  0.93150000  0.20655000  0.17278000  1.0
  C  C40  1  0.54356000  0.37341000  0.32228000  1.0
  C  C41  1  0.95644000  0.62659000  0.82228000  1.0
  C  C42  1  0.45644000  0.62660000  0.67772000  1.0
  C  C43  1  0.04356000  0.37341000  0.17772000  1.0
  C  C44  1  0.57145000  0.45530000  0.25713000  1.0
  C  C45  1  0.92855000  0.54470000  0.75713000  1.0
  C  C46  1  0.42855000  0.54470000  0.74287000  1.0
  C  C47  1  0.07145000  0.45530000  0.24287000  1.0
  C  C48  1  0.48892000  0.37109000  0.19630000  1.0
  C  C49  1  0.01108000  0.62891000  0.69629000  1.0
  C  C50  1  0.51108000  0.62891000  0.80370000  1.0
  C  C51  1  0.98892000  0.37109000  0.30370000  1.0
  C  C52  1  0.37537000  0.20500000  0.20161000  1.0
  C  C53  1  0.12463000  0.79500000  0.70161000  1.0
  C  C54  1  0.62463000  0.79500000  0.79839000  1.0
  C  C55  1  0.87537000  0.20500000  0.29839000  1.0
  C  C56  1  0.34571000  0.12374000  0.26669000  1.0
  C  C57  1  0.15429000  0.87626000  0.76669000  1.0
  C  C58  1  0.65429000  0.87626000  0.73331000  1.0
  C  C59  1  0.84571000  0.12374000  0.23331000  1.0
  C  C60  1  0.41103000  0.11052000  0.39530000  1.0
  C  C61  1  0.08897000  0.88949000  0.89530000  1.0
  C  C62  1  0.58897000  0.88948000  0.60470000  1.0
  C  C63  1  0.91103000  0.11052000  0.10470000  1.0
  C  C64  1  0.52105000  0.45746000  0.12593000  1.0
  C  C65  1  0.97895000  0.54253000  0.62593000  1.0
  C  C66  1  0.47895000  0.54253000  0.87406000  1.0
  C  C67  1  0.02105000  0.45747000  0.37407000  1.0
  C  C68  1  0.07253000  0.06059000  0.52320000  1.0
  C  C69  1  0.42747000  0.93941000  0.02320000  1.0
  C  C70  1  0.92747000  0.93941000  0.47680000  1.0
  C  C71  1  0.57253000  0.06059000  0.97680000  1.0
  O  O72  1  0.51938000  0.17165000  0.44555000  1.0
  O  O73  1  0.98062000  0.82836000  0.94555000  1.0
  O  O74  1  0.48062000  0.82835000  0.55445000  1.0
  O  O75  1  0.01938000  0.17165000  0.05445000  1.0
  O  O76  1  0.28918000  0.97049000  0.39940000  1.0
  O  O77  1  0.21082000  0.02952000  0.89939000  1.0
  O  O78  1  0.71082000  0.02952000  0.60061000  1.0
  O  O79  1  0.78919000  0.97048000  0.10061000  1.0
  O  O80  1  0.64136000  0.59894000  0.12141000  1.0
  O  O81  1  0.85864000  0.40106000  0.62141000  1.0
  O  O82  1  0.35864000  0.40105000  0.87859000  1.0
  O  O83  1  0.14136000  0.59894000  0.37859000  1.0
  O  O84  1  0.42698000  0.38566000  0.07352000  1.0
  O  O85  1  0.07302000  0.61434000  0.57351000  1.0
  O  O86  1  0.57302000  0.61434000  0.92648000  1.0
  O  O87  1  0.92698000  0.38566000  0.42648000  1.0
  O  O88  1  0.05093000  0.20580000  0.53664000  1.0
  O  O89  1  0.44907000  0.79420000  0.03664000  1.0
  O  O90  1  0.94907000  0.79420000  0.46336000  1.0
  O  O91  1  0.55093000  0.20580000  0.96336000  1.0
  O  O92  1  0.20236000  0.00589000  0.54349000  1.0
  O  O93  1  0.29764000  0.99411000  0.04349000  1.0
  O  O94  1  0.79764000  0.99411000  0.45651000  1.0
  O  O95  1  0.70236000  0.00589000  0.95650000  1.0
  O  O96  1  0.49364000  0.25418000  0.58872000  1.0
  O  O97  1  0.00636000  0.74583000  0.08872000  1.0
  O  O98  1  0.50636000  0.74583000  0.41128000  1.0
  O  O99  1  0.99364000  0.25417000  0.91128000  1.0
  O  O100  1  0.68752000  0.51656000  0.50057000  1.0
  O  O101  1  0.81248000  0.48344000  0.00057000  1.0
  O  O102  1  0.31249000  0.48344000  0.49944000  1.0
  O  O103  1  0.18752000  0.51656000  0.99943000  1.0
