# generated using pymatgen
data_CuH16C22(N3O5)2
_symmetry_space_group_name_H-M   'P 1'
_cell_length_a   7.36788000
_cell_length_b   8.86247597
_cell_length_c   12.67540000
_cell_angle_alpha   94.05727248
_cell_angle_beta   106.67060000
_cell_angle_gamma   113.18997953
_symmetry_Int_Tables_number   1
_chemical_formula_structural   CuH16C22(N3O5)2
_chemical_formula_sum   'Cu1 H16 C22 N6 O10'
_cell_volume   712.78603500
_cell_formula_units_Z   1
loop_
 _symmetry_equiv_pos_site_id
 _symmetry_equiv_pos_as_xyz
  1  'x, y, z'
loop_
 _atom_site_type_symbol
 _atom_site_label
 _atom_site_symmetry_multiplicity
 _atom_site_fract_x
 _atom_site_fract_y
 _atom_site_fract_z
 _atom_site_occupancy
  Cu  Cu0  1  0.00000000  0.00000000  0.00000000  1.0
  H  H1  1  0.85655000  0.18064000  0.35893000  1.0
  H  H2  1  0.14342000  0.81935000  0.64105000  1.0
  H  H3  1  0.64813000  0.77147000  0.52916000  1.0
  H  H4  1  0.35189000  0.22856000  0.47085000  1.0
  H  H5  1  0.78333000  0.69325000  0.22654000  1.0
  H  H6  1  0.21666000  0.30674000  0.77346000  1.0
  H  H7  1  0.72554000  0.35627000  0.39018000  1.0
  H  H8  1  0.27446000  0.64373000  0.60983000  1.0
  H  H9  1  0.86930000  0.51868000  0.32820000  1.0
  H  H10  1  0.13070000  0.48132000  0.67180000  1.0
  H  H11  1  0.37856000  0.31406000  0.96236000  1.0
  H  H12  1  0.62148000  0.68591000  0.03765000  1.0
  H  H13  1  0.33133000  0.14637000  0.26010000  1.0
  H  H14  1  0.66864000  0.85365000  0.73990000  1.0
  H  H15  1  0.72011000  0.13119000  0.68451000  1.0
  H  H16  1  0.27992000  0.86883000  0.31549000  1.0
  C  C17  1  0.82208000  0.94246000  0.28306000  1.0
  C  C18  1  0.17789000  0.05752000  0.71693000  1.0
  C  C19  1  0.81172000  0.04981000  0.36446000  1.0
  C  C20  1  0.18826000  0.95018000  0.63553000  1.0
  C  C21  1  0.75099000  0.98953000  0.45401000  1.0
  C  C22  1  0.24900000  0.01048000  0.54598000  1.0
  C  C23  1  0.69577000  0.82113000  0.46051000  1.0
  C  C24  1  0.30422000  0.17887000  0.53949000  1.0
  C  C25  1  0.70704000  0.71424000  0.37862000  1.0
  C  C26  1  0.29295000  0.28576000  0.62138000  1.0
  C  C27  1  0.77180000  0.77450000  0.29035000  1.0
  C  C28  1  0.22820000  0.22550000  0.70965000  1.0
  C  C29  1  0.88924000  0.01014000  0.18774000  1.0
  C  C30  1  0.11076000  0.98985000  0.81226000  1.0
  C  C31  1  0.75612000  0.11014000  0.54295000  1.0
  C  C32  1  0.24389000  0.88987000  0.45705000  1.0
  C  C33  1  0.71661000  0.44764000  0.33737000  1.0
  C  C34  1  0.28340000  0.55237000  0.66264000  1.0
  C  C35  1  0.41457000  0.30507000  0.05002000  1.0
  C  C36  1  0.58546000  0.69491000  0.94998000  1.0
  C  C37  1  0.38431000  0.21663000  0.19962000  1.0
  C  C38  1  0.61568000  0.78337000  0.80039000  1.0
  N  N39  1  0.56381000  0.35761000  0.22597000  1.0
  N  N40  1  0.43619000  0.64239000  0.77404000  1.0
  N  N41  1  0.58514000  0.41585000  0.13123000  1.0
  N  N42  1  0.41488000  0.58413000  0.86877000  1.0
  N  N43  1  0.28570000  0.17982000  0.08843000  1.0
  N  N44  1  0.71430000  0.82018000  0.91158000  1.0
  O  O45  1  0.95999000  0.92258000  0.13797000  1.0
  O  O46  1  0.04001000  0.07741000  0.86203000  1.0
  O  O47  1  0.87486000  0.13897000  0.16204000  1.0
  O  O48  1  0.12512000  0.86101000  0.83795000  1.0
  O  O49  1  0.80323000  0.25945000  0.54318000  1.0
  O  O50  1  0.19680000  0.74058000  0.45682000  1.0
  O  O51  1  0.70371000  0.04041000  0.62838000  1.0
  O  O52  1  0.29628000  0.95960000  0.37161000  1.0
  O  O53  1  0.65420000  0.55225000  0.39418000  1.0
  O  O54  1  0.34580000  0.44775000  0.60583000  1.0
