# generated using pymatgen
data_ZnH6C12N2(O2F)2
_symmetry_space_group_name_H-M   'P 1'
_cell_length_a   7.85731000
_cell_length_b   7.85736000
_cell_length_c   11.17468368
_cell_angle_alpha   105.23039041
_cell_angle_beta   105.23105855
_cell_angle_gamma   104.54200000
_symmetry_Int_Tables_number   1
_chemical_formula_structural   ZnH6C12N2(O2F)2
_chemical_formula_sum   'Zn2 H12 C24 N4 O8 F4'
_cell_volume   603.12626143
_cell_formula_units_Z   2
loop_
 _symmetry_equiv_pos_site_id
 _symmetry_equiv_pos_as_xyz
  1  'x, y, z'
loop_
 _atom_site_type_symbol
 _atom_site_label
 _atom_site_symmetry_multiplicity
 _atom_site_fract_x
 _atom_site_fract_y
 _atom_site_fract_z
 _atom_site_occupancy
  Zn  Zn0  1  0.37268000  0.87245000  0.49996000  1.0
  Zn  Zn1  1  0.12245000  0.12269000  0.99996000  1.0
  H  H2  1  0.46522000  0.40020000  0.83656000  1.0
  H  H3  1  0.56462000  0.62908000  0.16371000  1.0
  H  H4  1  0.87909000  0.31463000  0.66371000  1.0
  H  H5  1  0.65020000  0.21522000  0.33656000  1.0
  H  H6  1  0.42789000  0.92418000  0.79250000  1.0
  H  H7  1  0.13234000  0.63566000  0.20737000  1.0
  H  H8  1  0.88566000  0.88233000  0.70736000  1.0
  H  H9  1  0.17418000  0.17788000  0.29250000  1.0
  H  H10  1  0.37986000  0.48794000  0.46268000  1.0
  H  H11  1  0.02588000  0.91756000  0.53727000  1.0
  H  H12  1  0.16757000  0.77589000  0.03727000  1.0
  H  H13  1  0.73794000  0.12987000  0.96268000  1.0
  C  C14  1  0.42053000  0.42035000  0.64106000  1.0
  C  C15  1  0.78001000  0.77987000  0.35904000  1.0
  C  C16  1  0.02989000  0.53002000  0.85904000  1.0
  C  C17  1  0.67035000  0.17054000  0.14106000  1.0
  C  C18  1  0.44904000  0.48814000  0.77616000  1.0
  C  C19  1  0.71287000  0.67320000  0.22400000  1.0
  C  C20  1  0.92321000  0.46287000  0.72400000  1.0
  C  C21  1  0.73814000  0.19904000  0.27616000  1.0
  C  C22  1  0.45556000  0.67162000  0.82875000  1.0
  C  C23  1  0.84363000  0.62708000  0.17127000  1.0
  C  C24  1  0.87709000  0.59364000  0.67127000  1.0
  C  C25  1  0.92162000  0.20555000  0.32875000  1.0
  C  C26  1  0.42710000  0.78132000  0.75091000  1.0
  C  C27  1  0.03103000  0.67644000  0.24899000  1.0
  C  C28  1  0.92644000  0.78103000  0.74898000  1.0
  C  C29  1  0.03132000  0.17710000  0.25091000  1.0
  C  C30  1  0.39756000  0.53684000  0.56734000  1.0
  C  C31  1  0.97013000  0.83063000  0.43265000  1.0
  C  C32  1  0.08064000  0.72014000  0.93265000  1.0
  C  C33  1  0.78684000  0.14757000  0.06734000  1.0
  C  C34  1  0.41119000  0.22497000  0.57202000  1.0
  C  C35  1  0.65325000  0.83913000  0.42797000  1.0
  C  C36  1  0.08915000  0.40327000  0.92798000  1.0
  C  C37  1  0.47497000  0.16119000  0.07202000  1.0
  N  N38  1  0.39786000  0.71131000  0.62044000  1.0
  N  N39  1  0.09142000  0.77772000  0.37943000  1.0
  N  N40  1  0.02772000  0.84142000  0.87942000  1.0
  N  N41  1  0.96131000  0.14786000  0.12044000  1.0
  O  O42  1  0.39849000  0.11155000  0.63702000  1.0
  O  O43  1  0.47503000  0.76177000  0.36279000  1.0
  O  O44  1  0.01177000  0.22504000  0.86279000  1.0
  O  O45  1  0.36155000  0.14850000  0.13702000  1.0
  O  O46  1  0.41257000  0.17923000  0.45585000  1.0
  O  O47  1  0.72320000  0.95610000  0.54425000  1.0
  O  O48  1  0.20612000  0.47321000  0.04425000  1.0
  O  O49  1  0.42922000  0.16256000  0.95584000  1.0
  F  F50  1  0.48990000  0.74820000  0.96056000  1.0
  F  F51  1  0.78826000  0.52961000  0.03946000  1.0
  F  F52  1  0.77961000  0.53825000  0.53946000  1.0
  F  F53  1  0.99820000  0.23989000  0.46056000  1.0
