# generated using pymatgen
data_Cd2H21C26(NO3)5
_symmetry_space_group_name_H-M   'P 1'
_cell_length_a   10.14880000
_cell_length_b   12.71970000
_cell_length_c   13.46460000
_cell_angle_alpha   114.42200000
_cell_angle_beta   103.69800000
_cell_angle_gamma   98.85420000
_symmetry_Int_Tables_number   1
_chemical_formula_structural   Cd2H21C26(NO3)5
_chemical_formula_sum   'Cd4 H42 C52 N10 O30'
_cell_volume   1473.98862212
_cell_formula_units_Z   2
loop_
 _symmetry_equiv_pos_site_id
 _symmetry_equiv_pos_as_xyz
  1  'x, y, z'
loop_
 _atom_site_type_symbol
 _atom_site_label
 _atom_site_symmetry_multiplicity
 _atom_site_fract_x
 _atom_site_fract_y
 _atom_site_fract_z
 _atom_site_occupancy
  Cd  Cd0  1  0.10798000  0.82574000  0.52947000  1.0
  Cd  Cd1  1  0.89201000  0.17426000  0.47052000  1.0
  Cd  Cd2  1  0.59357000  0.66598000  0.15346000  1.0
  Cd  Cd3  1  0.40643000  0.33402000  0.84654000  1.0
  H  H4  1  0.88975000  0.82422000  0.28480000  1.0
  H  H5  1  0.11026000  0.17578000  0.71520000  1.0
  H  H6  1  0.37615000  0.89936000  0.51663000  1.0
  H  H7  1  0.62385000  0.10064000  0.48337000  1.0
  H  H8  1  0.91096000  0.99123000  0.57402000  1.0
  H  H9  1  0.08904000  0.00877000  0.42598000  1.0
  H  H10  1  0.36630000  0.78592000  0.88945000  1.0
  H  H11  1  0.63370000  0.21408000  0.11055000  1.0
  H  H12  1  0.41263000  0.05549000  0.22979000  1.0
  H  H13  1  0.58737000  0.94451000  0.77021000  1.0
  H  H14  1  0.23242000  0.10324000  0.93323000  1.0
  H  H15  1  0.76758000  0.89676000  0.06677000  1.0
  H  H16  1  0.60659000  0.29774000  0.37584000  1.0
  H  H17  1  0.39341000  0.70226000  0.62416000  1.0
  H  H18  1  0.02334000  0.83710000  0.15884000  1.0
  H  H19  1  0.97666000  0.16290000  0.84116000  1.0
  H  H20  1  0.23847000  0.57781000  0.18455000  1.0
  H  H21  1  0.76153000  0.42219000  0.81545000  1.0
  H  H22  1  0.68944000  0.41154000  0.28548000  1.0
  H  H23  1  0.31057000  0.58846000  0.71452000  1.0
  H  H24  1  0.12560000  0.60420000  0.86748000  1.0
  H  H25  1  0.87441000  0.39580000  0.13252000  1.0
  H  H26  1  0.53989000  0.53079000  0.79304000  1.0
  H  H27  1  0.46011000  0.46921000  0.20697000  1.0
  H  H28  1  0.37724000  0.16153000  0.57968000  1.0
  H  H29  1  0.62276000  0.83847000  0.42032000  1.0
  H  H30  1  0.83754000  0.54582000  0.65663000  1.0
  H  H31  1  0.16246000  0.45418000  0.34337000  1.0
  H  H32  1  0.46279000  0.17582000  0.42698000  1.0
  H  H33  1  0.53720000  0.82418000  0.57302000  1.0
  H  H34  1  0.63436000  0.56009000  0.65273000  1.0
  H  H35  1  0.36564000  0.43991000  0.34727000  1.0
  H  H36  1  0.01744000  0.70789000  0.67024000  1.0
  H  H37  1  0.98257000  0.29211000  0.32976000  1.0
  H  H38  1  0.87761000  0.58054000  0.31413000  1.0
  H  H39  1  0.12239000  0.41946000  0.68587000  1.0
  H  H40  1  0.79998000  0.91194000  0.26830000  1.0
  H  H41  1  0.20002000  0.08806000  0.73170000  1.0
  H  H42  1  0.39564000  0.00677000  0.63936000  1.0
  H  H43  1  0.60436000  0.99323000  0.36063000  1.0
  H  H44  1  0.85776000  0.89261000  0.44372000  1.0
  H  H45  1  0.14224000  0.10739000  0.55628000  1.0
  C  C46  1  0.32245000  0.08911000  0.08734000  1.0
  C  C47  1  0.67755000  0.91089000  0.91265000  1.0
  C  C48  1  0.35204000  0.87098000  0.94529000  1.0
  C  C49  1  0.64795000  0.12902000  0.05471000  1.0
  C  C50  1  0.37837000  0.02200000  0.13672000  1.0
  C  C51  1  0.62163000  0.97800000  0.86328000  1.0
  C  C52  1  0.39481000  0.91204000  0.06501000  1.0
  C  C53  1  0.60519000  0.08796000  0.93499000  1.0
  C  C54  1  0.27716000  0.04886000  0.96856000  1.0
  C  C55  1  0.72284000  0.95114000  0.03144000  1.0
  C  C56  1  0.29208000  0.93831000  0.89673000  1.0
  C  C57  1  0.70792000  0.06169000  0.10327000  1.0
  C  C58  1  0.46544000  0.84374000  0.11937000  1.0
  C  C59  1  0.53456000  0.15626000  0.88063000  1.0
  C  C60  1  0.12083000  0.74626000  0.30323000  1.0
  C  C61  1  0.87917000  0.25374000  0.69677000  1.0
  C  C62  1  0.06723000  0.76337000  0.12054000  1.0
  C  C63  1  0.93277000  0.23663000  0.87946000  1.0
  C  C64  1  0.57056000  0.36775000  0.53079000  1.0
  C  C65  1  0.42944000  0.63225000  0.46921000  1.0
  C  C66  1  0.06952000  0.72476000  0.00833000  1.0
  C  C67  1  0.93048000  0.27524000  0.99168000  1.0
  C  C68  1  0.26922000  0.49306000  0.96931000  1.0
  C  C69  1  0.73078000  0.50695000  0.03069000  1.0
  C  C70  1  0.18877000  0.61769000  0.13352000  1.0
  C  C71  1  0.81123000  0.38231000  0.86648000  1.0
  C  C72  1  0.75953000  0.47634000  0.37247000  1.0
  C  C73  1  0.24047000  0.52365000  0.62753000  1.0
  C  C74  1  0.19052000  0.58067000  0.02041000  1.0
  C  C75  1  0.80948000  0.41933000  0.97960000  1.0
  C  C76  1  0.12612000  0.63212000  0.95558000  1.0
  C  C77  1  0.87388000  0.36788000  0.04442000  1.0
  C  C78  1  0.74111000  0.46700000  0.46924000  1.0
  C  C79  1  0.25889000  0.53300000  0.53076000  1.0
  C  C80  1  0.52587000  0.45347000  0.71142000  1.0
  C  C81  1  0.47414000  0.54653000  0.28858000  1.0
  C  C82  1  0.24663000  0.89397000  0.76840000  1.0
  C  C83  1  0.75336000  0.10603000  0.23160000  1.0
  C  C84  1  0.43597000  0.24827000  0.59328000  1.0
  C  C85  1  0.56403000  0.75173000  0.40672000  1.0
  C  C86  1  0.83857000  0.55128000  0.57846000  1.0
  C  C87  1  0.16143000  0.44872000  0.42154000  1.0
  C  C88  1  0.48751000  0.25597000  0.50933000  1.0
  C  C89  1  0.51249000  0.74403000  0.49066000  1.0
  C  C90  1  0.12426000  0.70695000  0.18275000  1.0
  C  C91  1  0.87574000  0.29305000  0.81726000  1.0
  C  C92  1  0.58242000  0.46917000  0.63310000  1.0
  C  C93  1  0.41758000  0.53083000  0.36690000  1.0
  C  C94  1  0.94174000  0.64191000  0.58628000  1.0
  C  C95  1  0.05826000  0.35808000  0.41372000  1.0
  C  C96  1  0.86548000  0.57035000  0.38829000  1.0
  C  C97  1  0.13452000  0.42964000  0.61171000  1.0
  N  N98  1  0.31583000  0.20839000  0.16323000  1.0
  N  N99  1  0.68417000  0.79161000  0.83677000  1.0
  N  N100  1  0.45733000  0.34483000  0.69519000  1.0
  N  N101  1  0.54267000  0.65517000  0.30481000  1.0
  N  N102  1  0.95510000  0.65386000  0.49404000  1.0
  N  N103  1  0.04490000  0.34614000  0.50596000  1.0
  N  N104  1  0.01640000  0.78839000  0.94558000  1.0
  N  N105  1  0.98360000  0.21161000  0.05442000  1.0
  N  N106  1  0.63208000  0.37432000  0.45224000  1.0
  N  N107  1  0.36792000  0.62568000  0.54776000  1.0
  O  O108  1  0.28996000  0.27569000  0.12045000  1.0
  O  O109  1  0.71004000  0.72431000  0.87955000  1.0
  O  O110  1  0.79608000  0.84050000  0.28181000  1.0
  O  O111  1  0.20392000  0.15950000  0.71819000  1.0
  O  O112  1  0.33966000  0.23713000  0.26747000  1.0
  O  O113  1  0.66034000  0.76287000  0.73252000  1.0
  O  O114  1  0.32900000  0.95520000  0.55839000  1.0
  O  O115  1  0.67099000  0.04480000  0.44161000  1.0
  O  O116  1  0.49894000  0.88268000  0.22749000  1.0
  O  O117  1  0.50106000  0.11732000  0.77251000  1.0
  O  O118  1  0.37554000  0.48642000  0.03646000  1.0
  O  O119  1  0.62446000  0.51358000  0.96354000  1.0
  O  O120  1  0.17857000  0.70037000  0.36242000  1.0
  O  O121  1  0.82143000  0.29963000  0.63759000  1.0
  O  O122  1  0.22844000  0.43047000  0.85935000  1.0
  O  O123  1  0.77156000  0.56954000  0.14065000  1.0
  O  O124  1  0.05861000  0.82827000  0.34348000  1.0
  O  O125  1  0.94139000  0.17173000  0.65652000  1.0
  O  O126  1  0.28153000  0.80547000  0.70541000  1.0
  O  O127  1  0.71846000  0.19453000  0.29459000  1.0
  O  O128  1  0.16952000  0.94814000  0.72732000  1.0
  O  O129  1  0.83048000  0.05186000  0.27268000  1.0
  O  O130  1  0.90601000  0.90785000  0.52336000  1.0
  O  O131  1  0.09399000  0.09215000  0.47664000  1.0
  O  O132  1  0.48867000  0.74850000  0.05043000  1.0
  O  O133  1  0.51133000  0.25150000  0.94957000  1.0
  O  O134  1  0.99441000  0.74044000  0.83970000  1.0
  O  O135  1  0.00559000  0.25957000  0.16030000  1.0
  O  O136  1  0.99801000  0.88691000  0.00170000  1.0
  O  O137  1  0.00199000  0.11309000  0.99830000  1.0
