# generated using pymatgen
data_CdH9C15N3O4
_symmetry_space_group_name_H-M   'P 1'
_cell_length_a   8.46318000
_cell_length_b   11.36950000
_cell_length_c   15.11620000
_cell_angle_alpha   90.00000000
_cell_angle_beta   90.43310000
_cell_angle_gamma   90.00000000
_symmetry_Int_Tables_number   1
_chemical_formula_structural   CdH9C15N3O4
_chemical_formula_sum   'Cd4 H36 C60 N12 O16'
_cell_volume   1454.47133171
_cell_formula_units_Z   4
loop_
 _symmetry_equiv_pos_site_id
 _symmetry_equiv_pos_as_xyz
  1  'x, y, z'
loop_
 _atom_site_type_symbol
 _atom_site_label
 _atom_site_symmetry_multiplicity
 _atom_site_fract_x
 _atom_site_fract_y
 _atom_site_fract_z
 _atom_site_occupancy
  Cd  Cd0  1  0.90561000  0.85100000  0.48222000  1.0
  Cd  Cd1  1  0.59439000  0.35100000  0.01778000  1.0
  Cd  Cd2  1  0.09439000  0.14900000  0.51778000  1.0
  Cd  Cd3  1  0.40561000  0.64900000  0.98222000  1.0
  H  H4  1  0.18431000  0.58457000  0.67410000  1.0
  H  H5  1  0.31569000  0.08457000  0.82590000  1.0
  H  H6  1  0.81569000  0.41543000  0.32590000  1.0
  H  H7  1  0.68431000  0.91543000  0.17410000  1.0
  H  H8  1  0.72887000  0.69608000  0.76417000  1.0
  H  H9  1  0.77113000  0.19608000  0.73583000  1.0
  H  H10  1  0.27113000  0.30392000  0.23583000  1.0
  H  H11  1  0.22887000  0.80391000  0.26417000  1.0
  H  H12  1  0.99516000  0.44358000  0.91650000  1.0
  H  H13  1  0.50484000  0.94358000  0.58350000  1.0
  H  H14  1  0.00484000  0.55642000  0.08350000  1.0
  H  H15  1  0.49516000  0.05642000  0.41650000  1.0
  H  H16  1  0.35654000  0.47996000  0.82477000  1.0
  H  H17  1  0.14346000  0.97996000  0.67523000  1.0
  H  H18  1  0.64345000  0.52004000  0.17523000  1.0
  H  H19  1  0.85654000  0.02004000  0.32477000  1.0
  H  H20  1  0.23649000  0.36067000  0.85722000  1.0
  H  H21  1  0.26351000  0.86067000  0.64278000  1.0
  H  H22  1  0.76351000  0.63933000  0.14278000  1.0
  H  H23  1  0.73649000  0.13933000  0.35722000  1.0
  H  H24  1  0.58264000  0.50666000  0.73544000  1.0
  H  H25  1  0.91736000  0.00666000  0.76456000  1.0
  H  H26  1  0.41736000  0.49334000  0.26456000  1.0
  H  H27  1  0.08264000  0.99334000  0.23544000  1.0
  H  H28  1  0.77677000  0.48744000  0.61303000  1.0
  H  H29  1  0.72323000  0.98744000  0.88697000  1.0
  H  H30  1  0.22324000  0.51256000  0.38697000  1.0
  H  H31  1  0.27677000  0.01256000  0.11303000  1.0
  H  H32  1  0.72351000  0.36266000  0.48261000  1.0
  H  H33  1  0.77649000  0.86266000  0.01739000  1.0
  H  H34  1  0.27649000  0.63734000  0.51739000  1.0
  H  H35  1  0.22351000  0.13734000  0.98261000  1.0
  H  H36  1  0.46758000  0.25300000  0.46669000  1.0
  H  H37  1  0.03242000  0.75300000  0.03331000  1.0
  H  H38  1  0.53242000  0.74700000  0.53331000  1.0
  H  H39  1  0.96758000  0.24700000  0.96669000  1.0
  C  C40  1  0.10675000  0.50504000  0.79679000  1.0
  C  C41  1  0.39325000  0.00504000  0.70321000  1.0
  C  C42  1  0.89325000  0.49496000  0.20321000  1.0
  C  C43  1  0.60675000  0.99496000  0.29679000  1.0
  C  C44  1  0.09176000  0.57979000  0.72377000  1.0
  C  C45  1  0.40824000  0.07979000  0.77624000  1.0
  C  C46  1  0.90824000  0.42021000  0.27624000  1.0
  C  C47  1  0.59176000  0.92021000  0.22376000  1.0
  C  C48  1  0.95650000  0.64873000  0.71193000  1.0
  C  C49  1  0.54350000  0.14873000  0.78807000  1.0
  C  C50  1  0.04350000  0.35127000  0.28808000  1.0
  C  C51  1  0.45650000  0.85127000  0.21193000  1.0
  C  C52  1  0.83469000  0.64306000  0.77372000  1.0
  C  C53  1  0.66531000  0.14306000  0.72628000  1.0
  C  C54  1  0.16531000  0.35694000  0.22628000  1.0
  C  C55  1  0.33469000  0.85694000  0.27372000  1.0
  C  C56  1  0.84922000  0.56903000  0.84709000  1.0
  C  C57  1  0.65078000  0.06903000  0.65291000  1.0
  C  C58  1  0.15078000  0.43097000  0.15291000  1.0
  C  C59  1  0.34922000  0.93097000  0.34709000  1.0
  C  C60  1  0.98569000  0.50072000  0.85889000  1.0
  C  C61  1  0.51431000  0.00072000  0.64111000  1.0
  C  C62  1  0.01431000  0.49928000  0.14111000  1.0
  C  C63  1  0.48569000  0.99928000  0.35889000  1.0
  C  C64  1  0.25161000  0.42826000  0.80631000  1.0
  C  C65  1  0.24839000  0.92826000  0.69369000  1.0
  C  C66  1  0.74839000  0.57174000  0.19369000  1.0
  C  C67  1  0.75161000  0.07174000  0.30631000  1.0
  C  C68  1  0.38671000  0.31514000  0.59474000  1.0
  C  C69  1  0.11329000  0.81514000  0.90526000  1.0
  C  C70  1  0.61330000  0.68486000  0.40526000  1.0
  C  C71  1  0.88671000  0.18486000  0.09474000  1.0
  C  C72  1  0.41868000  0.38650000  0.66930000  1.0
  C  C73  1  0.08132000  0.88650000  0.83070000  1.0
  C  C74  1  0.58132000  0.61350000  0.33070000  1.0
  C  C75  1  0.91868000  0.11350000  0.16930000  1.0
  C  C76  1  0.55851000  0.45172000  0.67788000  1.0
  C  C77  1  0.94149000  0.95172000  0.82212000  1.0
  C  C78  1  0.44149000  0.54828000  0.32212000  1.0
  C  C79  1  0.05851000  0.04828000  0.17788000  1.0
  C  C80  1  0.66477000  0.44039000  0.60895000  1.0
  C  C81  1  0.83522000  0.94038000  0.89105000  1.0
  C  C82  1  0.33523000  0.55962000  0.39105000  1.0
  C  C83  1  0.16477000  0.05961000  0.10895000  1.0
  C  C84  1  0.63374000  0.36930000  0.53372000  1.0
  C  C85  1  0.86626000  0.86930000  0.96628000  1.0
  C  C86  1  0.36627000  0.63070000  0.46628000  1.0
  C  C87  1  0.13374000  0.13070000  0.03372000  1.0
  C  C88  1  0.49418000  0.30637000  0.52477000  1.0
  C  C89  1  0.00581000  0.80637000  0.97523000  1.0
  C  C90  1  0.50582000  0.69363000  0.47523000  1.0
  C  C91  1  0.99419000  0.19363000  0.02477000  1.0
  C  C92  1  0.93904000  0.72492000  0.63199000  1.0
  C  C93  1  0.56096000  0.22492000  0.86801000  1.0
  C  C94  1  0.06096000  0.27508000  0.36801000  1.0
  C  C95  1  0.43904000  0.77508000  0.13199000  1.0
  C  C96  1  0.71464000  0.55835000  0.90979000  1.0
  C  C97  1  0.78536000  0.05835000  0.59021000  1.0
  C  C98  1  0.28536000  0.44165000  0.09021000  1.0
  C  C99  1  0.21464000  0.94165000  0.40979000  1.0
  N  N100  1  0.28966000  0.37086000  0.72251000  1.0
  N  N101  1  0.21034000  0.87086000  0.77749000  1.0
  N  N102  1  0.71034000  0.62914000  0.27749000  1.0
  N  N103  1  0.78966000  0.12914000  0.22251000  1.0
  N  N104  1  0.18512000  0.29674000  0.68536000  1.0
  N  N105  1  0.31488000  0.79674000  0.81464000  1.0
  N  N106  1  0.81488000  0.70326000  0.31464000  1.0
  N  N107  1  0.68512000  0.20326000  0.18536000  1.0
  N  N108  1  0.24238000  0.26283000  0.60889000  1.0
  N  N109  1  0.25762000  0.76283000  0.89111000  1.0
  N  N110  1  0.75763000  0.73717000  0.39111000  1.0
  N  N111  1  0.74237000  0.23717000  0.10889000  1.0
  O  O112  1  0.05322000  0.72983000  0.57658000  1.0
  O  O113  1  0.44678000  0.22983000  0.92342000  1.0
  O  O114  1  0.94678000  0.27017000  0.42342000  1.0
  O  O115  1  0.55322000  0.77017000  0.07658000  1.0
  O  O116  1  0.81092000  0.78179000  0.62021000  1.0
  O  O117  1  0.68908000  0.28179000  0.87979000  1.0
  O  O118  1  0.18908000  0.21821000  0.37979000  1.0
  O  O119  1  0.31092000  0.71821000  0.12021000  1.0
  O  O120  1  0.57986000  0.59437000  0.88143000  1.0
  O  O121  1  0.92014000  0.09437000  0.61857000  1.0
  O  O122  1  0.42014000  0.40563000  0.11857000  1.0
  O  O123  1  0.07986000  0.90563000  0.38143000  1.0
  O  O124  1  0.73868000  0.51357000  0.98604000  1.0
  O  O125  1  0.76132000  0.01357000  0.51396000  1.0
  O  O126  1  0.26132000  0.48643000  0.01396000  1.0
  O  O127  1  0.23868000  0.98643000  0.48604000  1.0
