# generated using pymatgen
data_CuH4C5N4
_symmetry_space_group_name_H-M   'P 1'
_cell_length_a   7.98209000
_cell_length_b   8.75128000
_cell_length_c   8.96546000
_cell_angle_alpha   111.79100000
_cell_angle_beta   89.99990000
_cell_angle_gamma   89.99940000
_symmetry_Int_Tables_number   1
_chemical_formula_structural   CuH4C5N4
_chemical_formula_sum   'Cu4 H16 C20 N16'
_cell_volume   581.51823142
_cell_formula_units_Z   4
loop_
 _symmetry_equiv_pos_site_id
 _symmetry_equiv_pos_as_xyz
  1  'x, y, z'
loop_
 _atom_site_type_symbol
 _atom_site_label
 _atom_site_symmetry_multiplicity
 _atom_site_fract_x
 _atom_site_fract_y
 _atom_site_fract_z
 _atom_site_occupancy
  Cu  Cu0  1  0.86488000  0.56733000  0.61787000  1.0
  Cu  Cu1  1  0.36488000  0.93266000  0.88212000  1.0
  Cu  Cu2  1  0.13512000  0.43267000  0.38212000  1.0
  Cu  Cu3  1  0.63512000  0.06734000  0.11788000  1.0
  H  H4  1  0.51202000  0.49516000  0.66817000  1.0
  H  H5  1  0.01202000  0.00484000  0.83183000  1.0
  H  H6  1  0.48798000  0.50484000  0.33183000  1.0
  H  H7  1  0.98798000  0.99516000  0.16817000  1.0
  H  H8  1  0.33864000  0.24750000  0.60338000  1.0
  H  H9  1  0.83864000  0.25251000  0.89662000  1.0
  H  H10  1  0.66136000  0.75251000  0.39661000  1.0
  H  H11  1  0.16136000  0.74749000  0.10339000  1.0
  H  H12  1  0.79344000  0.95946000  0.45444000  1.0
  H  H13  1  0.29345000  0.54053000  0.04555000  1.0
  H  H14  1  0.20655000  0.04054000  0.54556000  1.0
  H  H15  1  0.70655000  0.45947000  0.95445000  1.0
  H  H16  1  0.94733000  0.22100000  0.52401000  1.0
  H  H17  1  0.44733000  0.27899000  0.97598000  1.0
  H  H18  1  0.05267000  0.77900000  0.47599000  1.0
  H  H19  1  0.55267000  0.72101000  0.02402000  1.0
  C  C20  1  0.56934000  0.37345000  0.61995000  1.0
  C  C21  1  0.06934000  0.12655000  0.88005000  1.0
  C  C22  1  0.43066000  0.62655000  0.38005000  1.0
  C  C23  1  0.93066000  0.87345000  0.11995000  1.0
  C  C24  1  0.47305000  0.23242000  0.58401000  1.0
  C  C25  1  0.97305000  0.26758000  0.91599000  1.0
  C  C26  1  0.52695000  0.76758000  0.41599000  1.0
  C  C27  1  0.02695000  0.73242000  0.08402000  1.0
  C  C28  1  0.54901000  0.07642000  0.52140000  1.0
  C  C29  1  0.04901000  0.42358000  0.97859000  1.0
  C  C30  1  0.45098000  0.92358000  0.47860000  1.0
  C  C31  1  0.95098000  0.57642000  0.02141000  1.0
  C  C32  1  0.72389000  0.07437000  0.50066000  1.0
  C  C33  1  0.22389000  0.42563000  0.99933000  1.0
  C  C34  1  0.27611000  0.92563000  0.49934000  1.0
  C  C35  1  0.77611000  0.57437000  0.00067000  1.0
  C  C36  1  0.81204000  0.22049000  0.54071000  1.0
  C  C37  1  0.31204000  0.27950000  0.95928000  1.0
  C  C38  1  0.18796000  0.77951000  0.45929000  1.0
  C  C39  1  0.68796000  0.72050000  0.04071000  1.0
  N  N40  1  0.73720000  0.36969000  0.59934000  1.0
  N  N41  1  0.23721000  0.13030000  0.90066000  1.0
  N  N42  1  0.26280000  0.63031000  0.40067000  1.0
  N  N43  1  0.76279000  0.86970000  0.09934000  1.0
  N  N44  1  0.10845000  0.51676000  0.65735000  1.0
  N  N45  1  0.60845000  0.98322000  0.84264000  1.0
  N  N46  1  0.89155000  0.48323000  0.34264000  1.0
  N  N47  1  0.39155000  0.01678000  0.15736000  1.0
  N  N48  1  0.20832000  0.61430000  0.73677000  1.0
  N  N49  1  0.70832000  0.88570000  0.76323000  1.0
  N  N50  1  0.79168000  0.38570000  0.26323000  1.0
  N  N51  1  0.29168000  0.11430000  0.23677000  1.0
  N  N52  1  0.18653000  0.20414000  0.31530000  1.0
  N  N53  1  0.68655000  0.29586000  0.18471000  1.0
  N  N54  1  0.81347000  0.79586000  0.68471000  1.0
  N  N55  1  0.31345000  0.70413000  0.81529000  1.0
