# generated using pymatgen
data_CuH8C10S2N2Cl
_symmetry_space_group_name_H-M   'P 1'
_cell_length_a   7.84366000
_cell_length_b   10.14600000
_cell_length_c   14.78440000
_cell_angle_alpha   89.99970000
_cell_angle_beta   89.99930000
_cell_angle_gamma   68.81400000
_symmetry_Int_Tables_number   1
_chemical_formula_structural   CuH8C10S2N2Cl
_chemical_formula_sum   'Cu4 H32 C40 S8 N8 Cl4'
_cell_volume   1097.04701249
_cell_formula_units_Z   4
loop_
 _symmetry_equiv_pos_site_id
 _symmetry_equiv_pos_as_xyz
  1  'x, y, z'
loop_
 _atom_site_type_symbol
 _atom_site_label
 _atom_site_symmetry_multiplicity
 _atom_site_fract_x
 _atom_site_fract_y
 _atom_site_fract_z
 _atom_site_occupancy
  Cu  Cu0  1  0.47308000  0.64570000  0.45898000  1.0
  Cu  Cu1  1  0.97307000  0.14571000  0.04103000  1.0
  Cu  Cu2  1  0.52693000  0.35429000  0.54102000  1.0
  Cu  Cu3  1  0.02691000  0.85430000  0.95897000  1.0
  H  H4  1  0.03007000  0.98534000  0.67997000  1.0
  H  H5  1  0.53006000  0.48532000  0.82002000  1.0
  H  H6  1  0.96993000  0.01466000  0.32003000  1.0
  H  H7  1  0.46993000  0.51467000  0.17997000  1.0
  H  H8  1  0.00416000  0.20343000  0.59293000  1.0
  H  H9  1  0.50415000  0.70341000  0.90705000  1.0
  H  H10  1  0.99584000  0.79657000  0.40706000  1.0
  H  H11  1  0.49583000  0.29659000  0.09293000  1.0
  H  H12  1  0.21497000  0.18173000  0.46141000  1.0
  H  H13  1  0.71494000  0.68173000  0.03857000  1.0
  H  H14  1  0.78505000  0.81826000  0.53859000  1.0
  H  H15  1  0.28502000  0.31829000  0.96141000  1.0
  H  H16  1  0.41532000  0.94080000  0.41066000  1.0
  H  H17  1  0.91531000  0.44080000  0.08934000  1.0
  H  H18  1  0.58469000  0.05919000  0.58934000  1.0
  H  H19  1  0.08467000  0.55922000  0.91066000  1.0
  H  H20  1  0.93055000  0.67700000  0.64989000  1.0
  H  H21  1  0.43056000  0.17699000  0.85012000  1.0
  H  H22  1  0.06945000  0.32300000  0.35012000  1.0
  H  H23  1  0.56946000  0.82300000  0.14989000  1.0
  H  H24  1  0.59072000  0.75475000  0.66088000  1.0
  H  H25  1  0.09073000  0.25473000  0.83913000  1.0
  H  H26  1  0.40928000  0.24527000  0.33913000  1.0
  H  H27  1  0.90930000  0.74525000  0.16087000  1.0
  H  H28  1  0.43211000  0.90444000  0.79631000  1.0
  H  H29  1  0.93212000  0.40443000  0.70370000  1.0
  H  H30  1  0.56788000  0.09558000  0.20369000  1.0
  H  H31  1  0.06789000  0.59555000  0.29631000  1.0
  H  H32  1  0.62740000  0.94285000  0.91945000  1.0
  H  H33  1  0.12741000  0.44284000  0.58056000  1.0
  H  H34  1  0.37260000  0.05718000  0.08056000  1.0
  H  H35  1  0.87260000  0.55715000  0.41945000  1.0
  C  C36  1  0.23658000  0.84927000  0.59007000  1.0
  C  C37  1  0.73658000  0.34926000  0.90993000  1.0
  C  C38  1  0.76342000  0.15073000  0.40993000  1.0
  C  C39  1  0.26342000  0.65074000  0.09007000  1.0
  C  C40  1  0.11450000  0.97957000  0.62063000  1.0
  C  C41  1  0.61449000  0.47954000  0.87937000  1.0
  C  C42  1  0.88551000  0.02044000  0.37937000  1.0
  C  C43  1  0.38549000  0.52045000  0.12062000  1.0
  C  C44  1  0.10225000  0.10069000  0.57297000  1.0
  C  C45  1  0.60223000  0.60068000  0.92702000  1.0
  C  C46  1  0.89776000  0.89930000  0.42703000  1.0
  C  C47  1  0.39775000  0.39932000  0.07297000  1.0
  C  C48  1  0.21557000  0.08878000  0.49816000  1.0
  C  C49  1  0.71555000  0.58878000  0.00183000  1.0
  C  C50  1  0.78444000  0.91122000  0.50184000  1.0
  C  C51  1  0.28442000  0.41123000  0.99816000  1.0
  C  C52  1  0.32864000  0.95525000  0.47027000  1.0
  C  C53  1  0.82863000  0.45525000  0.02973000  1.0
  C  C54  1  0.67137000  0.04474000  0.52973000  1.0
  C  C55  1  0.17135000  0.54476000  0.97027000  1.0
  C  C56  1  0.95278000  0.77571000  0.77617000  1.0
  C  C57  1  0.45279000  0.27570000  0.72384000  1.0
  C  C58  1  0.04721000  0.22430000  0.22384000  1.0
  C  C59  1  0.54723000  0.72428000  0.27617000  1.0
  C  C60  1  0.85703000  0.73923000  0.70713000  1.0
  C  C61  1  0.35704000  0.23922000  0.79287000  1.0
  C  C62  1  0.14297000  0.26078000  0.29287000  1.0
  C  C63  1  0.64300000  0.76077000  0.20712000  1.0
  C  C64  1  0.66749000  0.78451000  0.71345000  1.0
  C  C65  1  0.16750000  0.28449000  0.78656000  1.0
  C  C66  1  0.33250000  0.21551000  0.28656000  1.0
  C  C67  1  0.83251000  0.71549000  0.21345000  1.0
  C  C68  1  0.58034000  0.86436000  0.78843000  1.0
  C  C69  1  0.08034000  0.36434000  0.71157000  1.0
  C  C70  1  0.41966000  0.13566000  0.21157000  1.0
  C  C71  1  0.91967000  0.63564000  0.28843000  1.0
  C  C72  1  0.68704000  0.88778000  0.85713000  1.0
  C  C73  1  0.18705000  0.38777000  0.64288000  1.0
  C  C74  1  0.31295000  0.11224000  0.14287000  1.0
  C  C75  1  0.81294000  0.61222000  0.35712000  1.0
  S  S76  1  0.27152000  0.68451000  0.64281000  1.0
  S  S77  1  0.77153000  0.18449000  0.85719000  1.0
  S  S78  1  0.72848000  0.31550000  0.35720000  1.0
  S  S79  1  0.22849000  0.81551000  0.14281000  1.0
  S  S80  1  0.19146000  0.74076000  0.77526000  1.0
  S  S81  1  0.69147000  0.24075000  0.72474000  1.0
  S  S82  1  0.80854000  0.25924000  0.22475000  1.0
  S  S83  1  0.30854000  0.75924000  0.27525000  1.0
  N  N84  1  0.33857000  0.83577000  0.51428000  1.0
  N  N85  1  0.83857000  0.33576000  0.98571000  1.0
  N  N86  1  0.66144000  0.16423000  0.48572000  1.0
  N  N87  1  0.16143000  0.66424000  0.01428000  1.0
  N  N88  1  0.87142000  0.84361000  0.85216000  1.0
  N  N89  1  0.37143000  0.34361000  0.64785000  1.0
  N  N90  1  0.12857000  0.15640000  0.14785000  1.0
  N  N91  1  0.62859000  0.65638000  0.35216000  1.0
  Cl  Cl92  1  0.28839000  0.50888000  0.44361000  1.0
  Cl  Cl93  1  0.78839000  0.00889000  0.05639000  1.0
  Cl  Cl94  1  0.71161000  0.49111000  0.55640000  1.0
  Cl  Cl95  1  0.21161000  0.99111000  0.94361000  1.0
