# generated using pymatgen
data_NdH12C21NO9
_symmetry_space_group_name_H-M   'P 1'
_cell_length_a   9.25500000
_cell_length_b   10.60790000
_cell_length_c   10.98315587
_cell_angle_alpha   117.31698885
_cell_angle_beta   92.13461735
_cell_angle_gamma   98.74160000
_symmetry_Int_Tables_number   1
_chemical_formula_structural   NdH12C21NO9
_chemical_formula_sum   'Nd2 H24 C42 N2 O18'
_cell_volume   939.85162968
_cell_formula_units_Z   2
loop_
 _symmetry_equiv_pos_site_id
 _symmetry_equiv_pos_as_xyz
  1  'x, y, z'
loop_
 _atom_site_type_symbol
 _atom_site_label
 _atom_site_symmetry_multiplicity
 _atom_site_fract_x
 _atom_site_fract_y
 _atom_site_fract_z
 _atom_site_occupancy
  Nd  Nd0  1  0.17367000  0.90271000  0.49380000  1.0
  Nd  Nd1  1  0.82633000  0.09729000  0.50620000  1.0
  H  H2  1  0.46066000  0.00386000  0.37877000  1.0
  H  H3  1  0.53933000  0.99614000  0.62123000  1.0
  H  H4  1  0.39067000  0.83169000  0.27876000  1.0
  H  H5  1  0.60933000  0.16831000  0.72124000  1.0
  H  H6  1  0.48051000  0.92903000  0.81666000  1.0
  H  H7  1  0.51949000  0.07099000  0.18335000  1.0
  H  H8  1  0.15121000  0.51166000  0.57423000  1.0
  H  H9  1  0.84878000  0.48835000  0.42577000  1.0
  H  H10  1  0.49226000  0.31148000  0.64519000  1.0
  H  H11  1  0.50772000  0.68852000  0.35482000  1.0
  H  H12  1  0.66746000  0.54310000  0.73524000  1.0
  H  H13  1  0.33253000  0.45689000  0.26476000  1.0
  H  H14  1  0.64074000  0.14843000  0.92856000  1.0
  H  H15  1  0.35927000  0.85158000  0.07145000  1.0
  H  H16  1  0.99694000  0.91077000  0.81437000  1.0
  H  H17  1  0.00306000  0.08922000  0.18564000  1.0
  H  H18  1  0.81413000  0.68769000  0.70216000  1.0
  H  H19  1  0.18587000  0.31230000  0.29783000  1.0
  H  H20  1  0.81285000  0.27348000  0.12977000  1.0
  H  H21  1  0.18715000  0.72652000  0.87022000  1.0
  H  H22  1  0.97929000  0.51303000  0.25469000  1.0
  H  H23  1  0.02072000  0.48696000  0.74530000  1.0
  H  H24  1  0.26058000  0.38406000  0.93362000  1.0
  H  H25  1  0.73943000  0.61592000  0.06638000  1.0
  C  C26  1  0.30492000  0.76181000  0.63018000  1.0
  C  C27  1  0.69508000  0.23819000  0.36982000  1.0
  C  C28  1  0.36402000  0.64881000  0.65298000  1.0
  C  C29  1  0.63597000  0.35120000  0.34702000  1.0
  C  C30  1  0.26488000  0.51864000  0.61013000  1.0
  C  C31  1  0.73511000  0.48136000  0.38987000  1.0
  C  C32  1  0.30911000  0.39735000  0.60761000  1.0
  C  C33  1  0.69087000  0.60266000  0.39239000  1.0
  C  C34  1  0.45633000  0.40626000  0.64947000  1.0
  C  C35  1  0.54366000  0.59374000  0.35053000  1.0
  C  C36  1  0.55494000  0.53616000  0.69707000  1.0
  C  C37  1  0.44505000  0.46385000  0.30293000  1.0
  C  C38  1  0.51254000  0.65935000  0.70030000  1.0
  C  C39  1  0.48746000  0.34065000  0.29970000  1.0
  C  C40  1  0.20064000  0.25810000  0.56056000  1.0
  C  C41  1  0.79936000  0.74190000  0.43944000  1.0
  C  C42  1  0.62650000  0.79113000  0.75920000  1.0
  C  C43  1  0.37350000  0.20887000  0.24080000  1.0
  C  C44  1  0.68631000  0.04999000  0.88689000  1.0
  C  C45  1  0.31369000  0.95001000  0.11311000  1.0
  C  C46  1  0.83708000  0.05225000  0.88772000  1.0
  C  C47  1  0.16292000  0.94775000  0.11228000  1.0
  C  C48  1  0.88079000  0.91749000  0.81967000  1.0
  C  C49  1  0.11921000  0.08250000  0.18032000  1.0
  C  C50  1  0.77744000  0.78991000  0.75667000  1.0
  C  C51  1  0.22256000  0.21009000  0.24333000  1.0
  C  C52  1  0.93933000  0.19265000  0.95736000  1.0
  C  C53  1  0.06068000  0.80735000  0.04264000  1.0
  C  C54  1  0.90873000  0.29795000  0.08426000  1.0
  C  C55  1  0.09128000  0.70204000  0.91573000  1.0
  C  C56  1  0.00176000  0.43135000  0.15550000  1.0
  C  C57  1  0.99825000  0.56865000  0.84450000  1.0
  C  C58  1  0.12847000  0.46363000  0.10117000  1.0
  C  C59  1  0.87155000  0.53636000  0.89883000  1.0
  C  C60  1  0.16161000  0.35936000  0.97559000  1.0
  C  C61  1  0.83841000  0.64064000  0.02441000  1.0
  C  C62  1  0.06779000  0.22439000  0.90313000  1.0
  C  C63  1  0.93223000  0.77561000  0.09687000  1.0
  C  C64  1  0.10378000  0.11700000  0.76661000  1.0
  C  C65  1  0.89623000  0.88299000  0.23339000  1.0
  C  C66  1  0.22530000  0.61082000  0.18472000  1.0
  C  C67  1  0.77471000  0.38918000  0.81528000  1.0
  N  N68  1  0.58928000  0.92365000  0.82641000  1.0
  N  N69  1  0.41073000  0.07635000  0.17359000  1.0
  O  O70  1  0.39214000  0.84808000  0.60108000  1.0
  O  O71  1  0.60786000  0.15192000  0.39892000  1.0
  O  O72  1  0.16833000  0.76286000  0.63188000  1.0
  O  O73  1  0.83167000  0.23716000  0.36813000  1.0
  O  O74  1  0.06488000  0.26307000  0.55205000  1.0
  O  O75  1  0.93511000  0.73693000  0.44796000  1.0
  O  O76  1  0.25494000  0.14647000  0.53366000  1.0
  O  O77  1  0.74506000  0.85353000  0.46633000  1.0
  O  O78  1  0.00365000  0.06116000  0.66124000  1.0
  O  O79  1  0.99635000  0.93884000  0.33876000  1.0
  O  O80  1  0.22865000  0.08201000  0.75802000  1.0
  O  O81  1  0.77136000  0.91799000  0.24198000  1.0
  O  O82  1  0.19510000  0.67876000  0.30898000  1.0
  O  O83  1  0.80491000  0.32124000  0.69102000  1.0
  O  O84  1  0.32707000  0.65748000  0.13405000  1.0
  O  O85  1  0.67293000  0.34253000  0.86596000  1.0
  O  O86  1  0.38264000  0.92228000  0.36285000  1.0
  O  O87  1  0.61736000  0.07771000  0.63715000  1.0
