# generated using pymatgen
data_NiH11C12(NO2)2
_symmetry_space_group_name_H-M   'P 1'
_cell_length_a   9.90921000
_cell_length_b   10.44620000
_cell_length_c   27.83010000
_cell_angle_alpha   90.00010000
_cell_angle_beta   90.00020000
_cell_angle_gamma   89.99990000
_symmetry_Int_Tables_number   1
_chemical_formula_structural   NiH11C12(NO2)2
_chemical_formula_sum   'Ni8 H88 C96 N16 O32'
_cell_volume   2880.79354717
_cell_formula_units_Z   8
loop_
 _symmetry_equiv_pos_site_id
 _symmetry_equiv_pos_as_xyz
  1  'x, y, z'
loop_
 _atom_site_type_symbol
 _atom_site_label
 _atom_site_symmetry_multiplicity
 _atom_site_fract_x
 _atom_site_fract_y
 _atom_site_fract_z
 _atom_site_occupancy
  Ni  Ni0  1  0.84663000  0.47705000  0.27756000  1.0
  Ni  Ni1  1  0.83598000  0.98939000  0.21724000  1.0
  Ni  Ni2  1  0.15337000  0.47705000  0.72244000  1.0
  Ni  Ni3  1  0.16402000  0.98939000  0.78276000  1.0
  Ni  Ni4  1  0.34663000  0.52296000  0.22244000  1.0
  Ni  Ni5  1  0.33598000  0.01062000  0.28276000  1.0
  Ni  Ni6  1  0.65337000  0.52295000  0.77756000  1.0
  Ni  Ni7  1  0.66402000  0.01061000  0.71724000  1.0
  H  H8  1  0.78194000  0.14256000  0.28356000  1.0
  H  H9  1  0.70014000  0.00370000  0.29440000  1.0
  H  H10  1  0.66796000  0.51822000  0.21851000  1.0
  H  H11  1  0.79813000  0.60358000  0.19814000  1.0
  H  H12  1  0.86221000  0.55479000  0.38051000  1.0
  H  H13  1  0.99608000  0.49214000  0.45342000  1.0
  H  H14  1  0.16339000  0.18273000  0.36859000  1.0
  H  H15  1  0.02859000  0.26328000  0.30005000  1.0
  H  H16  1  0.23439000  0.47881000  0.48060000  1.0
  H  H17  1  0.36953000  0.40436000  0.55006000  1.0
  H  H18  1  0.26410000  0.01419000  0.51699000  1.0
  H  H19  1  0.13003000  0.08870000  0.44731000  1.0
  H  H20  1  0.35410000  0.31544000  0.62815000  1.0
  H  H21  1  0.50086000  0.23651000  0.69383000  1.0
  H  H22  1  0.63113000  0.92667000  0.61436000  1.0
  H  H23  1  0.48969000  0.99147000  0.54377000  1.0
  H  H24  1  0.97945000  0.83420000  0.35111000  1.0
  H  H25  1  0.80167000  0.84921000  0.35199000  1.0
  H  H26  1  0.91290000  0.05990000  0.34904000  1.0
  H  H27  1  0.73921000  0.39442000  0.14971000  1.0
  H  H28  1  0.94841000  0.51253000  0.13315000  1.0
  H  H29  1  0.98424000  0.34758000  0.13899000  1.0
  H  H30  1  0.21807000  0.14256000  0.71644000  1.0
  H  H31  1  0.29987000  0.00370000  0.70560000  1.0
  H  H32  1  0.33204000  0.51821000  0.78149000  1.0
  H  H33  1  0.20187000  0.60358000  0.80186000  1.0
  H  H34  1  0.13779000  0.55478000  0.61949000  1.0
  H  H35  1  0.00392000  0.49213000  0.54658000  1.0
  H  H36  1  0.83662000  0.18273000  0.63141000  1.0
  H  H37  1  0.97141000  0.26328000  0.69995000  1.0
  H  H38  1  0.76562000  0.47880000  0.51940000  1.0
  H  H39  1  0.63048000  0.40436000  0.44994000  1.0
  H  H40  1  0.73590000  0.01419000  0.48301000  1.0
  H  H41  1  0.86997000  0.08870000  0.55269000  1.0
  H  H42  1  0.64590000  0.31543000  0.37185000  1.0
  H  H43  1  0.49914000  0.23651000  0.30617000  1.0
  H  H44  1  0.36887000  0.92667000  0.38564000  1.0
  H  H45  1  0.51031000  0.99147000  0.45623000  1.0
  H  H46  1  0.02056000  0.83420000  0.64889000  1.0
  H  H47  1  0.19834000  0.84920000  0.64801000  1.0
  H  H48  1  0.08710000  0.05990000  0.65096000  1.0
  H  H49  1  0.26078000  0.39442000  0.85029000  1.0
  H  H50  1  0.05159000  0.51253000  0.86685000  1.0
  H  H51  1  0.01577000  0.34758000  0.86101000  1.0
  H  H52  1  0.28193000  0.85745000  0.21644000  1.0
  H  H53  1  0.20014000  0.99630000  0.20559000  1.0
  H  H54  1  0.16796000  0.48179000  0.28148000  1.0
  H  H55  1  0.29813000  0.39643000  0.30186000  1.0
  H  H56  1  0.36221000  0.44522000  0.11948000  1.0
  H  H57  1  0.49608000  0.50787000  0.04658000  1.0
  H  H58  1  0.66339000  0.81727000  0.13141000  1.0
  H  H59  1  0.52859000  0.73672000  0.19995000  1.0
  H  H60  1  0.73439000  0.52120000  0.01940000  1.0
  H  H61  1  0.86953000  0.59564000  0.94994000  1.0
  H  H62  1  0.76410000  0.98581000  0.98301000  1.0
  H  H63  1  0.63003000  0.91130000  0.05269000  1.0
  H  H64  1  0.85410000  0.68457000  0.87185000  1.0
  H  H65  1  0.00086000  0.76349000  0.80617000  1.0
  H  H66  1  0.13113000  0.07333000  0.88564000  1.0
  H  H67  1  0.98969000  0.00852000  0.95623000  1.0
  H  H68  1  0.47945000  0.16579000  0.14889000  1.0
  H  H69  1  0.30167000  0.15080000  0.14801000  1.0
  H  H70  1  0.41291000  0.94009000  0.15096000  1.0
  H  H71  1  0.23921000  0.60558000  0.35029000  1.0
  H  H72  1  0.44841000  0.48747000  0.36684000  1.0
  H  H73  1  0.48423000  0.65242000  0.36101000  1.0
  H  H74  1  0.71807000  0.85744000  0.78356000  1.0
  H  H75  1  0.79986000  0.99630000  0.79440000  1.0
  H  H76  1  0.83203000  0.48178000  0.71852000  1.0
  H  H77  1  0.70187000  0.39642000  0.69814000  1.0
  H  H78  1  0.63779000  0.44521000  0.88051000  1.0
  H  H79  1  0.50392000  0.50787000  0.95342000  1.0
  H  H80  1  0.33661000  0.81727000  0.86859000  1.0
  H  H81  1  0.47142000  0.73672000  0.80005000  1.0
  H  H82  1  0.26561000  0.52119000  0.98060000  1.0
  H  H83  1  0.13047000  0.59564000  0.05006000  1.0
  H  H84  1  0.23590000  0.98581000  0.01699000  1.0
  H  H85  1  0.36996000  0.91130000  0.94731000  1.0
  H  H86  1  0.14589000  0.68456000  0.12815000  1.0
  H  H87  1  0.99914000  0.76349000  0.19383000  1.0
  H  H88  1  0.86887000  0.07333000  0.11436000  1.0
  H  H89  1  0.01031000  0.00852000  0.04377000  1.0
  H  H90  1  0.52055000  0.16580000  0.85111000  1.0
  H  H91  1  0.69833000  0.15080000  0.85199000  1.0
  H  H92  1  0.58709000  0.94009000  0.84904000  1.0
  H  H93  1  0.76079000  0.60558000  0.64972000  1.0
  H  H94  1  0.55159000  0.48747000  0.63315000  1.0
  H  H95  1  0.51577000  0.65242000  0.63899000  1.0
  C  C96  1  0.93133000  0.47374000  0.38010000  1.0
  C  C97  1  0.00682000  0.43861000  0.42003000  1.0
  C  C98  1  0.09242000  0.33170000  0.41757000  1.0
  C  C99  1  0.09859000  0.26578000  0.37376000  1.0
  C  C100  1  0.02203000  0.30876000  0.33519000  1.0
  C  C101  1  0.17260000  0.28890000  0.45913000  1.0
  C  C102  1  0.23961000  0.37686000  0.48892000  1.0
  C  C103  1  0.31573000  0.33513000  0.52786000  1.0
  C  C104  1  0.32722000  0.20400000  0.53834000  1.0
  C  C105  1  0.25938000  0.11619000  0.50866000  1.0
  C  C106  1  0.18366000  0.15782000  0.46964000  1.0
  C  C107  1  0.40982000  0.16034000  0.57917000  1.0
  C  C108  1  0.41493000  0.22964000  0.62235000  1.0
  C  C109  1  0.49638000  0.18633000  0.65955000  1.0
  C  C110  1  0.56854000  0.01249000  0.61514000  1.0
  C  C111  1  0.48818000  0.04852000  0.57653000  1.0
  C  C112  1  0.87935000  0.76589000  0.28816000  1.0
  C  C113  1  0.89207000  0.86252000  0.32932000  1.0
  C  C114  1  0.90468000  0.00365000  0.31559000  1.0
  C  C115  1  0.03699000  0.02210000  0.28740000  1.0
  C  C116  1  0.80821000  0.28356000  0.20933000  1.0
  C  C117  1  0.81029000  0.40886000  0.17977000  1.0
  C  C118  1  0.95098000  0.43276000  0.15901000  1.0
  C  C119  1  0.05935000  0.46179000  0.19658000  1.0
  C  C120  1  0.06867000  0.47374000  0.61990000  1.0
  C  C121  1  0.99318000  0.43860000  0.57997000  1.0
  C  C122  1  0.90758000  0.33170000  0.58243000  1.0
  C  C123  1  0.90141000  0.26578000  0.62624000  1.0
  C  C124  1  0.97797000  0.30876000  0.66481000  1.0
  C  C125  1  0.82740000  0.28890000  0.54087000  1.0
  C  C126  1  0.76039000  0.37685000  0.51108000  1.0
  C  C127  1  0.68428000  0.33513000  0.47215000  1.0
  C  C128  1  0.67279000  0.20399000  0.46166000  1.0
  C  C129  1  0.74062000  0.11619000  0.49134000  1.0
  C  C130  1  0.81633000  0.15781000  0.53036000  1.0
  C  C131  1  0.59017000  0.16034000  0.42083000  1.0
  C  C132  1  0.58507000  0.22964000  0.37765000  1.0
  C  C133  1  0.50362000  0.18633000  0.34045000  1.0
  C  C134  1  0.43146000  0.01249000  0.38486000  1.0
  C  C135  1  0.51182000  0.04852000  0.42347000  1.0
  C  C136  1  0.12065000  0.76589000  0.71184000  1.0
  C  C137  1  0.10794000  0.86252000  0.67068000  1.0
  C  C138  1  0.09532000  0.00364000  0.68441000  1.0
  C  C139  1  0.96301000  0.02210000  0.71260000  1.0
  C  C140  1  0.19179000  0.28356000  0.79067000  1.0
  C  C141  1  0.18971000  0.40886000  0.82023000  1.0
  C  C142  1  0.04902000  0.43276000  0.84099000  1.0
  C  C143  1  0.94065000  0.46179000  0.80342000  1.0
  C  C144  1  0.43133000  0.52626000  0.11990000  1.0
  C  C145  1  0.50682000  0.56139000  0.07997000  1.0
  C  C146  1  0.59242000  0.66830000  0.08243000  1.0
  C  C147  1  0.59859000  0.73422000  0.12624000  1.0
  C  C148  1  0.52203000  0.69124000  0.16481000  1.0
  C  C149  1  0.67260000  0.71110000  0.04087000  1.0
  C  C150  1  0.73961000  0.62314000  0.01108000  1.0
  C  C151  1  0.81573000  0.66487000  0.97214000  1.0
  C  C152  1  0.82721000  0.79600000  0.96166000  1.0
  C  C153  1  0.75938000  0.88381000  0.99134000  1.0
  C  C154  1  0.68366000  0.84218000  0.03036000  1.0
  C  C155  1  0.90982000  0.83966000  0.92083000  1.0
  C  C156  1  0.91493000  0.77036000  0.87765000  1.0
  C  C157  1  0.99638000  0.81367000  0.84045000  1.0
  C  C158  1  0.06853000  0.98751000  0.88486000  1.0
  C  C159  1  0.98818000  0.95148000  0.92347000  1.0
  C  C160  1  0.37936000  0.23411000  0.21184000  1.0
  C  C161  1  0.39207000  0.13748000  0.17068000  1.0
  C  C162  1  0.40468000  0.99636000  0.18441000  1.0
  C  C163  1  0.53699000  0.97791000  0.21260000  1.0
  C  C164  1  0.30820000  0.71645000  0.29067000  1.0
  C  C165  1  0.31028000  0.59114000  0.32022000  1.0
  C  C166  1  0.45097000  0.56724000  0.34099000  1.0
  C  C167  1  0.55934000  0.53821000  0.30342000  1.0
  C  C168  1  0.56867000  0.52626000  0.88010000  1.0
  C  C169  1  0.49317000  0.56139000  0.92003000  1.0
  C  C170  1  0.40758000  0.66830000  0.91757000  1.0
  C  C171  1  0.40141000  0.73422000  0.87376000  1.0
  C  C172  1  0.47797000  0.69124000  0.83519000  1.0
  C  C173  1  0.32740000  0.71110000  0.95913000  1.0
  C  C174  1  0.26038000  0.62314000  0.98892000  1.0
  C  C175  1  0.18427000  0.66487000  0.02786000  1.0
  C  C176  1  0.17278000  0.79600000  0.03834000  1.0
  C  C177  1  0.24062000  0.88381000  0.00866000  1.0
  C  C178  1  0.31633000  0.84218000  0.96964000  1.0
  C  C179  1  0.09017000  0.83966000  0.07917000  1.0
  C  C180  1  0.08507000  0.77036000  0.12235000  1.0
  C  C181  1  0.00362000  0.81367000  0.15955000  1.0
  C  C182  1  0.93146000  0.98751000  0.11514000  1.0
  C  C183  1  0.01181000  0.95147000  0.07653000  1.0
  C  C184  1  0.62064000  0.23411000  0.78816000  1.0
  C  C185  1  0.60793000  0.13748000  0.82932000  1.0
  C  C186  1  0.59532000  0.99635000  0.81559000  1.0
  C  C187  1  0.46301000  0.97791000  0.78740000  1.0
  C  C188  1  0.69180000  0.71644000  0.70933000  1.0
  C  C189  1  0.68971000  0.59114000  0.67978000  1.0
  C  C190  1  0.54902000  0.56724000  0.65901000  1.0
  C  C191  1  0.44065000  0.53821000  0.69658000  1.0
  N  N192  1  0.79107000  0.04423000  0.28581000  1.0
  N  N193  1  0.76982000  0.51575000  0.21078000  1.0
  N  N194  1  0.93902000  0.41028000  0.33806000  1.0
  N  N195  1  0.57364000  0.08020000  0.65627000  1.0
  N  N196  1  0.20893000  0.04423000  0.71419000  1.0
  N  N197  1  0.23018000  0.51575000  0.78922000  1.0
  N  N198  1  0.06098000  0.41028000  0.66194000  1.0
  N  N199  1  0.42636000  0.08020000  0.34373000  1.0
  N  N200  1  0.29107000  0.95578000  0.21419000  1.0
  N  N201  1  0.26983000  0.48425000  0.28922000  1.0
  N  N202  1  0.43902000  0.58972000  0.16194000  1.0
  N  N203  1  0.07364000  0.91980000  0.84373000  1.0
  N  N204  1  0.70893000  0.95577000  0.78581000  1.0
  N  N205  1  0.73017000  0.48425000  0.71078000  1.0
  N  N206  1  0.56098000  0.58972000  0.83806000  1.0
  N  N207  1  0.92637000  0.91980000  0.15627000  1.0
  O  O208  1  0.84004000  0.79855000  0.24637000  1.0
  O  O209  1  0.90790000  0.65231000  0.30087000  1.0
  O  O210  1  0.02831000  0.02719000  0.24178000  1.0
  O  O211  1  0.14529000  0.02759000  0.31148000  1.0
  O  O212  1  0.82483000  0.17991000  0.18671000  1.0
  O  O213  1  0.78988000  0.29497000  0.25466000  1.0
  O  O214  1  0.03143000  0.45000000  0.24099000  1.0
  O  O215  1  0.17406000  0.49446000  0.18030000  1.0
  O  O216  1  0.15996000  0.79854000  0.75363000  1.0
  O  O217  1  0.09211000  0.65231000  0.69913000  1.0
  O  O218  1  0.97169000  0.02719000  0.75822000  1.0
  O  O219  1  0.85471000  0.02758000  0.68852000  1.0
  O  O220  1  0.17518000  0.17991000  0.81329000  1.0
  O  O221  1  0.21012000  0.29497000  0.74534000  1.0
  O  O222  1  0.96858000  0.45000000  0.75901000  1.0
  O  O223  1  0.82594000  0.49446000  0.81970000  1.0
  O  O224  1  0.34005000  0.20145000  0.25362000  1.0
  O  O225  1  0.40791000  0.34769000  0.19913000  1.0
  O  O226  1  0.52831000  0.97281000  0.25822000  1.0
  O  O227  1  0.64529000  0.97242000  0.18852000  1.0
  O  O228  1  0.32483000  0.82009000  0.31330000  1.0
  O  O229  1  0.28987000  0.70504000  0.24534000  1.0
  O  O230  1  0.53143000  0.55000000  0.25900000  1.0
  O  O231  1  0.67406000  0.50555000  0.31970000  1.0
  O  O232  1  0.65995000  0.20145000  0.74638000  1.0
  O  O233  1  0.59208000  0.34769000  0.80086000  1.0
  O  O234  1  0.47169000  0.97281000  0.74178000  1.0
  O  O235  1  0.35471000  0.97243000  0.81148000  1.0
  O  O236  1  0.67517000  0.82009000  0.68671000  1.0
  O  O237  1  0.71013000  0.70503000  0.75466000  1.0
  O  O238  1  0.46857000  0.55000000  0.74100000  1.0
  O  O239  1  0.32594000  0.50554000  0.68030000  1.0
