# generated using pymatgen
data_CdH16C6(N3O4)2
_symmetry_space_group_name_H-M   'P 1'
_cell_length_a   7.46034000
_cell_length_b   7.46034000
_cell_length_c   12.92140000
_cell_angle_alpha   100.65500000
_cell_angle_beta   100.65500000
_cell_angle_gamma   108.51200000
_symmetry_Int_Tables_number   1
_chemical_formula_structural   CdH16C6(N3O4)2
_chemical_formula_sum   'Cd2 H32 C12 N12 O16'
_cell_volume   646.89067552
_cell_formula_units_Z   2
loop_
 _symmetry_equiv_pos_site_id
 _symmetry_equiv_pos_as_xyz
  1  'x, y, z'
loop_
 _atom_site_type_symbol
 _atom_site_label
 _atom_site_symmetry_multiplicity
 _atom_site_fract_x
 _atom_site_fract_y
 _atom_site_fract_z
 _atom_site_occupancy
  Cd  Cd0  1  0.50000000  0.00000000  0.50000000  1.0
  Cd  Cd1  1  0.00000000  0.50000000  0.00000000  1.0
  H  H2  1  0.67687000  0.80119000  0.64479000  1.0
  H  H3  1  0.19881000  0.32313000  0.85522000  1.0
  H  H4  1  0.32313000  0.19881000  0.35522000  1.0
  H  H5  1  0.80119000  0.67687000  0.14479000  1.0
  H  H6  1  0.54977000  0.58558000  0.44336000  1.0
  H  H7  1  0.41442000  0.45023000  0.05664000  1.0
  H  H8  1  0.45023000  0.41442000  0.55664000  1.0
  H  H9  1  0.58558000  0.54977000  0.94336000  1.0
  H  H10  1  0.29090000  0.53572000  0.41076000  1.0
  H  H11  1  0.46428000  0.70911000  0.08924000  1.0
  H  H12  1  0.70911000  0.46428000  0.58924000  1.0
  H  H13  1  0.53572000  0.29090000  0.91076000  1.0
  H  H14  1  0.66029000  0.90876000  0.26792000  1.0
  H  H15  1  0.09123000  0.33971000  0.23208000  1.0
  H  H16  1  0.33971000  0.09123000  0.73208000  1.0
  H  H17  1  0.90876000  0.66029000  0.76792000  1.0
  H  H18  1  0.75973000  0.79910000  0.36546000  1.0
  H  H19  1  0.20090000  0.24028000  0.13454000  1.0
  H  H20  1  0.24028000  0.20090000  0.63454000  1.0
  H  H21  1  0.79909000  0.75973000  0.86546000  1.0
  H  H22  1  0.31265000  0.84547000  0.22019000  1.0
  H  H23  1  0.15453000  0.68736000  0.27982000  1.0
  H  H24  1  0.68736000  0.15453000  0.77982000  1.0
  H  H25  1  0.84547000  0.31265000  0.72018000  1.0
  H  H26  1  0.69354000  0.45106000  0.31639000  1.0
  H  H27  1  0.54894000  0.30645000  0.18361000  1.0
  H  H28  1  0.30645000  0.54894000  0.68361000  1.0
  H  H29  1  0.45106000  0.69354000  0.81639000  1.0
  H  H30  1  0.83407000  0.88386000  0.57791000  1.0
  H  H31  1  0.11614000  0.16592000  0.92209000  1.0
  H  H32  1  0.16592000  0.11614000  0.42209000  1.0
  H  H33  1  0.88386000  0.83407000  0.07791000  1.0
  C  C34  1  0.42047000  0.56253000  0.37879000  1.0
  C  C35  1  0.43747000  0.57953000  0.12120000  1.0
  C  C36  1  0.57953000  0.43747000  0.62121000  1.0
  C  C37  1  0.56253000  0.42047000  0.87879000  1.0
  C  C38  1  0.63418000  0.77785000  0.29870000  1.0
  C  C39  1  0.22215000  0.36582000  0.20130000  1.0
  C  C40  1  0.36582000  0.22215000  0.70130000  1.0
  C  C41  1  0.77785000  0.63418000  0.79870000  1.0
  C  C42  1  0.28643000  0.71357000  0.25000000  1.0
  C  C43  1  0.71358000  0.28643000  0.75000000  1.0
  C  C44  1  0.56861000  0.43138000  0.25000000  1.0
  C  C45  1  0.43138000  0.56862000  0.75000000  1.0
  N  N46  1  0.45661000  0.74449000  0.34104000  1.0
  N  N47  1  0.25551000  0.54340000  0.15896000  1.0
  N  N48  1  0.54339000  0.25551000  0.65896000  1.0
  N  N49  1  0.74449000  0.45661000  0.84104000  1.0
  N  N50  1  0.39066000  0.39262000  0.29044000  1.0
  N  N51  1  0.60738000  0.60934000  0.20956000  1.0
  N  N52  1  0.60934000  0.60738000  0.70956000  1.0
  N  N53  1  0.39262000  0.39066000  0.79044000  1.0
  N  N54  1  0.88624000  0.25786000  0.42997000  1.0
  N  N55  1  0.74214000  0.11376000  0.07002000  1.0
  N  N56  1  0.11376000  0.74214000  0.57002000  1.0
  N  N57  1  0.25786000  0.88624000  0.92998000  1.0
  O  O58  1  0.72447000  0.90423000  0.60522000  1.0
  O  O59  1  0.09577000  0.27552000  0.89479000  1.0
  O  O60  1  0.27552000  0.09577000  0.39479000  1.0
  O  O61  1  0.90423000  0.72448000  0.10522000  1.0
  O  O62  1  0.70955000  0.23707000  0.43332000  1.0
  O  O63  1  0.76294000  0.29045000  0.06668000  1.0
  O  O64  1  0.29045000  0.76294000  0.56668000  1.0
  O  O65  1  0.23707000  0.70955000  0.93332000  1.0
  O  O66  1  0.96998000  0.15926000  0.47589000  1.0
  O  O67  1  0.84073000  0.03001000  0.02410000  1.0
  O  O68  1  0.03002000  0.84073000  0.52410000  1.0
  O  O69  1  0.15926000  0.96998000  0.97589000  1.0
  O  O70  1  0.96976000  0.37471000  0.38043000  1.0
  O  O71  1  0.62529000  0.03024000  0.11958000  1.0
  O  O72  1  0.03024000  0.62530000  0.61958000  1.0
  O  O73  1  0.37471000  0.96976000  0.88043000  1.0
